MODEL 3
REMARK VINA RESULT: -10.167643013      1.995     10.606
REMARK  11 active torsions:
REMARK  status: ('A' for Active; 'I' for Inactive)
REMARK    1  A    between atoms: C2_2  and  C4_4 
REMARK    2  A    between atoms: C4_4  and  C5_5 
REMARK    3  A    between atoms: C5_5  and  N1_6 
REMARK    4  A    between atoms: N1_6  and  C6_7 
REMARK    5  A    between atoms: N1_6  and  C19_25 
REMARK    6  A    between atoms: C6_7  and  O1_8 
REMARK    7  A    between atoms: C6_7  and  N2_10 
REMARK    8  A    between atoms: N2_10  and  C8_12 
REMARK    9  A    between atoms: C11_15  and  C12_16 
REMARK   10  A    between atoms: C23_29  and  N4_30 
REMARK       I    between atoms: N4_30  and  C24_32 
REMARK   11  A    between atoms: C24_32  and  C25_34 
ROOT
HETATM    1  N1  UNL     1      -5.924  27.535  13.150  1.00  0.00    -0.288 N 
ENDROOT
BRANCH   1   2
HETATM    2  C5  UNL     1      -6.852  28.565  13.521  1.00  0.00     0.101 C 
BRANCH   2   3
HETATM    3  C4  UNL     1      -7.538  28.641  14.765  1.00  0.00     0.020 C 
BRANCH   3   4
HETATM    4  C2  UNL     1      -8.766  28.750  15.159  1.00  0.00    -0.086 C 
HETATM    5  C1  UNL     1      -9.127  29.472  16.450  1.00  0.00     0.043 C 
HETATM    6  C3  UNL     1      -9.912  28.178  14.436  1.00  0.00     0.043 C 
ENDBRANCH   3   4
ENDBRANCH   2   3
ENDBRANCH   1   2
BRANCH   1   7
HETATM    7  C6  UNL     1      -4.597  27.928  12.907  1.00  0.00     0.226 C 
BRANCH   7   8
HETATM    8  O1  UNL     1      -4.378  29.178  13.281  1.00  0.00    -0.332 OA
ATOM      9  H1  UNL     1      -3.570  29.520  12.916  1.00  0.00     0.221 HD
ENDBRANCH   7   8
BRANCH   7  10
HETATM   10  N2  UNL     1      -3.479  27.307  12.376  1.00  0.00    -0.347 N 
HETATM   11  C7  UNL     1      -3.280  27.588  10.898  1.00  0.00     0.153 C 
BRANCH  10  12
HETATM   12  C8  UNL     1      -2.440  26.524  12.918  1.00  0.00     0.087 C 
HETATM   13  C9  UNL     1      -2.502  26.363  14.432  1.00  0.00     0.026 C 
HETATM   14  C10 UNL     1      -1.805  25.173  14.959  1.00  0.00     0.011 C 
HETATM   15  C11 UNL     1      -0.659  24.623  14.182  1.00  0.00     0.019 C 
HETATM   16  C17 UNL     1      -0.623  24.961  12.727  1.00  0.00     0.011 C 
HETATM   17  C18 UNL     1      -2.104  25.200  12.314  1.00  0.00     0.026 C 
BRANCH  15  18
HETATM   18  C12 UNL     1       0.648  24.815  14.860  1.00  0.00    -0.051 A 
HETATM   19  C13 UNL     1       1.449  23.714  15.093  1.00  0.00     0.024 A 
HETATM   20  C14 UNL     1       2.672  23.879  15.706  1.00  0.00     0.088 A 
HETATM   21  N3  UNL     1       3.072  25.107  16.070  1.00  0.00    -0.375 N 
HETATM   22  C15 UNL     1       2.319  26.193  15.858  1.00  0.00     0.088 A 
ATOM     23  H3  UNL     1       3.980  25.216  16.523  1.00  0.00     0.164 HD
HETATM   24  C16 UNL     1       1.088  26.075  15.248  1.00  0.00     0.024 A 
ENDBRANCH  15  18
ENDBRANCH  10  12
ENDBRANCH   7  10
ENDBRANCH   1   7
BRANCH   1  25
HETATM   25  C19 UNL     1      -6.425  26.198  13.179  1.00  0.00     0.044 A 
HETATM   26  C20 UNL     1      -5.548  25.117  13.076  1.00  0.00     0.030 A 
HETATM   27  C21 UNL     1      -6.019  23.816  13.137  1.00  0.00     0.004 A 
HETATM   28  C22 UNL     1      -7.367  23.617  13.301  1.00  0.00     0.029 A 
HETATM   29  C23 UNL     1      -8.286  24.663  13.408  1.00  0.00     0.037 A 
HETATM   30  C31 UNL     1      -7.769  25.927  13.340  1.00  0.00     0.059 A 
BRANCH  29  31
HETATM   31  N4  UNL     1      -9.643  24.311  13.568  1.00  0.00    -0.323 N 
HETATM   32  C24 UNL     1     -10.338  24.085  14.764  1.00  0.00     0.256 C 
HETATM   33  O2  UNL     1      -9.718  24.197  15.848  1.00  0.00    -0.267 OA
ATOM     34  H4  UNL     1     -10.183  24.208  12.710  1.00  0.00     0.169 HD
BRANCH  32  35
HETATM   35  C25 UNL     1     -11.763  23.723  14.852  1.00  0.00     0.032 A 
HETATM   36  C26 UNL     1     -12.272  22.560  14.333  1.00  0.00     0.017 A 
HETATM   37  C27 UNL     1     -13.637  22.251  14.433  1.00  0.00     0.001 A 
HETATM   38  C28 UNL     1     -14.521  23.118  15.067  1.00  0.00     0.000 A 
HETATM   39  C29 UNL     1     -13.998  24.272  15.579  1.00  0.00     0.001 A 
HETATM   40  C30 UNL     1     -12.651  24.588  15.484  1.00  0.00     0.017 A 
ENDBRANCH  32  35
ENDBRANCH  29  31
ENDBRANCH   1  25
TORSDOF 11
ENDMDL
