MODEL 2
REMARK VINA RESULT: -10.576594837      1.314      1.654
REMARK  11 active torsions:
REMARK  status: ('A' for Active; 'I' for Inactive)
REMARK    1  A    between atoms: C2_2  and  C4_4 
REMARK    2  A    between atoms: C4_4  and  C5_5 
REMARK    3  A    between atoms: C5_5  and  N1_6 
REMARK    4  A    between atoms: N1_6  and  C6_7 
REMARK    5  A    between atoms: N1_6  and  C19_25 
REMARK    6  A    between atoms: C6_7  and  O1_8 
REMARK    7  A    between atoms: C6_7  and  N2_10 
REMARK    8  A    between atoms: N2_10  and  C8_12 
REMARK    9  A    between atoms: C11_15  and  C12_16 
REMARK   10  A    between atoms: C23_29  and  N4_30 
REMARK       I    between atoms: N4_30  and  C24_32 
REMARK   11  A    between atoms: C24_32  and  C25_34 
ROOT
HETATM    1  N1  UNL     1      -7.265  26.341  13.366  1.00  0.00    -0.288 N 
ENDROOT
BRANCH   1   2
HETATM    2  C5  UNL     1      -8.263  27.317  13.034  1.00  0.00     0.101 C 
BRANCH   2   3
HETATM    3  C4  UNL     1      -9.110  27.973  13.970  1.00  0.00     0.020 C 
BRANCH   3   4
HETATM    4  C2  UNL     1      -9.096  28.222  15.240  1.00  0.00    -0.086 C 
HETATM    5  C1  UNL     1      -9.554  29.565  15.793  1.00  0.00     0.043 C 
HETATM    6  C3  UNL     1      -8.621  27.272  16.257  1.00  0.00     0.043 C 
ENDBRANCH   3   4
ENDBRANCH   2   3
ENDBRANCH   1   2
BRANCH   1   7
HETATM    7  C6  UNL     1      -7.662  24.993  13.359  1.00  0.00     0.226 C 
BRANCH   7   8
HETATM    8  O1  UNL     1      -7.141  24.331  12.338  1.00  0.00    -0.332 OA
ATOM      9  H1  UNL     1      -6.765  23.502  12.610  1.00  0.00     0.221 HD
ENDBRANCH   7   8
BRANCH   7  10
HETATM   10  N2  UNL     1      -8.461  24.209  14.176  1.00  0.00    -0.347 N 
HETATM   11  C7  UNL     1      -7.776  23.790  15.462  1.00  0.00     0.153 C 
BRANCH  10  12
HETATM   12  C8  UNL     1      -9.798  23.769  14.110  1.00  0.00     0.087 C 
HETATM   13  C9  UNL     1     -10.827  24.836  14.460  1.00  0.00     0.026 C 
HETATM   14  C10 UNL     1     -12.176  24.604  13.904  1.00  0.00     0.011 C 
HETATM   15  C11 UNL     1     -12.597  23.200  13.635  1.00  0.00     0.019 C 
HETATM   16  C17 UNL     1     -11.498  22.204  13.446  1.00  0.00     0.011 C 
HETATM   17  C18 UNL     1     -10.282  23.016  12.915  1.00  0.00     0.026 C 
BRANCH  15  18
HETATM   18  C12 UNL     1     -13.664  22.728  14.553  1.00  0.00    -0.051 A 
HETATM   19  C13 UNL     1     -13.844  21.370  14.728  1.00  0.00     0.024 A 
HETATM   20  C14 UNL     1     -14.819  20.917  15.589  1.00  0.00     0.088 A 
HETATM   21  N3  UNL     1     -15.585  21.800  16.249  1.00  0.00    -0.375 N 
HETATM   22  C15 UNL     1     -15.435  23.122  16.101  1.00  0.00     0.088 A 
ATOM     23  H3  UNL     1     -16.303  21.452  16.885  1.00  0.00     0.164 HD
HETATM   24  C16 UNL     1     -14.472  23.620  15.249  1.00  0.00     0.024 A 
ENDBRANCH  15  18
ENDBRANCH  10  12
ENDBRANCH   7  10
ENDBRANCH   1   7
BRANCH   1  25
HETATM   25  C19 UNL     1      -5.940  26.837  13.557  1.00  0.00     0.044 A 
HETATM   26  C20 UNL     1      -5.658  28.188  13.346  1.00  0.00     0.030 A 
HETATM   27  C21 UNL     1      -4.385  28.687  13.562  1.00  0.00     0.004 A 
HETATM   28  C22 UNL     1      -3.408  27.822  13.988  1.00  0.00     0.029 A 
HETATM   29  C23 UNL     1      -3.637  26.463  14.213  1.00  0.00     0.037 A 
HETATM   30  C31 UNL     1      -4.911  26.022  13.984  1.00  0.00     0.059 A 
BRANCH  29  31
HETATM   31  N4  UNL     1      -2.538  25.690  14.645  1.00  0.00    -0.323 N 
HETATM   32  C24 UNL     1      -1.581  25.037  13.855  1.00  0.00     0.256 C 
HETATM   33  O2  UNL     1      -1.675  25.122  12.608  1.00  0.00    -0.267 OA
ATOM     34  H4  UNL     1      -2.427  25.595  15.654  1.00  0.00     0.169 HD
BRANCH  32  35
HETATM   35  C25 UNL     1      -0.454  24.248  14.381  1.00  0.00     0.032 A 
HETATM   36  C26 UNL     1      -0.624  23.114  15.135  1.00  0.00     0.017 A 
HETATM   37  C27 UNL     1       0.475  22.391  15.621  1.00  0.00     0.001 A 
HETATM   38  C28 UNL     1       1.777  22.800  15.353  1.00  0.00     0.000 A 
HETATM   39  C29 UNL     1       1.928  23.931  14.601  1.00  0.00     0.001 A 
HETATM   40  C30 UNL     1       0.848  24.656  14.116  1.00  0.00     0.017 A 
ENDBRANCH  32  35
ENDBRANCH  29  31
ENDBRANCH   1  25
TORSDOF 11
ENDMDL
