MODEL 17
REMARK VINA RESULT: -9.515167249      1.399      1.714
REMARK  10 active torsions:
REMARK  status: ('A' for Active; 'I' for Inactive)
REMARK    1  A    between atoms: C4_4  and  C5_5 
REMARK    2  A    between atoms: C5_5  and  N1_6 
REMARK    3  A    between atoms: N1_6  and  C6_7 
REMARK    4  A    between atoms: N1_6  and  C19_25 
REMARK    5  A    between atoms: C6_7  and  O1_8 
REMARK    6  A    between atoms: C6_7  and  N2_10 
REMARK    7  A    between atoms: N2_10  and  C8_12 
REMARK    8  A    between atoms: C11_15  and  C12_16 
REMARK    9  A    between atoms: C23_29  and  O2_30 
REMARK   10  A    between atoms: O2_30  and  C24_31 
ROOT
HETATM    1  N1  UNL     1      -6.487  27.075  13.521  1.00  0.00    -0.310 N 
ENDROOT
BRANCH   1   2
HETATM    2  C5  UNL     1      -7.737  27.740  13.275  1.00  0.00     0.160 C 
BRANCH   2   3
HETATM    3  C4  UNL     1      -8.124  28.471  14.524  1.00  0.00    -0.005 C 
HETATM    4  C2  UNL     1      -9.260  28.476  15.138  1.00  0.00    -0.090 C 
HETATM    5  C1  UNL     1      -9.408  29.303  16.390  1.00  0.00     0.042 C 
HETATM    6  C3  UNL     1     -10.431  27.697  14.720  1.00  0.00     0.042 C 
ENDBRANCH   2   3
ENDBRANCH   1   2
BRANCH   1   7
HETATM    7  C6  UNL     1      -5.180  27.446  13.280  1.00  0.00     0.222 C 
BRANCH   7   8
HETATM    8  O1  UNL     1      -4.857  28.608  13.806  1.00  0.00    -0.332 OA
ATOM      9  H1  UNL     1      -4.061  28.979  13.447  1.00  0.00     0.221 HD
ENDBRANCH   7   8
BRANCH   7  10
HETATM   10  N2  UNL     1      -4.121  26.853  12.598  1.00  0.00    -0.347 N 
HETATM   11  C7  UNL     1      -3.922  26.880  11.158  1.00  0.00     0.153 C 
BRANCH  10  12
HETATM   12  C8  UNL     1      -3.076  26.129  13.355  1.00  0.00     0.087 C 
HETATM   13  C9  UNL     1      -2.071  25.480  12.475  1.00  0.00     0.026 C 
HETATM   14  C10 UNL     1      -0.652  25.764  12.816  1.00  0.00     0.011 C 
HETATM   15  C11 UNL     1      -0.308  25.755  14.270  1.00  0.00     0.019 C 
HETATM   16  C17 UNL     1      -1.459  26.184  15.156  1.00  0.00     0.011 C 
HETATM   17  C18 UNL     1      -2.368  27.047  14.306  1.00  0.00     0.026 C 
BRANCH  15  18
HETATM   18  C12 UNL     1       0.296  24.486  14.723  1.00  0.00    -0.051 A 
HETATM   19  C13 UNL     1      -0.474  23.424  15.184  1.00  0.00     0.024 A 
HETATM   20  C14 UNL     1       0.148  22.264  15.594  1.00  0.00     0.088 A 
HETATM   21  N3  UNL     1       1.466  22.101  15.574  1.00  0.00    -0.375 N 
HETATM   22  C15 UNL     1       2.240  23.093  15.140  1.00  0.00     0.088 A 
ATOM     23  H3  UNL     1       1.881  21.223  15.888  1.00  0.00     0.164 HD
HETATM   24  C16 UNL     1       1.661  24.280  14.715  1.00  0.00     0.024 A 
ENDBRANCH  15  18
ENDBRANCH  10  12
ENDBRANCH   7  10
ENDBRANCH   1   7
BRANCH   1  25
HETATM   25  C19 UNL     1      -6.681  25.780  14.198  1.00  0.00     0.040 A 
HETATM   26  C20 UNL     1      -5.758  25.416  15.134  1.00  0.00     0.030 A 
HETATM   27  C21 UNL     1      -5.948  24.191  15.770  1.00  0.00     0.005 A 
HETATM   28  C22 UNL     1      -7.029  23.395  15.451  1.00  0.00     0.037 A 
HETATM   29  C23 UNL     1      -7.956  23.775  14.503  1.00  0.00     0.078 A 
HETATM   30  C30 UNL     1      -7.756  24.997  13.876  1.00  0.00     0.067 A 
BRANCH  29  31
HETATM   31  O2  UNL     1      -9.044  22.965  14.189  1.00  0.00    -0.311 OA
BRANCH  31  32
HETATM   32  C24 UNL     1     -10.343  23.345  14.496  1.00  0.00     0.076 A 
HETATM   33  C25 UNL     1     -11.361  23.110  13.615  1.00  0.00     0.037 A 
HETATM   34  C26 UNL     1     -12.676  23.468  13.870  1.00  0.00     0.003 A 
HETATM   35  C27 UNL     1     -12.961  24.086  15.060  1.00  0.00     0.000 A 
HETATM   36  C28 UNL     1     -11.945  24.340  15.980  1.00  0.00     0.003 A 
HETATM   37  C29 UNL     1     -10.649  23.976  15.705  1.00  0.00     0.037 A 
ENDBRANCH  31  32
ENDBRANCH  29  31
ENDBRANCH   1  25
TORSDOF 10
ENDMDL
