MODEL 7
REMARK VINA RESULT: -9.990757441      1.169      1.534
REMARK  10 active torsions:
REMARK  status: ('A' for Active; 'I' for Inactive)
REMARK    1  A    between atoms: C4_4  and  C5_5 
REMARK    2  A    between atoms: C5_5  and  N1_6 
REMARK    3  A    between atoms: N1_6  and  C6_7 
REMARK    4  A    between atoms: N1_6  and  C19_25 
REMARK    5  A    between atoms: C6_7  and  O1_8 
REMARK    6  A    between atoms: C6_7  and  N2_10 
REMARK    7  A    between atoms: N2_10  and  C8_12 
REMARK    8  A    between atoms: C11_15  and  C12_16 
REMARK    9  A    between atoms: C23_29  and  O2_30 
REMARK   10  A    between atoms: O2_30  and  C24_31 
ROOT
HETATM    1  N1  UNL     1      -6.377  26.959  13.814  1.00  0.00    -0.310 N 
ENDROOT
BRANCH   1   2
HETATM    2  C5  UNL     1      -7.414  27.892  13.465  1.00  0.00     0.160 C 
BRANCH   2   3
HETATM    3  C4  UNL     1      -7.882  28.552  14.726  1.00  0.00    -0.005 C 
HETATM    4  C2  UNL     1      -9.080  28.623  15.204  1.00  0.00    -0.090 C 
HETATM    5  C1  UNL     1      -9.304  29.353  16.504  1.00  0.00     0.042 C 
HETATM    6  C3  UNL     1     -10.258  28.009  14.580  1.00  0.00     0.042 C 
ENDBRANCH   2   3
ENDBRANCH   1   2
BRANCH   1   7
HETATM    7  C6  UNL     1      -5.002  27.032  13.731  1.00  0.00     0.222 C 
BRANCH   7   8
HETATM    8  O1  UNL     1      -4.464  27.845  14.614  1.00  0.00    -0.332 OA
ATOM      9  H1  UNL     1      -4.462  27.496  15.498  1.00  0.00     0.221 HD
ENDBRANCH   7   8
BRANCH   7  10
HETATM   10  N2  UNL     1      -4.053  26.427  12.912  1.00  0.00    -0.347 N 
HETATM   11  C7  UNL     1      -4.022  26.498  11.459  1.00  0.00     0.153 C 
BRANCH  10  12
HETATM   12  C8  UNL     1      -2.958  25.639  13.518  1.00  0.00     0.087 C 
HETATM   13  C9  UNL     1      -1.652  26.347  13.490  1.00  0.00     0.026 C 
HETATM   14  C10 UNL     1      -0.932  26.402  14.788  1.00  0.00     0.011 C 
HETATM   15  C11 UNL     1      -0.945  25.150  15.603  1.00  0.00     0.019 C 
HETATM   16  C17 UNL     1      -2.198  24.323  15.403  1.00  0.00     0.011 C 
HETATM   17  C18 UNL     1      -3.280  25.274  14.937  1.00  0.00     0.026 C 
BRANCH  15  18
HETATM   18  C12 UNL     1       0.282  24.340  15.458  1.00  0.00    -0.051 A 
HETATM   19  C13 UNL     1       1.533  24.921  15.287  1.00  0.00     0.024 A 
HETATM   20  C14 UNL     1       2.642  24.112  15.156  1.00  0.00     0.088 A 
HETATM   21  N3  UNL     1       2.582  22.786  15.186  1.00  0.00    -0.375 N 
HETATM   22  C15 UNL     1       1.402  22.190  15.349  1.00  0.00     0.088 A 
ATOM     23  H3  UNL     1       3.430  22.228  15.086  1.00  0.00     0.164 HD
HETATM   24  C16 UNL     1       0.257  22.961  15.485  1.00  0.00     0.024 A 
ENDBRANCH  15  18
ENDBRANCH  10  12
ENDBRANCH   7  10
ENDBRANCH   1   7
BRANCH   1  25
HETATM   25  C19 UNL     1      -6.928  25.727  14.407  1.00  0.00     0.040 A 
HETATM   26  C20 UNL     1      -6.465  25.359  15.636  1.00  0.00     0.030 A 
HETATM   27  C21 UNL     1      -6.990  24.195  16.191  1.00  0.00     0.005 A 
HETATM   28  C22 UNL     1      -7.937  23.458  15.508  1.00  0.00     0.037 A 
HETATM   29  C23 UNL     1      -8.398  23.840  14.266  1.00  0.00     0.078 A 
HETATM   30  C30 UNL     1      -7.867  25.003  13.724  1.00  0.00     0.067 A 
BRANCH  29  31
HETATM   31  O2  UNL     1      -9.354  23.090  13.586  1.00  0.00    -0.311 OA
BRANCH  31  32
HETATM   32  C24 UNL     1     -10.711  23.327  13.749  1.00  0.00     0.076 A 
HETATM   33  C25 UNL     1     -11.634  22.484  13.198  1.00  0.00     0.037 A 
HETATM   34  C26 UNL     1     -13.002  22.673  13.329  1.00  0.00     0.003 A 
HETATM   35  C27 UNL     1     -13.441  23.757  14.045  1.00  0.00     0.000 A 
HETATM   36  C28 UNL     1     -12.525  24.636  14.621  1.00  0.00     0.003 A 
HETATM   37  C29 UNL     1     -11.175  24.428  14.477  1.00  0.00     0.037 A 
ENDBRANCH  31  32
ENDBRANCH  29  31
ENDBRANCH   1  25
TORSDOF 10
ENDMDL
