MODEL 8
REMARK VINA RESULT: -9.953682233      1.107      1.538
REMARK  10 active torsions:
REMARK  status: ('A' for Active; 'I' for Inactive)
REMARK    1  A    between atoms: C4_4  and  C5_5 
REMARK    2  A    between atoms: C5_5  and  N1_6 
REMARK    3  A    between atoms: N1_6  and  C6_7 
REMARK    4  A    between atoms: N1_6  and  C19_25 
REMARK    5  A    between atoms: C6_7  and  O1_8 
REMARK    6  A    between atoms: C6_7  and  N2_10 
REMARK    7  A    between atoms: N2_10  and  C8_12 
REMARK    8  A    between atoms: C11_15  and  C12_16 
REMARK    9  A    between atoms: C23_29  and  O2_30 
REMARK   10  A    between atoms: O2_30  and  C24_31 
ROOT
HETATM    1  N1  UNL     1      -6.522  25.716  13.286  1.00  0.00    -0.310 N 
ENDROOT
BRANCH   1   2
HETATM    2  C5  UNL     1      -7.314  26.885  13.018  1.00  0.00     0.160 C 
BRANCH   2   3
HETATM    3  C4  UNL     1      -6.934  27.937  14.015  1.00  0.00    -0.005 C 
HETATM    4  C2  UNL     1      -7.678  28.523  14.894  1.00  0.00    -0.090 C 
HETATM    5  C1  UNL     1      -7.060  29.563  15.794  1.00  0.00     0.042 C 
HETATM    6  C3  UNL     1      -9.098  28.224  15.109  1.00  0.00     0.042 C 
ENDBRANCH   2   3
ENDBRANCH   1   2
BRANCH   1   7
HETATM    7  C6  UNL     1      -5.307  25.289  12.790  1.00  0.00     0.222 C 
BRANCH   7   8
HETATM    8  O1  UNL     1      -5.153  23.984  12.831  1.00  0.00    -0.332 OA
ATOM      9  H1  UNL     1      -5.207  23.568  11.979  1.00  0.00     0.221 HD
ENDBRANCH   7   8
BRANCH   7  10
HETATM   10  N2  UNL     1      -4.204  25.944  12.250  1.00  0.00    -0.347 N 
HETATM   11  C7  UNL     1      -4.242  26.903  11.158  1.00  0.00     0.153 C 
BRANCH  10  12
HETATM   12  C8  UNL     1      -2.856  25.685  12.802  1.00  0.00     0.087 C 
HETATM   13  C9  UNL     1      -2.822  25.723  14.286  1.00  0.00     0.026 C 
HETATM   14  C10 UNL     1      -2.175  24.554  14.937  1.00  0.00     0.011 C 
HETATM   15  C11 UNL     1      -0.922  24.053  14.297  1.00  0.00     0.019 C 
HETATM   16  C17 UNL     1      -0.892  24.269  12.798  1.00  0.00     0.011 C 
HETATM   17  C18 UNL     1      -2.333  24.357  12.340  1.00  0.00     0.026 C 
BRANCH  15  18
HETATM   18  C12 UNL     1       0.309  24.541  14.951  1.00  0.00    -0.051 A 
HETATM   19  C13 UNL     1       0.470  25.871  15.322  1.00  0.00     0.024 A 
HETATM   20  C14 UNL     1       1.644  26.266  15.929  1.00  0.00     0.088 A 
HETATM   21  N3  UNL     1       2.646  25.434  16.184  1.00  0.00    -0.375 N 
HETATM   22  C15 UNL     1       2.532  24.152  15.844  1.00  0.00     0.088 A 
ATOM     23  H3  UNL     1       3.496  25.774  16.636  1.00  0.00     0.164 HD
HETATM   24  C16 UNL     1       1.371  23.705  15.231  1.00  0.00     0.024 A 
ENDBRANCH  15  18
ENDBRANCH  10  12
ENDBRANCH   7  10
ENDBRANCH   1   7
BRANCH   1  25
HETATM   25  C19 UNL     1      -7.138  24.864  14.320  1.00  0.00     0.040 A 
HETATM   26  C20 UNL     1      -6.461  24.712  15.493  1.00  0.00     0.030 A 
HETATM   27  C21 UNL     1      -7.049  23.906  16.466  1.00  0.00     0.005 A 
HETATM   28  C22 UNL     1      -8.264  23.297  16.231  1.00  0.00     0.037 A 
HETATM   29  C23 UNL     1      -8.941  23.459  15.040  1.00  0.00     0.078 A 
HETATM   30  C30 UNL     1      -8.345  24.264  14.079  1.00  0.00     0.067 A 
BRANCH  29  31
HETATM   31  O2  UNL     1     -10.167  22.841  14.813  1.00  0.00    -0.311 OA
BRANCH  31  32
HETATM   32  C24 UNL     1     -11.337  23.576  14.689  1.00  0.00     0.076 A 
HETATM   33  C25 UNL     1     -12.267  23.247  13.743  1.00  0.00     0.037 A 
HETATM   34  C26 UNL     1     -13.452  23.946  13.575  1.00  0.00     0.003 A 
HETATM   35  C27 UNL     1     -13.697  25.015  14.398  1.00  0.00     0.000 A 
HETATM   36  C28 UNL     1     -12.769  25.377  15.373  1.00  0.00     0.003 A 
HETATM   37  C29 UNL     1     -11.601  24.669  15.520  1.00  0.00     0.037 A 
ENDBRANCH  31  32
ENDBRANCH  29  31
ENDBRANCH   1  25
TORSDOF 10
ENDMDL
