MODEL 3
REMARK VINA RESULT: -10.485818676      1.282      1.895
REMARK  10 active torsions:
REMARK  status: ('A' for Active; 'I' for Inactive)
REMARK    1  A    between atoms: C4_4  and  C5_5 
REMARK    2  A    between atoms: C5_5  and  N1_6 
REMARK    3  A    between atoms: N1_6  and  C6_7 
REMARK    4  A    between atoms: N1_6  and  C19_25 
REMARK    5  A    between atoms: C6_7  and  O1_8 
REMARK    6  A    between atoms: C6_7  and  N2_10 
REMARK    7  A    between atoms: N2_10  and  C8_12 
REMARK    8  A    between atoms: C11_15  and  C12_16 
REMARK    9  A    between atoms: C23_29  and  O2_30 
REMARK   10  A    between atoms: O2_30  and  C24_31 
ROOT
HETATM    1  N1  UNL     1      -6.846  26.199  14.084  1.00  0.00    -0.310 N 
ENDROOT
BRANCH   1   2
HETATM    2  C5  UNL     1      -7.706  27.176  13.474  1.00  0.00     0.160 C 
BRANCH   2   3
HETATM    3  C4  UNL     1      -8.074  28.182  14.523  1.00  0.00    -0.005 C 
HETATM    4  C2  UNL     1      -9.248  28.516  14.944  1.00  0.00    -0.090 C 
HETATM    5  C1  UNL     1      -9.365  29.568  16.017  1.00  0.00     0.042 C 
HETATM    6  C3  UNL     1     -10.501  27.914  14.471  1.00  0.00     0.042 C 
ENDBRANCH   2   3
ENDBRANCH   1   2
BRANCH   1   7
HETATM    7  C6  UNL     1      -5.476  26.030  14.060  1.00  0.00     0.222 C 
BRANCH   7   8
HETATM    8  O1  UNL     1      -4.807  27.134  14.308  1.00  0.00    -0.332 OA
ATOM      9  H1  UNL     1      -5.153  27.632  15.039  1.00  0.00     0.221 HD
ENDBRANCH   7   8
BRANCH   7  10
HETATM   10  N2  UNL     1      -4.645  24.937  13.833  1.00  0.00    -0.347 N 
HETATM   11  C7  UNL     1      -5.083  23.614  13.417  1.00  0.00     0.153 C 
BRANCH  10  12
HETATM   12  C8  UNL     1      -3.183  25.080  14.007  1.00  0.00     0.087 C 
HETATM   13  C9  UNL     1      -2.697  24.522  15.295  1.00  0.00     0.026 C 
HETATM   14  C10 UNL     1      -1.544  23.590  15.188  1.00  0.00     0.011 C 
HETATM   15  C11 UNL     1      -0.466  23.981  14.232  1.00  0.00     0.019 C 
HETATM   16  C17 UNL     1      -0.979  24.777  13.050  1.00  0.00     0.011 C 
HETATM   17  C18 UNL     1      -2.442  24.419  12.883  1.00  0.00     0.026 C 
BRANCH  15  18
HETATM   18  C12 UNL     1       0.688  24.635  14.881  1.00  0.00    -0.051 A 
HETATM   19  C13 UNL     1       1.860  23.945  15.172  1.00  0.00     0.024 A 
HETATM   20  C14 UNL     1       2.904  24.611  15.780  1.00  0.00     0.088 A 
HETATM   21  N3  UNL     1       2.852  25.896  16.108  1.00  0.00    -0.375 N 
HETATM   22  C15 UNL     1       1.748  26.593  15.846  1.00  0.00     0.088 A 
ATOM     23  H3  UNL     1       3.651  26.346  16.556  1.00  0.00     0.164 HD
HETATM   24  C16 UNL     1       0.671  25.968  15.236  1.00  0.00     0.024 A 
ENDBRANCH  15  18
ENDBRANCH  10  12
ENDBRANCH   7  10
ENDBRANCH   1   7
BRANCH   1  25
HETATM   25  C19 UNL     1      -7.605  25.245  14.914  1.00  0.00     0.040 A 
HETATM   26  C20 UNL     1      -7.159  25.023  16.183  1.00  0.00     0.030 A 
HETATM   27  C21 UNL     1      -7.881  24.121  16.962  1.00  0.00     0.005 A 
HETATM   28  C22 UNL     1      -8.995  23.490  16.450  1.00  0.00     0.037 A 
HETATM   29  C23 UNL     1      -9.438  23.722  15.165  1.00  0.00     0.078 A 
HETATM   30  C30 UNL     1      -8.710  24.623  14.399  1.00  0.00     0.067 A 
BRANCH  29  31
HETATM   31  O2  UNL     1     -10.565  23.081  14.659  1.00  0.00    -0.311 OA
BRANCH  31  32
HETATM   32  C24 UNL     1     -11.762  23.757  14.473  1.00  0.00     0.076 A 
HETATM   33  C25 UNL     1     -12.162  24.716  15.360  1.00  0.00     0.037 A 
HETATM   34  C26 UNL     1     -13.347  25.422  15.224  1.00  0.00     0.003 A 
HETATM   35  C27 UNL     1     -14.150  25.141  14.149  1.00  0.00     0.000 A 
HETATM   36  C28 UNL     1     -13.770  24.168  13.225  1.00  0.00     0.003 A 
HETATM   37  C29 UNL     1     -12.591  23.481  13.382  1.00  0.00     0.037 A 
ENDBRANCH  31  32
ENDBRANCH  29  31
ENDBRANCH   1  25
TORSDOF 10
ENDMDL
