MODEL 4
REMARK VINA RESULT: -10.244426375      2.066      9.786
REMARK  10 active torsions:
REMARK  status: ('A' for Active; 'I' for Inactive)
REMARK    1  A    between atoms: C4_4  and  C5_5 
REMARK    2  A    between atoms: C5_5  and  N1_6 
REMARK    3  A    between atoms: N1_6  and  C6_7 
REMARK    4  A    between atoms: N1_6  and  C19_25 
REMARK    5  A    between atoms: C6_7  and  O1_8 
REMARK    6  A    between atoms: C6_7  and  N2_10 
REMARK    7  A    between atoms: N2_10  and  C8_12 
REMARK    8  A    between atoms: C11_15  and  C12_16 
REMARK    9  A    between atoms: C23_29  and  O2_30 
REMARK   10  A    between atoms: O2_30  and  C24_31 
ROOT
HETATM    1  N1  UNL     1      -5.480  26.134  13.425  1.00  0.00    -0.310 N 
ENDROOT
BRANCH   1   2
HETATM    2  C5  UNL     1      -6.329  27.209  12.990  1.00  0.00     0.160 C 
BRANCH   2   3
HETATM    3  C4  UNL     1      -6.501  28.153  14.141  1.00  0.00    -0.005 C 
HETATM    4  C2  UNL     1      -7.587  28.490  14.754  1.00  0.00    -0.090 C 
HETATM    5  C1  UNL     1      -7.505  29.473  15.894  1.00  0.00     0.042 C 
HETATM    6  C3  UNL     1      -8.916  27.953  14.440  1.00  0.00     0.042 C 
ENDBRANCH   2   3
ENDBRANCH   1   2
BRANCH   1   7
HETATM    7  C6  UNL     1      -5.757  24.851  13.852  1.00  0.00     0.222 C 
BRANCH   7   8
HETATM    8  O1  UNL     1      -5.359  23.920  13.013  1.00  0.00    -0.332 OA
ATOM      9  H1  UNL     1      -4.562  24.145  12.549  1.00  0.00     0.221 HD
ENDBRANCH   7   8
BRANCH   7  10
HETATM   10  N2  UNL     1      -6.368  24.326  14.987  1.00  0.00    -0.347 N 
HETATM   11  C7  UNL     1      -5.681  23.692  16.101  1.00  0.00     0.153 C 
BRANCH  10  12
HETATM   12  C8  UNL     1      -7.840  24.399  15.127  1.00  0.00     0.087 C 
HETATM   13  C9  UNL     1      -8.552  24.225  13.835  1.00  0.00     0.026 C 
HETATM   14  C10 UNL     1      -9.644  23.217  13.843  1.00  0.00     0.011 C 
HETATM   15  C11 UNL     1     -10.526  23.208  15.048  1.00  0.00     0.019 C 
HETATM   16  C17 UNL     1      -9.812  23.643  16.311  1.00  0.00     0.011 C 
HETATM   17  C18 UNL     1      -8.338  23.368  16.097  1.00  0.00     0.026 C 
BRANCH  15  18
HETATM   18  C12 UNL     1     -11.797  23.936  14.852  1.00  0.00    -0.051 A 
HETATM   19  C13 UNL     1     -12.746  23.526  13.923  1.00  0.00     0.024 A 
HETATM   20  C14 UNL     1     -13.913  24.247  13.786  1.00  0.00     0.088 A 
HETATM   21  N3  UNL     1     -14.187  25.330  14.504  1.00  0.00    -0.375 N 
HETATM   22  C15 UNL     1     -13.304  25.755  15.406  1.00  0.00     0.088 A 
ATOM     23  H3  UNL     1     -15.065  25.831  14.367  1.00  0.00     0.164 HD
HETATM   24  C16 UNL     1     -12.115  25.063  15.581  1.00  0.00     0.024 A 
ENDBRANCH  15  18
ENDBRANCH  10  12
ENDBRANCH   7  10
ENDBRANCH   1   7
BRANCH   1  25
HETATM   25  C19 UNL     1      -4.053  26.497  13.342  1.00  0.00     0.040 A 
HETATM   26  C20 UNL     1      -3.591  26.959  12.146  1.00  0.00     0.030 A 
HETATM   27  C21 UNL     1      -2.242  27.301  12.075  1.00  0.00     0.005 A 
HETATM   28  C22 UNL     1      -1.427  27.170  13.179  1.00  0.00     0.037 A 
HETATM   29  C23 UNL     1      -1.906  26.702  14.385  1.00  0.00     0.078 A 
HETATM   30  C30 UNL     1      -3.251  26.364  14.444  1.00  0.00     0.067 A 
BRANCH  29  31
HETATM   31  O2  UNL     1      -1.074  26.574  15.495  1.00  0.00    -0.311 OA
BRANCH  31  32
HETATM   32  C24 UNL     1       0.005  25.702  15.494  1.00  0.00     0.076 A 
HETATM   33  C25 UNL     1       1.282  26.178  15.593  1.00  0.00     0.037 A 
HETATM   34  C26 UNL     1       2.396  25.354  15.598  1.00  0.00     0.003 A 
HETATM   35  C27 UNL     1       2.202  24.000  15.499  1.00  0.00     0.000 A 
HETATM   36  C28 UNL     1       0.912  23.482  15.398  1.00  0.00     0.003 A 
HETATM   37  C29 UNL     1      -0.177  24.319  15.395  1.00  0.00     0.037 A 
ENDBRANCH  31  32
ENDBRANCH  29  31
ENDBRANCH   1  25
TORSDOF 10
ENDMDL
