MODEL 2
REMARK VINA RESULT: -10.528372221      2.385      9.760
REMARK  10 active torsions:
REMARK  status: ('A' for Active; 'I' for Inactive)
REMARK    1  A    between atoms: C4_4  and  C5_5 
REMARK    2  A    between atoms: C5_5  and  N1_6 
REMARK    3  A    between atoms: N1_6  and  C6_7 
REMARK    4  A    between atoms: N1_6  and  C19_25 
REMARK    5  A    between atoms: C6_7  and  O1_8 
REMARK    6  A    between atoms: C6_7  and  N2_10 
REMARK    7  A    between atoms: N2_10  and  C8_12 
REMARK    8  A    between atoms: C11_15  and  C12_16 
REMARK    9  A    between atoms: C23_29  and  O2_30 
REMARK   10  A    between atoms: O2_30  and  C24_31 
ROOT
HETATM    1  N1  UNL     1      -4.791  27.666  13.943  1.00  0.00    -0.310 N 
ENDROOT
BRANCH   1   2
HETATM    2  C5  UNL     1      -5.084  28.995  14.407  1.00  0.00     0.160 C 
BRANCH   2   3
HETATM    3  C4  UNL     1      -6.556  29.074  14.675  1.00  0.00    -0.005 C 
HETATM    4  C2  UNL     1      -7.161  29.442  15.756  1.00  0.00    -0.090 C 
HETATM    5  C1  UNL     1      -8.668  29.435  15.785  1.00  0.00     0.042 C 
HETATM    6  C3  UNL     1      -6.480  29.905  16.970  1.00  0.00     0.042 C 
ENDBRANCH   2   3
ENDBRANCH   1   2
BRANCH   1   7
HETATM    7  C6  UNL     1      -5.605  26.595  13.633  1.00  0.00     0.222 C 
BRANCH   7   8
HETATM    8  O1  UNL     1      -6.027  26.600  12.388  1.00  0.00    -0.332 OA
ATOM      9  H1  UNL     1      -6.757  26.012  12.233  1.00  0.00     0.221 HD
ENDBRANCH   7   8
BRANCH   7  10
HETATM   10  N2  UNL     1      -6.076  25.504  14.356  1.00  0.00    -0.347 N 
HETATM   11  C7  UNL     1      -5.277  24.662  15.233  1.00  0.00     0.153 C 
BRANCH  10  12
HETATM   12  C8  UNL     1      -7.504  25.128  14.269  1.00  0.00     0.087 C 
HETATM   13  C9  UNL     1      -7.715  23.658  14.245  1.00  0.00     0.026 C 
HETATM   14  C10 UNL     1      -8.713  23.143  15.218  1.00  0.00     0.011 C 
HETATM   15  C11 UNL     1      -9.960  23.949  15.373  1.00  0.00     0.019 C 
HETATM   16  C17 UNL     1      -9.745  25.429  15.135  1.00  0.00     0.011 C 
HETATM   17  C18 UNL     1      -8.283  25.710  15.412  1.00  0.00     0.026 C 
BRANCH  15  18
HETATM   18  C12 UNL     1     -11.101  23.424  14.596  1.00  0.00    -0.051 A 
HETATM   19  C13 UNL     1     -12.400  23.880  14.790  1.00  0.00     0.024 A 
HETATM   20  C14 UNL     1     -13.423  23.350  14.034  1.00  0.00     0.088 A 
HETATM   21  N3  UNL     1     -13.236  22.412  13.113  1.00  0.00    -0.375 N 
HETATM   22  C15 UNL     1     -12.007  21.948  12.895  1.00  0.00     0.088 A 
ATOM     23  H3  UNL     1     -14.025  22.050  12.577  1.00  0.00     0.164 HD
HETATM   24  C16 UNL     1     -10.943  22.450  13.631  1.00  0.00     0.024 A 
ENDBRANCH  15  18
ENDBRANCH  10  12
ENDBRANCH   7  10
ENDBRANCH   1   7
BRANCH   1  25
HETATM   25  C19 UNL     1      -3.346  27.467  13.731  1.00  0.00     0.040 A 
HETATM   26  C20 UNL     1      -2.865  27.648  12.468  1.00  0.00     0.030 A 
HETATM   27  C21 UNL     1      -1.499  27.460  12.275  1.00  0.00     0.005 A 
HETATM   28  C22 UNL     1      -0.684  27.103  13.330  1.00  0.00     0.037 A 
HETATM   29  C23 UNL     1      -1.182  26.923  14.603  1.00  0.00     0.078 A 
HETATM   30  C30 UNL     1      -2.545  27.114  14.784  1.00  0.00     0.067 A 
BRANCH  29  31
HETATM   31  O2  UNL     1      -0.351  26.564  15.662  1.00  0.00    -0.311 OA
BRANCH  31  32
HETATM   32  C24 UNL     1       0.505  25.476  15.574  1.00  0.00     0.076 A 
HETATM   33  C25 UNL     1       1.858  25.660  15.512  1.00  0.00     0.037 A 
HETATM   34  C26 UNL     1       2.759  24.611  15.424  1.00  0.00     0.003 A 
HETATM   35  C27 UNL     1       2.265  23.332  15.398  1.00  0.00     0.000 A 
HETATM   36  C28 UNL     1       0.890  23.109  15.460  1.00  0.00     0.003 A 
HETATM   37  C29 UNL     1       0.016  24.166  15.546  1.00  0.00     0.037 A 
ENDBRANCH  31  32
ENDBRANCH  29  31
ENDBRANCH   1  25
TORSDOF 10
ENDMDL
