MODEL 1
REMARK VINA RESULT: -10.707310048      0.000      0.000
REMARK  10 active torsions:
REMARK  status: ('A' for Active; 'I' for Inactive)
REMARK    1  A    between atoms: C4_4  and  C5_5 
REMARK    2  A    between atoms: C5_5  and  N1_6 
REMARK    3  A    between atoms: N1_6  and  C6_7 
REMARK    4  A    between atoms: N1_6  and  C19_25 
REMARK    5  A    between atoms: C6_7  and  O1_8 
REMARK    6  A    between atoms: C6_7  and  N2_10 
REMARK    7  A    between atoms: N2_10  and  C8_12 
REMARK    8  A    between atoms: C11_15  and  C12_16 
REMARK    9  A    between atoms: C23_29  and  O2_30 
REMARK   10  A    between atoms: O2_30  and  C24_31 
ROOT
HETATM    1  N1  UNL     1      -6.857  25.438  13.373  1.00  0.00    -0.310 N 
ENDROOT
BRANCH   1   2
HETATM    2  C5  UNL     1      -7.693  26.483  12.848  1.00  0.00     0.160 C 
BRANCH   2   3
HETATM    3  C4  UNL     1      -7.786  27.561  13.884  1.00  0.00    -0.005 C 
HETATM    4  C2  UNL     1      -8.829  27.985  14.518  1.00  0.00    -0.090 C 
HETATM    5  C1  UNL     1      -8.669  29.096  15.524  1.00  0.00     0.042 C 
HETATM    6  C3  UNL     1     -10.179  27.433  14.353  1.00  0.00     0.042 C 
ENDBRANCH   2   3
ENDBRANCH   1   2
BRANCH   1   7
HETATM    7  C6  UNL     1      -5.536  25.110  13.144  1.00  0.00     0.222 C 
BRANCH   7   8
HETATM    8  O1  UNL     1      -5.361  23.857  12.784  1.00  0.00    -0.332 OA
ATOM      9  H1  UNL     1      -4.588  23.457  13.165  1.00  0.00     0.221 HD
ENDBRANCH   7   8
BRANCH   7  10
HETATM   10  N2  UNL     1      -4.342  25.821  13.209  1.00  0.00    -0.347 N 
HETATM   11  C7  UNL     1      -4.148  27.190  12.757  1.00  0.00     0.153 C 
BRANCH  10  12
HETATM   12  C8  UNL     1      -3.138  25.182  13.785  1.00  0.00     0.087 C 
HETATM   13  C9  UNL     1      -1.879  25.869  13.401  1.00  0.00     0.026 C 
HETATM   14  C10 UNL     1      -0.967  26.201  14.527  1.00  0.00     0.011 C 
HETATM   15  C11 UNL     1      -0.809  25.153  15.579  1.00  0.00     0.019 C 
HETATM   16  C17 UNL     1      -2.048  24.301  15.759  1.00  0.00     0.011 C 
HETATM   17  C18 UNL     1      -3.223  25.129  15.282  1.00  0.00     0.026 C 
BRANCH  15  18
HETATM   18  C12 UNL     1       0.408  24.332  15.414  1.00  0.00    -0.051 A 
HETATM   19  C13 UNL     1       0.389  22.948  15.547  1.00  0.00     0.024 A 
HETATM   20  C14 UNL     1       1.558  22.237  15.382  1.00  0.00     0.088 A 
HETATM   21  N3  UNL     1       2.722  22.808  15.098  1.00  0.00    -0.375 N 
HETATM   22  C15 UNL     1       2.784  24.132  14.962  1.00  0.00     0.088 A 
ATOM     23  H3  UNL     1       3.561  22.240  14.985  1.00  0.00     0.164 HD
HETATM   24  C16 UNL     1       1.633  24.891  15.118  1.00  0.00     0.024 A 
ENDBRANCH  15  18
ENDBRANCH  10  12
ENDBRANCH   7  10
ENDBRANCH   1   7
BRANCH   1  25
HETATM   25  C19 UNL     1      -7.569  24.615  14.367  1.00  0.00     0.040 A 
HETATM   26  C20 UNL     1      -6.976  24.447  15.583  1.00  0.00     0.030 A 
HETATM   27  C21 UNL     1      -7.655  23.670  16.519  1.00  0.00     0.005 A 
HETATM   28  C22 UNL     1      -8.872  23.101  16.207  1.00  0.00     0.037 A 
HETATM   29  C23 UNL     1      -9.462  23.278  14.973  1.00  0.00     0.078 A 
HETATM   30  C30 UNL     1      -8.777  24.055  14.049  1.00  0.00     0.067 A 
BRANCH  29  31
HETATM   31  O2  UNL     1     -10.692  22.701  14.668  1.00  0.00    -0.311 OA
BRANCH  31  32
HETATM   32  C24 UNL     1     -11.825  23.475  14.461  1.00  0.00     0.076 A 
HETATM   33  C25 UNL     1     -12.596  23.294  13.348  1.00  0.00     0.037 A 
HETATM   34  C26 UNL     1     -13.737  24.038  13.092  1.00  0.00     0.003 A 
HETATM   35  C27 UNL     1     -14.103  24.998  14.000  1.00  0.00     0.000 A 
HETATM   36  C28 UNL     1     -13.338  25.207  15.147  1.00  0.00     0.003 A 
HETATM   37  C29 UNL     1     -12.211  24.457  15.379  1.00  0.00     0.037 A 
ENDBRANCH  31  32
ENDBRANCH  29  31
ENDBRANCH   1  25
TORSDOF 10
ENDMDL
