MODEL 5
REMARK VINA RESULT: -10.034178683      2.089      8.556
REMARK  10 active torsions:
REMARK  status: ('A' for Active; 'I' for Inactive)
REMARK    1  A    between atoms: C4_4  and  C5_5 
REMARK    2  A    between atoms: C5_5  and  N1_6 
REMARK    3  A    between atoms: N1_6  and  C6_7 
REMARK    4  A    between atoms: N1_6  and  C19_25 
REMARK    5  A    between atoms: C6_7  and  O1_8 
REMARK    6  A    between atoms: C6_7  and  N2_10 
REMARK    7  A    between atoms: N2_10  and  C8_12 
REMARK    8  A    between atoms: C11_15  and  C12_16 
REMARK    9  A    between atoms: C23_29  and  O2_30 
REMARK   10  A    between atoms: O2_30  and  C24_31 
ROOT
HETATM    1  N1  UNL     1      -3.579  24.894  14.805  1.00  0.00    -0.310 N 
ENDROOT
BRANCH   1   2
HETATM    2  C5  UNL     1      -2.364  25.031  15.560  1.00  0.00     0.160 C 
BRANCH   2   3
HETATM    3  C4  UNL     1      -1.707  23.685  15.623  1.00  0.00    -0.005 C 
HETATM    4  C2  UNL     1      -0.453  23.404  15.752  1.00  0.00    -0.090 C 
HETATM    5  C1  UNL     1      -0.030  21.958  15.786  1.00  0.00     0.042 C 
HETATM    6  C3  UNL     1       0.610  24.406  15.902  1.00  0.00     0.042 C 
ENDBRANCH   2   3
ENDBRANCH   1   2
BRANCH   1   7
HETATM    7  C6  UNL     1      -4.556  23.919  14.796  1.00  0.00     0.222 C 
BRANCH   7   8
HETATM    8  O1  UNL     1      -4.395  23.023  13.846  1.00  0.00    -0.332 OA
ATOM      9  H1  UNL     1      -5.212  22.678  13.507  1.00  0.00     0.221 HD
ENDBRANCH   7   8
BRANCH   7  10
HETATM   10  N2  UNL     1      -5.679  23.674  15.579  1.00  0.00    -0.347 N 
HETATM   11  C7  UNL     1      -5.679  23.480  17.021  1.00  0.00     0.153 C 
BRANCH  10  12
HETATM   12  C8  UNL     1      -7.014  23.603  14.945  1.00  0.00     0.087 C 
HETATM   13  C9  UNL     1      -8.099  23.301  15.913  1.00  0.00     0.026 C 
HETATM   14  C10 UNL     1      -9.271  24.214  15.859  1.00  0.00     0.011 C 
HETATM   15  C11 UNL     1      -9.742  24.602  14.495  1.00  0.00     0.019 C 
HETATM   16  C17 UNL     1      -8.627  24.649  13.472  1.00  0.00     0.011 C 
HETATM   17  C18 UNL     1      -7.340  24.884  14.236  1.00  0.00     0.026 C 
BRANCH  15  18
HETATM   18  C12 UNL     1     -10.894  23.809  14.023  1.00  0.00    -0.051 A 
HETATM   19  C13 UNL     1     -10.737  22.569  13.415  1.00  0.00     0.024 A 
HETATM   20  C14 UNL     1     -11.852  21.875  12.994  1.00  0.00     0.088 A 
HETATM   21  N3  UNL     1     -13.090  22.333  13.140  1.00  0.00    -0.375 N 
HETATM   22  C15 UNL     1     -13.284  23.517  13.717  1.00  0.00     0.088 A 
ATOM     23  H3  UNL     1     -13.884  21.783  12.813  1.00  0.00     0.164 HD
HETATM   24  C16 UNL     1     -12.194  24.253  14.158  1.00  0.00     0.024 A 
ENDBRANCH  15  18
ENDBRANCH  10  12
ENDBRANCH   7  10
ENDBRANCH   1   7
BRANCH   1  25
HETATM   25  C19 UNL     1      -3.807  26.051  13.921  1.00  0.00     0.040 A 
HETATM   26  C20 UNL     1      -3.236  26.018  12.684  1.00  0.00     0.030 A 
HETATM   27  C21 UNL     1      -3.456  27.115  11.853  1.00  0.00     0.005 A 
HETATM   28  C22 UNL     1      -4.221  28.179  12.285  1.00  0.00     0.037 A 
HETATM   29  C23 UNL     1      -4.794  28.201  13.539  1.00  0.00     0.078 A 
HETATM   30  C30 UNL     1      -4.568  27.102  14.358  1.00  0.00     0.067 A 
BRANCH  29  31
HETATM   31  O2  UNL     1      -5.564  29.279  13.965  1.00  0.00    -0.311 OA
BRANCH  31  32
HETATM   32  C24 UNL     1      -6.791  29.093  14.587  1.00  0.00     0.076 A 
HETATM   33  C25 UNL     1      -7.036  29.637  15.816  1.00  0.00     0.037 A 
HETATM   34  C26 UNL     1      -8.242  29.482  16.482  1.00  0.00     0.003 A 
HETATM   35  C27 UNL     1      -9.229  28.750  15.875  1.00  0.00     0.000 A 
HETATM   36  C28 UNL     1      -9.011  28.182  14.621  1.00  0.00     0.003 A 
HETATM   37  C29 UNL     1      -7.807  28.349  13.980  1.00  0.00     0.037 A 
ENDBRANCH  31  32
ENDBRANCH  29  31
ENDBRANCH   1  25
TORSDOF 10
ENDMDL
