MODEL 2
REMARK VINA RESULT: -8.482195979      3.276      7.268
REMARK  9 active torsions:
REMARK  status: ('A' for Active; 'I' for Inactive)
REMARK    1  A    between atoms: O1_2  and  C2_3 
REMARK    2  A    between atoms: C4_5  and  N1_6 
REMARK    3  A    between atoms: N1_6  and  C5_8 
REMARK    4  A    between atoms: C11_17  and  O2_18 
REMARK    5  A    between atoms: O2_18  and  C12_19 
REMARK    6  A    between atoms: C12_19  and  C13_20 
REMARK    7  A    between atoms: C13_20  and  C14_21 
REMARK    8  A    between atoms: C14_21  and  N4_22 
REMARK    9  A    between atoms: C20_29  and  O3_30 
ROOT
HETATM    1  C5  UNL     1      -0.016   2.251   9.671  1.00  0.00     0.067 A 
HETATM    2  C6  UNL     1       1.219   1.663   9.750  1.00  0.00     0.087 A 
HETATM    3  C7  UNL     1       1.399   0.335  10.321  1.00  0.00     0.103 C 
HETATM    4  N2  UNL     1       1.540  -0.713  10.778  1.00  0.00    -0.191 NA
HETATM    5  C8  UNL     1       2.308   2.369   9.268  1.00  0.00     0.113 A 
HETATM    6  N3  UNL     1       2.134   3.594   8.743  1.00  0.00    -0.364 N 
ATOM      7  H3  UNL     1       2.953   4.092   8.397  1.00  0.00     0.165 HD
HETATM    8  C9  UNL     1       0.936   4.196   8.651  1.00  0.00     0.047 A 
HETATM    9  C10 UNL     1       0.825   5.479   8.090  1.00  0.00     0.070 A 
HETATM   10  C11 UNL     1      -0.403   6.087   7.999  1.00  0.00     0.104 A 
HETATM   11  C20 UNL     1      -1.537   5.393   8.482  1.00  0.00     0.102 A 
HETATM   12  C22 UNL     1      -1.370   4.146   9.020  1.00  0.00     0.055 A 
HETATM   13  C23 UNL     1      -0.153   3.503   9.127  1.00  0.00     0.022 A 
ENDROOT
BRANCH   1  14
HETATM   14  N1  UNL     1      -1.146   1.554  10.155  1.00  0.00    -0.353 N 
ATOM     15  H1  UNL     1      -1.336   0.623   9.782  1.00  0.00     0.166 HD
BRANCH  14  16
HETATM   16  C4  UNL     1      -2.028   2.075  11.130  1.00  0.00     0.057 A 
HETATM   17  C3  UNL     1      -3.134   2.770  10.741  1.00  0.00     0.069 A 
HETATM   18  C2  UNL     1      -4.011   3.290  11.690  1.00  0.00     0.092 A 
HETATM   19  C26 UNL     1      -3.799   3.125  13.044  1.00  0.00     0.069 A 
HETATM   20  C25 UNL     1      -2.676   2.422  13.430  1.00  0.00     0.052 A 
HETATM   21 CL2  UNL     1      -4.904   3.780  14.244  1.00  0.00    -0.081 Cl
HETATM   22  C24 UNL     1      -1.796   1.900  12.476  1.00  0.00     0.062 A 
HETATM   23 CL1  UNL     1      -0.371   1.008  12.953  1.00  0.00    -0.082 Cl
BRANCH  18  24
HETATM   24  O1  UNL     1      -5.137   3.995  11.308  1.00  0.00    -0.354 OA
HETATM   25  C1  UNL     1      -5.078   5.416  11.172  1.00  0.00     0.210 C 
ENDBRANCH  18  24
ENDBRANCH  14  16
ENDBRANCH   1  14
BRANCH  11  26
HETATM   26  O3  UNL     1      -2.749   6.053   8.366  1.00  0.00    -0.353 OA
HETATM   27  C21 UNL     1      -3.829   5.434   7.705  1.00  0.00     0.210 C 
ENDBRANCH  11  26
BRANCH  10  28
HETATM   28  O2  UNL     1      -0.567   7.323   7.458  1.00  0.00    -0.348 OA
BRANCH  28  29
HETATM   29  C12 UNL     1      -0.385   7.672   6.132  1.00  0.00     0.177 C 
BRANCH  29  30
HETATM   30  C13 UNL     1      -1.579   7.303   5.315  1.00  0.00     0.057 C 
BRANCH  30  31
HETATM   31  C14 UNL     1      -1.411   6.192   4.348  1.00  0.00     0.274 C 
BRANCH  31  32
HETATM   32  N4  UNL     1      -0.615   5.082   4.678  1.00  0.00     0.091 N 
HETATM   33  C15 UNL     1       0.622   4.903   3.990  1.00  0.00     0.302 C 
HETATM   34  C16 UNL     1       1.520   4.042   4.898  1.00  0.00     0.302 C 
HETATM   35  N5  UNL     1       0.878   2.768   5.165  1.00  0.00     0.087 N 
HETATM   36  C17 UNL     1       0.944   1.858   4.047  1.00  0.00     0.310 C 
HETATM   37  C18 UNL     1      -0.466   2.910   5.639  1.00  0.00     0.302 C 
HETATM   38  C19 UNL     1      -1.323   3.805   4.762  1.00  0.00     0.302 C 
ENDBRANCH  31  32
ENDBRANCH  30  31
ENDBRANCH  29  30
ENDBRANCH  28  29
ENDBRANCH  10  28
TORSDOF 9
ENDMDL
