MODEL 3
REMARK VINA RESULT: -8.332628918      2.056      6.141
REMARK  9 active torsions:
REMARK  status: ('A' for Active; 'I' for Inactive)
REMARK    1  A    between atoms: O1_2  and  C2_3 
REMARK    2  A    between atoms: C4_5  and  N1_6 
REMARK    3  A    between atoms: N1_6  and  C5_8 
REMARK    4  A    between atoms: C11_17  and  O2_18 
REMARK    5  A    between atoms: O2_18  and  C12_19 
REMARK    6  A    between atoms: C12_19  and  C13_20 
REMARK    7  A    between atoms: C13_20  and  C14_21 
REMARK    8  A    between atoms: C14_21  and  N4_22 
REMARK    9  A    between atoms: C20_29  and  O3_30 
ROOT
HETATM    1  C5  UNL     1      -4.782   5.262  10.419  1.00  0.00     0.067 A 
HETATM    2  C6  UNL     1      -5.526   6.209  11.072  1.00  0.00     0.087 A 
HETATM    3  C7  UNL     1      -6.108   7.343  10.369  1.00  0.00     0.103 C 
HETATM    4  N2  UNL     1      -6.563   8.243   9.811  1.00  0.00    -0.191 NA
HETATM    5  C8  UNL     1      -5.714   6.062  12.436  1.00  0.00     0.113 A 
HETATM    6  N3  UNL     1      -5.173   5.013  13.078  1.00  0.00    -0.364 N 
ATOM      7  H3  UNL     1      -5.326   4.930  14.083  1.00  0.00     0.165 HD
HETATM    8  C9  UNL     1      -4.439   4.068  12.465  1.00  0.00     0.047 A 
HETATM    9  C10 UNL     1      -3.902   2.996  13.197  1.00  0.00     0.070 A 
HETATM   10  C11 UNL     1      -3.155   2.034  12.563  1.00  0.00     0.104 A 
HETATM   11  C20 UNL     1      -2.943   2.154  11.170  1.00  0.00     0.102 A 
HETATM   12  C22 UNL     1      -3.489   3.220  10.507  1.00  0.00     0.055 A 
HETATM   13  C23 UNL     1      -4.246   4.205  11.110  1.00  0.00     0.022 A 
ENDROOT
BRANCH   1  14
HETATM   14  N1  UNL     1      -4.572   5.387   9.027  1.00  0.00    -0.353 N 
ATOM     15  H1  UNL     1      -5.389   5.399   8.415  1.00  0.00     0.166 HD
BRANCH  14  16
HETATM   16  C4  UNL     1      -3.292   5.496   8.435  1.00  0.00     0.057 A 
HETATM   17  C3  UNL     1      -2.816   4.481   7.660  1.00  0.00     0.069 A 
HETATM   18  C2  UNL     1      -1.557   4.574   7.071  1.00  0.00     0.092 A 
HETATM   19  C26 UNL     1      -0.752   5.681   7.246  1.00  0.00     0.069 A 
HETATM   20  C25 UNL     1      -1.241   6.703   8.034  1.00  0.00     0.052 A 
HETATM   21 CL2  UNL     1       0.837   5.802   6.505  1.00  0.00    -0.081 Cl
HETATM   22  C24 UNL     1      -2.506   6.610   8.625  1.00  0.00     0.062 A 
HETATM   23 CL1  UNL     1      -3.135   7.898   9.623  1.00  0.00    -0.082 Cl
BRANCH  18  24
HETATM   24  O1  UNL     1      -1.063   3.552   6.282  1.00  0.00    -0.354 OA
HETATM   25  C1  UNL     1      -1.551   3.376   4.952  1.00  0.00     0.210 C 
ENDBRANCH  18  24
ENDBRANCH  14  16
ENDBRANCH   1  14
BRANCH  11  26
HETATM   26  O3  UNL     1      -2.182   1.158  10.583  1.00  0.00    -0.353 OA
HETATM   27  C21 UNL     1      -2.733  -0.123  10.378  1.00  0.00     0.210 C 
ENDBRANCH  11  26
BRANCH  10  28
HETATM   28  O2  UNL     1      -2.620   0.974  13.223  1.00  0.00    -0.348 OA
BRANCH  28  29
HETATM   29  C12 UNL     1      -1.584   1.012  14.140  1.00  0.00     0.177 C 
BRANCH  29  30
HETATM   30  C13 UNL     1      -0.287   1.317  13.467  1.00  0.00     0.057 C 
BRANCH  30  31
HETATM   31  C14 UNL     1       0.343   0.218  12.698  1.00  0.00     0.274 C 
BRANCH  31  32
HETATM   32  N4  UNL     1       1.005   0.491  11.488  1.00  0.00     0.091 N 
HETATM   33  C15 UNL     1       0.891   1.798  10.930  1.00  0.00     0.302 C 
HETATM   34  C16 UNL     1       2.113   2.003  10.016  1.00  0.00     0.302 C 
HETATM   35  N5  UNL     1       2.133   0.989   8.978  1.00  0.00     0.087 N 
HETATM   36  C17 UNL     1       1.169   1.233   7.933  1.00  0.00     0.310 C 
HETATM   37  C18 UNL     1       2.008  -0.341   9.497  1.00  0.00     0.302 C 
HETATM   38  C19 UNL     1       0.830  -0.513  10.439  1.00  0.00     0.302 C 
ENDBRANCH  31  32
ENDBRANCH  30  31
ENDBRANCH  29  30
ENDBRANCH  28  29
ENDBRANCH  10  28
TORSDOF 9
ENDMDL
