MODEL 1
REMARK VINA RESULT: -8.492565546      0.000      0.000
REMARK  9 active torsions:
REMARK  status: ('A' for Active; 'I' for Inactive)
REMARK    1  A    between atoms: O1_2  and  C2_3 
REMARK    2  A    between atoms: C4_5  and  N1_6 
REMARK    3  A    between atoms: N1_6  and  C5_8 
REMARK    4  A    between atoms: C11_17  and  O2_18 
REMARK    5  A    between atoms: O2_18  and  C12_19 
REMARK    6  A    between atoms: C12_19  and  C13_20 
REMARK    7  A    between atoms: C13_20  and  C14_21 
REMARK    8  A    between atoms: C14_21  and  N4_22 
REMARK    9  A    between atoms: C20_29  and  O3_30 
ROOT
HETATM    1  C5  UNL     1       0.998   2.071   8.333  1.00  0.00     0.067 A 
HETATM    2  C6  UNL     1       2.169   2.783   8.352  1.00  0.00     0.087 A 
HETATM    3  C7  UNL     1       2.736   3.355   7.139  1.00  0.00     0.103 C 
HETATM    4  N2  UNL     1       3.186   3.802   6.178  1.00  0.00    -0.191 NA
HETATM    5  C8  UNL     1       2.810   2.949   9.568  1.00  0.00     0.113 A 
HETATM    6  N3  UNL     1       2.280   2.417  10.683  1.00  0.00    -0.364 N 
ATOM      7  H3  UNL     1       2.774   2.553  11.564  1.00  0.00     0.165 HD
HETATM    8  C9  UNL     1       1.134   1.715  10.696  1.00  0.00     0.047 A 
HETATM    9  C10 UNL     1       0.636   1.186  11.899  1.00  0.00     0.070 A 
HETATM   10  C11 UNL     1      -0.537   0.471  11.904  1.00  0.00     0.104 A 
HETATM   11  C20 UNL     1      -1.217   0.283  10.678  1.00  0.00     0.102 A 
HETATM   12  C22 UNL     1      -0.685   0.819   9.537  1.00  0.00     0.055 A 
HETATM   13  C23 UNL     1       0.489   1.544   9.493  1.00  0.00     0.022 A 
ENDROOT
BRANCH   1  14
HETATM   14  N1  UNL     1       0.322   1.885   7.106  1.00  0.00    -0.353 N 
ATOM     15  H1  UNL     1       0.221   0.935   6.749  1.00  0.00     0.166 HD
BRANCH  14  16
HETATM   16  C4  UNL     1      -0.223   2.946   6.345  1.00  0.00     0.057 A 
HETATM   17  C3  UNL     1      -0.987   3.895   6.957  1.00  0.00     0.069 A 
HETATM   18  C2  UNL     1      -1.531   4.945   6.221  1.00  0.00     0.092 A 
HETATM   19  C26 UNL     1      -1.322   5.066   4.862  1.00  0.00     0.069 A 
HETATM   20  C25 UNL     1      -0.548   4.101   4.251  1.00  0.00     0.052 A 
HETATM   21 CL2  UNL     1      -2.007   6.390   3.931  1.00  0.00    -0.081 Cl
HETATM   22  C24 UNL     1      -0.002   3.046   4.990  1.00  0.00     0.062 A 
HETATM   23 CL1  UNL     1       0.979   1.819   4.227  1.00  0.00    -0.082 Cl
BRANCH  18  24
HETATM   24  O1  UNL     1      -2.307   5.914   6.829  1.00  0.00    -0.354 OA
HETATM   25  C1  UNL     1      -3.418   5.533   7.642  1.00  0.00     0.210 C 
ENDBRANCH  18  24
ENDBRANCH  14  16
ENDBRANCH   1  14
BRANCH  11  26
HETATM   26  O3  UNL     1      -2.392  -0.446  10.741  1.00  0.00    -0.353 OA
HETATM   27  C21 UNL     1      -3.633   0.219  10.813  1.00  0.00     0.210 C 
ENDBRANCH  11  26
BRANCH  10  28
HETATM   28  O2  UNL     1      -1.065  -0.055  13.039  1.00  0.00    -0.348 OA
BRANCH  28  29
HETATM   29  C12 UNL     1      -1.566   0.652  14.119  1.00  0.00     0.177 C 
BRANCH  29  30
HETATM   30  C13 UNL     1      -2.073   1.990  13.690  1.00  0.00     0.057 C 
BRANCH  30  31
HETATM   31  C14 UNL     1      -3.506   2.274  13.940  1.00  0.00     0.274 C 
BRANCH  31  32
HETATM   32  N4  UNL     1      -4.209   3.156  13.102  1.00  0.00     0.091 N 
HETATM   33  C15 UNL     1      -3.623   3.522  11.854  1.00  0.00     0.302 C 
HETATM   34  C16 UNL     1      -4.773   3.959  10.929  1.00  0.00     0.302 C 
HETATM   35  N5  UNL     1      -5.488   5.076  11.521  1.00  0.00     0.087 N 
HETATM   36  C17 UNL     1      -4.774   6.324  11.410  1.00  0.00     0.310 C 
HETATM   37  C18 UNL     1      -5.889   4.826  12.873  1.00  0.00     0.302 C 
HETATM   38  C19 UNL     1      -4.754   4.344  13.759  1.00  0.00     0.302 C 
ENDBRANCH  31  32
ENDBRANCH  30  31
ENDBRANCH  29  30
ENDBRANCH  28  29
ENDBRANCH  10  28
TORSDOF 9
ENDMDL
