MODEL 2
REMARK VINA RESULT: -9.880331235      0.066      1.505
REMARK  9 active torsions:
REMARK  status: ('A' for Active; 'I' for Inactive)
REMARK    1  A    between atoms: O1_2  and  C2_3 
REMARK    2  A    between atoms: C5_6  and  N1_7 
REMARK    3  A    between atoms: N1_7  and  C6_9 
REMARK    4  A    between atoms: C9_13  and  O2_14 
REMARK    5  A    between atoms: C18_27  and  O3_28 
REMARK    6  A    between atoms: O3_28  and  C19_29 
REMARK    7  A    between atoms: C19_29  and  C20_30 
REMARK    8  A    between atoms: C20_30  and  C21_31 
REMARK    9  A    between atoms: C21_31  and  N4_32 
ROOT
HETATM    1  C2  UNL     1      -1.085   1.043  11.236  1.00  0.00     0.102 A 
HETATM    2  C3  UNL     1      -2.190   1.827  11.443  1.00  0.00     0.055 A 
HETATM    3  C4  UNL     1      -2.558   2.261  12.714  1.00  0.00     0.022 A 
HETATM    4  C5  UNL     1      -3.669   3.032  12.970  1.00  0.00     0.067 A 
HETATM    5  C13 UNL     1      -4.062   3.458  14.208  1.00  0.00     0.087 A 
HETATM    6  C14 UNL     1      -5.237   4.256  14.427  1.00  0.00     0.103 C 
HETATM    7  N2  UNL     1      -6.198   4.884  14.596  1.00  0.00    -0.191 NA
HETATM    8  C15 UNL     1      -3.253   3.067  15.286  1.00  0.00     0.113 A 
HETATM    9  N3  UNL     1      -2.162   2.312  15.053  1.00  0.00    -0.364 N 
ATOM     10  H3  UNL     1      -1.586   2.037  15.848  1.00  0.00     0.165 HD
HETATM   11  C16 UNL     1      -1.795   1.903  13.826  1.00  0.00     0.047 A 
HETATM   12  C17 UNL     1      -0.688   1.118  13.596  1.00  0.00     0.070 A 
HETATM   13  C18 UNL     1      -0.298   0.671  12.358  1.00  0.00     0.104 A 
ENDROOT
BRANCH   4  14
HETATM   14  N1  UNL     1      -4.438   3.424  11.839  1.00  0.00    -0.354 N 
ATOM     15  H1  UNL     1      -5.295   2.936  11.581  1.00  0.00     0.166 HD
BRANCH  14  16
HETATM   16  C6  UNL     1      -3.959   4.525  11.088  1.00  0.00     0.035 A 
HETATM   17  C7  UNL     1      -4.553   5.755  11.241  1.00  0.00     0.056 A 
HETATM   18  C8  UNL     1      -4.103   6.867  10.530  1.00  0.00     0.071 A 
HETATM   19 CL1  UNL     1      -4.904   8.411  10.760  1.00  0.00    -0.081 Cl
HETATM   20  C9  UNL     1      -3.047   6.747   9.659  1.00  0.00     0.111 A 
HETATM   21  C11 UNL     1      -2.440   5.510   9.498  1.00  0.00     0.071 A 
HETATM   22 CL2  UNL     1      -1.102   5.322   8.417  1.00  0.00    -0.081 Cl
HETATM   23  C12 UNL     1      -2.902   4.424  10.210  1.00  0.00     0.056 A 
BRANCH  20  24
HETATM   24  O2  UNL     1      -2.603   7.838   8.958  1.00  0.00    -0.352 OA
HETATM   25  C10 UNL     1      -3.020   8.192   7.652  1.00  0.00     0.210 C 
ENDBRANCH  20  24
ENDBRANCH  14  16
ENDBRANCH   4  14
BRANCH   1  26
HETATM   26  O1  UNL     1      -0.629   0.558  10.052  1.00  0.00    -0.353 OA
HETATM   27  C1  UNL     1      -0.089   1.421   9.064  1.00  0.00     0.210 C 
ENDBRANCH   1  26
BRANCH  13  28
HETATM   28  O3  UNL     1       0.811  -0.113  12.129  1.00  0.00    -0.348 OA
BRANCH  28  29
HETATM   29  C19 UNL     1       0.697  -1.503  11.952  1.00  0.00     0.177 C 
BRANCH  29  30
HETATM   30  C20 UNL     1       1.604  -1.961  10.827  1.00  0.00     0.057 C 
BRANCH  30  31
HETATM   31  C21 UNL     1       1.968  -3.417  10.866  1.00  0.00     0.274 C 
BRANCH  31  32
HETATM   32  N4  UNL     1       3.277  -3.496  10.170  1.00  0.00     0.091 N 
HETATM   33  C22 UNL     1       3.392  -2.625   9.065  1.00  0.00     0.302 C 
HETATM   34  C23 UNL     1       3.201  -3.168   7.700  1.00  0.00     0.302 C 
HETATM   35  N5  UNL     1       3.585  -4.532   7.494  1.00  0.00     0.087 N 
HETATM   36  C24 UNL     1       3.059  -5.005   6.232  1.00  0.00     0.310 C 
HETATM   37  C25 UNL     1       3.028  -5.364   8.569  1.00  0.00     0.302 C 
HETATM   38  C26 UNL     1       3.613  -4.851   9.872  1.00  0.00     0.302 C 
ENDBRANCH  31  32
ENDBRANCH  30  31
ENDBRANCH  29  30
ENDBRANCH  28  29
ENDBRANCH  13  28
TORSDOF 9
ENDMDL
