MODEL 1
REMARK VINA RESULT: -9.908197525      0.000      0.000
REMARK  9 active torsions:
REMARK  status: ('A' for Active; 'I' for Inactive)
REMARK    1  A    between atoms: O1_2  and  C2_3 
REMARK    2  A    between atoms: C5_6  and  N1_7 
REMARK    3  A    between atoms: N1_7  and  C6_9 
REMARK    4  A    between atoms: C9_13  and  O2_14 
REMARK    5  A    between atoms: C18_27  and  O3_28 
REMARK    6  A    between atoms: O3_28  and  C19_29 
REMARK    7  A    between atoms: C19_29  and  C20_30 
REMARK    8  A    between atoms: C20_30  and  C21_31 
REMARK    9  A    between atoms: C21_31  and  N4_32 
ROOT
HETATM    1  C2  UNL     1      -1.116   1.081  11.239  1.00  0.00     0.102 A 
HETATM    2  C3  UNL     1      -2.220   1.870  11.439  1.00  0.00     0.055 A 
HETATM    3  C4  UNL     1      -2.592   2.308  12.707  1.00  0.00     0.022 A 
HETATM    4  C5  UNL     1      -3.701   3.084  12.956  1.00  0.00     0.067 A 
HETATM    5  C13 UNL     1      -4.098   3.515  14.191  1.00  0.00     0.087 A 
HETATM    6  C14 UNL     1      -5.272   4.317  14.402  1.00  0.00     0.103 C 
HETATM    7  N2  UNL     1      -6.232   4.949  14.564  1.00  0.00    -0.191 NA
HETATM    8  C15 UNL     1      -3.296   3.124  15.273  1.00  0.00     0.113 A 
HETATM    9  N3  UNL     1      -2.206   2.365  15.048  1.00  0.00    -0.364 N 
ATOM     10  H3  UNL     1      -1.635   2.091  15.846  1.00  0.00     0.165 HD
HETATM   11  C16 UNL     1      -1.835   1.951  13.823  1.00  0.00     0.047 A 
HETATM   12  C17 UNL     1      -0.729   1.162  13.601  1.00  0.00     0.070 A 
HETATM   13  C18 UNL     1      -0.335   0.710  12.366  1.00  0.00     0.104 A 
ENDROOT
BRANCH   4  14
HETATM   14  N1  UNL     1      -4.464   3.475  11.820  1.00  0.00    -0.354 N 
ATOM     15  H1  UNL     1      -5.298   2.962  11.535  1.00  0.00     0.166 HD
BRANCH  14  16
HETATM   16  C6  UNL     1      -4.012   4.610  11.104  1.00  0.00     0.035 A 
HETATM   17  C7  UNL     1      -2.971   4.476  10.216  1.00  0.00     0.056 A 
HETATM   18  C8  UNL     1      -2.506   5.565   9.481  1.00  0.00     0.071 A 
HETATM   19 CL1  UNL     1      -1.169   5.337   8.368  1.00  0.00    -0.081 Cl
HETATM   20  C9  UNL     1      -3.089   6.801   9.634  1.00  0.00     0.111 A 
HETATM   21  C11 UNL     1      -4.141   6.945  10.526  1.00  0.00     0.071 A 
HETATM   22 CL2  UNL     1      -4.906   8.483  10.739  1.00  0.00    -0.081 Cl
HETATM   23  C12 UNL     1      -4.584   5.855  11.243  1.00  0.00     0.056 A 
BRANCH  20  24
HETATM   24  O2  UNL     1      -2.633   7.874   8.913  1.00  0.00    -0.352 OA
HETATM   25  C10 UNL     1      -3.052   8.213   7.604  1.00  0.00     0.210 C 
ENDBRANCH  20  24
ENDBRANCH  14  16
ENDBRANCH   4  14
BRANCH   1  26
HETATM   26  O1  UNL     1      -0.656   0.591  10.059  1.00  0.00    -0.353 OA
HETATM   27  C1  UNL     1      -0.080   1.445   9.084  1.00  0.00     0.210 C 
ENDBRANCH   1  26
BRANCH  13  28
HETATM   28  O3  UNL     1       0.772  -0.079  12.144  1.00  0.00    -0.348 OA
BRANCH  28  29
HETATM   29  C19 UNL     1       0.654  -1.468  11.963  1.00  0.00     0.177 C 
BRANCH  29  30
HETATM   30  C20 UNL     1       1.581  -1.930  10.857  1.00  0.00     0.057 C 
BRANCH  30  31
HETATM   31  C21 UNL     1       1.919  -3.392  10.889  1.00  0.00     0.274 C 
BRANCH  31  32
HETATM   32  N4  UNL     1       3.235  -3.490  10.209  1.00  0.00     0.091 N 
HETATM   33  C22 UNL     1       3.375  -2.621   9.106  1.00  0.00     0.302 C 
HETATM   34  C23 UNL     1       3.194  -3.161   7.739  1.00  0.00     0.302 C 
HETATM   35  N5  UNL     1       3.562  -4.529   7.537  1.00  0.00     0.087 N 
HETATM   36  C24 UNL     1       3.045  -4.995   6.268  1.00  0.00     0.310 C 
HETATM   37  C25 UNL     1       2.979  -5.354   8.605  1.00  0.00     0.302 C 
HETATM   38  C26 UNL     1       3.556  -4.850   9.915  1.00  0.00     0.302 C 
ENDBRANCH  31  32
ENDBRANCH  30  31
ENDBRANCH  29  30
ENDBRANCH  28  29
ENDBRANCH  13  28
TORSDOF 9
ENDMDL
