MODEL 3
REMARK VINA RESULT: -9.515652717      4.492      6.426
REMARK  9 active torsions:
REMARK  status: ('A' for Active; 'I' for Inactive)
REMARK    1  A    between atoms: O1_2  and  C2_3 
REMARK    2  A    between atoms: C5_6  and  N1_7 
REMARK    3  A    between atoms: N1_7  and  C6_9 
REMARK    4  A    between atoms: C9_13  and  O2_14 
REMARK    5  A    between atoms: C18_27  and  O3_28 
REMARK    6  A    between atoms: O3_28  and  C19_29 
REMARK    7  A    between atoms: C19_29  and  C20_30 
REMARK    8  A    between atoms: C20_30  and  C21_31 
REMARK    9  A    between atoms: C21_31  and  N4_32 
ROOT
HETATM    1  C2  UNL     1      -1.456   4.637   8.951  1.00  0.00     0.102 A 
HETATM    2  C3  UNL     1      -2.605   4.640   9.699  1.00  0.00     0.055 A 
HETATM    3  C4  UNL     1      -3.187   5.821  10.150  1.00  0.00     0.022 A 
HETATM    4  C5  UNL     1      -4.328   5.870  10.918  1.00  0.00     0.067 A 
HETATM    5  C13 UNL     1      -4.912   7.013  11.387  1.00  0.00     0.087 A 
HETATM    6  C14 UNL     1      -6.100   7.013  12.196  1.00  0.00     0.103 C 
HETATM    7  N2  UNL     1      -7.049   7.001  12.864  1.00  0.00    -0.191 NA
HETATM    8  C15 UNL     1      -4.282   8.219  11.045  1.00  0.00     0.113 A 
HETATM    9  N3  UNL     1      -3.164   8.190  10.294  1.00  0.00    -0.364 N 
ATOM     10  H3  UNL     1      -2.720   9.076  10.054  1.00  0.00     0.165 HD
HETATM   11  C16 UNL     1      -2.606   7.052   9.843  1.00  0.00     0.047 A 
HETATM   12  C17 UNL     1      -1.455   7.028   9.089  1.00  0.00     0.070 A 
HETATM   13  C18 UNL     1      -0.853   5.883   8.630  1.00  0.00     0.104 A 
ENDROOT
BRANCH   4  14
HETATM   14  N1  UNL     1      -4.943   4.621  11.213  1.00  0.00    -0.354 N 
ATOM     15  H1  UNL     1      -5.818   4.339  10.771  1.00  0.00     0.166 HD
BRANCH  14  16
HETATM   16  C6  UNL     1      -4.284   3.786  12.149  1.00  0.00     0.035 A 
HETATM   17  C7  UNL     1      -3.636   2.658  11.706  1.00  0.00     0.056 A 
HETATM   18  C8  UNL     1      -2.964   1.817  12.592  1.00  0.00     0.071 A 
HETATM   19 CL1  UNL     1      -2.161   0.386  11.971  1.00  0.00    -0.081 Cl
HETATM   20  C9  UNL     1      -2.939   2.110  13.935  1.00  0.00     0.111 A 
HETATM   21  C11 UNL     1      -3.588   3.247  14.391  1.00  0.00     0.071 A 
HETATM   22 CL2  UNL     1      -3.570   3.653  16.073  1.00  0.00    -0.081 Cl
HETATM   23  C12 UNL     1      -4.247   4.064  13.497  1.00  0.00     0.056 A 
BRANCH  20  24
HETATM   24  O2  UNL     1      -2.280   1.285  14.809  1.00  0.00    -0.352 OA
HETATM   25  C10 UNL     1      -0.912   1.396  15.160  1.00  0.00     0.210 C 
ENDBRANCH  20  24
ENDBRANCH  14  16
ENDBRANCH   4  14
BRANCH   1  26
HETATM   26  O1  UNL     1      -0.795   3.557   8.459  1.00  0.00    -0.353 OA
HETATM   27  C1  UNL     1      -0.438   2.471   9.298  1.00  0.00     0.210 C 
ENDBRANCH   1  26
BRANCH  13  28
HETATM   28  O3  UNL     1       0.298   5.860   7.875  1.00  0.00    -0.348 OA
BRANCH  28  29
HETATM   29  C19 UNL     1       1.537   6.244   8.419  1.00  0.00     0.177 C 
BRANCH  29  30
HETATM   30  C20 UNL     1       2.312   5.020   8.865  1.00  0.00     0.057 C 
BRANCH  30  31
HETATM   31  C21 UNL     1       2.737   4.106   7.752  1.00  0.00     0.274 C 
BRANCH  31  32
HETATM   32  N4  UNL     1       3.968   4.728   7.204  1.00  0.00     0.091 N 
HETATM   33  C22 UNL     1       4.182   4.463   5.834  1.00  0.00     0.302 C 
HETATM   34  C23 UNL     1       5.147   3.407   5.449  1.00  0.00     0.302 C 
HETATM   35  N5  UNL     1       6.257   3.203   6.330  1.00  0.00     0.087 N 
HETATM   36  C24 UNL     1       6.923   1.961   6.000  1.00  0.00     0.310 C 
HETATM   37  C25 UNL     1       5.772   3.115   7.714  1.00  0.00     0.302 C 
HETATM   38  C26 UNL     1       5.097   4.437   8.029  1.00  0.00     0.302 C 
ENDBRANCH  31  32
ENDBRANCH  30  31
ENDBRANCH  29  30
ENDBRANCH  28  29
ENDBRANCH  13  28
TORSDOF 9
ENDMDL
