MODEL 8
REMARK VINA RESULT: -9.287804355      3.716      6.153
REMARK  8 active torsions:
REMARK  status: ('A' for Active; 'I' for Inactive)
REMARK    1  A    between atoms: C3_5  and  N2_6 
REMARK    2  A    between atoms: N2_6  and  C4_8 
REMARK    3  A    between atoms: C6_12  and  C7_13 
REMARK       I    between atoms: C7_13  and  N4_15 
REMARK    4  A    between atoms: N4_15  and  C8_17 
REMARK    5  A    between atoms: C16_27  and  N5_28 
REMARK    6  A    between atoms: N6_31  and  C19_32 
REMARK    7  A    between atoms: C19_32  and  C20_33 
REMARK    8  A    between atoms: C20_33  and  O2_34 
ROOT
HETATM    1  N2  UNL     1      27.612   7.789  -0.060  1.00  0.00    -0.323 N 
ATOM      2  H2  UNL     1      28.269   8.530  -0.302  1.00  0.00     0.169 HD
ENDROOT
BRANCH   1   3
HETATM    3  C3  UNL     1      26.484   8.100   0.712  1.00  0.00     0.111 A 
HETATM    4  N1  UNL     1      25.742   7.087   1.209  1.00  0.00    -0.332 N 
HETATM    5  C2  UNL     1      24.672   7.367   1.942  1.00  0.00     0.080 A 
ATOM      6  H1  UNL     1      26.001   6.118   1.023  1.00  0.00     0.168 HD
HETATM    7  C1  UNL     1      23.863   6.258   2.486  1.00  0.00     0.089 C 
HETATM    8  N7  UNL     1      24.323   8.636   2.191  1.00  0.00    -0.332 N 
HETATM    9  C16 UNL     1      25.029   9.684   1.716  1.00  0.00     0.108 A 
ATOM     10  H7  UNL     1      23.495   8.817   2.758  1.00  0.00     0.168 HD
HETATM   11  C15 UNL     1      26.164   9.420   0.940  1.00  0.00     0.097 A 
BRANCH   9  12
HETATM   12  N5  UNL     1      24.651  11.014   1.987  1.00  0.00    -0.364 N 
HETATM   13  C17 UNL     1      25.306  12.098   1.304  1.00  0.00     0.154 C 
HETATM   14  C18 UNL     1      25.345  13.256   2.310  1.00  0.00     0.292 C 
HETATM   15  N6  UNL     1      24.047  13.727   2.671  1.00  0.00     0.093 N 
HETATM   16  C21 UNL     1      23.058  12.676   2.535  1.00  0.00     0.292 C 
HETATM   17  C22 UNL     1      23.616  11.308   2.940  1.00  0.00     0.154 C 
BRANCH  15  18
HETATM   18  C19 UNL     1      23.592  14.831   1.849  1.00  0.00     0.298 C 
BRANCH  18  19
HETATM   19  C20 UNL     1      22.416  14.476   0.985  1.00  0.00     0.194 C 
BRANCH  19  20
HETATM   20  O2  UNL     1      22.471  15.150  -0.240  1.00  0.00    -0.399 OA
ATOM     21  H2  UNL     1      22.437  14.540  -0.967  1.00  0.00     0.209 HD
ENDBRANCH  19  20
ENDBRANCH  18  19
ENDBRANCH  15  18
ENDBRANCH   9  12
ENDBRANCH   1   3
BRANCH   1  22
HETATM   22  C4  UNL     1      27.867   6.442  -0.522  1.00  0.00     0.150 A 
HETATM   23  N3  UNL     1      28.096   6.029  -1.759  1.00  0.00    -0.345 N 
HETATM   24  C5  UNL     1      28.306   4.776  -1.984  1.00  0.00     0.115 A 
ATOM     25  H3  UNL     1      28.107   6.697  -2.529  1.00  0.00     0.167 HD
HETATM   26  C6  UNL     1      28.281   3.916  -0.916  1.00  0.00     0.091 A 
HETATM   27  S1  UNL     1      27.952   4.986   0.372  1.00  0.00    -0.047 SA
BRANCH  26  28
HETATM   28  C7  UNL     1      28.484   2.462  -0.893  1.00  0.00     0.264 C 
HETATM   29  O1  UNL     1      27.640   1.759  -0.323  1.00  0.00    -0.267 OA
HETATM   30  N4  UNL     1      29.606   1.851  -1.498  1.00  0.00    -0.320 N 
ATOM     31  H4  UNL     1      30.287   2.455  -1.961  1.00  0.00     0.169 HD
BRANCH  30  32
HETATM   32  C8  UNL     1      29.849   0.452  -1.505  1.00  0.00     0.062 A 
HETATM   33  C9  UNL     1      30.571  -0.198  -0.542  1.00  0.00    -0.034 A 
HETATM   34  C10 UNL     1      31.148   0.572   0.589  1.00  0.00     0.050 C 
HETATM   35  C11 UNL     1      30.759  -1.560  -0.624  1.00  0.00     0.009 A 
HETATM   36  C12 UNL     1      30.230  -2.291  -1.667  1.00  0.00     0.002 A 
HETATM   37  C13 UNL     1      29.497  -1.644  -2.649  1.00  0.00     0.026 A 
HETATM   38  C14 UNL     1      29.320  -0.284  -2.548  1.00  0.00     0.061 A 
HETATM   39 CL1  UNL     1      28.381   0.520  -3.811  1.00  0.00    -0.082 Cl
ENDBRANCH  30  32
ENDBRANCH  26  28
ENDBRANCH   1  22
TORSDOF 8
ENDMDL
