MODEL 3
REMARK VINA RESULT: -9.708529939      0.980      1.525
REMARK  8 active torsions:
REMARK  status: ('A' for Active; 'I' for Inactive)
REMARK    1  A    between atoms: C3_5  and  N2_6 
REMARK    2  A    between atoms: N2_6  and  C4_8 
REMARK    3  A    between atoms: C6_12  and  C7_13 
REMARK       I    between atoms: C7_13  and  N4_15 
REMARK    4  A    between atoms: N4_15  and  C8_17 
REMARK    5  A    between atoms: C16_27  and  N5_28 
REMARK    6  A    between atoms: N6_31  and  C19_32 
REMARK    7  A    between atoms: C19_32  and  C20_33 
REMARK    8  A    between atoms: C20_33  and  O2_34 
ROOT
HETATM    1  N2  UNL     1      26.742   7.306   0.358  1.00  0.00    -0.323 N 
ATOM      2  H2  UNL     1      27.069   8.268   0.283  1.00  0.00     0.169 HD
ENDROOT
BRANCH   1   3
HETATM    3  C3  UNL     1      25.654   7.016   1.193  1.00  0.00     0.111 A 
HETATM    4  N1  UNL     1      25.295   7.924   2.125  1.00  0.00    -0.332 N 
HETATM    5  C2  UNL     1      24.266   7.664   2.922  1.00  0.00     0.080 A 
ATOM      6  H1  UNL     1      25.808   8.801   2.216  1.00  0.00     0.168 HD
HETATM    7  C1  UNL     1      23.875   8.660   3.940  1.00  0.00     0.089 C 
HETATM    8  N7  UNL     1      23.586   6.515   2.812  1.00  0.00    -0.332 N 
HETATM    9  C16 UNL     1      23.905   5.574   1.898  1.00  0.00     0.108 A 
ATOM     10  H7  UNL     1      22.800   6.345   3.440  1.00  0.00     0.168 HD
HETATM   11  C15 UNL     1      24.985   5.821   1.043  1.00  0.00     0.097 A 
BRANCH   9  12
HETATM   12  N5  UNL     1      23.180   4.370   1.793  1.00  0.00    -0.364 N 
HETATM   13  C17 UNL     1      22.374   4.119   0.628  1.00  0.00     0.154 C 
HETATM   14  C18 UNL     1      21.172   3.306   1.126  1.00  0.00     0.292 C 
HETATM   15  N6  UNL     1      21.539   2.030   1.650  1.00  0.00     0.093 N 
HETATM   16  C21 UNL     1      22.894   2.049   2.161  1.00  0.00     0.292 C 
HETATM   17  C22 UNL     1      23.233   3.382   2.836  1.00  0.00     0.154 C 
BRANCH  15  18
HETATM   18  C19 UNL     1      21.485   0.970   0.662  1.00  0.00     0.298 C 
BRANCH  18  19
HETATM   19  C20 UNL     1      22.843   0.522   0.204  1.00  0.00     0.194 C 
BRANCH  19  20
HETATM   20  O2  UNL     1      22.790  -0.005  -1.090  1.00  0.00    -0.399 OA
ATOM     21  H2  UNL     1      23.439  -0.689  -1.207  1.00  0.00     0.209 HD
ENDBRANCH  19  20
ENDBRANCH  18  19
ENDBRANCH  15  18
ENDBRANCH   9  12
ENDBRANCH   1   3
BRANCH   1  22
HETATM   22  C4  UNL     1      27.411   6.273  -0.400  1.00  0.00     0.150 A 
HETATM   23  N3  UNL     1      27.861   6.329  -1.644  1.00  0.00    -0.345 N 
HETATM   24  C5  UNL     1      28.440   5.298  -2.162  1.00  0.00     0.115 A 
ATOM     25  H3  UNL     1      27.751   7.183  -2.191  1.00  0.00     0.167 HD
HETATM   26  C6  UNL     1      28.564   4.173  -1.387  1.00  0.00     0.091 A 
HETATM   27  S1  UNL     1      27.827   4.680   0.066  1.00  0.00    -0.047 SA
BRANCH  26  28
HETATM   28  C7  UNL     1      29.170   2.880  -1.724  1.00  0.00     0.264 C 
HETATM   29  O1  UNL     1      29.933   2.824  -2.699  1.00  0.00    -0.267 OA
HETATM   30  N4  UNL     1      28.909   1.709  -0.976  1.00  0.00    -0.320 N 
ATOM     31  H4  UNL     1      28.277   1.784  -0.179  1.00  0.00     0.169 HD
BRANCH  30  32
HETATM   32  C8  UNL     1      29.470   0.436  -1.261  1.00  0.00     0.062 A 
HETATM   33  C9  UNL     1      29.103  -0.333  -2.331  1.00  0.00    -0.034 A 
HETATM   34  C10 UNL     1      28.063   0.161  -3.269  1.00  0.00     0.050 C 
HETATM   35  C11 UNL     1      29.698  -1.559  -2.534  1.00  0.00     0.009 A 
HETATM   36  C12 UNL     1      30.665  -2.033  -1.673  1.00  0.00     0.002 A 
HETATM   37  C13 UNL     1      31.046  -1.264  -0.586  1.00  0.00     0.026 A 
HETATM   38  C14 UNL     1      30.440  -0.043  -0.401  1.00  0.00     0.061 A 
HETATM   39 CL1  UNL     1      30.941   0.922   0.993  1.00  0.00    -0.082 Cl
ENDBRANCH  30  32
ENDBRANCH  26  28
ENDBRANCH   1  22
TORSDOF 8
ENDMDL
