MODEL 1
REMARK VINA RESULT: -9.759523510      0.000      0.000
REMARK  8 active torsions:
REMARK  status: ('A' for Active; 'I' for Inactive)
REMARK    1  A    between atoms: C3_5  and  N2_6 
REMARK    2  A    between atoms: N2_6  and  C4_8 
REMARK    3  A    between atoms: C6_12  and  C7_13 
REMARK       I    between atoms: C7_13  and  N4_15 
REMARK    4  A    between atoms: N4_15  and  C8_17 
REMARK    5  A    between atoms: C16_27  and  N5_28 
REMARK    6  A    between atoms: N6_31  and  C19_32 
REMARK    7  A    between atoms: C19_32  and  C20_33 
REMARK    8  A    between atoms: C20_33  and  O2_34 
ROOT
HETATM    1  N2  UNL     1      26.700   7.314   0.286  1.00  0.00    -0.323 N 
ATOM      2  H2  UNL     1      27.012   8.279   0.188  1.00  0.00     0.169 HD
ENDROOT
BRANCH   1   3
HETATM    3  C3  UNL     1      25.625   7.026   1.138  1.00  0.00     0.111 A 
HETATM    4  N1  UNL     1      25.279   7.936   2.072  1.00  0.00    -0.332 N 
HETATM    5  C2  UNL     1      24.262   7.677   2.885  1.00  0.00     0.080 A 
ATOM      6  H1  UNL     1      25.793   8.814   2.153  1.00  0.00     0.168 HD
HETATM    7  C1  UNL     1      23.885   8.675   3.905  1.00  0.00     0.089 C 
HETATM    8  N7  UNL     1      23.581   6.527   2.787  1.00  0.00    -0.332 N 
HETATM    9  C16 UNL     1      23.887   5.584   1.872  1.00  0.00     0.108 A 
ATOM     10  H7  UNL     1      22.804   6.359   3.427  1.00  0.00     0.168 HD
HETATM   11  C15 UNL     1      24.955   5.830   1.001  1.00  0.00     0.097 A 
BRANCH   9  12
HETATM   12  N5  UNL     1      23.162   4.380   1.780  1.00  0.00    -0.364 N 
HETATM   13  C17 UNL     1      22.351   4.119   0.621  1.00  0.00     0.154 C 
HETATM   14  C18 UNL     1      21.151   3.310   1.131  1.00  0.00     0.292 C 
HETATM   15  N6  UNL     1      21.519   2.039   1.664  1.00  0.00     0.093 N 
HETATM   16  C21 UNL     1      22.877   2.063   2.169  1.00  0.00     0.292 C 
HETATM   17  C22 UNL     1      23.219   3.401   2.831  1.00  0.00     0.154 C 
BRANCH  15  18
HETATM   18  C19 UNL     1      21.461   0.970   0.686  1.00  0.00     0.298 C 
BRANCH  18  19
HETATM   19  C20 UNL     1      22.817   0.513   0.233  1.00  0.00     0.194 C 
BRANCH  19  20
HETATM   20  O2  UNL     1      22.766  -0.007  -1.065  1.00  0.00    -0.399 OA
ATOM     21  H2  UNL     1      23.637  -0.210  -1.386  1.00  0.00     0.209 HD
ENDBRANCH  19  20
ENDBRANCH  18  19
ENDBRANCH  15  18
ENDBRANCH   9  12
ENDBRANCH   1   3
BRANCH   1  22
HETATM   22  C4  UNL     1      27.379   6.275  -0.457  1.00  0.00     0.150 A 
HETATM   23  N3  UNL     1      27.836   6.319  -1.698  1.00  0.00    -0.345 N 
HETATM   24  C5  UNL     1      28.422   5.285  -2.201  1.00  0.00     0.115 A 
ATOM     25  H3  UNL     1      27.726   7.166  -2.256  1.00  0.00     0.167 HD
HETATM   26  C6  UNL     1      28.545   4.169  -1.412  1.00  0.00     0.091 A 
HETATM   27  S1  UNL     1      27.798   4.689   0.030  1.00  0.00    -0.047 SA
BRANCH  26  28
HETATM   28  C7  UNL     1      29.159   2.874  -1.732  1.00  0.00     0.264 C 
HETATM   29  O1  UNL     1      29.930   2.811  -2.699  1.00  0.00    -0.267 OA
HETATM   30  N4  UNL     1      28.895   1.711  -0.974  1.00  0.00    -0.320 N 
ATOM     31  H4  UNL     1      28.255   1.791  -0.184  1.00  0.00     0.169 HD
BRANCH  30  32
HETATM   32  C8  UNL     1      29.462   0.436  -1.241  1.00  0.00     0.062 A 
HETATM   33  C9  UNL     1      30.443  -0.133  -0.477  1.00  0.00    -0.034 A 
HETATM   34  C10 UNL     1      30.967   0.593   0.707  1.00  0.00     0.050 C 
HETATM   35  C11 UNL     1      30.939  -1.376  -0.807  1.00  0.00     0.009 A 
HETATM   36  C12 UNL     1      30.464  -2.065  -1.903  1.00  0.00     0.002 A 
HETATM   37  C13 UNL     1      29.470  -1.498  -2.685  1.00  0.00     0.026 A 
HETATM   38  C14 UNL     1      28.988  -0.258  -2.339  1.00  0.00     0.061 A 
HETATM   39 CL1  UNL     1      27.722   0.446  -3.351  1.00  0.00    -0.082 Cl
ENDBRANCH  30  32
ENDBRANCH  26  28
ENDBRANCH   1  22
TORSDOF 8
ENDMDL
