MODEL 2
REMARK VINA RESULT: -9.722454644      1.275      1.385
REMARK  8 active torsions:
REMARK  status: ('A' for Active; 'I' for Inactive)
REMARK    1  A    between atoms: C3_5  and  N2_6 
REMARK    2  A    between atoms: N2_6  and  C4_8 
REMARK    3  A    between atoms: C6_12  and  C7_13 
REMARK       I    between atoms: C7_13  and  N4_15 
REMARK    4  A    between atoms: N4_15  and  C8_17 
REMARK    5  A    between atoms: C16_27  and  N5_28 
REMARK    6  A    between atoms: N6_31  and  C19_32 
REMARK    7  A    between atoms: C19_32  and  C20_33 
REMARK    8  A    between atoms: C20_33  and  O2_34 
ROOT
HETATM    1  N2  UNL     1      26.616   7.552   0.231  1.00  0.00    -0.323 N 
ATOM      2  H2  UNL     1      26.882   8.519   0.046  1.00  0.00     0.169 HD
ENDROOT
BRANCH   1   3
HETATM    3  C3  UNL     1      25.603   7.287   1.162  1.00  0.00     0.111 A 
HETATM    4  N1  UNL     1      25.306   8.231   2.080  1.00  0.00    -0.332 N 
HETATM    5  C2  UNL     1      24.348   7.994   2.968  1.00  0.00     0.080 A 
ATOM      6  H1  UNL     1      25.813   9.116   2.093  1.00  0.00     0.168 HD
HETATM    7  C1  UNL     1      24.025   9.028   3.971  1.00  0.00     0.089 C 
HETATM    8  N7  UNL     1      23.678   6.833   2.961  1.00  0.00    -0.332 N 
HETATM    9  C16 UNL     1      23.936   5.857   2.065  1.00  0.00     0.108 A 
ATOM     10  H7  UNL     1      22.947   6.682   3.656  1.00  0.00     0.168 HD
HETATM   11  C15 UNL     1      24.941   6.080   1.116  1.00  0.00     0.097 A 
BRANCH   9  12
HETATM   12  N5  UNL     1      23.223   4.643   2.068  1.00  0.00    -0.364 N 
HETATM   13  C17 UNL     1      23.786   3.479   1.437  1.00  0.00     0.154 C 
HETATM   14  C18 UNL     1      22.593   2.699   0.870  1.00  0.00     0.292 C 
HETATM   15  N6  UNL     1      21.705   2.223   1.881  1.00  0.00     0.093 N 
HETATM   16  C21 UNL     1      21.759   3.067   3.058  1.00  0.00     0.292 C 
HETATM   17  C22 UNL     1      21.933   4.546   2.696  1.00  0.00     0.154 C 
BRANCH  15  18
HETATM   18  C19 UNL     1      22.011   0.877   2.323  1.00  0.00     0.298 C 
BRANCH  18  19
HETATM   19  C20 UNL     1      21.348   0.519   3.622  1.00  0.00     0.194 C 
BRANCH  19  20
HETATM   20  O2  UNL     1      22.295   0.296   4.626  1.00  0.00    -0.399 OA
ATOM     21  H2  UNL     1      21.928   0.467   5.486  1.00  0.00     0.209 HD
ENDBRANCH  19  20
ENDBRANCH  18  19
ENDBRANCH  15  18
ENDBRANCH   9  12
ENDBRANCH   1   3
BRANCH   1  22
HETATM   22  C4  UNL     1      27.294   6.488  -0.476  1.00  0.00     0.150 A 
HETATM   23  N3  UNL     1      27.714   6.474  -1.732  1.00  0.00    -0.345 N 
HETATM   24  C5  UNL     1      28.306   5.426  -2.196  1.00  0.00     0.115 A 
ATOM     25  H3  UNL     1      27.569   7.288  -2.330  1.00  0.00     0.167 HD
HETATM   26  C6  UNL     1      28.476   4.357  -1.353  1.00  0.00     0.091 A 
HETATM   27  S1  UNL     1      27.761   4.939   0.082  1.00  0.00    -0.047 SA
BRANCH  26  28
HETATM   28  C7  UNL     1      29.108   3.059  -1.621  1.00  0.00     0.264 C 
HETATM   29  O1  UNL     1      29.889   2.971  -2.579  1.00  0.00    -0.267 OA
HETATM   30  N4  UNL     1      28.850   1.920  -0.826  1.00  0.00    -0.320 N 
ATOM     31  H4  UNL     1      28.202   2.020  -0.044  1.00  0.00     0.169 HD
BRANCH  30  32
HETATM   32  C8  UNL     1      29.434   0.643  -1.043  1.00  0.00     0.062 A 
HETATM   33  C9  UNL     1      30.415   0.113  -0.251  1.00  0.00    -0.034 A 
HETATM   34  C10 UNL     1      30.921   0.887   0.910  1.00  0.00     0.050 C 
HETATM   35  C11 UNL     1      30.928  -1.134  -0.533  1.00  0.00     0.009 A 
HETATM   36  C12 UNL     1      30.469  -1.867  -1.608  1.00  0.00     0.002 A 
HETATM   37  C13 UNL     1      29.476  -1.341  -2.417  1.00  0.00     0.026 A 
HETATM   38  C14 UNL     1      28.977  -0.095  -2.118  1.00  0.00     0.061 A 
HETATM   39 CL1  UNL     1      27.710   0.558  -3.165  1.00  0.00    -0.082 Cl
ENDBRANCH  30  32
ENDBRANCH  26  28
ENDBRANCH   1  22
TORSDOF 8
ENDMDL
