MODEL 9
REMARK VINA RESULT: -9.178351755      3.614      6.314
REMARK  8 active torsions:
REMARK  status: ('A' for Active; 'I' for Inactive)
REMARK    1  A    between atoms: C3_5  and  N2_6 
REMARK    2  A    between atoms: N2_6  and  C4_8 
REMARK    3  A    between atoms: C6_12  and  C7_13 
REMARK       I    between atoms: C7_13  and  N4_15 
REMARK    4  A    between atoms: N4_15  and  C8_17 
REMARK    5  A    between atoms: C16_27  and  N5_28 
REMARK    6  A    between atoms: N6_31  and  C19_32 
REMARK    7  A    between atoms: C19_32  and  C20_33 
REMARK    8  A    between atoms: C20_33  and  O2_34 
ROOT
HETATM    1  N2  UNL     1      27.554   7.657  -0.191  1.00  0.00    -0.323 N 
ATOM      2  H2  UNL     1      28.174   8.418  -0.466  1.00  0.00     0.169 HD
ENDROOT
BRANCH   1   3
HETATM    3  C3  UNL     1      26.462   7.931   0.643  1.00  0.00     0.111 A 
HETATM    4  N1  UNL     1      25.707   6.900   1.079  1.00  0.00    -0.332 N 
HETATM    5  C2  UNL     1      24.670   7.144   1.870  1.00  0.00     0.080 A 
ATOM      6  H1  UNL     1      25.930   5.944   0.802  1.00  0.00     0.168 HD
HETATM    7  C1  UNL     1      23.846   6.015   2.345  1.00  0.00     0.089 C 
HETATM    8  N7  UNL     1      24.367   8.397   2.238  1.00  0.00    -0.332 N 
HETATM    9  C16 UNL     1      25.089   9.462   1.829  1.00  0.00     0.108 A 
ATOM     10  H7  UNL     1      23.564   8.551   2.847  1.00  0.00     0.168 HD
HETATM   11  C15 UNL     1      26.189   9.234   0.994  1.00  0.00     0.097 A 
BRANCH   9  12
HETATM   12  N5  UNL     1      24.760  10.773   2.224  1.00  0.00    -0.364 N 
HETATM   13  C17 UNL     1      24.109  11.000   3.487  1.00  0.00     0.154 C 
HETATM   14  C18 UNL     1      23.186  12.205   3.265  1.00  0.00     0.292 C 
HETATM   15  N6  UNL     1      23.896  13.403   2.954  1.00  0.00     0.093 N 
HETATM   16  C21 UNL     1      25.164  13.104   2.320  1.00  0.00     0.292 C 
HETATM   17  C22 UNL     1      25.066  11.897   1.381  1.00  0.00     0.154 C 
BRANCH  15  18
HETATM   18  C19 UNL     1      24.197  14.209   4.121  1.00  0.00     0.298 C 
BRANCH  18  19
HETATM   19  C20 UNL     1      25.640  14.137   4.529  1.00  0.00     0.194 C 
BRANCH  19  20
HETATM   20  O2  UNL     1      25.791  13.428   5.725  1.00  0.00    -0.399 OA
ATOM     21  H2  UNL     1      26.220  12.594   5.576  1.00  0.00     0.209 HD
ENDBRANCH  19  20
ENDBRANCH  18  19
ENDBRANCH  15  18
ENDBRANCH   9  12
ENDBRANCH   1   3
BRANCH   1  22
HETATM   22  C4  UNL     1      27.824   6.320  -0.672  1.00  0.00     0.150 A 
HETATM   23  N3  UNL     1      28.119   5.935  -1.904  1.00  0.00    -0.345 N 
HETATM   24  C5  UNL     1      28.331   4.686  -2.150  1.00  0.00     0.115 A 
ATOM     25  H3  UNL     1      28.177   6.622  -2.656  1.00  0.00     0.167 HD
HETATM   26  C6  UNL     1      28.241   3.800  -1.106  1.00  0.00     0.091 A 
HETATM   27  S1  UNL     1      27.849   4.841   0.188  1.00  0.00    -0.047 SA
BRANCH  26  28
HETATM   28  C7  UNL     1      28.431   2.345  -1.110  1.00  0.00     0.264 C 
HETATM   29  O1  UNL     1      27.531   1.632  -0.645  1.00  0.00    -0.267 OA
HETATM   30  N4  UNL     1      29.602   1.742  -1.623  1.00  0.00    -0.320 N 
ATOM     31  H4  UNL     1      30.327   2.353  -1.999  1.00  0.00     0.169 HD
BRANCH  30  32
HETATM   32  C8  UNL     1      29.835   0.341  -1.649  1.00  0.00     0.062 A 
HETATM   33  C9  UNL     1      29.469  -0.469  -2.689  1.00  0.00    -0.034 A 
HETATM   34  C10 UNL     1      28.789   0.114  -3.872  1.00  0.00     0.050 C 
HETATM   35  C11 UNL     1      29.732  -1.821  -2.634  1.00  0.00     0.009 A 
HETATM   36  C12 UNL     1      30.363  -2.380  -1.542  1.00  0.00     0.002 A 
HETATM   37  C13 UNL     1      30.739  -1.569  -0.483  1.00  0.00     0.026 A 
HETATM   38  C14 UNL     1      30.467  -0.223  -0.558  1.00  0.00     0.061 A 
HETATM   39 CL1  UNL     1      30.955   0.792   0.804  1.00  0.00    -0.082 Cl
ENDBRANCH  30  32
ENDBRANCH  26  28
ENDBRANCH   1  22
TORSDOF 8
ENDMDL
