MODEL 2
REMARK VINA RESULT: -9.551708691      3.339      8.373
REMARK  8 active torsions:
REMARK  status: ('A' for Active; 'I' for Inactive)
REMARK    1  A    between atoms: C2_2  and  O1_3 
REMARK    2  A    between atoms: O1_3  and  C3_4 
REMARK    3  A    between atoms: C9_13  and  N3_14 
REMARK    4  A    between atoms: N3_14  and  C10_16 
REMARK    5  A    between atoms: C18_26  and  N4_27 
REMARK       I    between atoms: N4_27  and  C19_29 
REMARK    6  A    between atoms: C19_29  and  C20_31 
REMARK    7  A    between atoms: C21_32  and  C22_33 
REMARK    8  A    between atoms: C22_33  and  N5_34 
ROOT
HETATM    1  C3  UNL     1      15.029  16.067   5.668  1.00  0.00     0.097 A 
HETATM    2  C4  UNL     1      15.189  17.408   5.346  1.00  0.00     0.069 A 
HETATM    3  C5  UNL     1      16.438  17.978   5.335  1.00  0.00     0.047 A 
HETATM    4  N1  UNL     1      16.651  19.269   5.031  1.00  0.00    -0.364 N 
ATOM      5  H1  UNL     1      15.861  19.868   4.795  1.00  0.00     0.165 HD
HETATM    6  C6  UNL     1      17.903  19.783   5.035  1.00  0.00     0.113 A 
HETATM    7  C7  UNL     1      18.993  19.021   5.345  1.00  0.00     0.087 A 
HETATM    8  C8  UNL     1      20.341  19.496   5.370  1.00  0.00     0.103 C 
HETATM    9  N2  UNL     1      21.429  19.891   5.377  1.00  0.00    -0.191 NA
HETATM   10  C9  UNL     1      18.783  17.686   5.661  1.00  0.00     0.067 A 
HETATM   11  C16 UNL     1      17.513  17.175   5.654  1.00  0.00     0.021 A 
HETATM   12  C17 UNL     1      17.336  15.817   5.979  1.00  0.00     0.048 A 
HETATM   13  C18 UNL     1      16.120  15.247   5.993  1.00  0.00     0.069 A 
ENDROOT
BRANCH  10  14
HETATM   14  N3  UNL     1      19.878  16.860   5.987  1.00  0.00    -0.354 N 
ATOM     15  H3  UNL     1      20.478  16.482   5.254  1.00  0.00     0.166 HD
BRANCH  14  16
HETATM   16  C10 UNL     1      20.132  16.565   7.348  1.00  0.00     0.034 A 
HETATM   17  C11 UNL     1      20.592  17.527   8.220  1.00  0.00     0.032 A 
HETATM   18  C12 UNL     1      20.848  17.273   9.545  1.00  0.00     0.046 A 
HETATM   19  C13 UNL     1      20.653  16.019  10.073  1.00  0.00     0.138 A 
HETATM   20  F1  UNL     1      20.904  15.770  11.377  1.00  0.00    -0.204 F 
HETATM   21  C14 UNL     1      20.186  15.021   9.213  1.00  0.00     0.074 A 
HETATM   22 CL1  UNL     1      19.935  13.416   9.884  1.00  0.00    -0.081 Cl
HETATM   23  C15 UNL     1      19.931  15.289   7.878  1.00  0.00     0.056 A 
ENDBRANCH  14  16
ENDBRANCH  10  14
BRANCH  13  24
HETATM   24  N4  UNL     1      15.874  13.904   6.307  1.00  0.00    -0.321 N 
HETATM   25  C19 UNL     1      16.188  13.235   7.510  1.00  0.00     0.245 C 
HETATM   26  O2  UNL     1      16.754  13.890   8.426  1.00  0.00    -0.268 OA
ATOM     27  H4  UNL     1      15.416  13.348   5.585  1.00  0.00     0.169 HD
BRANCH  25  28
HETATM   28  C20 UNL     1      15.879  11.806   7.733  1.00  0.00     0.072 C 
HETATM   29  C21 UNL     1      16.582  11.010   8.494  1.00  0.00     0.008 C 
BRANCH  29  30
HETATM   30  C22 UNL     1      16.244   9.573   8.698  1.00  0.00     0.299 C 
BRANCH  30  31
HETATM   31  N5  UNL     1      16.660   9.185  10.016  1.00  0.00     0.083 N 
HETATM   32  C23 UNL     1      18.097   8.934  10.063  1.00  0.00     0.309 C 
HETATM   33  C24 UNL     1      15.983   7.952  10.407  1.00  0.00     0.309 C 
ENDBRANCH  30  31
ENDBRANCH  29  30
ENDBRANCH  25  28
ENDBRANCH  13  24
BRANCH   1  34
HETATM   34  O1  UNL     1      13.776  15.472   5.686  1.00  0.00    -0.349 OA
BRANCH  34  35
HETATM   35  C2  UNL     1      12.834  15.975   6.612  1.00  0.00     0.171 C 
HETATM   36  C1  UNL     1      13.028  15.419   7.988  1.00  0.00     0.034 C 
ENDBRANCH  34  35
ENDBRANCH   1  34
TORSDOF 8
ENDMDL
