MODEL 3
REMARK VINA RESULT: -9.463912833      2.672      5.140
REMARK  8 active torsions:
REMARK  status: ('A' for Active; 'I' for Inactive)
REMARK    1  A    between atoms: C2_2  and  O1_3 
REMARK    2  A    between atoms: O1_3  and  C3_4 
REMARK    3  A    between atoms: C9_13  and  N3_14 
REMARK    4  A    between atoms: N3_14  and  C10_16 
REMARK    5  A    between atoms: C18_26  and  N4_27 
REMARK       I    between atoms: N4_27  and  C19_29 
REMARK    6  A    between atoms: C19_29  and  C20_31 
REMARK    7  A    between atoms: C21_32  and  C22_33 
REMARK    8  A    between atoms: C22_33  and  N5_34 
ROOT
HETATM    1  C3  UNL     1      14.380  15.161   6.402  1.00  0.00     0.097 A 
HETATM    2  C4  UNL     1      14.389  14.170   7.373  1.00  0.00     0.069 A 
HETATM    3  C5  UNL     1      15.576  13.721   7.900  1.00  0.00     0.047 A 
HETATM    4  N1  UNL     1      15.643  12.766   8.841  1.00  0.00    -0.364 N 
ATOM      5  H1  UNL     1      14.785  12.342   9.194  1.00  0.00     0.165 HD
HETATM    6  C6  UNL     1      16.839  12.357   9.328  1.00  0.00     0.113 A 
HETATM    7  C7  UNL     1      18.015  12.893   8.889  1.00  0.00     0.087 A 
HETATM    8  C8  UNL     1      19.311  12.511   9.356  1.00  0.00     0.103 C 
HETATM    9  N2  UNL     1      20.354  12.200   9.750  1.00  0.00    -0.191 NA
HETATM   10  C9  UNL     1      17.956  13.881   7.916  1.00  0.00     0.067 A 
HETATM   11  C16 UNL     1      16.742  14.287   7.430  1.00  0.00     0.021 A 
HETATM   12  C17 UNL     1      16.718  15.291   6.444  1.00  0.00     0.048 A 
HETATM   13  C18 UNL     1      15.565  15.739   5.921  1.00  0.00     0.069 A 
ENDROOT
BRANCH  10  14
HETATM   14  N3  UNL     1      19.145  14.463   7.432  1.00  0.00    -0.354 N 
ATOM     15  H3  UNL     1      19.679  14.010   6.691  1.00  0.00     0.166 HD
BRANCH  14  16
HETATM   16  C10 UNL     1      19.585  15.687   7.991  1.00  0.00     0.034 A 
HETATM   17  C11 UNL     1      20.290  15.726   9.174  1.00  0.00     0.032 A 
HETATM   18  C12 UNL     1      20.731  16.895   9.742  1.00  0.00     0.046 A 
HETATM   19  C13 UNL     1      20.485  18.108   9.142  1.00  0.00     0.138 A 
HETATM   20  F1  UNL     1      20.920  19.258   9.702  1.00  0.00    -0.204 F 
HETATM   21  C14 UNL     1      19.772  18.101   7.940  1.00  0.00     0.074 A 
HETATM   22 CL1  UNL     1      19.455  19.648   7.169  1.00  0.00    -0.081 Cl
HETATM   23  C15 UNL     1      19.332  16.914   7.376  1.00  0.00     0.056 A 
ENDBRANCH  14  16
ENDBRANCH  10  14
BRANCH  13  24
HETATM   24  N4  UNL     1      15.470  16.735   4.940  1.00  0.00    -0.321 N 
HETATM   25  C19 UNL     1      15.730  18.114   5.093  1.00  0.00     0.245 C 
HETATM   26  O2  UNL     1      16.090  18.531   6.227  1.00  0.00    -0.268 OA
ATOM     27  H4  UNL     1      15.180  16.428   4.012  1.00  0.00     0.169 HD
BRANCH  25  28
HETATM   28  C20 UNL     1      15.596  19.080   3.981  1.00  0.00     0.072 C 
HETATM   29  C21 UNL     1      16.114  20.280   3.979  1.00  0.00     0.008 C 
BRANCH  29  30
HETATM   30  C22 UNL     1      15.961  21.230   2.841  1.00  0.00     0.299 C 
BRANCH  30  31
HETATM   31  N5  UNL     1      15.403  22.456   3.337  1.00  0.00     0.083 N 
HETATM   32  C23 UNL     1      14.240  22.860   2.554  1.00  0.00     0.309 C 
HETATM   33  C24 UNL     1      16.393  23.524   3.243  1.00  0.00     0.309 C 
ENDBRANCH  30  31
ENDBRANCH  29  30
ENDBRANCH  25  28
ENDBRANCH  13  24
BRANCH   1  34
HETATM   34  O1  UNL     1      13.194  15.629   5.857  1.00  0.00    -0.349 OA
BRANCH  34  35
HETATM   35  C2  UNL     1      12.305  16.303   6.725  1.00  0.00     0.171 C 
HETATM   36  C1  UNL     1      12.377  17.791   6.581  1.00  0.00     0.034 C 
ENDBRANCH  34  35
ENDBRANCH   1  34
TORSDOF 8
ENDMDL
