MODEL 1
REMARK VINA RESULT: -9.577505145      0.000      0.000
REMARK  8 active torsions:
REMARK  status: ('A' for Active; 'I' for Inactive)
REMARK    1  A    between atoms: C2_2  and  O1_3 
REMARK    2  A    between atoms: O1_3  and  C3_4 
REMARK    3  A    between atoms: C9_13  and  N3_14 
REMARK    4  A    between atoms: N3_14  and  C10_16 
REMARK    5  A    between atoms: C18_26  and  N4_27 
REMARK       I    between atoms: N4_27  and  C19_29 
REMARK    6  A    between atoms: C19_29  and  C20_31 
REMARK    7  A    between atoms: C21_32  and  C22_33 
REMARK    8  A    between atoms: C22_33  and  N5_34 
ROOT
HETATM    1  C3  UNL     1      19.830  19.088   7.198  1.00  0.00     0.097 A 
HETATM    2  C4  UNL     1      20.460  18.532   8.303  1.00  0.00     0.069 A 
HETATM    3  C5  UNL     1      20.296  17.201   8.602  1.00  0.00     0.047 A 
HETATM    4  N1  UNL     1      20.881  16.611   9.657  1.00  0.00    -0.364 N 
ATOM      5  H1  UNL     1      21.478  17.160  10.276  1.00  0.00     0.165 HD
HETATM    6  C6  UNL     1      20.687  15.295   9.909  1.00  0.00     0.113 A 
HETATM    7  C7  UNL     1      19.899  14.518   9.111  1.00  0.00     0.087 A 
HETATM    8  C8  UNL     1      19.649  13.125   9.316  1.00  0.00     0.103 C 
HETATM    9  N2  UNL     1      19.463  11.996   9.488  1.00  0.00    -0.191 NA
HETATM   10  C9  UNL     1      19.289  15.119   8.018  1.00  0.00     0.067 A 
HETATM   11  C16 UNL     1      19.491  16.451   7.772  1.00  0.00     0.021 A 
HETATM   12  C17 UNL     1      18.859  17.027   6.655  1.00  0.00     0.048 A 
HETATM   13  C18 UNL     1      19.010  18.327   6.351  1.00  0.00     0.069 A 
ENDROOT
BRANCH  10  14
HETATM   14  N3  UNL     1      18.465  14.356   7.166  1.00  0.00    -0.354 N 
ATOM     15  H3  UNL     1      18.856  13.897   6.343  1.00  0.00     0.166 HD
BRANCH  14  16
HETATM   16  C10 UNL     1      17.088  14.238   7.469  1.00  0.00     0.034 A 
HETATM   17  C11 UNL     1      16.558  13.069   7.970  1.00  0.00     0.032 A 
HETATM   18  C12 UNL     1      15.227  12.923   8.273  1.00  0.00     0.046 A 
HETATM   19  C13 UNL     1      14.343  13.960   8.088  1.00  0.00     0.138 A 
HETATM   20  F1  UNL     1      13.034  13.814   8.389  1.00  0.00    -0.204 F 
HETATM   21  C14 UNL     1      14.851  15.159   7.582  1.00  0.00     0.074 A 
HETATM   22 CL1  UNL     1      13.724  16.487   7.344  1.00  0.00    -0.081 Cl
HETATM   23  C15 UNL     1      16.196  15.296   7.279  1.00  0.00     0.056 A 
ENDBRANCH  14  16
ENDBRANCH  10  14
BRANCH  13  24
HETATM   24  N4  UNL     1      18.411  18.964   5.257  1.00  0.00    -0.321 N 
HETATM   25  C19 UNL     1      17.029  19.131   5.016  1.00  0.00     0.245 C 
HETATM   26  O2  UNL     1      16.216  18.667   5.860  1.00  0.00    -0.268 OA
ATOM     27  H4  UNL     1      19.043  19.350   4.556  1.00  0.00     0.169 HD
BRANCH  25  28
HETATM   28  C20 UNL     1      16.506  19.825   3.819  1.00  0.00     0.072 C 
HETATM   29  C21 UNL     1      16.321  21.117   3.737  1.00  0.00     0.008 C 
BRANCH  29  30
HETATM   30  C22 UNL     1      15.792  21.786   2.516  1.00  0.00     0.299 C 
BRANCH  30  31
HETATM   31  N5  UNL     1      15.528  23.163   2.823  1.00  0.00     0.083 N 
HETATM   32  C23 UNL     1      16.742  23.849   3.254  1.00  0.00     0.309 C 
HETATM   33  C24 UNL     1      14.560  23.252   3.912  1.00  0.00     0.309 C 
ENDBRANCH  30  31
ENDBRANCH  29  30
ENDBRANCH  25  28
ENDBRANCH  13  24
BRANCH   1  34
HETATM   34  O1  UNL     1      19.981  20.429   6.878  1.00  0.00    -0.349 OA
BRANCH  34  35
HETATM   35  C2  UNL     1      21.287  20.878   6.578  1.00  0.00     0.171 C 
HETATM   36  C1  UNL     1      21.771  20.392   5.247  1.00  0.00     0.034 C 
ENDBRANCH  34  35
ENDBRANCH   1  34
TORSDOF 8
ENDMDL
