MODEL 4
REMARK VINA RESULT: -8.116854681      2.681      7.959
REMARK  9 active torsions:
REMARK  status: ('A' for Active; 'I' for Inactive)
REMARK    1  A    between atoms: O1_2  and  C2_3 
REMARK    2  A    between atoms: C4_5  and  N1_6 
REMARK    3  A    between atoms: N1_6  and  C5_8 
REMARK    4  A    between atoms: C11_17  and  O2_18 
REMARK    5  A    between atoms: O2_18  and  C12_19 
REMARK    6  A    between atoms: C12_19  and  C13_20 
REMARK    7  A    between atoms: C13_20  and  C14_21 
REMARK    8  A    between atoms: C14_21  and  N4_22 
REMARK    9  A    between atoms: C20_29  and  O3_30 
ROOT
HETATM    1  C5  UNL     1     -17.916  -7.228  -0.226  1.00  0.00     0.067 A 
HETATM    2  C6  UNL     1     -16.905  -8.133  -0.410  1.00  0.00     0.087 A 
HETATM    3  C7  UNL     1     -16.912  -9.432   0.249  1.00  0.00     0.103 C 
HETATM    4  N2  UNL     1     -16.916 -10.456   0.776  1.00  0.00    -0.191 NA
HETATM    5  C8  UNL     1     -15.861  -7.782  -1.249  1.00  0.00     0.113 A 
HETATM    6  N3  UNL     1     -15.862  -6.581  -1.853  1.00  0.00    -0.364 N 
ATOM      7  H3  UNL     1     -15.080  -6.348  -2.465  1.00  0.00     0.165 HD
HETATM    8  C9  UNL     1     -16.839  -5.673  -1.694  1.00  0.00     0.047 A 
HETATM    9  C10 UNL     1     -16.777  -4.436  -2.356  1.00  0.00     0.070 A 
HETATM   10  C11 UNL     1     -17.780  -3.513  -2.189  1.00  0.00     0.104 A 
HETATM   11  C20 UNL     1     -18.862  -3.840  -1.338  1.00  0.00     0.102 A 
HETATM   12  C22 UNL     1     -18.870  -5.060  -0.716  1.00  0.00     0.055 A 
HETATM   13  C23 UNL     1     -17.881  -6.012  -0.862  1.00  0.00     0.022 A 
ENDROOT
BRANCH   1  14
HETATM   14  N1  UNL     1     -18.995  -7.559   0.625  1.00  0.00    -0.353 N 
ATOM     15  H1  UNL     1     -18.868  -7.447   1.631  1.00  0.00     0.166 HD
BRANCH  14  16
HETATM   16  C4  UNL     1     -20.241  -8.037   0.157  1.00  0.00     0.057 A 
HETATM   17  C3  UNL     1     -20.281  -9.088  -0.709  1.00  0.00     0.069 A 
HETATM   18  C2  UNL     1     -21.502  -9.569  -1.178  1.00  0.00     0.092 A 
HETATM   19  C26 UNL     1     -22.702  -9.010  -0.791  1.00  0.00     0.069 A 
HETATM   20  C25 UNL     1     -22.652  -7.945   0.086  1.00  0.00     0.052 A 
HETATM   21 CL2  UNL     1     -24.243  -9.615  -1.380  1.00  0.00    -0.081 Cl
HETATM   22  C24 UNL     1     -21.427  -7.462   0.557  1.00  0.00     0.062 A 
HETATM   23 CL1  UNL     1     -21.351  -6.115   1.667  1.00  0.00    -0.082 Cl
BRANCH  18  24
HETATM   24  O1  UNL     1     -21.556 -10.636  -2.057  1.00  0.00    -0.354 OA
HETATM   25  C1  UNL     1     -21.393 -11.969  -1.573  1.00  0.00     0.210 C 
ENDBRANCH  18  24
ENDBRANCH  14  16
ENDBRANCH   1  14
BRANCH  11  26
HETATM   26  O3  UNL     1     -19.844  -2.874  -1.204  1.00  0.00    -0.353 OA
HETATM   27  C21 UNL     1     -20.769  -2.950  -0.143  1.00  0.00     0.210 C 
ENDBRANCH  11  26
BRANCH  10  28
HETATM   28  O2  UNL     1     -17.773  -2.306  -2.812  1.00  0.00    -0.348 OA
BRANCH  28  29
HETATM   29  C12 UNL     1     -16.950  -1.233  -2.519  1.00  0.00     0.177 C 
BRANCH  29  30
HETATM   30  C13 UNL     1     -17.598  -0.317  -1.533  1.00  0.00     0.057 C 
BRANCH  30  31
HETATM   31  C14 UNL     1     -18.624   0.614  -2.059  1.00  0.00     0.274 C 
BRANCH  31  32
HETATM   32  N4  UNL     1     -19.844   0.118  -2.550  1.00  0.00     0.091 N 
HETATM   33  C15 UNL     1     -19.999  -0.036  -3.959  1.00  0.00     0.302 C 
HETATM   34  C16 UNL     1     -21.095  -1.094  -4.177  1.00  0.00     0.302 C 
HETATM   35  N5  UNL     1     -22.334  -0.660  -3.556  1.00  0.00     0.087 N 
HETATM   36  C17 UNL     1     -23.014   0.363  -4.312  1.00  0.00     0.310 C 
HETATM   37  C18 UNL     1     -22.164  -0.268  -2.189  1.00  0.00     0.302 C 
HETATM   38  C19 UNL     1     -21.043   0.735  -1.984  1.00  0.00     0.302 C 
ENDBRANCH  31  32
ENDBRANCH  30  31
ENDBRANCH  29  30
ENDBRANCH  28  29
ENDBRANCH  10  28
TORSDOF 9
ENDMDL
