MODEL 2
REMARK VINA RESULT: -8.177106717      2.981      4.818
REMARK  9 active torsions:
REMARK  status: ('A' for Active; 'I' for Inactive)
REMARK    1  A    between atoms: O1_2  and  C2_3 
REMARK    2  A    between atoms: C4_5  and  N1_6 
REMARK    3  A    between atoms: N1_6  and  C5_8 
REMARK    4  A    between atoms: C11_17  and  O2_18 
REMARK    5  A    between atoms: O2_18  and  C12_19 
REMARK    6  A    between atoms: C12_19  and  C13_20 
REMARK    7  A    between atoms: C13_20  and  C14_21 
REMARK    8  A    between atoms: C14_21  and  N4_22 
REMARK    9  A    between atoms: C20_29  and  O3_30 
ROOT
HETATM    1  C5  UNL     1     -16.012  -3.121  -2.156  1.00  0.00     0.067 A 
HETATM    2  C6  UNL     1     -14.713  -3.291  -1.756  1.00  0.00     0.087 A 
HETATM    3  C7  UNL     1     -13.690  -2.294  -2.035  1.00  0.00     0.103 C 
HETATM    4  N2  UNL     1     -12.881  -1.505  -2.262  1.00  0.00    -0.191 NA
HETATM    5  C8  UNL     1     -14.389  -4.450  -1.071  1.00  0.00     0.113 A 
HETATM    6  N3  UNL     1     -15.339  -5.367  -0.818  1.00  0.00    -0.364 N 
ATOM      7  H3  UNL     1     -15.072  -6.211  -0.313  1.00  0.00     0.165 HD
HETATM    8  C9  UNL     1     -16.621  -5.228  -1.196  1.00  0.00     0.047 A 
HETATM    9  C10 UNL     1     -17.564  -6.226  -0.898  1.00  0.00     0.070 A 
HETATM   10  C11 UNL     1     -18.873  -6.076  -1.287  1.00  0.00     0.104 A 
HETATM   11  C20 UNL     1     -19.237  -4.904  -1.989  1.00  0.00     0.102 A 
HETATM   12  C22 UNL     1     -18.277  -3.965  -2.253  1.00  0.00     0.055 A 
HETATM   13  C23 UNL     1     -16.953  -4.080  -1.877  1.00  0.00     0.022 A 
ENDROOT
BRANCH   1  14
HETATM   14  N1  UNL     1     -16.372  -1.948  -2.857  1.00  0.00    -0.353 N 
ATOM     15  H1  UNL     1     -15.841  -1.704  -3.693  1.00  0.00     0.166 HD
BRANCH  14  16
HETATM   16  C4  UNL     1     -17.429  -1.095  -2.463  1.00  0.00     0.057 A 
HETATM   17  C3  UNL     1     -18.674  -1.272  -2.988  1.00  0.00     0.069 A 
HETATM   18  C2  UNL     1     -19.724  -0.439  -2.610  1.00  0.00     0.092 A 
HETATM   19  C26 UNL     1     -19.550   0.586  -1.702  1.00  0.00     0.069 A 
HETATM   20  C25 UNL     1     -18.286   0.759  -1.177  1.00  0.00     0.052 A 
HETATM   21 CL2  UNL     1     -20.873   1.639  -1.223  1.00  0.00    -0.081 Cl
HETATM   22  C24 UNL     1     -17.231  -0.078  -1.557  1.00  0.00     0.062 A 
HETATM   23 CL1  UNL     1     -15.626   0.133  -0.898  1.00  0.00    -0.082 Cl
BRANCH  18  24
HETATM   24  O1  UNL     1     -20.992  -0.610  -3.134  1.00  0.00    -0.354 OA
HETATM   25  C1  UNL     1     -21.330  -0.025  -4.392  1.00  0.00     0.210 C 
ENDBRANCH  18  24
ENDBRANCH  14  16
ENDBRANCH   1  14
BRANCH  11  26
HETATM   26  O3  UNL     1     -20.568  -4.805  -2.358  1.00  0.00    -0.353 OA
HETATM   27  C21 UNL     1     -21.401  -3.848  -1.744  1.00  0.00     0.210 C 
ENDBRANCH  11  26
BRANCH  10  28
HETATM   28  O2  UNL     1     -19.825  -7.007  -1.018  1.00  0.00    -0.348 OA
BRANCH  28  29
HETATM   29  C12 UNL     1     -20.252  -7.408   0.236  1.00  0.00     0.177 C 
BRANCH  29  30
HETATM   30  C13 UNL     1     -21.580  -6.808   0.564  1.00  0.00     0.057 C 
BRANCH  30  31
HETATM   31  C14 UNL     1     -22.777  -7.633   0.277  1.00  0.00     0.274 C 
BRANCH  31  32
HETATM   32  N4  UNL     1     -23.883  -7.068  -0.381  1.00  0.00     0.091 N 
HETATM   33  C15 UNL     1     -25.183  -7.575  -0.085  1.00  0.00     0.302 C 
HETATM   34  C16 UNL     1     -26.189  -6.463  -0.434  1.00  0.00     0.302 C 
HETATM   35  N5  UNL     1     -26.070  -6.108  -1.837  1.00  0.00     0.087 N 
HETATM   36  C17 UNL     1     -26.669  -7.082  -2.717  1.00  0.00     0.310 C 
HETATM   37  C18 UNL     1     -24.721  -5.820  -2.226  1.00  0.00     0.302 C 
HETATM   38  C19 UNL     1     -23.734  -6.902  -1.827  1.00  0.00     0.302 C 
ENDBRANCH  31  32
ENDBRANCH  30  31
ENDBRANCH  29  30
ENDBRANCH  28  29
ENDBRANCH  10  28
TORSDOF 9
ENDMDL
