MODEL 1
REMARK VINA RESULT: -8.308907823      0.000      0.000
REMARK  9 active torsions:
REMARK  status: ('A' for Active; 'I' for Inactive)
REMARK    1  A    between atoms: O1_2  and  C2_3 
REMARK    2  A    between atoms: C4_5  and  N1_6 
REMARK    3  A    between atoms: N1_6  and  C5_8 
REMARK    4  A    between atoms: C11_17  and  O2_18 
REMARK    5  A    between atoms: O2_18  and  C12_19 
REMARK    6  A    between atoms: C12_19  and  C13_20 
REMARK    7  A    between atoms: C13_20  and  C14_21 
REMARK    8  A    between atoms: C14_21  and  N4_22 
REMARK    9  A    between atoms: C20_29  and  O3_30 
ROOT
HETATM    1  C5  UNL     1     -17.862  -3.217  -2.009  1.00  0.00     0.067 A 
HETATM    2  C6  UNL     1     -16.609  -3.096  -2.551  1.00  0.00     0.087 A 
HETATM    3  C7  UNL     1     -15.880  -1.836  -2.518  1.00  0.00     0.103 C 
HETATM    4  N2  UNL     1     -15.307  -0.837  -2.495  1.00  0.00    -0.191 NA
HETATM    5  C8  UNL     1     -16.044  -4.214  -3.141  1.00  0.00     0.113 A 
HETATM    6  N3  UNL     1     -16.724  -5.373  -3.169  1.00  0.00    -0.364 N 
ATOM      7  H3  UNL     1     -16.285  -6.180  -3.611  1.00  0.00     0.165 HD
HETATM    8  C9  UNL     1     -17.953  -5.524  -2.645  1.00  0.00     0.047 A 
HETATM    9  C10 UNL     1     -18.607  -6.765  -2.708  1.00  0.00     0.070 A 
HETATM   10  C11 UNL     1     -19.862  -6.910  -2.169  1.00  0.00     0.104 A 
HETATM   11  C20 UNL     1     -20.468  -5.788  -1.559  1.00  0.00     0.102 A 
HETATM   12  C22 UNL     1     -19.785  -4.602  -1.527  1.00  0.00     0.055 A 
HETATM   13  C23 UNL     1     -18.523  -4.419  -2.056  1.00  0.00     0.022 A 
ENDROOT
BRANCH   1  14
HETATM   14  N1  UNL     1     -18.463  -2.093  -1.400  1.00  0.00    -0.353 N 
ATOM     15  H1  UNL     1     -18.074  -1.754  -0.520  1.00  0.00     0.166 HD
BRANCH  14  16
HETATM   16  C4  UNL     1     -19.576  -1.411  -1.945  1.00  0.00     0.057 A 
HETATM   17  C3  UNL     1     -19.504  -0.897  -3.205  1.00  0.00     0.069 A 
HETATM   18  C2  UNL     1     -20.592  -0.222  -3.755  1.00  0.00     0.092 A 
HETATM   19  C26 UNL     1     -21.770  -0.049  -3.056  1.00  0.00     0.069 A 
HETATM   20  C25 UNL     1     -21.833  -0.570  -1.780  1.00  0.00     0.052 A 
HETATM   21 CL2  UNL     1     -23.144   0.802  -3.747  1.00  0.00    -0.081 Cl
HETATM   22  C24 UNL     1     -20.740  -1.248  -1.228  1.00  0.00     0.062 A 
HETATM   23 CL1  UNL     1     -20.809  -1.913   0.386  1.00  0.00    -0.082 Cl
BRANCH  18  24
HETATM   24  O1  UNL     1     -20.533   0.302  -5.033  1.00  0.00    -0.354 OA
HETATM   25  C1  UNL     1     -19.413   0.017  -5.871  1.00  0.00     0.210 C 
ENDBRANCH  18  24
ENDBRANCH  14  16
ENDBRANCH   1  14
BRANCH  11  26
HETATM   26  O3  UNL     1     -21.733  -5.990  -1.034  1.00  0.00    -0.353 OA
HETATM   27  C21 UNL     1     -22.867  -5.508  -1.720  1.00  0.00     0.210 C 
ENDBRANCH  11  26
BRANCH  10  28
HETATM   28  O2  UNL     1     -20.535  -8.090  -2.197  1.00  0.00    -0.348 OA
BRANCH  28  29
HETATM   29  C12 UNL     1     -19.978  -9.356  -2.188  1.00  0.00     0.177 C 
BRANCH  29  30
HETATM   30  C13 UNL     1     -19.765  -9.835  -0.790  1.00  0.00     0.057 C 
BRANCH  30  31
HETATM   31  C14 UNL     1     -18.409 -10.329  -0.451  1.00  0.00     0.274 C 
BRANCH  31  32
HETATM   32  N4  UNL     1     -17.424  -9.435   0.004  1.00  0.00     0.091 N 
HETATM   33  C15 UNL     1     -17.840  -8.247   0.673  1.00  0.00     0.302 C 
HETATM   34  C16 UNL     1     -16.660  -7.789   1.549  1.00  0.00     0.302 C 
HETATM   35  N5  UNL     1     -15.493  -7.545   0.721  1.00  0.00     0.087 N 
HETATM   36  C17 UNL     1     -15.573  -6.306  -0.015  1.00  0.00     0.310 C 
HETATM   37  C18 UNL     1     -15.186  -8.643  -0.145  1.00  0.00     0.302 C 
HETATM   38  C19 UNL     1     -16.373  -9.118  -0.963  1.00  0.00     0.302 C 
ENDBRANCH  31  32
ENDBRANCH  30  31
ENDBRANCH  29  30
ENDBRANCH  28  29
ENDBRANCH  10  28
TORSDOF 9
ENDMDL
