MODEL 2
REMARK VINA RESULT: -9.333729001      3.812      9.135
REMARK  9 active torsions:
REMARK  status: ('A' for Active; 'I' for Inactive)
REMARK    1  A    between atoms: O1_2  and  C2_3 
REMARK    2  A    between atoms: C5_6  and  N1_7 
REMARK    3  A    between atoms: N1_7  and  C6_9 
REMARK    4  A    between atoms: C9_13  and  O2_14 
REMARK    5  A    between atoms: C18_27  and  O3_28 
REMARK    6  A    between atoms: O3_28  and  C19_29 
REMARK    7  A    between atoms: C19_29  and  C20_30 
REMARK    8  A    between atoms: C20_30  and  C21_31 
REMARK    9  A    between atoms: C21_31  and  N4_32 
ROOT
HETATM    1  C2  UNL     1       4.831  -6.005  -2.379  1.00  0.00     0.102 A 
HETATM    2  C3  UNL     1       5.653  -4.939  -2.639  1.00  0.00     0.055 A 
HETATM    3  C4  UNL     1       6.831  -4.728  -1.928  1.00  0.00     0.022 A 
HETATM    4  C5  UNL     1       7.676  -3.662  -2.142  1.00  0.00     0.067 A 
HETATM    5  C13 UNL     1       8.829  -3.422  -1.449  1.00  0.00     0.087 A 
HETATM    6  C14 UNL     1       9.675  -2.287  -1.702  1.00  0.00     0.103 C 
HETATM    7  N2  UNL     1      10.342  -1.359  -1.902  1.00  0.00    -0.191 NA
HETATM    8  C15 UNL     1       9.157  -4.348  -0.448  1.00  0.00     0.113 A 
HETATM    9  N3  UNL     1       8.343  -5.397  -0.225  1.00  0.00    -0.364 N 
ATOM     10  H3  UNL     1       8.597  -6.060   0.506  1.00  0.00     0.165 HD
HETATM   11  C16 UNL     1       7.211  -5.613  -0.919  1.00  0.00     0.047 A 
HETATM   12  C17 UNL     1       6.374  -6.678  -0.676  1.00  0.00     0.070 A 
HETATM   13  C18 UNL     1       5.204  -6.916  -1.355  1.00  0.00     0.104 A 
ENDROOT
BRANCH   4  14
HETATM   14  N1  UNL     1       7.310  -2.768  -3.187  1.00  0.00    -0.354 N 
ATOM     15  H1  UNL     1       7.679  -2.873  -4.132  1.00  0.00     0.166 HD
BRANCH  14  16
HETATM   16  C6  UNL     1       6.411  -1.726  -2.855  1.00  0.00     0.035 A 
HETATM   17  C7  UNL     1       5.171  -1.691  -3.449  1.00  0.00     0.056 A 
HETATM   18  C8  UNL     1       4.252  -0.690  -3.140  1.00  0.00     0.071 A 
HETATM   19 CL1  UNL     1       2.687  -0.691  -3.934  1.00  0.00    -0.081 Cl
HETATM   20  C9  UNL     1       4.574   0.285  -2.226  1.00  0.00     0.111 A 
HETATM   21  C11 UNL     1       5.821   0.257  -1.620  1.00  0.00     0.071 A 
HETATM   22 CL2  UNL     1       6.261   1.462  -0.458  1.00  0.00    -0.081 Cl
HETATM   23  C12 UNL     1       6.716  -0.741  -1.941  1.00  0.00     0.056 A 
BRANCH  20  24
HETATM   24  O2  UNL     1       3.672   1.271  -1.920  1.00  0.00    -0.352 OA
HETATM   25  C10 UNL     1       2.718   1.207  -0.876  1.00  0.00     0.210 C 
ENDBRANCH  20  24
ENDBRANCH  14  16
ENDBRANCH   4  14
BRANCH   1  26
HETATM   26  O1  UNL     1       3.661  -6.314  -2.997  1.00  0.00    -0.353 OA
HETATM   27  C1  UNL     1       2.474  -5.585  -2.728  1.00  0.00     0.210 C 
ENDBRANCH   1  26
BRANCH  13  28
HETATM   28  O3  UNL     1       4.368  -7.982  -1.112  1.00  0.00    -0.348 OA
BRANCH  28  29
HETATM   29  C19 UNL     1       3.918  -8.276   0.188  1.00  0.00     0.177 C 
BRANCH  29  30
HETATM   30  C20 UNL     1       2.704  -7.432   0.522  1.00  0.00     0.057 C 
BRANCH  30  31
HETATM   31  C21 UNL     1       1.511  -8.208   0.999  1.00  0.00     0.274 C 
BRANCH  31  32
HETATM   32  N4  UNL     1       0.365  -7.636   0.250  1.00  0.00     0.091 N 
HETATM   33  C22 UNL     1      -0.855  -7.665   0.958  1.00  0.00     0.302 C 
HETATM   34  C23 UNL     1      -1.837  -8.732   0.654  1.00  0.00     0.302 C 
HETATM   35  N5  UNL     1      -1.857  -9.217  -0.693  1.00  0.00     0.087 N 
HETATM   36  C24 UNL     1      -2.623 -10.443  -0.761  1.00  0.00     0.310 C 
HETATM   37  C25 UNL     1      -0.484  -9.505  -1.129  1.00  0.00     0.302 C 
HETATM   38  C26 UNL     1       0.283  -8.197  -1.061  1.00  0.00     0.302 C 
ENDBRANCH  31  32
ENDBRANCH  30  31
ENDBRANCH  29  30
ENDBRANCH  28  29
ENDBRANCH  13  28
TORSDOF 9
ENDMDL
