MODEL 3
REMARK VINA RESULT: -9.302365760      3.717      9.029
REMARK  9 active torsions:
REMARK  status: ('A' for Active; 'I' for Inactive)
REMARK    1  A    between atoms: O1_2  and  C2_3 
REMARK    2  A    between atoms: C5_6  and  N1_7 
REMARK    3  A    between atoms: N1_7  and  C6_9 
REMARK    4  A    between atoms: C9_13  and  O2_14 
REMARK    5  A    between atoms: C18_27  and  O3_28 
REMARK    6  A    between atoms: O3_28  and  C19_29 
REMARK    7  A    between atoms: C19_29  and  C20_30 
REMARK    8  A    between atoms: C20_30  and  C21_31 
REMARK    9  A    between atoms: C21_31  and  N4_32 
ROOT
HETATM    1  C2  UNL     1       4.807  -5.989  -2.329  1.00  0.00     0.102 A 
HETATM    2  C3  UNL     1       5.624  -4.921  -2.600  1.00  0.00     0.055 A 
HETATM    3  C4  UNL     1       6.809  -4.705  -1.903  1.00  0.00     0.022 A 
HETATM    4  C5  UNL     1       7.649  -3.638  -2.129  1.00  0.00     0.067 A 
HETATM    5  C13 UNL     1       8.809  -3.393  -1.449  1.00  0.00     0.087 A 
HETATM    6  C14 UNL     1       9.650  -2.258  -1.715  1.00  0.00     0.103 C 
HETATM    7  N2  UNL     1      10.312  -1.328  -1.924  1.00  0.00    -0.191 NA
HETATM    8  C15 UNL     1       9.150  -4.316  -0.449  1.00  0.00     0.113 A 
HETATM    9  N3  UNL     1       8.341  -5.366  -0.214  1.00  0.00    -0.364 N 
ATOM     10  H3  UNL     1       8.604  -6.027   0.516  1.00  0.00     0.165 HD
HETATM   11  C16 UNL     1       7.202  -5.587  -0.895  1.00  0.00     0.047 A 
HETATM   12  C17 UNL     1       6.370  -6.654  -0.640  1.00  0.00     0.070 A 
HETATM   13  C18 UNL     1       5.194  -6.896  -1.306  1.00  0.00     0.104 A 
ENDROOT
BRANCH   4  14
HETATM   14  N1  UNL     1       7.270  -2.749  -3.172  1.00  0.00    -0.354 N 
ATOM     15  H1  UNL     1       7.626  -2.858  -4.122  1.00  0.00     0.166 HD
BRANCH  14  16
HETATM   16  C6  UNL     1       6.377  -1.703  -2.833  1.00  0.00     0.035 A 
HETATM   17  C7  UNL     1       5.129  -1.670  -3.409  1.00  0.00     0.056 A 
HETATM   18  C8  UNL     1       4.215  -0.666  -3.091  1.00  0.00     0.071 A 
HETATM   19 CL1  UNL     1       2.640  -0.669  -3.863  1.00  0.00    -0.081 Cl
HETATM   20  C9  UNL     1       4.552   0.312  -2.187  1.00  0.00     0.111 A 
HETATM   21  C11 UNL     1       5.808   0.286  -1.599  1.00  0.00     0.071 A 
HETATM   22 CL2  UNL     1       6.265   1.496  -0.449  1.00  0.00    -0.081 Cl
HETATM   23  C12 UNL     1       6.696  -0.715  -1.928  1.00  0.00     0.056 A 
BRANCH  20  24
HETATM   24  O2  UNL     1       3.656   1.301  -1.873  1.00  0.00    -0.352 OA
HETATM   25  C10 UNL     1       2.693   1.229  -0.837  1.00  0.00     0.210 C 
ENDBRANCH  20  24
ENDBRANCH  14  16
ENDBRANCH   4  14
BRANCH   1  26
HETATM   26  O1  UNL     1       3.632  -6.302  -2.934  1.00  0.00    -0.353 OA
HETATM   27  C1  UNL     1       2.500  -5.454  -2.821  1.00  0.00     0.210 C 
ENDBRANCH   1  26
BRANCH  13  28
HETATM   28  O3  UNL     1       4.362  -7.963  -1.051  1.00  0.00    -0.348 OA
BRANCH  28  29
HETATM   29  C19 UNL     1       3.795  -8.160   0.221  1.00  0.00     0.177 C 
BRANCH  29  30
HETATM   30  C20 UNL     1       2.486  -7.404   0.330  1.00  0.00     0.057 C 
BRANCH  30  31
HETATM   31  C21 UNL     1       1.401  -8.130   1.072  1.00  0.00     0.274 C 
BRANCH  31  32
HETATM   32  N4  UNL     1       0.621  -8.822   0.016  1.00  0.00     0.091 N 
HETATM   33  C22 UNL     1       0.548  -8.111  -1.201  1.00  0.00     0.302 C 
HETATM   34  C23 UNL     1      -0.678  -7.337  -1.507  1.00  0.00     0.302 C 
HETATM   35  N5  UNL     1      -1.906  -7.848  -0.980  1.00  0.00     0.087 N 
HETATM   36  C24 UNL     1      -2.942  -6.844  -1.088  1.00  0.00     0.310 C 
HETATM   37  C25 UNL     1      -1.728  -8.177   0.441  1.00  0.00     0.302 C 
HETATM   38  C26 UNL     1      -0.649  -9.242   0.514  1.00  0.00     0.302 C 
ENDBRANCH  31  32
ENDBRANCH  30  31
ENDBRANCH  29  30
ENDBRANCH  28  29
ENDBRANCH  13  28
TORSDOF 9
ENDMDL
