MODEL 1
REMARK VINA RESULT: -9.402838700      0.000      0.000
REMARK  9 active torsions:
REMARK  status: ('A' for Active; 'I' for Inactive)
REMARK    1  A    between atoms: O1_2  and  C2_3 
REMARK    2  A    between atoms: C5_6  and  N1_7 
REMARK    3  A    between atoms: N1_7  and  C6_9 
REMARK    4  A    between atoms: C9_13  and  O2_14 
REMARK    5  A    between atoms: C18_27  and  O3_28 
REMARK    6  A    between atoms: O3_28  and  C19_29 
REMARK    7  A    between atoms: C19_29  and  C20_30 
REMARK    8  A    between atoms: C20_30  and  C21_31 
REMARK    9  A    between atoms: C21_31  and  N4_32 
ROOT
HETATM    1  C2  UNL     1       1.185  -1.692  -2.445  1.00  0.00     0.102 A 
HETATM    2  C3  UNL     1       1.163  -3.040  -2.696  1.00  0.00     0.055 A 
HETATM    3  C4  UNL     1       1.879  -3.946  -1.919  1.00  0.00     0.022 A 
HETATM    4  C5  UNL     1       1.900  -5.303  -2.147  1.00  0.00     0.067 A 
HETATM    5  C13 UNL     1       2.606  -6.213  -1.410  1.00  0.00     0.087 A 
HETATM    6  C14 UNL     1       2.604  -7.622  -1.693  1.00  0.00     0.103 C 
HETATM    7  N2  UNL     1       2.611  -8.756  -1.941  1.00  0.00    -0.191 NA
HETATM    8  C15 UNL     1       3.359  -5.699  -0.344  1.00  0.00     0.113 A 
HETATM    9  N3  UNL     1       3.349  -4.374  -0.106  1.00  0.00    -0.364 N 
ATOM     10  H3  UNL     1       3.902  -4.018   0.674  1.00  0.00     0.165 HD
HETATM   11  C16 UNL     1       2.648  -3.496  -0.845  1.00  0.00     0.047 A 
HETATM   12  C17 UNL     1       2.655  -2.140  -0.608  1.00  0.00     0.070 A 
HETATM   13  C18 UNL     1       1.963  -1.219  -1.354  1.00  0.00     0.104 A 
ENDROOT
BRANCH   4  14
HETATM   14  N1  UNL     1       1.098  -5.774  -3.223  1.00  0.00    -0.354 N 
ATOM     15  H1  UNL     1       1.490  -5.935  -4.151  1.00  0.00     0.166 HD
BRANCH  14  16
HETATM   16  C6  UNL     1      -0.272  -6.010  -2.948  1.00  0.00     0.035 A 
HETATM   17  C7  UNL     1      -0.617  -6.912  -1.970  1.00  0.00     0.056 A 
HETATM   18  C8  UNL     1      -1.952  -7.163  -1.659  1.00  0.00     0.071 A 
HETATM   19 CL1  UNL     1      -2.334  -8.331  -0.406  1.00  0.00    -0.081 Cl
HETATM   20  C9  UNL     1      -2.953  -6.502  -2.331  1.00  0.00     0.111 A 
HETATM   21  C11 UNL     1      -2.615  -5.589  -3.318  1.00  0.00     0.071 A 
HETATM   22 CL2  UNL     1      -3.846  -4.732  -4.181  1.00  0.00    -0.081 Cl
HETATM   23  C12 UNL     1      -1.287  -5.357  -3.611  1.00  0.00     0.056 A 
BRANCH  20  24
HETATM   24  O2  UNL     1      -4.267  -6.747  -2.028  1.00  0.00    -0.352 OA
HETATM   25  C10 UNL     1      -5.059  -5.969  -1.150  1.00  0.00     0.210 C 
ENDBRANCH  20  24
ENDBRANCH  14  16
ENDBRANCH   4  14
BRANCH   1  26
HETATM   26  O1  UNL     1       0.536  -0.715  -3.130  1.00  0.00    -0.353 OA
HETATM   27  C1  UNL     1       1.121  -0.106  -4.270  1.00  0.00     0.210 C 
ENDBRANCH   1  26
BRANCH  13  28
HETATM   28  O3  UNL     1       1.970   0.137  -1.116  1.00  0.00    -0.348 OA
BRANCH  28  29
HETATM   29  C19 UNL     1       3.082   0.771  -0.534  1.00  0.00     0.177 C 
BRANCH  29  30
HETATM   30  C20 UNL     1       4.163   0.985  -1.574  1.00  0.00     0.057 C 
BRANCH  30  31
HETATM   31  C21 UNL     1       5.565   0.803  -1.069  1.00  0.00     0.274 C 
BRANCH  31  32
HETATM   32  N4  UNL     1       6.348   0.403  -2.265  1.00  0.00     0.091 N 
HETATM   33  C22 UNL     1       6.151  -0.939  -2.655  1.00  0.00     0.302 C 
HETATM   34  C23 UNL     1       7.164  -1.952  -2.276  1.00  0.00     0.302 C 
HETATM   35  N5  UNL     1       8.517  -1.497  -2.174  1.00  0.00     0.087 N 
HETATM   36  C24 UNL     1       9.322  -2.496  -1.505  1.00  0.00     0.310 C 
HETATM   37  C25 UNL     1       8.559  -0.262  -1.381  1.00  0.00     0.302 C 
HETATM   38  C26 UNL     1       7.721   0.765  -2.120  1.00  0.00     0.302 C 
ENDBRANCH  31  32
ENDBRANCH  30  31
ENDBRANCH  29  30
ENDBRANCH  28  29
ENDBRANCH  13  28
TORSDOF 9
ENDMDL
