MODEL 1
REMARK VINA RESULT: -10.432029277      0.000      0.000
REMARK  8 active torsions:
REMARK  status: ('A' for Active; 'I' for Inactive)
REMARK    1  A    between atoms: C2_2  and  C3_3 
REMARK    2  A    between atoms: C3_3  and  N1_4 
REMARK    3  A    between atoms: C7_11  and  N3_12 
REMARK    4  A    between atoms: N3_12  and  C8_14 
REMARK    5  A    between atoms: C11_17  and  N4_18 
REMARK    6  A    between atoms: N7_30  and  C20_31 
REMARK    7  A    between atoms: C24_35  and  C25_36 
REMARK    8  A    between atoms: C25_36  and  O2_39 
ROOT
HETATM    1  N1  UNL     1     -15.553   1.336   2.779  1.00  0.00    -0.243 N 
HETATM    2  C4  UNL     1     -14.361   1.936   2.474  1.00  0.00     0.278 A 
HETATM    3  O1  UNL     1     -13.260   1.337   2.365  1.00  0.00    -0.265 OA
HETATM    4  C5  UNL     1     -14.573   3.278   2.309  1.00  0.00     0.096 A 
HETATM    5  C6  UNL     1     -13.794   4.375   2.010  1.00  0.00     0.127 A 
HETATM    6  N2  UNL     1     -14.396   5.575   1.944  1.00  0.00    -0.201 N 
ATOM      7  H2  UNL     1     -13.806   6.377   1.723  1.00  0.00     0.183 HD
HETATM    8  C7  UNL     1     -15.689   5.813   2.140  1.00  0.00     0.684 A 
HETATM    9  N6  UNL     1     -16.462   4.728   2.437  1.00  0.00    -0.173 N 
ATOM     10  H6  UNL     1     -17.462   4.848   2.598  1.00  0.00     0.186 HD
HETATM   11  C19 UNL     1     -15.915   3.501   2.517  1.00  0.00     0.162 A 
HETATM   12  N7  UNL     1     -16.448   2.271   2.799  1.00  0.00    -0.217 N 
ENDROOT
BRANCH   8  13
HETATM   13  N3  UNL     1     -16.258   7.108   2.064  1.00  0.00    -0.192 N 
ATOM     14  H3  UNL     1     -15.673   7.884   2.375  1.00  0.00     0.184 HD
BRANCH  13  15
HETATM   15  C8  UNL     1     -17.542   7.434   1.604  1.00  0.00     0.049 A 
HETATM   16  C9  UNL     1     -18.442   8.180   2.321  1.00  0.00     0.032 A 
HETATM   17  C10 UNL     1     -19.727   8.442   1.819  1.00  0.00     0.031 A 
HETATM   18  C11 UNL     1     -20.104   7.954   0.592  1.00  0.00     0.030 A 
HETATM   19  C17 UNL     1     -19.226   7.203  -0.155  1.00  0.00     0.031 A 
HETATM   20  C18 UNL     1     -17.975   6.960   0.359  1.00  0.00     0.032 A 
BRANCH  18  21
HETATM   21  N4  UNL     1     -21.413   8.260   0.124  1.00  0.00    -0.378 N 
HETATM   22  C12 UNL     1     -22.238   7.238  -0.525  1.00  0.00     0.153 C 
HETATM   23  C13 UNL     1     -23.569   7.232   0.228  1.00  0.00     0.291 C 
HETATM   24  N5  UNL     1     -24.135   8.559  -0.011  1.00  0.00     0.087 N 
HETATM   25  C14 UNL     1     -25.525   8.552   0.367  1.00  0.00     0.310 C 
HETATM   26  C15 UNL     1     -23.388   9.535   0.761  1.00  0.00     0.291 C 
HETATM   27  C16 UNL     1     -21.982   9.588   0.232  1.00  0.00     0.153 C 
ENDBRANCH  18  21
ENDBRANCH  13  15
ENDBRANCH   8  13
BRANCH  12  28
HETATM   28  C20 UNL     1     -17.849   2.109   3.082  1.00  0.00     0.129 A 
HETATM   29  C21 UNL     1     -18.263   1.079   3.917  1.00  0.00     0.050 A 
HETATM   30  C22 UNL     1     -19.610   0.951   4.176  1.00  0.00     0.006 A 
HETATM   31  C23 UNL     1     -20.508   1.850   3.596  1.00  0.00     0.028 A 
HETATM   32  C24 UNL     1     -20.069   2.857   2.774  1.00  0.00     0.044 A 
HETATM   33  N8  UNL     1     -18.744   2.949   2.546  1.00  0.00    -0.342 N 
ATOM     34  H8  UNL     1     -18.406   3.694   1.937  1.00  0.00     0.167 HD
BRANCH  32  35
HETATM   35  C25 UNL     1     -21.041   3.804   2.169  1.00  0.00     0.092 C 
HETATM   36  C26 UNL     1     -21.100   5.110   2.878  1.00  0.00     0.052 C 
HETATM   37  C27 UNL     1     -20.820   3.907   0.686  1.00  0.00     0.052 C 
BRANCH  35  38
HETATM   38  O2  UNL     1     -22.300   3.182   2.326  1.00  0.00    -0.384 OA
ATOM     39  H2  UNL     1     -22.656   3.551   3.126  1.00  0.00     0.211 HD
ENDBRANCH  35  38
ENDBRANCH  32  35
ENDBRANCH  12  28
BRANCH   1  40
HETATM   40  C3  UNL     1     -15.697  -0.078   3.035  1.00  0.00     0.179 C 
BRANCH  40  41
HETATM   41  C2  UNL     1     -15.886  -0.870   1.794  1.00  0.00    -0.015 C 
HETATM   42  C1  UNL     1     -17.026  -1.478   1.515  1.00  0.00     0.008 C 
ENDBRANCH  40  41
ENDBRANCH   1  40
TORSDOF 8
ENDMDL
