MODEL 5
REMARK VINA RESULT: -10.171939843      3.030      8.064
REMARK  8 active torsions:
REMARK  status: ('A' for Active; 'I' for Inactive)
REMARK    1  A    between atoms: C2_2  and  C3_3 
REMARK    2  A    between atoms: C3_3  and  N1_4 
REMARK    3  A    between atoms: C7_11  and  N3_12 
REMARK    4  A    between atoms: N3_12  and  C8_14 
REMARK    5  A    between atoms: C11_17  and  N4_18 
REMARK    6  A    between atoms: N7_30  and  C20_31 
REMARK    7  A    between atoms: C24_35  and  C25_36 
REMARK    8  A    between atoms: C25_36  and  O2_39 
ROOT
HETATM    1  N1  UNL     1     -19.100   1.428   3.456  1.00  0.00    -0.243 N 
HETATM    2  C4  UNL     1     -18.763   0.103   3.535  1.00  0.00     0.278 A 
HETATM    3  O1  UNL     1     -19.538  -0.817   3.902  1.00  0.00    -0.265 OA
HETATM    4  C5  UNL     1     -17.457  -0.042   3.151  1.00  0.00     0.096 A 
HETATM    5  C6  UNL     1     -16.570  -1.090   3.030  1.00  0.00     0.127 A 
HETATM    6  N2  UNL     1     -15.323  -0.814   2.613  1.00  0.00    -0.201 N 
ATOM      7  H2  UNL     1     -14.678  -1.600   2.529  1.00  0.00     0.183 HD
HETATM    8  C7  UNL     1     -14.851   0.388   2.300  1.00  0.00     0.684 A 
HETATM    9  N6  UNL     1     -15.727   1.428   2.419  1.00  0.00    -0.173 N 
ATOM     10  H6  UNL     1     -15.423   2.375   2.193  1.00  0.00     0.186 HD
HETATM   11  C19 UNL     1     -16.990   1.213   2.833  1.00  0.00     0.162 A 
HETATM   12  N7  UNL     1     -18.047   2.058   3.042  1.00  0.00    -0.217 N 
ENDROOT
BRANCH   8  13
HETATM   13  N3  UNL     1     -13.518   0.610   1.874  1.00  0.00    -0.192 N 
ATOM     14  H3  UNL     1     -13.003  -0.205   1.540  1.00  0.00     0.184 HD
BRANCH  13  15
HETATM   15  C8  UNL     1     -12.834   1.834   1.863  1.00  0.00     0.049 A 
HETATM   16  C9  UNL     1     -13.414   3.030   1.525  1.00  0.00     0.032 A 
HETATM   17  C10 UNL     1     -12.666   4.217   1.500  1.00  0.00     0.031 A 
HETATM   18  C11 UNL     1     -11.330   4.200   1.819  1.00  0.00     0.030 A 
HETATM   19  C17 UNL     1     -10.715   3.019   2.165  1.00  0.00     0.031 A 
HETATM   20  C18 UNL     1     -11.470   1.871   2.181  1.00  0.00     0.032 A 
BRANCH  18  21
HETATM   21  N4  UNL     1     -10.619   5.433   1.791  1.00  0.00    -0.378 N 
HETATM   22  C12 UNL     1      -9.727   5.812   2.889  1.00  0.00     0.153 C 
HETATM   23  C13 UNL     1      -8.383   6.149   2.240  1.00  0.00     0.291 C 
HETATM   24  N5  UNL     1      -8.661   7.311   1.397  1.00  0.00     0.087 N 
HETATM   25  C14 UNL     1      -7.414   7.913   1.003  1.00  0.00     0.310 C 
HETATM   26  C15 UNL     1      -9.423   6.880   0.239  1.00  0.00     0.291 C 
HETATM   27  C16 UNL     1     -10.763   6.383   0.707  1.00  0.00     0.153 C 
ENDBRANCH  18  21
ENDBRANCH  13  15
ENDBRANCH   8  13
BRANCH  12  28
HETATM   28  C20 UNL     1     -17.931   3.473   2.816  1.00  0.00     0.129 A 
HETATM   29  C21 UNL     1     -16.920   4.186   3.448  1.00  0.00     0.050 A 
HETATM   30  C22 UNL     1     -16.828   5.540   3.207  1.00  0.00     0.006 A 
HETATM   31  C23 UNL     1     -17.745   6.146   2.346  1.00  0.00     0.028 A 
HETATM   32  C24 UNL     1     -18.734   5.417   1.737  1.00  0.00     0.044 A 
HETATM   33  N8  UNL     1     -18.790   4.095   1.997  1.00  0.00    -0.342 N 
ATOM     34  H8  UNL     1     -19.521   3.543   1.550  1.00  0.00     0.167 HD
BRANCH  32  35
HETATM   35  C25 UNL     1     -19.699   6.082   0.823  1.00  0.00     0.092 C 
HETATM   36  C26 UNL     1     -20.675   5.136   0.220  1.00  0.00     0.052 C 
HETATM   37  C27 UNL     1     -20.318   7.277   1.492  1.00  0.00     0.052 C 
BRANCH  35  38
HETATM   38  O2  UNL     1     -18.907   6.598  -0.227  1.00  0.00    -0.384 OA
ATOM     39  H2  UNL     1     -19.512   7.092  -0.768  1.00  0.00     0.211 HD
ENDBRANCH  35  38
ENDBRANCH  32  35
ENDBRANCH  12  28
BRANCH   1  40
HETATM   40  C3  UNL     1     -20.403   1.946   3.803  1.00  0.00     0.179 C 
BRANCH  40  41
HETATM   41  C2  UNL     1     -21.393   1.792   2.708  1.00  0.00    -0.015 C 
HETATM   42  C1  UNL     1     -22.541   1.160   2.883  1.00  0.00     0.008 C 
ENDBRANCH  40  41
ENDBRANCH   1  40
TORSDOF 8
ENDMDL
