MODEL 4
REMARK VINA RESULT: -10.185393552      3.530      7.228
REMARK  8 active torsions:
REMARK  status: ('A' for Active; 'I' for Inactive)
REMARK    1  A    between atoms: C2_2  and  C3_3 
REMARK    2  A    between atoms: C3_3  and  N1_4 
REMARK    3  A    between atoms: C7_11  and  N3_12 
REMARK    4  A    between atoms: N3_12  and  C8_14 
REMARK    5  A    between atoms: C11_17  and  N4_18 
REMARK    6  A    between atoms: N7_30  and  C20_31 
REMARK    7  A    between atoms: C24_35  and  C25_36 
REMARK    8  A    between atoms: C25_36  and  O2_39 
ROOT
HETATM    1  N1  UNL     1     -12.404   5.734   1.703  1.00  0.00    -0.243 N 
HETATM    2  C4  UNL     1     -11.326   4.891   1.716  1.00  0.00     0.278 A 
HETATM    3  O1  UNL     1     -10.125   5.255   1.619  1.00  0.00    -0.265 OA
HETATM    4  C5  UNL     1     -11.774   3.605   1.851  1.00  0.00     0.096 A 
HETATM    5  C6  UNL     1     -11.196   2.355   1.920  1.00  0.00     0.127 A 
HETATM    6  N2  UNL     1     -12.008   1.292   2.049  1.00  0.00    -0.201 N 
ATOM      7  H2  UNL     1     -11.565   0.375   2.097  1.00  0.00     0.183 HD
HETATM    8  C7  UNL     1     -13.335   1.326   2.120  1.00  0.00     0.684 A 
HETATM    9  N6  UNL     1     -13.910   2.562   2.052  1.00  0.00    -0.173 N 
ATOM     10  H6  UNL     1     -14.925   2.651   2.101  1.00  0.00     0.186 HD
HETATM   11  C19 UNL     1     -13.148   3.664   1.922  1.00  0.00     0.162 A 
HETATM   12  N7  UNL     1     -13.459   4.994   1.825  1.00  0.00    -0.217 N 
ENDROOT
BRANCH   8  13
HETATM   13  N3  UNL     1     -14.133   0.162   2.247  1.00  0.00    -0.192 N 
ATOM     14  H3  UNL     1     -13.646  -0.733   2.205  1.00  0.00     0.184 HD
BRANCH  13  15
HETATM   15  C8  UNL     1     -15.523   0.115   2.426  1.00  0.00     0.049 A 
HETATM   16  C9  UNL     1     -16.323  -0.883   1.930  1.00  0.00     0.032 A 
HETATM   17  C10 UNL     1     -17.714  -0.855   2.113  1.00  0.00     0.031 A 
HETATM   18  C11 UNL     1     -18.301   0.180   2.800  1.00  0.00     0.030 A 
HETATM   19  C17 UNL     1     -17.530   1.196   3.313  1.00  0.00     0.031 A 
HETATM   20  C18 UNL     1     -16.170   1.146   3.119  1.00  0.00     0.032 A 
BRANCH  18  21
HETATM   21  N4  UNL     1     -19.714   0.154   2.969  1.00  0.00    -0.378 N 
HETATM   22  C12 UNL     1     -20.585  -0.418   1.939  1.00  0.00     0.153 C 
HETATM   23  C13 UNL     1     -21.462  -1.447   2.656  1.00  0.00     0.291 C 
HETATM   24  N5  UNL     1     -22.254  -0.662   3.602  1.00  0.00     0.087 N 
HETATM   25  C14 UNL     1     -23.341  -1.471   4.088  1.00  0.00     0.310 C 
HETATM   26  C15 UNL     1     -21.395  -0.230   4.690  1.00  0.00     0.291 C 
HETATM   27  C16 UNL     1     -20.363   0.713   4.138  1.00  0.00     0.153 C 
ENDBRANCH  18  21
ENDBRANCH  13  15
ENDBRANCH   8  13
BRANCH  12  28
HETATM   28  C20 UNL     1     -14.824   5.447   1.855  1.00  0.00     0.129 A 
HETATM   29  C21 UNL     1     -15.662   5.023   2.879  1.00  0.00     0.050 A 
HETATM   30  C22 UNL     1     -16.963   5.478   2.887  1.00  0.00     0.006 A 
HETATM   31  C23 UNL     1     -17.393   6.342   1.877  1.00  0.00     0.028 A 
HETATM   32  C24 UNL     1     -16.542   6.742   0.879  1.00  0.00     0.044 A 
HETATM   33  N8  UNL     1     -15.278   6.276   0.906  1.00  0.00    -0.342 N 
ATOM     34  H8  UNL     1     -14.637   6.567   0.169  1.00  0.00     0.167 HD
BRANCH  32  35
HETATM   35  C25 UNL     1     -17.021   7.663  -0.185  1.00  0.00     0.092 C 
HETATM   36  C26 UNL     1     -18.452   8.037  -0.031  1.00  0.00     0.052 C 
HETATM   37  C27 UNL     1     -16.083   8.827  -0.334  1.00  0.00     0.052 C 
BRANCH  35  38
HETATM   38  O2  UNL     1     -16.906   6.923  -1.384  1.00  0.00    -0.384 OA
ATOM     39  H2  UNL     1     -17.383   7.430  -2.030  1.00  0.00     0.211 HD
ENDBRANCH  35  38
ENDBRANCH  32  35
ENDBRANCH  12  28
BRANCH   1  40
HETATM   40  C3  UNL     1     -12.300   7.167   1.559  1.00  0.00     0.179 C 
BRANCH  40  41
HETATM   41  C2  UNL     1     -11.417   7.785   2.578  1.00  0.00    -0.015 C 
HETATM   42  C1  UNL     1     -10.599   8.783   2.288  1.00  0.00     0.008 C 
ENDBRANCH  40  41
ENDBRANCH   1  40
TORSDOF 8
ENDMDL
