MODEL 2
REMARK VINA RESULT: -10.303245588      3.727      7.205
REMARK  8 active torsions:
REMARK  status: ('A' for Active; 'I' for Inactive)
REMARK    1  A    between atoms: C2_2  and  C3_3 
REMARK    2  A    between atoms: C3_3  and  N1_4 
REMARK    3  A    between atoms: C7_11  and  N3_12 
REMARK    4  A    between atoms: N3_12  and  C8_14 
REMARK    5  A    between atoms: C11_17  and  N4_18 
REMARK    6  A    between atoms: N7_30  and  C20_31 
REMARK    7  A    between atoms: C24_35  and  C25_36 
REMARK    8  A    between atoms: C25_36  and  O2_39 
ROOT
HETATM    1  N1  UNL     1     -11.822   5.932   1.668  1.00  0.00    -0.243 N 
HETATM    2  C4  UNL     1     -10.767   5.109   1.952  1.00  0.00     0.278 A 
HETATM    3  O1  UNL     1      -9.583   5.492   2.135  1.00  0.00    -0.265 OA
HETATM    4  C5  UNL     1     -11.217   3.817   2.001  1.00  0.00     0.096 A 
HETATM    5  C6  UNL     1     -10.655   2.579   2.228  1.00  0.00     0.127 A 
HETATM    6  N2  UNL     1     -11.460   1.504   2.181  1.00  0.00    -0.201 N 
ATOM      7  H2  UNL     1     -11.028   0.595   2.350  1.00  0.00     0.183 HD
HETATM    8  C7  UNL     1     -12.766   1.515   1.935  1.00  0.00     0.684 A 
HETATM    9  N6  UNL     1     -13.325   2.740   1.710  1.00  0.00    -0.173 N 
ATOM     10  H6  UNL     1     -14.324   2.812   1.516  1.00  0.00     0.186 HD
HETATM   11  C19 UNL     1     -12.569   3.853   1.744  1.00  0.00     0.162 A 
HETATM   12  N7  UNL     1     -12.866   5.175   1.551  1.00  0.00    -0.217 N 
ENDROOT
BRANCH   8  13
HETATM   13  N3  UNL     1     -13.555   0.340   1.892  1.00  0.00    -0.192 N 
ATOM     14  H3  UNL     1     -13.082  -0.519   1.611  1.00  0.00     0.184 HD
BRANCH  13  15
HETATM   15  C8  UNL     1     -14.921   0.235   2.196  1.00  0.00     0.049 A 
HETATM   16  C9  UNL     1     -15.602   1.141   2.969  1.00  0.00     0.032 A 
HETATM   17  C10 UNL     1     -16.961   0.961   3.266  1.00  0.00     0.031 A 
HETATM   18  C11 UNL     1     -17.638  -0.133   2.782  1.00  0.00     0.030 A 
HETATM   19  C17 UNL     1     -16.987  -1.060   2.002  1.00  0.00     0.031 A 
HETATM   20  C18 UNL     1     -15.655  -0.861   1.727  1.00  0.00     0.032 A 
BRANCH  18  21
HETATM   21  N4  UNL     1     -19.019  -0.261   3.102  1.00  0.00    -0.378 N 
HETATM   22  C12 UNL     1     -19.564   0.325   4.328  1.00  0.00     0.153 C 
HETATM   23  C13 UNL     1     -20.751   1.185   3.890  1.00  0.00     0.291 C 
HETATM   24  N5  UNL     1     -21.706   0.236   3.320  1.00  0.00     0.087 N 
HETATM   25  C14 UNL     1     -22.985   0.883   3.183  1.00  0.00     0.310 C 
HETATM   26  C15 UNL     1     -21.208  -0.217   2.034  1.00  0.00     0.291 C 
HETATM   27  C16 UNL     1     -19.941  -0.996   2.260  1.00  0.00     0.153 C 
ENDBRANCH  18  21
ENDBRANCH  13  15
ENDBRANCH   8  13
BRANCH  12  28
HETATM   28  C20 UNL     1     -14.205   5.605   1.249  1.00  0.00     0.129 A 
HETATM   29  C21 UNL     1     -14.466   6.232   0.037  1.00  0.00     0.050 A 
HETATM   30  C22 UNL     1     -15.759   6.627  -0.229  1.00  0.00     0.006 A 
HETATM   31  C23 UNL     1     -16.756   6.389   0.719  1.00  0.00     0.028 A 
HETATM   32  C24 UNL     1     -16.469   5.769   1.908  1.00  0.00     0.044 A 
HETATM   33  N8  UNL     1     -15.192   5.397   2.130  1.00  0.00    -0.342 N 
ATOM     34  H8  UNL     1     -14.967   4.935   3.011  1.00  0.00     0.167 HD
BRANCH  32  35
HETATM   35  C25 UNL     1     -17.546   5.524   2.902  1.00  0.00     0.092 C 
HETATM   36  C26 UNL     1     -18.488   6.669   3.033  1.00  0.00     0.052 C 
HETATM   37  C27 UNL     1     -18.205   4.198   2.648  1.00  0.00     0.052 C 
BRANCH  35  38
HETATM   38  O2  UNL     1     -16.875   5.388   4.139  1.00  0.00    -0.384 OA
ATOM     39  H2  UNL     1     -17.240   6.070   4.690  1.00  0.00     0.211 HD
ENDBRANCH  35  38
ENDBRANCH  32  35
ENDBRANCH  12  28
BRANCH   1  40
HETATM   40  C3  UNL     1     -11.707   7.365   1.526  1.00  0.00     0.179 C 
BRANCH  40  41
HETATM   41  C2  UNL     1     -11.200   8.026   2.754  1.00  0.00    -0.015 C 
HETATM   42  C1  UNL     1     -10.366   9.051   2.708  1.00  0.00     0.008 C 
ENDBRANCH  40  41
ENDBRANCH   1  40
TORSDOF 8
ENDMDL
