MODEL 3
REMARK VINA RESULT: -10.249289595      3.052      7.557
REMARK  8 active torsions:
REMARK  status: ('A' for Active; 'I' for Inactive)
REMARK    1  A    between atoms: C2_2  and  C3_3 
REMARK    2  A    between atoms: C3_3  and  N1_4 
REMARK    3  A    between atoms: C7_11  and  N3_12 
REMARK    4  A    between atoms: N3_12  and  C8_14 
REMARK    5  A    between atoms: C11_17  and  N4_18 
REMARK    6  A    between atoms: N7_30  and  C20_31 
REMARK    7  A    between atoms: C24_35  and  C25_36 
REMARK    8  A    between atoms: C25_36  and  O2_39 
ROOT
HETATM    1  N1  UNL     1     -18.662   0.927   2.936  1.00  0.00    -0.243 N 
HETATM    2  C4  UNL     1     -18.166  -0.341   2.795  1.00  0.00     0.278 A 
HETATM    3  O1  UNL     1     -18.852  -1.394   2.855  1.00  0.00    -0.265 OA
HETATM    4  C5  UNL     1     -16.816  -0.264   2.580  1.00  0.00     0.096 A 
HETATM    5  C6  UNL     1     -15.792  -1.164   2.379  1.00  0.00     0.127 A 
HETATM    6  N2  UNL     1     -14.551  -0.677   2.209  1.00  0.00    -0.201 N 
ATOM      7  H2  UNL     1     -13.804  -1.356   2.062  1.00  0.00     0.183 HD
HETATM    8  C7  UNL     1     -14.207   0.606   2.214  1.00  0.00     0.684 A 
HETATM    9  N6  UNL     1     -15.220   1.500   2.413  1.00  0.00    -0.173 N 
ATOM     10  H6  UNL     1     -15.018   2.499   2.428  1.00  0.00     0.186 HD
HETATM   11  C19 UNL     1     -16.483   1.071   2.590  1.00  0.00     0.162 A 
HETATM   12  N7  UNL     1     -17.660   1.736   2.812  1.00  0.00    -0.217 N 
ENDROOT
BRANCH   8  13
HETATM   13  N3  UNL     1     -12.874   1.052   2.036  1.00  0.00    -0.192 N 
ATOM     14  H3  UNL     1     -12.148   0.335   2.036  1.00  0.00     0.184 HD
BRANCH  13  15
HETATM   15  C8  UNL     1     -12.449   2.377   1.860  1.00  0.00     0.049 A 
HETATM   16  C9  UNL     1     -13.283   3.404   1.502  1.00  0.00     0.032 A 
HETATM   17  C10 UNL     1     -12.789   4.703   1.307  1.00  0.00     0.031 A 
HETATM   18  C11 UNL     1     -11.452   4.969   1.476  1.00  0.00     0.030 A 
HETATM   19  C17 UNL     1     -10.586   3.963   1.837  1.00  0.00     0.031 A 
HETATM   20  C18 UNL     1     -11.095   2.699   2.021  1.00  0.00     0.032 A 
BRANCH  18  21
HETATM   21  N4  UNL     1     -11.004   6.306   1.279  1.00  0.00    -0.378 N 
HETATM   22  C12 UNL     1     -11.783   7.441   1.781  1.00  0.00     0.153 C 
HETATM   23  C13 UNL     1     -10.813   8.278   2.617  1.00  0.00     0.291 C 
HETATM   24  N5  UNL     1      -9.808   8.742   1.663  1.00  0.00     0.087 N 
HETATM   25  C14 UNL     1      -9.041   9.801   2.267  1.00  0.00     0.310 C 
HETATM   26  C15 UNL     1      -8.957   7.625   1.295  1.00  0.00     0.291 C 
HETATM   27  C16 UNL     1      -9.789   6.615   0.554  1.00  0.00     0.153 C 
ENDBRANCH  18  21
ENDBRANCH  13  15
ENDBRANCH   8  13
BRANCH  12  28
HETATM   28  C20 UNL     1     -17.704   3.172   2.893  1.00  0.00     0.129 A 
HETATM   29  C21 UNL     1     -16.635   3.859   3.455  1.00  0.00     0.050 A 
HETATM   30  C22 UNL     1     -16.701   5.234   3.514  1.00  0.00     0.006 A 
HETATM   31  C23 UNL     1     -17.829   5.887   3.013  1.00  0.00     0.028 A 
HETATM   32  C24 UNL     1     -18.870   5.182   2.466  1.00  0.00     0.044 A 
HETATM   33  N8  UNL     1     -18.768   3.839   2.426  1.00  0.00    -0.342 N 
ATOM     34  H8  UNL     1     -19.536   3.305   2.020  1.00  0.00     0.167 HD
BRANCH  32  35
HETATM   35  C25 UNL     1     -20.061   5.898   1.938  1.00  0.00     0.092 C 
HETATM   36  C26 UNL     1     -20.128   5.899   0.452  1.00  0.00     0.052 C 
HETATM   37  C27 UNL     1     -21.310   5.414   2.619  1.00  0.00     0.052 C 
BRANCH  35  38
HETATM   38  O2  UNL     1     -19.893   7.238   2.352  1.00  0.00    -0.384 OA
ATOM     39  H2  UNL     1     -20.754   7.513   2.644  1.00  0.00     0.211 HD
ENDBRANCH  35  38
ENDBRANCH  32  35
ENDBRANCH  12  28
BRANCH   1  40
HETATM   40  C3  UNL     1     -20.053   1.220   3.190  1.00  0.00     0.179 C 
BRANCH  40  41
HETATM   41  C2  UNL     1     -20.402   1.149   4.630  1.00  0.00    -0.015 C 
HETATM   42  C1  UNL     1     -21.043   0.115   5.148  1.00  0.00     0.008 C 
ENDBRANCH  40  41
ENDBRANCH   1  40
TORSDOF 8
ENDMDL
