MODEL 4
REMARK VINA RESULT: -10.910128592      5.161      7.483
REMARK  4 active torsions:
REMARK  status: ('A' for Active; 'I' for Inactive)
REMARK       I    between atoms: N1_2  and  C2_4 
REMARK    1  A    between atoms: C2_4  and  C3_6 
REMARK    2  A    between atoms: C13_21  and  N5_22 
REMARK    3  A    between atoms: N5_22  and  C14_24 
REMARK    4  A    between atoms: C17_27  and  N6_28 
ROOT
HETATM    1  C3  UNL     1       2.552  -1.750  -1.988  1.00  0.00     0.125 A 
HETATM    2  N2  UNL     1       1.976  -2.969  -1.770  1.00  0.00    -0.293 N 
ATOM      3  H2  UNL     1       0.983  -3.109  -1.585  1.00  0.00     0.187 HD
HETATM    4  N3  UNL     1       2.855  -3.932  -1.828  1.00  0.00    -0.293 N 
HETATM    5  C4  UNL     1       2.636  -5.332  -1.654  1.00  0.00     0.178 C 
HETATM    6  C5  UNL     1       4.045  -3.337  -2.091  1.00  0.00     0.087 A 
HETATM    7  C6  UNL     1       3.885  -1.982  -2.195  1.00  0.00     0.014 A 
HETATM    8  C7  UNL     1       5.025  -1.104  -2.476  1.00  0.00    -0.012 A 
HETATM    9  C8  UNL     1       5.144  -0.067  -1.353  1.00  0.00     0.020 C 
HETATM   10  C9  UNL     1       4.752  -0.274  -3.750  1.00  0.00     0.020 C 
HETATM   11  C10 UNL     1       6.357  -1.729  -2.647  1.00  0.00     0.056 A 
HETATM   12  C11 UNL     1       6.439  -3.181  -2.521  1.00  0.00    -0.011 A 
HETATM   13  C12 UNL     1       7.682  -3.784  -2.677  1.00  0.00     0.115 A 
HETATM   14  N4  UNL     1       7.785  -5.117  -2.566  1.00  0.00    -0.201 N 
ATOM     15  H4  UNL     1       8.705  -5.541  -2.685  1.00  0.00     0.183 HD
HETATM   16  C13 UNL     1       6.759  -5.909  -2.310  1.00  0.00     0.683 A 
HETATM   17  N8  UNL     1       5.543  -5.303  -2.159  1.00  0.00    -0.189 N 
ATOM     18  H8  UNL     1       4.732  -5.890  -1.961  1.00  0.00     0.184 HD
HETATM   19  C25 UNL     1       5.359  -3.982  -2.255  1.00  0.00     0.085 A 
ENDROOT
BRANCH  16  20
HETATM   20  N5  UNL     1       6.847  -7.288  -2.192  1.00  0.00    -0.192 N 
ATOM     21  H5  UNL     1       7.591  -7.756  -2.710  1.00  0.00     0.184 HD
BRANCH  20  22
HETATM   22  C14 UNL     1       6.003  -8.087  -1.424  1.00  0.00     0.049 A 
HETATM   23  C15 UNL     1       6.224  -8.123  -0.039  1.00  0.00     0.032 A 
HETATM   24  C16 UNL     1       5.452  -8.895   0.803  1.00  0.00     0.031 A 
HETATM   25  C17 UNL     1       4.421  -9.675   0.341  1.00  0.00     0.030 A 
HETATM   26  C23 UNL     1       4.206  -9.638  -1.021  1.00  0.00     0.031 A 
HETATM   27  C24 UNL     1       4.980  -8.861  -1.892  1.00  0.00     0.032 A 
BRANCH  25  28
HETATM   28  N6  UNL     1       3.578 -10.488   1.140  1.00  0.00    -0.378 N 
HETATM   29  C18 UNL     1       2.145 -10.236   1.242  1.00  0.00     0.153 C 
HETATM   30  C19 UNL     1       1.527 -11.598   1.587  1.00  0.00     0.291 C 
HETATM   31  N7  UNL     1       2.172 -12.672   0.834  1.00  0.00     0.087 N 
HETATM   32  C20 UNL     1       1.445 -13.881   1.101  1.00  0.00     0.310 C 
HETATM   33  C21 UNL     1       3.550 -12.872   1.275  1.00  0.00     0.291 C 
HETATM   34  C22 UNL     1       4.088 -11.602   1.905  1.00  0.00     0.153 C 
ENDBRANCH  25  28
ENDBRANCH  20  22
ENDBRANCH  16  20
BRANCH   1  35
HETATM   35  C2  UNL     1       1.857  -0.488  -1.992  1.00  0.00     0.269 C 
HETATM   36  N1  UNL     1       1.233  -0.011  -3.189  1.00  0.00    -0.360 N 
HETATM   37  C1  UNL     1       0.523   1.241  -3.261  1.00  0.00     0.149 C 
ATOM     38  H1  UNL     1       1.295  -0.585  -4.031  1.00  0.00     0.162 HD
HETATM   39  O1  UNL     1       1.761   0.237  -0.992  1.00  0.00    -0.266 OA
ENDBRANCH   1  35
TORSDOF 4
ENDMDL
