MODEL 2
REMARK VINA RESULT: -11.056420637      5.030      8.434
REMARK  4 active torsions:
REMARK  status: ('A' for Active; 'I' for Inactive)
REMARK       I    between atoms: N1_2  and  C2_4 
REMARK    1  A    between atoms: C2_4  and  C3_6 
REMARK    2  A    between atoms: C13_21  and  N5_22 
REMARK    3  A    between atoms: N5_22  and  C14_24 
REMARK    4  A    between atoms: C17_27  and  N6_28 
ROOT
HETATM    1  C3  UNL     1       2.405  -1.577  -1.869  1.00  0.00     0.125 A 
HETATM    2  N2  UNL     1       1.779  -2.737  -1.510  1.00  0.00    -0.293 N 
ATOM      3  H2  UNL     1       0.798  -2.799  -1.238  1.00  0.00     0.187 HD
HETATM    4  N3  UNL     1       2.593  -3.756  -1.559  1.00  0.00    -0.293 N 
HETATM    5  C4  UNL     1       2.309  -5.122  -1.258  1.00  0.00     0.178 C 
HETATM    6  C5  UNL     1       3.790  -3.260  -1.961  1.00  0.00     0.087 A 
HETATM    7  C6  UNL     1       3.701  -1.909  -2.160  1.00  0.00     0.014 A 
HETATM    8  C7  UNL     1       4.863  -1.129  -2.599  1.00  0.00    -0.012 A 
HETATM    9  C8  UNL     1       5.134  -0.020  -1.574  1.00  0.00     0.020 C 
HETATM   10  C9  UNL     1       4.533  -0.382  -3.910  1.00  0.00     0.020 C 
HETATM   11  C10 UNL     1       6.137  -1.850  -2.823  1.00  0.00     0.056 A 
HETATM   12  C11 UNL     1       6.145  -3.290  -2.587  1.00  0.00    -0.011 A 
HETATM   13  C12 UNL     1       7.334  -3.982  -2.792  1.00  0.00     0.115 A 
HETATM   14  N4  UNL     1       7.369  -5.306  -2.583  1.00  0.00    -0.201 N 
ATOM     15  H4  UNL     1       8.249  -5.796  -2.739  1.00  0.00     0.183 HD
HETATM   16  C13 UNL     1       6.323  -6.010  -2.186  1.00  0.00     0.683 A 
HETATM   17  N8  UNL     1       5.161  -5.317  -1.988  1.00  0.00    -0.189 N 
ATOM     18  H8  UNL     1       4.337  -5.834  -1.682  1.00  0.00     0.184 HD
HETATM   19  C25 UNL     1       5.046  -3.998  -2.176  1.00  0.00     0.085 A 
ENDROOT
BRANCH  16  20
HETATM   20  N5  UNL     1       6.341  -7.379  -1.965  1.00  0.00    -0.192 N 
ATOM     21  H5  UNL     1       7.217  -7.871  -2.143  1.00  0.00     0.184 HD
BRANCH  20  22
HETATM   22  C14 UNL     1       5.261  -8.138  -1.520  1.00  0.00     0.049 A 
HETATM   23  C15 UNL     1       4.483  -8.792  -2.487  1.00  0.00     0.032 A 
HETATM   24  C16 UNL     1       3.386  -9.553  -2.146  1.00  0.00     0.031 A 
HETATM   25  C17 UNL     1       2.984  -9.719  -0.844  1.00  0.00     0.030 A 
HETATM   26  C23 UNL     1       3.751  -9.075   0.105  1.00  0.00     0.031 A 
HETATM   27  C24 UNL     1       4.869  -8.297  -0.221  1.00  0.00     0.032 A 
BRANCH  25  28
HETATM   28  N6  UNL     1       1.876 -10.491  -0.412  1.00  0.00    -0.378 N 
HETATM   29  C18 UNL     1       1.230 -10.251   0.873  1.00  0.00     0.153 C 
HETATM   30  C19 UNL     1      -0.209 -10.751   0.692  1.00  0.00     0.291 C 
HETATM   31  N7  UNL     1      -0.729 -10.389  -0.625  1.00  0.00     0.087 N 
HETATM   32  C20 UNL     1      -2.115 -10.759  -0.658  1.00  0.00     0.310 C 
HETATM   33  C21 UNL     1      -0.043 -11.126  -1.684  1.00  0.00     0.291 C 
HETATM   34  C22 UNL     1       1.331 -11.562  -1.213  1.00  0.00     0.153 C 
ENDBRANCH  25  28
ENDBRANCH  20  22
ENDBRANCH  16  20
BRANCH   1  35
HETATM   35  C2  UNL     1       1.786  -0.277  -1.919  1.00  0.00     0.269 C 
HETATM   36  N1  UNL     1       1.073   0.138  -3.090  1.00  0.00    -0.360 N 
HETATM   37  C1  UNL     1       0.432   1.424  -3.205  1.00  0.00     0.149 C 
ATOM     38  H1  UNL     1       1.017  -0.506  -3.879  1.00  0.00     0.162 HD
HETATM   39  O1  UNL     1       1.832   0.534  -0.984  1.00  0.00    -0.266 OA
ENDBRANCH   1  35
TORSDOF 4
ENDMDL
