MODEL 6
REMARK VINA RESULT: -10.495144668      2.061      3.382
REMARK  4 active torsions:
REMARK  status: ('A' for Active; 'I' for Inactive)
REMARK       I    between atoms: N1_2  and  C2_4 
REMARK    1  A    between atoms: C2_4  and  C3_6 
REMARK    2  A    between atoms: C13_21  and  N5_22 
REMARK    3  A    between atoms: N5_22  and  C14_24 
REMARK    4  A    between atoms: C17_27  and  N6_28 
ROOT
HETATM    1  C3  UNL     1       3.615  -3.635  -2.377  1.00  0.00     0.125 A 
HETATM    2  N2  UNL     1       4.577  -4.594  -2.517  1.00  0.00    -0.293 N 
ATOM      3  H2  UNL     1       4.383  -5.588  -2.637  1.00  0.00     0.187 HD
HETATM    4  N3  UNL     1       5.776  -4.080  -2.478  1.00  0.00    -0.293 N 
HETATM    5  C4  UNL     1       7.027  -4.760  -2.589  1.00  0.00     0.178 C 
HETATM    6  C5  UNL     1       5.606  -2.745  -2.308  1.00  0.00     0.087 A 
HETATM    7  C6  UNL     1       4.274  -2.442  -2.242  1.00  0.00     0.014 A 
HETATM    8  C7  UNL     1       3.819  -1.060  -2.059  1.00  0.00    -0.012 A 
HETATM    9  C8  UNL     1       2.946  -0.985  -0.800  1.00  0.00     0.020 C 
HETATM   10  C9  UNL     1       2.878  -0.655  -3.215  1.00  0.00     0.020 C 
HETATM   11  C10 UNL     1       4.848   0.000  -1.951  1.00  0.00     0.056 A 
HETATM   12  C11 UNL     1       6.246  -0.410  -2.032  1.00  0.00    -0.011 A 
HETATM   13  C12 UNL     1       7.225   0.573  -1.931  1.00  0.00     0.115 A 
HETATM   14  N4  UNL     1       8.517   0.223  -2.003  1.00  0.00    -0.201 N 
ATOM     15  H4  UNL     1       9.221   0.957  -1.928  1.00  0.00     0.183 HD
HETATM   16  C13 UNL     1       8.928  -1.023  -2.166  1.00  0.00     0.683 A 
HETATM   17  N8  UNL     1       7.956  -1.978  -2.263  1.00  0.00    -0.189 N 
ATOM     18  H8  UNL     1       8.243  -2.949  -2.390  1.00  0.00     0.184 HD
HETATM   19  C25 UNL     1       6.648  -1.709  -2.202  1.00  0.00     0.085 A 
ENDROOT
BRANCH  16  20
HETATM   20  N5  UNL     1      10.261  -1.402  -2.242  1.00  0.00    -0.192 N 
ATOM     21  H5  UNL     1      10.942  -0.677  -2.466  1.00  0.00     0.184 HD
BRANCH  20  22
HETATM   22  C14 UNL     1      10.744  -2.692  -2.037  1.00  0.00     0.049 A 
HETATM   23  C15 UNL     1      12.135  -2.862  -1.968  1.00  0.00     0.032 A 
HETATM   24  C16 UNL     1      12.710  -4.101  -1.784  1.00  0.00     0.031 A 
HETATM   25  C17 UNL     1      11.960  -5.245  -1.657  1.00  0.00     0.030 A 
HETATM   26  C23 UNL     1      10.594  -5.075  -1.725  1.00  0.00     0.031 A 
HETATM   27  C24 UNL     1       9.991  -3.825  -1.913  1.00  0.00     0.032 A 
BRANCH  25  28
HETATM   28  N6  UNL     1      12.474  -6.551  -1.456  1.00  0.00    -0.378 N 
HETATM   29  C18 UNL     1      12.091  -7.665  -2.317  1.00  0.00     0.153 C 
HETATM   30  C19 UNL     1      13.268  -8.648  -2.239  1.00  0.00     0.291 C 
HETATM   31  N7  UNL     1      14.545  -7.938  -2.248  1.00  0.00     0.087 N 
HETATM   32  C20 UNL     1      15.585  -8.925  -2.320  1.00  0.00     0.310 C 
HETATM   33  C21 UNL     1      14.736  -7.178  -1.015  1.00  0.00     0.291 C 
HETATM   34  C22 UNL     1      13.394  -6.856  -0.386  1.00  0.00     0.153 C 
ENDBRANCH  25  28
ENDBRANCH  20  22
ENDBRANCH  16  20
BRANCH   1  35
HETATM   35  C2  UNL     1       2.194  -3.873  -2.377  1.00  0.00     0.269 C 
HETATM   36  N1  UNL     1       1.672  -5.121  -2.844  1.00  0.00    -0.360 N 
HETATM   37  C1  UNL     1       0.263  -5.423  -2.871  1.00  0.00     0.149 C 
ATOM     38  H1  UNL     1       2.328  -5.830  -3.174  1.00  0.00     0.162 HD
HETATM   39  O1  UNL     1       1.366  -3.038  -1.987  1.00  0.00    -0.266 OA
ENDBRANCH   1  35
TORSDOF 4
ENDMDL
