MODEL 3
REMARK VINA RESULT: -10.956029869      5.242      7.904
REMARK  4 active torsions:
REMARK  status: ('A' for Active; 'I' for Inactive)
REMARK       I    between atoms: N1_2  and  C2_4 
REMARK    1  A    between atoms: C2_4  and  C3_6 
REMARK    2  A    between atoms: C13_21  and  N5_22 
REMARK    3  A    between atoms: N5_22  and  C14_24 
REMARK    4  A    between atoms: C17_27  and  N6_28 
ROOT
HETATM    1  C3  UNL     1       2.356  -1.540  -1.919  1.00  0.00     0.125 A 
HETATM    2  N2  UNL     1       1.740  -2.717  -1.602  1.00  0.00    -0.293 N 
ATOM      3  H2  UNL     1       0.756  -2.799  -1.346  1.00  0.00     0.187 HD
HETATM    4  N3  UNL     1       2.567  -3.724  -1.668  1.00  0.00    -0.293 N 
HETATM    5  C4  UNL     1       2.297  -5.102  -1.408  1.00  0.00     0.178 C 
HETATM    6  C5  UNL     1       3.764  -3.203  -2.038  1.00  0.00     0.087 A 
HETATM    7  C6  UNL     1       3.660  -1.848  -2.200  1.00  0.00     0.014 A 
HETATM    8  C7  UNL     1       4.818  -1.041  -2.600  1.00  0.00    -0.012 A 
HETATM    9  C8  UNL     1       5.060   0.042  -1.541  1.00  0.00     0.020 C 
HETATM   10  C9  UNL     1       4.498  -0.261  -3.895  1.00  0.00     0.020 C 
HETATM   11  C10 UNL     1       6.105  -1.739  -2.825  1.00  0.00     0.056 A 
HETATM   12  C11 UNL     1       6.128  -3.185  -2.630  1.00  0.00    -0.011 A 
HETATM   13  C12 UNL     1       7.328  -3.856  -2.836  1.00  0.00     0.115 A 
HETATM   14  N4  UNL     1       7.377  -5.185  -2.663  1.00  0.00    -0.201 N 
ATOM     15  H4  UNL     1       8.266  -5.660  -2.820  1.00  0.00     0.183 HD
HETATM   16  C13 UNL     1       6.334  -5.913  -2.302  1.00  0.00     0.683 A 
HETATM   17  N8  UNL     1       5.161  -5.241  -2.102  1.00  0.00    -0.189 N 
ATOM     18  H8  UNL     1       4.339  -5.777  -1.822  1.00  0.00     0.184 HD
HETATM   19  C25 UNL     1       5.032  -3.919  -2.254  1.00  0.00     0.085 A 
ENDROOT
BRANCH  16  20
HETATM   20  N5  UNL     1       6.367  -7.288  -2.119  1.00  0.00    -0.192 N 
ATOM     21  H5  UNL     1       7.185  -7.788  -2.468  1.00  0.00     0.184 HD
BRANCH  20  22
HETATM   22  C14 UNL     1       5.374  -8.041  -1.497  1.00  0.00     0.049 A 
HETATM   23  C15 UNL     1       4.505  -8.775  -2.318  1.00  0.00     0.032 A 
HETATM   24  C16 UNL     1       3.482  -9.539  -1.798  1.00  0.00     0.031 A 
HETATM   25  C17 UNL     1       3.249  -9.630  -0.448  1.00  0.00     0.030 A 
HETATM   26  C23 UNL     1       4.105  -8.907   0.356  1.00  0.00     0.031 A 
HETATM   27  C24 UNL     1       5.149  -8.126  -0.153  1.00  0.00     0.032 A 
BRANCH  25  28
HETATM   28  N6  UNL     1       2.227 -10.398   0.164  1.00  0.00    -0.378 N 
HETATM   29  C18 UNL     1       1.442 -11.368  -0.590  1.00  0.00     0.153 C 
HETATM   30  C19 UNL     1       0.976 -12.396   0.450  1.00  0.00     0.291 C 
HETATM   31  N7  UNL     1       2.040 -12.692   1.408  1.00  0.00     0.087 N 
HETATM   32  C20 UNL     1       1.577 -13.760   2.248  1.00  0.00     0.310 C 
HETATM   33  C21 UNL     1       2.318 -11.539   2.261  1.00  0.00     0.291 C 
HETATM   34  C22 UNL     1       1.899 -10.259   1.564  1.00  0.00     0.153 C 
ENDBRANCH  25  28
ENDBRANCH  20  22
ENDBRANCH  16  20
BRANCH   1  35
HETATM   35  C2  UNL     1       1.721  -0.247  -1.942  1.00  0.00     0.269 C 
HETATM   36  N1  UNL     1       1.010   0.187  -3.107  1.00  0.00    -0.360 N 
HETATM   37  C1  UNL     1       0.353   1.467  -3.195  1.00  0.00     0.149 C 
ATOM     38  H1  UNL     1       0.966  -0.439  -3.911  1.00  0.00     0.162 HD
HETATM   39  O1  UNL     1       1.752   0.542  -0.988  1.00  0.00    -0.266 OA
ENDBRANCH   1  35
TORSDOF 4
ENDMDL
