MODEL 3
REMARK VINA RESULT: -9.561159623      3.657      5.743
REMARK  7 active torsions:
REMARK  status: ('A' for Active; 'I' for Inactive)
REMARK       I    between atoms: C2_2  and  N1_4 
REMARK    1  A    between atoms: N1_4  and  C3_6 
REMARK    2  A    between atoms: C3_6  and  C4_7 
REMARK       I    between atoms: C4_7  and  N2_9 
REMARK    3  A    between atoms: C11_16  and  N3_17 
REMARK    4  A    between atoms: N3_17  and  C12_19 
REMARK    5  A    between atoms: C14_23  and  C15_24 
REMARK    6  A    between atoms: C16_28  and  N5_29 
REMARK    7  A    between atoms: N5_29  and  C17_31 
ROOT
HETATM    1  N3  UNL     1      -3.201   5.371   7.373  1.00  0.00    -0.192 N 
ATOM      2  H3  UNL     1      -3.846   5.120   6.624  1.00  0.00     0.184 HD
ENDROOT
BRANCH   1   3
HETATM    3  C11 UNL     1      -1.935   5.833   7.025  1.00  0.00     0.049 A 
HETATM    4  C10 UNL     1      -1.522   6.155   5.738  1.00  0.00     0.039 A 
HETATM    5  C9  UNL     1      -0.253   6.631   5.485  1.00  0.00    -0.025 A 
HETATM    6  C8  UNL     1       0.499   7.057   4.284  1.00  0.00     0.122 C 
HETATM    7  C23 UNL     1       0.612   6.781   6.555  1.00  0.00    -0.027 A 
HETATM    8  N2  UNL     1       1.834   6.672   4.685  1.00  0.00    -0.333 N 
HETATM    9  C7  UNL     1       0.640   8.563   4.391  1.00  0.00     0.033 C 
HETATM   10  C4  UNL     1       2.820   5.921   4.064  1.00  0.00     0.238 C 
HETATM   11  C5  UNL     1       1.888   7.307   5.981  1.00  0.00     0.121 C 
HETATM   12  O2  UNL     1       2.633   5.426   2.929  1.00  0.00    -0.272 OA
HETATM   13  C6  UNL     1       1.591   8.734   5.580  1.00  0.00     0.033 C 
HETATM   14  C22 UNL     1       0.224   6.469   7.831  1.00  0.00     0.012 A 
HETATM   15  C21 UNL     1      -1.027   6.000   8.086  1.00  0.00     0.030 A 
BRANCH  10  16
HETATM   16  C3  UNL     1       4.115   5.691   4.739  1.00  0.00     0.225 C 
BRANCH  16  17
HETATM   17  N1  UNL     1       4.227   4.304   5.125  1.00  0.00    -0.353 N 
HETATM   18  C2  UNL     1       4.078   3.886   6.457  1.00  0.00     0.213 C 
HETATM   19  C1  UNL     1       4.204   2.439   6.800  1.00  0.00     0.117 C 
HETATM   20  O1  UNL     1       3.840   4.724   7.355  1.00  0.00    -0.274 OA
ATOM     21  H1  UNL     1       4.421   3.606   4.407  1.00  0.00     0.162 HD
ENDBRANCH  16  17
ENDBRANCH  10  16
ENDBRANCH   1   3
BRANCH   1  22
HETATM   22  C12 UNL     1      -3.643   5.230   8.715  1.00  0.00     0.684 A 
HETATM   23  N4  UNL     1      -4.105   6.202   9.495  1.00  0.00    -0.201 N 
HETATM   24  C13 UNL     1      -4.516   6.032  10.762  1.00  0.00     0.126 A 
ATOM     25  H4  UNL     1      -4.150   7.143   9.104  1.00  0.00     0.183 HD
HETATM   26  C14 UNL     1      -4.478   4.776  11.352  1.00  0.00     0.107 A 
HETATM   27  C16 UNL     1      -4.004   3.760  10.561  1.00  0.00     0.133 A 
HETATM   28  N6  UNL     1      -3.608   3.989   9.306  1.00  0.00    -0.176 N 
ATOM     29  H6  UNL     1      -3.263   3.202   8.757  1.00  0.00     0.186 HD
BRANCH  26  30
HETATM   30  C15 UNL     1      -4.929   4.589  12.743  1.00  0.00     0.422 C 
HETATM   31  F1  UNL     1      -4.008   3.860  13.437  1.00  0.00    -0.166 F 
HETATM   32  F2  UNL     1      -6.162   3.983  12.823  1.00  0.00    -0.166 F 
HETATM   33  F3  UNL     1      -5.052   5.818  13.392  1.00  0.00    -0.166 F 
ENDBRANCH  26  30
BRANCH  27  34
HETATM   34  N5  UNL     1      -3.935   2.426  11.103  1.00  0.00    -0.370 N 
ATOM     35  H5  UNL     1      -4.732   2.067  11.630  1.00  0.00     0.161 HD
BRANCH  34  36
HETATM   36  C17 UNL     1      -2.791   1.587  10.931  1.00  0.00     0.083 C 
HETATM   37  C18 UNL     1      -3.019   0.211  11.473  1.00  0.00     0.025 C 
HETATM   38  C19 UNL     1      -2.275   0.575  12.748  1.00  0.00     0.004 C 
HETATM   39  C20 UNL     1      -1.729   1.790  12.012  1.00  0.00     0.025 C 
ENDBRANCH  34  36
ENDBRANCH  27  34
ENDBRANCH   1  22
TORSDOF 7
ENDMDL
