MODEL 2
REMARK VINA RESULT: -9.580098398      3.186      5.131
REMARK  7 active torsions:
REMARK  status: ('A' for Active; 'I' for Inactive)
REMARK       I    between atoms: C2_2  and  N1_4 
REMARK    1  A    between atoms: N1_4  and  C3_6 
REMARK    2  A    between atoms: C3_6  and  C4_7 
REMARK       I    between atoms: C4_7  and  N2_9 
REMARK    3  A    between atoms: C11_16  and  N3_17 
REMARK    4  A    between atoms: N3_17  and  C12_19 
REMARK    5  A    between atoms: C14_23  and  C15_24 
REMARK    6  A    between atoms: C16_28  and  N5_29 
REMARK    7  A    between atoms: N5_29  and  C17_31 
ROOT
HETATM    1  N3  UNL     1      -0.858   2.316   8.342  1.00  0.00    -0.192 N 
ATOM      2  H3  UNL     1      -0.838   1.445   7.811  1.00  0.00     0.184 HD
ENDROOT
BRANCH   1   3
HETATM    3  C11 UNL     1      -0.257   3.441   7.785  1.00  0.00     0.049 A 
HETATM    4  C10 UNL     1      -0.927   4.481   7.153  1.00  0.00     0.039 A 
HETATM    5  C9  UNL     1      -0.252   5.573   6.648  1.00  0.00    -0.025 A 
HETATM    6  C8  UNL     1      -0.629   6.817   5.941  1.00  0.00     0.122 C 
HETATM    7  C23 UNL     1       1.124   5.610   6.787  1.00  0.00    -0.027 A 
HETATM    8  N2  UNL     1       0.555   7.003   5.132  1.00  0.00    -0.333 N 
HETATM    9  C7  UNL     1      -0.422   7.943   6.934  1.00  0.00     0.033 C 
HETATM   10  C4  UNL     1       0.740   7.226   3.777  1.00  0.00     0.238 C 
HETATM   11  C5  UNL     1       1.566   6.892   6.158  1.00  0.00     0.121 C 
HETATM   12  O2  UNL     1      -0.236   7.300   2.997  1.00  0.00    -0.272 OA
HETATM   13  C6  UNL     1       1.100   7.982   7.096  1.00  0.00     0.033 C 
HETATM   14  C22 UNL     1       1.803   4.594   7.407  1.00  0.00     0.012 A 
HETATM   15  C21 UNL     1       1.142   3.515   7.906  1.00  0.00     0.030 A 
BRANCH  10  16
HETATM   16  C3  UNL     1       2.105   7.379   3.228  1.00  0.00     0.225 C 
BRANCH  16  17
HETATM   17  N1  UNL     1       2.436   6.235   2.410  1.00  0.00    -0.353 N 
HETATM   18  C2  UNL     1       3.269   5.205   2.871  1.00  0.00     0.213 C 
HETATM   19  C1  UNL     1       3.578   4.046   1.982  1.00  0.00     0.117 C 
HETATM   20  O1  UNL     1       3.753   5.256   4.023  1.00  0.00    -0.274 OA
ATOM     21  H1  UNL     1       2.051   6.175   1.467  1.00  0.00     0.162 HD
ENDBRANCH  16  17
ENDBRANCH  10  16
ENDBRANCH   1   3
BRANCH   1  22
HETATM   22  C12 UNL     1      -1.498   2.315   9.609  1.00  0.00     0.684 A 
HETATM   23  N4  UNL     1      -1.150   1.583  10.663  1.00  0.00    -0.201 N 
HETATM   24  C13 UNL     1      -1.779   1.607  11.849  1.00  0.00     0.126 A 
ATOM     25  H4  UNL     1      -0.350   0.958  10.563  1.00  0.00     0.183 HD
HETATM   26  C14 UNL     1      -2.876   2.435  12.048  1.00  0.00     0.107 A 
HETATM   27  C16 UNL     1      -3.250   3.198  10.970  1.00  0.00     0.133 A 
HETATM   28  N6  UNL     1      -2.585   3.132   9.813  1.00  0.00    -0.176 N 
ATOM     29  H6  UNL     1      -2.900   3.718   9.040  1.00  0.00     0.186 HD
BRANCH  26  30
HETATM   30  C15 UNL     1      -3.568   2.462  13.349  1.00  0.00     0.422 C 
HETATM   31  F1  UNL     1      -3.596   1.207  13.887  1.00  0.00    -0.166 F 
HETATM   32  F2  UNL     1      -4.846   2.961  13.259  1.00  0.00    -0.166 F 
HETATM   33  F3  UNL     1      -2.888   3.279  14.253  1.00  0.00    -0.166 F 
ENDBRANCH  26  30
BRANCH  27  34
HETATM   34  N5  UNL     1      -4.380   4.084  11.099  1.00  0.00    -0.370 N 
ATOM     35  H5  UNL     1      -5.311   3.681  11.202  1.00  0.00     0.161 HD
BRANCH  34  36
HETATM   36  C17 UNL     1      -4.244   5.506  11.086  1.00  0.00     0.083 C 
HETATM   37  C18 UNL     1      -5.030   6.153  12.182  1.00  0.00     0.025 C 
HETATM   38  C19 UNL     1      -6.149   6.481  11.206  1.00  0.00     0.004 C 
HETATM   39  C20 UNL     1      -5.171   6.189  10.078  1.00  0.00     0.025 C 
ENDBRANCH  34  36
ENDBRANCH  27  34
ENDBRANCH   1  22
TORSDOF 7
ENDMDL
