MODEL 1
REMARK VINA RESULT: -9.630224192      0.000      0.000
REMARK  7 active torsions:
REMARK  status: ('A' for Active; 'I' for Inactive)
REMARK       I    between atoms: C2_2  and  N1_4 
REMARK    1  A    between atoms: N1_4  and  C3_6 
REMARK    2  A    between atoms: C3_6  and  C4_7 
REMARK       I    between atoms: C4_7  and  N2_9 
REMARK    3  A    between atoms: C11_16  and  N3_17 
REMARK    4  A    between atoms: N3_17  and  C12_19 
REMARK    5  A    between atoms: C14_23  and  C15_24 
REMARK    6  A    between atoms: C16_28  and  N5_29 
REMARK    7  A    between atoms: N5_29  and  C17_31 
ROOT
HETATM    1  N3  UNL     1      -4.181   4.261  10.031  1.00  0.00    -0.192 N 
ATOM      2  H3  UNL     1      -5.133   4.519  10.294  1.00  0.00     0.184 HD
ENDROOT
BRANCH   1   3
HETATM    3  C11 UNL     1      -3.636   4.835   8.886  1.00  0.00     0.049 A 
HETATM    4  C10 UNL     1      -3.309   6.177   8.737  1.00  0.00     0.039 A 
HETATM    5  C9  UNL     1      -2.748   6.658   7.572  1.00  0.00    -0.025 A 
HETATM    6  C8  UNL     1      -2.290   7.978   7.083  1.00  0.00     0.122 C 
HETATM    7  C23 UNL     1      -2.516   5.764   6.542  1.00  0.00    -0.027 A 
HETATM    8  N2  UNL     1      -2.572   7.824   5.674  1.00  0.00    -0.333 N 
HETATM    9  C7  UNL     1      -0.776   7.905   7.036  1.00  0.00     0.033 C 
HETATM   10  C4  UNL     1      -3.261   8.610   4.763  1.00  0.00     0.238 C 
HETATM   11  C5  UNL     1      -1.911   6.562   5.434  1.00  0.00     0.121 C 
HETATM   12  O2  UNL     1      -3.788   9.689   5.114  1.00  0.00    -0.272 OA
HETATM   13  C6  UNL     1      -0.517   6.909   5.902  1.00  0.00     0.033 C 
HETATM   14  C22 UNL     1      -2.833   4.437   6.670  1.00  0.00     0.012 A 
HETATM   15  C21 UNL     1      -3.385   3.958   7.816  1.00  0.00     0.030 A 
BRANCH  10  16
HETATM   16  C3  UNL     1      -3.385   8.179   3.354  1.00  0.00     0.225 C 
BRANCH  16  17
HETATM   17  N1  UNL     1      -4.771   7.920   3.041  1.00  0.00    -0.353 N 
HETATM   18  C2  UNL     1      -5.153   7.095   1.972  1.00  0.00     0.213 C 
HETATM   19  C1  UNL     1      -6.600   6.861   1.694  1.00  0.00     0.117 C 
HETATM   20  O1  UNL     1      -4.283   6.556   1.253  1.00  0.00    -0.274 OA
ATOM     21  H1  UNL     1      -5.496   8.350   3.616  1.00  0.00     0.162 HD
ENDBRANCH  16  17
ENDBRANCH  10  16
ENDBRANCH   1   3
BRANCH   1  22
HETATM   22  C12 UNL     1      -3.485   3.336  10.852  1.00  0.00     0.684 A 
HETATM   23  N4  UNL     1      -3.750   3.065  12.126  1.00  0.00    -0.201 N 
HETATM   24  C13 UNL     1      -3.070   2.181  12.875  1.00  0.00     0.126 A 
ATOM     25  H4  UNL     1      -4.524   3.563  12.567  1.00  0.00     0.183 HD
HETATM   26  C14 UNL     1      -2.006   1.472  12.334  1.00  0.00     0.107 A 
HETATM   27  C16 UNL     1      -1.718   1.740  11.019  1.00  0.00     0.133 A 
HETATM   28  N6  UNL     1      -2.430   2.630  10.324  1.00  0.00    -0.176 N 
ATOM     29  H6  UNL     1      -2.179   2.796   9.349  1.00  0.00     0.186 HD
BRANCH  26  30
HETATM   30  C15 UNL     1      -1.258   0.502  13.156  1.00  0.00     0.422 C 
HETATM   31  F1  UNL     1      -0.087   1.058  13.582  1.00  0.00    -0.166 F 
HETATM   32  F2  UNL     1      -1.003  -0.672  12.486  1.00  0.00    -0.166 F 
HETATM   33  F3  UNL     1      -1.985   0.156  14.295  1.00  0.00    -0.166 F 
ENDBRANCH  26  30
BRANCH  27  34
HETATM   34  N5  UNL     1      -0.626   1.042  10.386  1.00  0.00    -0.370 N 
ATOM     35  H5  UNL     1       0.115   0.656  10.971  1.00  0.00     0.161 HD
BRANCH  34  36
HETATM   36  C17 UNL     1      -0.544   0.872   8.970  1.00  0.00     0.083 C 
HETATM   37  C18 UNL     1       0.774   0.301   8.551  1.00  0.00     0.025 C 
HETATM   38  C19 UNL     1       1.274   1.690   8.183  1.00  0.00     0.004 C 
HETATM   39  C20 UNL     1      -0.172   2.159   8.232  1.00  0.00     0.025 C 
ENDBRANCH  34  36
ENDBRANCH  27  34
ENDBRANCH   1  22
TORSDOF 7
ENDMDL
