MODEL 5
REMARK VINA RESULT: -9.397620161      3.717      6.510
REMARK  8 active torsions:
REMARK  status: ('A' for Active; 'I' for Inactive)
REMARK    1  A    between atoms: N2_5  and  C4_6 
REMARK    2  A    between atoms: C4_6  and  C5_7 
REMARK    3  A    between atoms: C5_7  and  O1_8 
REMARK    4  A    between atoms: O1_8  and  C6_9 
REMARK    5  A    between atoms: C8_11  and  O2_12 
REMARK    6  A    between atoms: O2_12  and  C9_13 
REMARK    7  A    between atoms: C15_20  and  N3_21 
REMARK    8  A    between atoms: N3_21  and  C16_23 
ROOT
HETATM    1  C6  UNL     1     -16.019   6.307   1.330  1.00  0.00     0.073 A 
HETATM    2  C7  UNL     1     -17.405   6.402   1.553  1.00  0.00     0.074 A 
HETATM    3  C8  UNL     1     -18.128   5.365   2.067  1.00  0.00     0.088 A 
HETATM    4  C14 UNL     1     -17.444   4.181   2.374  1.00  0.00     0.068 A 
HETATM    5  C15 UNL     1     -18.084   3.084   2.896  1.00  0.00     0.122 A 
HETATM    6  N4  UNL     1     -17.322   1.965   3.165  1.00  0.00    -0.338 N 
ATOM      7  H4  UNL     1     -17.799   1.151   3.552  1.00  0.00     0.168 HD
HETATM    8  C23 UNL     1     -16.027   1.871   2.960  1.00  0.00     0.182 A 
HETATM    9  N5  UNL     1     -15.386   2.927   2.455  1.00  0.00    -0.351 N 
ATOM     10  H5  UNL     1     -14.381   2.884   2.284  1.00  0.00     0.166 HD
HETATM   11  C24 UNL     1     -16.085   4.066   2.166  1.00  0.00     0.052 A 
HETATM   12  C25 UNL     1     -15.386   5.134   1.644  1.00  0.00     0.067 A 
ENDROOT
BRANCH   5  13
HETATM   13  N3  UNL     1     -19.461   3.054   3.162  1.00  0.00    -0.338 N 
ATOM     14  H3  UNL     1     -19.978   3.903   3.392  1.00  0.00     0.167 HD
BRANCH  13  15
HETATM   15  C16 UNL     1     -20.119   1.754   3.097  1.00  0.00     0.092 A 
HETATM   16  C17 UNL     1     -20.686   1.410   1.902  1.00  0.00     0.063 A 
HETATM   17 CL1  UNL     1     -20.604   2.507   0.542  1.00  0.00    -0.082 Cl
HETATM   18  C18 UNL     1     -21.319   0.170   1.828  1.00  0.00     0.029 A 
HETATM   19  C19 UNL     1     -21.362  -0.666   2.924  1.00  0.00     0.041 A 
HETATM   20  C20 UNL     1     -20.769  -0.264   4.109  1.00  0.00     0.107 A 
HETATM   21  C21 UNL     1     -20.131   0.964   4.220  1.00  0.00     0.133 A 
HETATM   22  O5  UNL     1     -20.652  -0.875   5.359  1.00  0.00    -0.323 OA
HETATM   23  O4  UNL     1     -19.621   1.134   5.499  1.00  0.00    -0.321 OA
HETATM   24  C22 UNL     1     -19.757  -0.121   6.153  1.00  0.00     0.352 C 
ENDBRANCH  13  15
ENDBRANCH   5  13
BRANCH   3  25
HETATM   25  O2  UNL     1     -19.477   5.442   2.289  1.00  0.00    -0.345 OA
BRANCH  25  26
HETATM   26  C9  UNL     1     -20.324   6.524   2.131  1.00  0.00     0.133 C 
HETATM   27  C10 UNL     1     -20.528   6.886   0.653  1.00  0.00     0.058 C 
HETATM   28  C11 UNL     1     -21.692   6.105   0.138  1.00  0.00     0.170 C 
HETATM   29  O3  UNL     1     -22.862   6.709   0.592  1.00  0.00    -0.391 OA
HETATM   30  C12 UNL     1     -22.679   7.152   1.897  1.00  0.00     0.170 C 
HETATM   31  C13 UNL     1     -21.723   6.265   2.665  1.00  0.00     0.058 C 
ENDBRANCH  25  26
ENDBRANCH   3  25
BRANCH   1  32
HETATM   32  O1  UNL     1     -15.333   7.363   0.818  1.00  0.00    -0.349 OA
BRANCH  32  33
HETATM   33  C5  UNL     1     -15.580   8.267  -0.188  1.00  0.00     0.206 C 
BRANCH  33  34
HETATM   34  C4  UNL     1     -15.582   9.712   0.187  1.00  0.00     0.299 C 
BRANCH  34  35
HETATM   35  N2  UNL     1     -16.874  10.234   0.502  1.00  0.00     0.093 N 
HETATM   36  C3  UNL     1     -17.981   9.595  -0.141  1.00  0.00     0.302 C 
HETATM   37  C2  UNL     1     -19.242  10.409   0.178  1.00  0.00     0.302 C 
HETATM   38  N1  UNL     1     -19.322  10.680   1.602  1.00  0.00     0.087 N 
HETATM   39  C1  UNL     1     -20.670  10.556   2.110  1.00  0.00     0.310 C 
HETATM   40  C27 UNL     1     -18.415   9.807   2.329  1.00  0.00     0.302 C 
HETATM   41  C26 UNL     1     -17.007  10.213   1.962  1.00  0.00     0.302 C 
ENDBRANCH  34  35
ENDBRANCH  33  34
ENDBRANCH  32  33
ENDBRANCH   1  32
TORSDOF 8
ENDMDL
