MODEL 3
REMARK VINA RESULT: -9.861212018      1.454      2.272
REMARK  8 active torsions:
REMARK  status: ('A' for Active; 'I' for Inactive)
REMARK    1  A    between atoms: N2_5  and  C4_6 
REMARK    2  A    between atoms: C4_6  and  C5_7 
REMARK    3  A    between atoms: C5_7  and  O1_8 
REMARK    4  A    between atoms: O1_8  and  C6_9 
REMARK    5  A    between atoms: C8_11  and  O2_12 
REMARK    6  A    between atoms: O2_12  and  C9_13 
REMARK    7  A    between atoms: C15_20  and  N3_21 
REMARK    8  A    between atoms: N3_21  and  C16_23 
ROOT
HETATM    1  C6  UNL     1     -13.596   2.804   2.054  1.00  0.00     0.073 A 
HETATM    2  C7  UNL     1     -14.602   3.751   2.322  1.00  0.00     0.074 A 
HETATM    3  C8  UNL     1     -15.891   3.385   2.580  1.00  0.00     0.088 A 
HETATM    4  C14 UNL     1     -16.194   2.017   2.571  1.00  0.00     0.068 A 
HETATM    5  C15 UNL     1     -17.462   1.550   2.819  1.00  0.00     0.122 A 
HETATM    6  N4  UNL     1     -17.660   0.185   2.787  1.00  0.00    -0.338 N 
ATOM      7  H4  UNL     1     -18.602  -0.160   2.971  1.00  0.00     0.168 HD
HETATM    8  C23 UNL     1     -16.725  -0.704   2.538  1.00  0.00     0.182 A 
HETATM    9  N5  UNL     1     -15.486  -0.272   2.295  1.00  0.00    -0.351 N 
ATOM     10  H5  UNL     1     -14.738  -0.938   2.098  1.00  0.00     0.166 HD
HETATM   11  C24 UNL     1     -15.224   1.071   2.311  1.00  0.00     0.052 A 
HETATM   12  C25 UNL     1     -13.932   1.477   2.055  1.00  0.00     0.067 A 
ENDROOT
BRANCH   5  13
HETATM   13  N3  UNL     1     -18.548   2.392   3.098  1.00  0.00    -0.338 N 
ATOM     14  H3  UNL     1     -18.432   3.402   3.182  1.00  0.00     0.167 HD
BRANCH  13  15
HETATM   15  C16 UNL     1     -19.851   1.758   3.265  1.00  0.00     0.092 A 
HETATM   16  C17 UNL     1     -20.777   1.986   2.288  1.00  0.00     0.063 A 
HETATM   17 CL1  UNL     1     -20.379   2.999   0.918  1.00  0.00    -0.082 Cl
HETATM   18  C18 UNL     1     -22.027   1.386   2.437  1.00  0.00     0.029 A 
HETATM   19  C19 UNL     1     -22.302   0.594   3.533  1.00  0.00     0.041 A 
HETATM   20  C20 UNL     1     -21.323   0.398   4.492  1.00  0.00     0.107 A 
HETATM   21  C21 UNL     1     -20.068   0.981   4.377  1.00  0.00     0.133 A 
HETATM   22  O5  UNL     1     -21.303  -0.331   5.682  1.00  0.00    -0.323 OA
HETATM   23  O4  UNL     1     -19.270   0.636   5.458  1.00  0.00    -0.321 OA
HETATM   24  C22 UNL     1     -19.976  -0.372   6.170  1.00  0.00     0.352 C 
ENDBRANCH  13  15
ENDBRANCH   5  13
BRANCH   3  25
HETATM   25  O2  UNL     1     -16.879   4.294   2.843  1.00  0.00    -0.345 OA
BRANCH  25  26
HETATM   26  C9  UNL     1     -16.908   5.651   2.574  1.00  0.00     0.133 C 
HETATM   27  C10 UNL     1     -17.135   5.938   1.082  1.00  0.00     0.058 C 
HETATM   28  C11 UNL     1     -18.606   6.024   0.842  1.00  0.00     0.170 C 
HETATM   29  O3  UNL     1     -19.054   7.263   1.293  1.00  0.00    -0.391 OA
HETATM   30  C12 UNL     1     -18.389   7.598   2.468  1.00  0.00     0.170 C 
HETATM   31  C13 UNL     1     -18.040   6.373   3.286  1.00  0.00     0.058 C 
ENDBRANCH  25  26
ENDBRANCH   3  25
BRANCH   1  32
HETATM   32  O1  UNL     1     -12.322   3.209   1.804  1.00  0.00    -0.349 OA
BRANCH  32  33
HETATM   33  C5  UNL     1     -11.144   2.551   1.536  1.00  0.00     0.206 C 
BRANCH  33  34
HETATM   34  C4  UNL     1      -9.879   3.260   1.891  1.00  0.00     0.299 C 
BRANCH  34  35
HETATM   35  N2  UNL     1      -9.333   4.049   0.834  1.00  0.00     0.093 N 
HETATM   36  C3  UNL     1      -9.208   5.450   1.098  1.00  0.00     0.302 C 
HETATM   37  C2  UNL     1      -8.784   6.137  -0.207  1.00  0.00     0.302 C 
HETATM   38  N1  UNL     1      -7.664   5.436  -0.807  1.00  0.00     0.087 N 
HETATM   39  C1  UNL     1      -6.683   6.341  -1.361  1.00  0.00     0.310 C 
HETATM   40  C27 UNL     1      -7.052   4.545   0.165  1.00  0.00     0.302 C 
HETATM   41  C26 UNL     1      -8.048   3.449   0.463  1.00  0.00     0.302 C 
ENDBRANCH  34  35
ENDBRANCH  33  34
ENDBRANCH  32  33
ENDBRANCH   1  32
TORSDOF 8
ENDMDL
