MODEL 2
REMARK VINA RESULT: -9.887445744      1.367      2.267
REMARK  8 active torsions:
REMARK  status: ('A' for Active; 'I' for Inactive)
REMARK    1  A    between atoms: N2_5  and  C4_6 
REMARK    2  A    between atoms: C4_6  and  C5_7 
REMARK    3  A    between atoms: C5_7  and  O1_8 
REMARK    4  A    between atoms: O1_8  and  C6_9 
REMARK    5  A    between atoms: C8_11  and  O2_12 
REMARK    6  A    between atoms: O2_12  and  C9_13 
REMARK    7  A    between atoms: C15_20  and  N3_21 
REMARK    8  A    between atoms: N3_21  and  C16_23 
ROOT
HETATM    1  C6  UNL     1     -13.521   2.548   2.105  1.00  0.00     0.073 A 
HETATM    2  C7  UNL     1     -14.483   3.536   2.389  1.00  0.00     0.074 A 
HETATM    3  C8  UNL     1     -15.791   3.225   2.622  1.00  0.00     0.088 A 
HETATM    4  C14 UNL     1     -16.160   1.874   2.571  1.00  0.00     0.068 A 
HETATM    5  C15 UNL     1     -17.451   1.462   2.792  1.00  0.00     0.122 A 
HETATM    6  N4  UNL     1     -17.715   0.110   2.720  1.00  0.00    -0.338 N 
ATOM      7  H4  UNL     1     -18.674  -0.194   2.884  1.00  0.00     0.168 HD
HETATM    8  C23 UNL     1     -16.820  -0.816   2.455  1.00  0.00     0.182 A 
HETATM    9  N5  UNL     1     -15.559  -0.437   2.238  1.00  0.00    -0.351 N 
ATOM     10  H5  UNL     1     -14.842  -1.133   2.030  1.00  0.00     0.166 HD
HETATM   11  C24 UNL     1     -15.234   0.890   2.296  1.00  0.00     0.052 A 
HETATM   12  C25 UNL     1     -13.920   1.239   2.064  1.00  0.00     0.067 A 
ENDROOT
BRANCH   5  13
HETATM   13  N3  UNL     1     -18.499   2.348   3.084  1.00  0.00    -0.338 N 
ATOM     14  H3  UNL     1     -18.341   3.353   3.167  1.00  0.00     0.167 HD
BRANCH  13  15
HETATM   15  C16 UNL     1     -19.825   1.768   3.263  1.00  0.00     0.092 A 
HETATM   16  C17 UNL     1     -20.753   2.039   2.298  1.00  0.00     0.063 A 
HETATM   17 CL1  UNL     1     -20.328   3.041   0.928  1.00  0.00    -0.082 Cl
HETATM   18  C18 UNL     1     -22.024   1.491   2.459  1.00  0.00     0.029 A 
HETATM   19  C19 UNL     1     -22.319   0.706   3.555  1.00  0.00     0.041 A 
HETATM   20  C20 UNL     1     -21.338   0.465   4.502  1.00  0.00     0.107 A 
HETATM   21  C21 UNL     1     -20.061   0.995   4.374  1.00  0.00     0.133 A 
HETATM   22  O5  UNL     1     -21.335  -0.270   5.688  1.00  0.00    -0.323 OA
HETATM   23  O4  UNL     1     -19.266   0.612   5.444  1.00  0.00    -0.321 OA
HETATM   24  C22 UNL     1     -20.005  -0.368   6.161  1.00  0.00     0.352 C 
ENDBRANCH  13  15
ENDBRANCH   5  13
BRANCH   3  25
HETATM   25  O2  UNL     1     -16.738   4.174   2.900  1.00  0.00    -0.345 OA
BRANCH  25  26
HETATM   26  C9  UNL     1     -16.719   5.529   2.625  1.00  0.00     0.133 C 
HETATM   27  C10 UNL     1     -16.842   5.814   1.121  1.00  0.00     0.058 C 
HETATM   28  C11 UNL     1     -18.292   5.931   0.785  1.00  0.00     0.170 C 
HETATM   29  O3  UNL     1     -18.740   7.182   1.202  1.00  0.00    -0.391 OA
HETATM   30  C12 UNL     1     -18.146   7.508   2.415  1.00  0.00     0.170 C 
HETATM   31  C13 UNL     1     -17.878   6.280   3.260  1.00  0.00     0.058 C 
ENDBRANCH  25  26
ENDBRANCH   3  25
BRANCH   1  32
HETATM   32  O1  UNL     1     -12.226   2.898   1.881  1.00  0.00    -0.349 OA
BRANCH  32  33
HETATM   33  C5  UNL     1     -11.014   2.382   2.275  1.00  0.00     0.206 C 
BRANCH  33  34
HETATM   34  C4  UNL     1      -9.894   2.458   1.290  1.00  0.00     0.299 C 
BRANCH  34  35
HETATM   35  N2  UNL     1      -9.115   3.651   1.379  1.00  0.00     0.093 N 
HETATM   36  C3  UNL     1      -9.603   4.775   0.639  1.00  0.00     0.302 C 
HETATM   37  C2  UNL     1      -8.542   5.881   0.714  1.00  0.00     0.302 C 
HETATM   38  N1  UNL     1      -8.116   6.081   2.086  1.00  0.00     0.087 N 
HETATM   39  C1  UNL     1      -7.936   7.478   2.409  1.00  0.00     0.310 C 
HETATM   40  C27 UNL     1      -9.060   5.458   3.000  1.00  0.00     0.302 C 
HETATM   41  C26 UNL     1      -8.960   3.964   2.803  1.00  0.00     0.302 C 
ENDBRANCH  34  35
ENDBRANCH  33  34
ENDBRANCH  32  33
ENDBRANCH   1  32
TORSDOF 8
ENDMDL
