MODEL 6
REMARK VINA RESULT: -9.123294660      3.202      7.674
REMARK  8 active torsions:
REMARK  status: ('A' for Active; 'I' for Inactive)
REMARK    1  A    between atoms: N2_5  and  C4_6 
REMARK    2  A    between atoms: C4_6  and  C5_7 
REMARK    3  A    between atoms: C5_7  and  O1_8 
REMARK    4  A    between atoms: O1_8  and  C6_9 
REMARK    5  A    between atoms: C8_11  and  O2_12 
REMARK    6  A    between atoms: O2_12  and  C9_13 
REMARK    7  A    between atoms: C15_20  and  N3_21 
REMARK    8  A    between atoms: N3_21  and  C16_23 
ROOT
HETATM    1  C6  UNL     1     -20.635   2.601   2.897  1.00  0.00     0.073 A 
HETATM    2  C7  UNL     1     -19.598   3.456   2.479  1.00  0.00     0.074 A 
HETATM    3  C8  UNL     1     -19.812   4.776   2.211  1.00  0.00     0.088 A 
HETATM    4  C14 UNL     1     -21.115   5.270   2.365  1.00  0.00     0.068 A 
HETATM    5  C15 UNL     1     -21.430   6.584   2.121  1.00  0.00     0.122 A 
HETATM    6  N4  UNL     1     -22.741   6.973   2.301  1.00  0.00    -0.338 N 
ATOM      7  H4  UNL     1     -22.974   7.950   2.118  1.00  0.00     0.168 HD
HETATM    8  C23 UNL     1     -23.713   6.180   2.692  1.00  0.00     0.182 A 
HETATM    9  N5  UNL     1     -23.428   4.899   2.936  1.00  0.00    -0.351 N 
ATOM     10  H5  UNL     1     -24.162   4.258   3.240  1.00  0.00     0.166 HD
HETATM   11  C24 UNL     1     -22.146   4.451   2.775  1.00  0.00     0.052 A 
HETATM   12  C25 UNL     1     -21.893   3.121   3.037  1.00  0.00     0.067 A 
ENDROOT
BRANCH   5  13
HETATM   13  N3  UNL     1     -20.487   7.533   1.700  1.00  0.00    -0.338 N 
ATOM     14  H3  UNL     1     -19.536   7.540   2.070  1.00  0.00     0.167 HD
BRANCH  13  15
HETATM   15  C16 UNL     1     -20.927   8.510   0.710  1.00  0.00     0.092 A 
HETATM   16  C17 UNL     1     -21.109   8.056  -0.566  1.00  0.00     0.063 A 
HETATM   17 CL1  UNL     1     -20.814   6.375  -0.951  1.00  0.00    -0.082 Cl
HETATM   18  C18 UNL     1     -21.529   8.980  -1.521  1.00  0.00     0.029 A 
HETATM   19  C19 UNL     1     -21.750  10.298  -1.176  1.00  0.00     0.041 A 
HETATM   20  C20 UNL     1     -21.550  10.701   0.133  1.00  0.00     0.107 A 
HETATM   21  C21 UNL     1     -21.131   9.808   1.110  1.00  0.00     0.133 A 
HETATM   22  O5  UNL     1     -21.686  11.935   0.770  1.00  0.00    -0.323 OA
HETATM   23  O4  UNL     1     -21.004  10.449   2.334  1.00  0.00    -0.321 OA
HETATM   24  C22 UNL     1     -21.567  11.744   2.167  1.00  0.00     0.352 C 
ENDBRANCH  13  15
ENDBRANCH   5  13
BRANCH   3  25
HETATM   25  O2  UNL     1     -18.814   5.620   1.804  1.00  0.00    -0.345 OA
BRANCH  25  26
HETATM   26  C9  UNL     1     -17.525   5.315   1.408  1.00  0.00     0.133 C 
HETATM   27  C10 UNL     1     -17.120   6.070   0.132  1.00  0.00     0.058 C 
HETATM   28  C11 UNL     1     -16.516   7.375   0.534  1.00  0.00     0.170 C 
HETATM   29  O3  UNL     1     -15.216   7.139   0.975  1.00  0.00    -0.391 OA
HETATM   30  C12 UNL     1     -15.180   5.956   1.702  1.00  0.00     0.170 C 
HETATM   31  C13 UNL     1     -16.479   5.706   2.439  1.00  0.00     0.058 C 
ENDBRANCH  25  26
ENDBRANCH   3  25
BRANCH   1  32
HETATM   32  O1  UNL     1     -20.380   1.291   3.157  1.00  0.00    -0.349 OA
BRANCH  32  33
HETATM   33  C5  UNL     1     -19.323   0.615   3.722  1.00  0.00     0.206 C 
BRANCH  33  34
HETATM   34  C4  UNL     1     -18.426  -0.134   2.793  1.00  0.00     0.299 C 
BRANCH  34  35
HETATM   35  N2  UNL     1     -17.254   0.582   2.405  1.00  0.00     0.093 N 
HETATM   36  C3  UNL     1     -16.723   1.488   3.377  1.00  0.00     0.302 C 
HETATM   37  C2  UNL     1     -15.594   2.284   2.709  1.00  0.00     0.302 C 
HETATM   38  N1  UNL     1     -14.684   1.389   2.018  1.00  0.00     0.087 N 
HETATM   39  C1  UNL     1     -13.301   1.776   2.181  1.00  0.00     0.310 C 
HETATM   40  C27 UNL     1     -14.892   0.021   2.464  1.00  0.00     0.302 C 
HETATM   41  C26 UNL     1     -16.259  -0.409   1.983  1.00  0.00     0.302 C 
ENDBRANCH  34  35
ENDBRANCH  33  34
ENDBRANCH  32  33
ENDBRANCH   1  32
TORSDOF 8
ENDMDL
