MODEL 7
REMARK VINA RESULT: -9.062062945      3.960      9.308
REMARK  8 active torsions:
REMARK  status: ('A' for Active; 'I' for Inactive)
REMARK    1  A    between atoms: N2_5  and  C4_6 
REMARK    2  A    between atoms: C4_6  and  C5_7 
REMARK    3  A    between atoms: C5_7  and  O1_8 
REMARK    4  A    between atoms: O1_8  and  C6_9 
REMARK    5  A    between atoms: C8_11  and  O2_12 
REMARK    6  A    between atoms: O2_12  and  C9_13 
REMARK    7  A    between atoms: C15_20  and  N3_21 
REMARK    8  A    between atoms: N3_21  and  C16_23 
ROOT
HETATM    1  C6  UNL     1     -20.635   4.906   2.448  1.00  0.00     0.073 A 
HETATM    2  C7  UNL     1     -19.251   4.660   2.364  1.00  0.00     0.074 A 
HETATM    3  C8  UNL     1     -18.344   5.670   2.231  1.00  0.00     0.088 A 
HETATM    4  C14 UNL     1     -18.831   6.982   2.178  1.00  0.00     0.068 A 
HETATM    5  C15 UNL     1     -17.997   8.065   2.045  1.00  0.00     0.122 A 
HETATM    6  N4  UNL     1     -18.574   9.318   2.002  1.00  0.00    -0.338 N 
ATOM      7  H4  UNL     1     -17.952  10.121   1.903  1.00  0.00     0.168 HD
HETATM    8  C23 UNL     1     -19.864   9.553   2.081  1.00  0.00     0.182 A 
HETATM    9  N5  UNL     1     -20.693   8.515   2.211  1.00  0.00    -0.351 N 
ATOM     10  H5  UNL     1     -21.700   8.666   2.274  1.00  0.00     0.166 HD
HETATM   11  C24 UNL     1     -20.183   7.247   2.259  1.00  0.00     0.052 A 
HETATM   12  C25 UNL     1     -21.072   6.202   2.393  1.00  0.00     0.067 A 
ENDROOT
BRANCH   5  13
HETATM   13  N3  UNL     1     -16.602   7.951   1.951  1.00  0.00    -0.338 N 
ATOM     14  H3  UNL     1     -16.092   7.222   2.451  1.00  0.00     0.167 HD
BRANCH  13  15
HETATM   15  C16 UNL     1     -15.913   8.922   1.109  1.00  0.00     0.092 A 
HETATM   16  C17 UNL     1     -15.695   8.565  -0.191  1.00  0.00     0.063 A 
HETATM   17 CL1  UNL     1     -16.229   7.005  -0.776  1.00  0.00    -0.082 Cl
HETATM   18  C18 UNL     1     -15.037   9.485  -1.006  1.00  0.00     0.029 A 
HETATM   19  C19 UNL     1     -14.631  10.705  -0.506  1.00  0.00     0.041 A 
HETATM   20  C20 UNL     1     -14.880  11.013   0.820  1.00  0.00     0.107 A 
HETATM   21  C21 UNL     1     -15.532  10.121   1.661  1.00  0.00     0.133 A 
HETATM   22  O5  UNL     1     -14.597  12.139   1.595  1.00  0.00    -0.323 OA
HETATM   23  O4  UNL     1     -15.662  10.658   2.934  1.00  0.00    -0.321 OA
HETATM   24  C22 UNL     1     -15.269  12.020   2.835  1.00  0.00     0.352 C 
ENDBRANCH  13  15
ENDBRANCH   5  13
BRANCH   3  25
HETATM   25  O2  UNL     1     -16.996   5.446   2.148  1.00  0.00    -0.345 OA
BRANCH  25  26
HETATM   26  C9  UNL     1     -16.326   4.312   1.727  1.00  0.00     0.133 C 
HETATM   27  C10 UNL     1     -14.999   4.652   1.030  1.00  0.00     0.058 C 
HETATM   28  C11 UNL     1     -13.927   4.703   2.067  1.00  0.00     0.170 C 
HETATM   29  O3  UNL     1     -13.578   3.398   2.403  1.00  0.00    -0.391 OA
HETATM   30  C12 UNL     1     -14.719   2.606   2.437  1.00  0.00     0.170 C 
HETATM   31  C13 UNL     1     -15.938   3.391   2.872  1.00  0.00     0.058 C 
ENDBRANCH  25  26
ENDBRANCH   3  25
BRANCH   1  32
HETATM   32  O1  UNL     1     -21.508   3.872   2.583  1.00  0.00    -0.349 OA
BRANCH  32  33
HETATM   33  C5  UNL     1     -21.570   2.774   3.410  1.00  0.00     0.206 C 
BRANCH  33  34
HETATM   34  C4  UNL     1     -21.964   1.478   2.782  1.00  0.00     0.299 C 
BRANCH  34  35
HETATM   35  N2  UNL     1     -20.892   0.545   2.642  1.00  0.00     0.093 N 
HETATM   36  C3  UNL     1     -20.517   0.220   1.300  1.00  0.00     0.302 C 
HETATM   37  C2  UNL     1     -19.492  -0.921   1.363  1.00  0.00     0.302 C 
HETATM   38  N1  UNL     1     -18.450  -0.611   2.324  1.00  0.00     0.087 N 
HETATM   39  C1  UNL     1     -17.139  -1.003   1.859  1.00  0.00     0.310 C 
HETATM   40  C27 UNL     1     -18.478   0.804   2.655  1.00  0.00     0.302 C 
HETATM   41  C26 UNL     1     -19.759   1.065   3.413  1.00  0.00     0.302 C 
ENDBRANCH  34  35
ENDBRANCH  33  34
ENDBRANCH  32  33
ENDBRANCH   1  32
TORSDOF 8
ENDMDL
