MODEL 4
REMARK VINA RESULT: -9.821330579      1.349      1.788
REMARK  8 active torsions:
REMARK  status: ('A' for Active; 'I' for Inactive)
REMARK    1  A    between atoms: N2_5  and  C4_6 
REMARK    2  A    between atoms: C4_6  and  C5_7 
REMARK    3  A    between atoms: C5_7  and  O1_8 
REMARK    4  A    between atoms: O1_8  and  C6_9 
REMARK    5  A    between atoms: C8_11  and  O2_12 
REMARK    6  A    between atoms: O2_12  and  C9_13 
REMARK    7  A    between atoms: C15_20  and  N3_21 
REMARK    8  A    between atoms: N3_21  and  C16_23 
ROOT
HETATM    1  C6  UNL     1     -13.446   2.228   2.082  1.00  0.00     0.073 A 
HETATM    2  C7  UNL     1     -14.349   3.267   2.378  1.00  0.00     0.074 A 
HETATM    3  C8  UNL     1     -15.672   3.030   2.613  1.00  0.00     0.088 A 
HETATM    4  C14 UNL     1     -16.119   1.704   2.551  1.00  0.00     0.068 A 
HETATM    5  C15 UNL     1     -17.431   1.365   2.772  1.00  0.00     0.122 A 
HETATM    6  N4  UNL     1     -17.773   0.031   2.688  1.00  0.00    -0.338 N 
ATOM      7  H4  UNL     1     -18.748  -0.218   2.852  1.00  0.00     0.168 HD
HETATM    8  C23 UNL     1     -16.934  -0.943   2.412  1.00  0.00     0.182 A 
HETATM    9  N5  UNL     1     -15.653  -0.636   2.195  1.00  0.00    -0.351 N 
ATOM     10  H5  UNL     1     -14.979  -1.370   1.978  1.00  0.00     0.166 HD
HETATM   11  C24 UNL     1     -15.252   0.670   2.263  1.00  0.00     0.052 A 
HETATM   12  C25 UNL     1     -13.921   0.945   2.031  1.00  0.00     0.067 A 
ENDROOT
BRANCH   5  13
HETATM   13  N3  UNL     1     -18.425   2.307   3.075  1.00  0.00    -0.338 N 
ATOM     14  H3  UNL     1     -18.209   3.300   3.169  1.00  0.00     0.167 HD
BRANCH  13  15
HETATM   15  C16 UNL     1     -19.783   1.804   3.250  1.00  0.00     0.092 A 
HETATM   16  C17 UNL     1     -20.697   2.148   2.295  1.00  0.00     0.063 A 
HETATM   17 CL1  UNL     1     -20.219   3.149   0.942  1.00  0.00    -0.082 Cl
HETATM   18  C18 UNL     1     -21.998   1.673   2.452  1.00  0.00     0.029 A 
HETATM   19  C19 UNL     1     -22.334   0.886   3.534  1.00  0.00     0.041 A 
HETATM   20  C20 UNL     1     -21.366   0.568   4.471  1.00  0.00     0.107 A 
HETATM   21  C21 UNL     1     -20.060   1.025   4.347  1.00  0.00     0.133 A 
HETATM   22  O5  UNL     1     -21.401  -0.188   5.644  1.00  0.00    -0.323 OA
HETATM   23  O4  UNL     1     -19.284   0.574   5.406  1.00  0.00    -0.321 OA
HETATM   24  C22 UNL     1     -20.078  -0.375   6.107  1.00  0.00     0.352 C 
ENDBRANCH  13  15
ENDBRANCH   5  13
BRANCH   3  25
HETATM   25  O2  UNL     1     -16.562   4.029   2.902  1.00  0.00    -0.345 OA
BRANCH  25  26
HETATM   26  C9  UNL     1     -16.464   5.384   2.643  1.00  0.00     0.133 C 
HETATM   27  C10 UNL     1     -16.485   5.687   1.138  1.00  0.00     0.058 C 
HETATM   28  C11 UNL     1     -17.905   5.874   0.719  1.00  0.00     0.170 C 
HETATM   29  O3  UNL     1     -18.318   7.142   1.122  1.00  0.00    -0.391 OA
HETATM   30  C12 UNL     1     -17.783   7.430   2.371  1.00  0.00     0.170 C 
HETATM   31  C13 UNL     1     -17.623   6.184   3.217  1.00  0.00     0.058 C 
ENDBRANCH  25  26
ENDBRANCH   3  25
BRANCH   1  32
HETATM   32  O1  UNL     1     -12.134   2.505   1.857  1.00  0.00    -0.349 OA
BRANCH  32  33
HETATM   33  C5  UNL     1     -11.427   3.659   1.616  1.00  0.00     0.206 C 
BRANCH  33  34
HETATM   34  C4  UNL     1     -10.056   3.506   1.045  1.00  0.00     0.299 C 
BRANCH  34  35
HETATM   35  N2  UNL     1      -9.005   3.884   1.935  1.00  0.00     0.093 N 
HETATM   36  C3  UNL     1      -9.252   5.041   2.740  1.00  0.00     0.302 C 
HETATM   37  C2  UNL     1      -7.951   5.385   3.478  1.00  0.00     0.302 C 
HETATM   38  N1  UNL     1      -7.399   4.200   4.108  1.00  0.00     0.087 N 
HETATM   39  C1  UNL     1      -6.864   4.476   5.422  1.00  0.00     0.310 C 
HETATM   40  C27 UNL     1      -8.404   3.152   4.171  1.00  0.00     0.302 C 
HETATM   41  C26 UNL     1      -8.685   2.710   2.754  1.00  0.00     0.302 C 
ENDBRANCH  34  35
ENDBRANCH  33  34
ENDBRANCH  32  33
ENDBRANCH   1  32
TORSDOF 8
ENDMDL
