MODEL 5
REMARK VINA RESULT: -6.459227349      2.916      4.759
REMARK  5 active torsions:
REMARK  status: ('A' for Active; 'I' for Inactive)
REMARK    1  A    between atoms: O1_2  and  C2_3 
REMARK    2  A    between atoms: C5_6  and  C6_7 
REMARK    3  A    between atoms: C6_7  and  C7_8 
REMARK    4  A    between atoms: C7_8  and  O2_9 
REMARK    5  A    between atoms: C10_19  and  O4_20 
ROOT
HETATM    1  C7  UNL     1       0.115   3.512  80.752  1.00  0.00     0.221 C 
HETATM    2  N1  UNL     1       0.839   4.165  81.850  1.00  0.00    -0.327 N 
ATOM      3  H1  UNL     1       0.487   4.406  82.777  1.00  0.00     0.165 HD
HETATM    4  C8  UNL     1       2.146   4.386  81.328  1.00  0.00     0.177 C 
HETATM    5  S1  UNL     1       3.189   5.573  81.754  1.00  0.00    -0.041 SA
HETATM    6  N2  UNL     1       2.366   3.347  80.347  1.00  0.00    -0.300 N 
ATOM      7  H2  UNL     1       3.203   3.210  79.780  1.00  0.00     0.171 HD
HETATM    8  C9  UNL     1       1.177   2.547  80.325  1.00  0.00     0.280 C 
HETATM    9  O3  UNL     1       1.090   1.338  80.018  1.00  0.00    -0.268 OA
ENDROOT
BRANCH   1  10
HETATM   10  C6  UNL     1      -1.143   2.882  81.209  1.00  0.00     0.113 C 
BRANCH  10  11
HETATM   11  C5  UNL     1      -1.179   2.568  82.651  1.00  0.00    -0.019 A 
HETATM   12  C4  UNL     1      -0.754   1.321  83.095  1.00  0.00     0.013 A 
HETATM   13  C3  UNL     1      -0.753   0.959  84.425  1.00  0.00     0.037 A 
HETATM   14  C2  UNL     1      -1.200   1.890  85.350  1.00  0.00     0.070 A 
HETATM   15  C12 UNL     1      -1.627   3.139  84.916  1.00  0.00     0.074 A 
HETATM   16  C10 UNL     1      -1.628   3.505  83.587  1.00  0.00     0.077 A 
BRANCH  14  17
HETATM   17  O1  UNL     1      -1.193   1.514  86.668  1.00  0.00    -0.356 OA
HETATM   18  C1  UNL     1      -2.309   1.427  87.502  1.00  0.00     0.210 C 
ENDBRANCH  14  17
BRANCH  16  19
HETATM   19  O4  UNL     1      -2.038   4.718  83.115  1.00  0.00    -0.355 OA
HETATM   20  C11 UNL     1      -2.005   5.954  83.743  1.00  0.00     0.210 C 
ENDBRANCH  16  19
ENDBRANCH  10  11
ENDBRANCH   1  10
BRANCH   1  21
HETATM   21  O2  UNL     1      -0.115   4.486  79.817  1.00  0.00    -0.363 OA
ATOM     22  H2  UNL     1       0.643   4.630  79.264  1.00  0.00     0.213 HD
ENDBRANCH   1  21
TORSDOF 5
ENDMDL
