MODEL 3
REMARK VINA RESULT: -6.511360274      2.484      4.033
REMARK  5 active torsions:
REMARK  status: ('A' for Active; 'I' for Inactive)
REMARK    1  A    between atoms: O1_2  and  C2_3 
REMARK    2  A    between atoms: C5_6  and  C6_7 
REMARK    3  A    between atoms: C6_7  and  C7_8 
REMARK    4  A    between atoms: C7_8  and  O2_9 
REMARK    5  A    between atoms: C10_19  and  O4_20 
ROOT
HETATM    1  C7  UNL     1      -0.049   2.427  81.814  1.00  0.00     0.221 C 
HETATM    2  N1  UNL     1       0.128   1.116  82.453  1.00  0.00    -0.327 N 
ATOM      3  H1  UNL     1       0.428   0.920  83.407  1.00  0.00     0.165 HD
HETATM    4  C8  UNL     1      -0.216   0.180  81.435  1.00  0.00     0.177 C 
HETATM    5  S1  UNL     1       0.346  -1.348  81.271  1.00  0.00    -0.041 SA
HETATM    6  N2  UNL     1      -1.166   0.853  80.577  1.00  0.00    -0.300 N 
ATOM      7  H2  UNL     1      -1.617   0.468  79.746  1.00  0.00     0.171 HD
HETATM    8  C9  UNL     1      -1.349   2.166  81.121  1.00  0.00     0.280 C 
HETATM    9  O3  UNL     1      -2.366   2.887  81.018  1.00  0.00    -0.268 OA
ENDROOT
BRANCH   1  10
HETATM   10  C6  UNL     1      -0.087   3.528  82.802  1.00  0.00     0.113 C 
BRANCH  10  11
HETATM   11  C5  UNL     1      -0.850   3.222  84.027  1.00  0.00    -0.019 A 
HETATM   12  C4  UNL     1      -0.435   2.186  84.856  1.00  0.00     0.013 A 
HETATM   13  C3  UNL     1      -1.093   1.847  86.019  1.00  0.00     0.037 A 
HETATM   14  C2  UNL     1      -2.217   2.580  86.365  1.00  0.00     0.070 A 
HETATM   15  C12 UNL     1      -2.640   3.618  85.543  1.00  0.00     0.074 A 
HETATM   16  C10 UNL     1      -1.984   3.960  84.379  1.00  0.00     0.077 A 
BRANCH  14  17
HETATM   17  O1  UNL     1      -2.860   2.230  87.524  1.00  0.00    -0.356 OA
HETATM   18  C1  UNL     1      -2.958   3.013  88.675  1.00  0.00     0.210 C 
ENDBRANCH  14  17
BRANCH  16  19
HETATM   19  O4  UNL     1      -2.362   4.969  83.542  1.00  0.00    -0.355 OA
HETATM   20  C11 UNL     1      -2.375   6.336  83.774  1.00  0.00     0.210 C 
ENDBRANCH  16  19
ENDBRANCH  10  11
ENDBRANCH   1  10
BRANCH   1  21
HETATM   21  O2  UNL     1       0.995   2.566  80.938  1.00  0.00    -0.363 OA
ATOM     22  H2  UNL     1       1.731   2.016  81.178  1.00  0.00     0.213 HD
ENDBRANCH   1  21
TORSDOF 5
ENDMDL
