MODEL 4
REMARK VINA RESULT: -6.475333996      2.713      2.993
REMARK  5 active torsions:
REMARK  status: ('A' for Active; 'I' for Inactive)
REMARK    1  A    between atoms: O1_2  and  C2_3 
REMARK    2  A    between atoms: C5_6  and  C6_7 
REMARK    3  A    between atoms: C6_7  and  C7_8 
REMARK    4  A    between atoms: C7_8  and  O2_9 
REMARK    5  A    between atoms: C10_19  and  O4_20 
ROOT
HETATM    1  C7  UNL     1      -0.531   2.544  85.085  1.00  0.00     0.221 C 
HETATM    2  N1  UNL     1      -1.617   3.224  85.805  1.00  0.00    -0.327 N 
ATOM      3  H1  UNL     1      -2.021   4.140  85.610  1.00  0.00     0.165 HD
HETATM    4  C8  UNL     1      -1.980   2.311  86.837  1.00  0.00     0.177 C 
HETATM    5  S1  UNL     1      -2.623   2.679  88.296  1.00  0.00    -0.041 SA
HETATM    6  N2  UNL     1      -1.666   0.992  86.333  1.00  0.00    -0.300 N 
ATOM      7  H2  UNL     1      -1.801   0.106  86.820  1.00  0.00     0.171 HD
HETATM    8  C9  UNL     1      -1.129   1.174  85.018  1.00  0.00     0.280 C 
HETATM    9  O3  UNL     1      -1.169   0.359  84.069  1.00  0.00    -0.268 OA
ENDROOT
BRANCH   1  10
HETATM   10  C6  UNL     1      -0.260   3.165  83.770  1.00  0.00     0.113 C 
BRANCH  10  11
HETATM   11  C5  UNL     1       0.161   4.578  83.837  1.00  0.00    -0.019 A 
HETATM   12  C4  UNL     1       1.513   4.890  83.917  1.00  0.00     0.013 A 
HETATM   13  C3  UNL     1       1.981   6.185  83.977  1.00  0.00     0.037 A 
HETATM   14  C2  UNL     1       1.050   7.212  83.956  1.00  0.00     0.070 A 
HETATM   15  C12 UNL     1      -0.304   6.911  83.876  1.00  0.00     0.074 A 
HETATM   16  C10 UNL     1      -0.775   5.616  83.816  1.00  0.00     0.077 A 
BRANCH  14  17
HETATM   17  O1  UNL     1       1.533   8.494  84.016  1.00  0.00    -0.356 OA
HETATM   18  C1  UNL     1       1.463   9.346  85.120  1.00  0.00     0.210 C 
ENDBRANCH  14  17
BRANCH  16  19
HETATM   19  O4  UNL     1      -2.094   5.272  83.736  1.00  0.00    -0.355 OA
HETATM   20  C11 UNL     1      -3.201   5.945  84.229  1.00  0.00     0.210 C 
ENDBRANCH  16  19
ENDBRANCH  10  11
ENDBRANCH   1  10
BRANCH   1  21
HETATM   21  O2  UNL     1       0.562   2.601  85.908  1.00  0.00    -0.363 OA
ATOM     22  H2  UNL     1       0.758   3.492  86.172  1.00  0.00     0.213 HD
ENDBRANCH   1  21
TORSDOF 5
ENDMDL
