MODEL 7
REMARK VINA RESULT: -6.367316102      2.266      4.650
REMARK  5 active torsions:
REMARK  status: ('A' for Active; 'I' for Inactive)
REMARK    1  A    between atoms: O1_2  and  C2_3 
REMARK    2  A    between atoms: C5_6  and  C6_7 
REMARK    3  A    between atoms: C6_7  and  C7_8 
REMARK    4  A    between atoms: C7_8  and  O2_9 
REMARK    5  A    between atoms: C10_19  and  O4_20 
ROOT
HETATM    1  C7  UNL     1       1.318   4.730  82.971  1.00  0.00     0.221 C 
HETATM    2  N1  UNL     1       0.878   3.399  82.531  1.00  0.00    -0.327 N 
ATOM      3  H1  UNL     1       0.391   2.689  83.076  1.00  0.00     0.165 HD
HETATM    4  C8  UNL     1       1.287   3.327  81.168  1.00  0.00     0.177 C 
HETATM    5  S1  UNL     1       1.670   1.977  80.325  1.00  0.00    -0.041 SA
HETATM    6  N2  UNL     1       1.293   4.687  80.679  1.00  0.00    -0.300 N 
ATOM      7  H2  UNL     1       1.539   4.996  79.738  1.00  0.00     0.171 HD
HETATM    8  C9  UNL     1       0.885   5.517  81.774  1.00  0.00     0.280 C 
HETATM    9  O3  UNL     1       0.310   6.626  81.704  1.00  0.00    -0.268 OA
ENDROOT
BRANCH   1  10
HETATM   10  C6  UNL     1       0.678   5.137  84.241  1.00  0.00     0.113 C 
BRANCH  10  11
HETATM   11  C5  UNL     1      -0.323   4.182  84.753  1.00  0.00    -0.019 A 
HETATM   12  C4  UNL     1       0.089   3.092  85.513  1.00  0.00     0.013 A 
HETATM   13  C3  UNL     1      -0.788   2.164  86.029  1.00  0.00     0.037 A 
HETATM   14  C2  UNL     1      -2.139   2.335  85.771  1.00  0.00     0.070 A 
HETATM   15  C12 UNL     1      -2.562   3.420  85.014  1.00  0.00     0.074 A 
HETATM   16  C10 UNL     1      -1.687   4.352  84.496  1.00  0.00     0.077 A 
BRANCH  14  17
HETATM   17  O1  UNL     1      -2.998   1.402  86.292  1.00  0.00    -0.356 OA
HETATM   18  C1  UNL     1      -4.153   1.671  87.028  1.00  0.00     0.210 C 
ENDBRANCH  14  17
BRANCH  16  19
HETATM   19  O4  UNL     1      -2.055   5.432  83.747  1.00  0.00    -0.355 OA
HETATM   20  C11 UNL     1      -2.937   6.453  84.065  1.00  0.00     0.210 C 
ENDBRANCH  16  19
ENDBRANCH  10  11
ENDBRANCH   1  10
BRANCH   1  21
HETATM   21  O2  UNL     1       2.681   4.660  83.089  1.00  0.00    -0.363 OA
ATOM     22  H2  UNL     1       2.976   4.954  83.942  1.00  0.00     0.213 HD
ENDBRANCH   1  21
TORSDOF 5
ENDMDL
