MODEL 13
REMARK VINA RESULT: -7.367815445      2.977      5.015
REMARK  4 active torsions:
REMARK  status: ('A' for Active; 'I' for Inactive)
REMARK    1  A    between atoms: C2_2  and  S1_3 
REMARK    2  A    between atoms: C2_2  and  C14_24 
REMARK    3  A    between atoms: S1_3  and  C3_4 
REMARK    4  A    between atoms: N3_12  and  C7_13 
ROOT
HETATM    1  C3  UNL     1     -26.764  -9.572  53.288  1.00  0.00     0.149 A 
HETATM    2  N1  UNL     1     -25.436  -9.620  53.082  1.00  0.00    -0.320 N 
ATOM      3  H1  UNL     1     -24.805  -9.912  53.827  1.00  0.00     0.169 HD
HETATM    4  C4  UNL     1     -24.954  -9.275  51.867  1.00  0.00     0.146 A 
HETATM    5  C5  UNL     1     -25.772  -8.875  50.830  1.00  0.00     0.095 A 
HETATM    6  C6  UNL     1     -24.929  -8.614  49.782  1.00  0.00     0.128 A 
HETATM    7  N2  UNL     1     -23.688  -8.855  50.208  1.00  0.00    -0.302 N 
ATOM      8  H2  UNL     1     -22.858  -8.741  49.628  1.00  0.00     0.186 HD
HETATM    9  N3  UNL     1     -23.653  -9.259  51.466  1.00  0.00    -0.239 N 
HETATM   10  C13 UNL     1     -27.128  -8.837  51.075  1.00  0.00     0.262 A 
HETATM   11  O1  UNL     1     -27.892  -8.476  50.147  1.00  0.00    -0.267 OA
HETATM   12  N4  UNL     1     -27.599  -9.189  52.307  1.00  0.00    -0.303 N 
ATOM     13  H4  UNL     1     -28.602  -9.162  52.485  1.00  0.00     0.171 HD
ENDROOT
BRANCH   9  14
HETATM   14  C7  UNL     1     -22.529  -9.611  52.270  1.00  0.00     0.060 A 
HETATM   15  C8  UNL     1     -21.343 -10.042  51.704  1.00  0.00     0.032 A 
HETATM   16  C9  UNL     1     -20.253 -10.386  52.479  1.00  0.00     0.004 A 
HETATM   17  C10 UNL     1     -20.300 -10.317  53.855  1.00  0.00     0.024 A 
HETATM   18  C11 UNL     1     -21.479  -9.889  54.427  1.00  0.00     0.036 A 
HETATM   19 CL1  UNL     1     -21.558  -9.793  56.191  1.00  0.00    -0.084 Cl
HETATM   20  C12 UNL     1     -22.564  -9.545  53.647  1.00  0.00     0.055 A 
ENDBRANCH   9  14
BRANCH   1  21
HETATM   21  S1  UNL     1     -27.472 -10.024  54.887  1.00  0.00    -0.080 SA
BRANCH  21  22
HETATM   22  C2  UNL     1     -26.821 -11.648  55.376  1.00  0.00     0.140 C 
HETATM   23  C1  UNL     1     -27.643 -12.277  56.460  1.00  0.00     0.031 C 
BRANCH  22  24
HETATM   24  C14 UNL     1     -25.426 -11.492  55.818  1.00  0.00     0.245 C 
HETATM   25  N5  UNL     1     -25.147 -10.823  57.051  1.00  0.00    -0.061 NA
HETATM   26  O2  UNL     1     -24.502 -11.949  55.105  1.00  0.00    -0.276 OA
ENDBRANCH  22  24
ENDBRANCH  21  22
ENDBRANCH   1  21
TORSDOF 4
ENDMDL
