MODEL 4
REMARK VINA RESULT: -7.568541757      2.796      6.289
REMARK  4 active torsions:
REMARK  status: ('A' for Active; 'I' for Inactive)
REMARK    1  A    between atoms: C2_2  and  S1_3 
REMARK    2  A    between atoms: C2_2  and  C14_24 
REMARK    3  A    between atoms: S1_3  and  C3_4 
REMARK    4  A    between atoms: N3_12  and  C7_13 
ROOT
HETATM    1  C3  UNL     1     -26.176 -10.431  53.224  1.00  0.00     0.149 A 
HETATM    2  N1  UNL     1     -24.918 -10.454  53.698  1.00  0.00    -0.320 N 
ATOM      3  H1  UNL     1     -24.124 -10.341  53.068  1.00  0.00     0.169 HD
HETATM    4  C4  UNL     1     -24.724 -10.631  55.023  1.00  0.00     0.146 A 
HETATM    5  C5  UNL     1     -25.769 -10.787  55.912  1.00  0.00     0.095 A 
HETATM    6  C6  UNL     1     -25.183 -10.937  57.140  1.00  0.00     0.128 A 
HETATM    7  N2  UNL     1     -23.864 -10.868  56.955  1.00  0.00    -0.302 N 
ATOM      8  H2  UNL     1     -23.182 -10.949  57.709  1.00  0.00     0.186 HD
HETATM    9  N3  UNL     1     -23.538 -10.682  55.689  1.00  0.00    -0.239 N 
HETATM   10  C13 UNL     1     -27.047 -10.758  55.394  1.00  0.00     0.262 A 
HETATM   11  O1  UNL     1     -28.013 -10.898  56.183  1.00  0.00    -0.267 OA
HETATM   12  N4  UNL     1     -27.225 -10.579  54.053  1.00  0.00    -0.303 N 
ATOM     13  H4  UNL     1     -28.170 -10.556  53.672  1.00  0.00     0.171 HD
ENDROOT
BRANCH   9  14
HETATM   14  C7  UNL     1     -22.245 -10.558  55.097  1.00  0.00     0.060 A 
HETATM   15  C8  UNL     1     -21.099 -10.518  55.870  1.00  0.00     0.032 A 
HETATM   16  C9  UNL     1     -19.847 -10.395  55.301  1.00  0.00     0.004 A 
HETATM   17  C10 UNL     1     -19.684 -10.306  53.935  1.00  0.00     0.024 A 
HETATM   18  C11 UNL     1     -20.822 -10.346  53.158  1.00  0.00     0.036 A 
HETATM   19 CL1  UNL     1     -20.633 -10.233  51.403  1.00  0.00    -0.084 Cl
HETATM   20  C12 UNL     1     -22.071 -10.469  53.732  1.00  0.00     0.055 A 
ENDBRANCH   9  14
BRANCH   1  21
HETATM   21  S1  UNL     1     -26.503 -10.196  51.463  1.00  0.00    -0.080 SA
BRANCH  21  22
HETATM   22  C2  UNL     1     -25.847  -8.579  50.959  1.00  0.00     0.140 C 
HETATM   23  C1  UNL     1     -26.546  -8.046  49.745  1.00  0.00     0.031 C 
BRANCH  22  24
HETATM   24  C14 UNL     1     -24.403  -8.705  50.704  1.00  0.00     0.245 C 
HETATM   25  N5  UNL     1     -23.951  -9.233  49.454  1.00  0.00    -0.061 NA
HETATM   26  O2  UNL     1     -23.591  -8.348  51.588  1.00  0.00    -0.276 OA
ENDBRANCH  22  24
ENDBRANCH  21  22
ENDBRANCH   1  21
TORSDOF 4
ENDMDL
