MODEL 1
REMARK VINA RESULT: -7.872344446      0.000      0.000
REMARK  4 active torsions:
REMARK  status: ('A' for Active; 'I' for Inactive)
REMARK    1  A    between atoms: C2_2  and  S1_3 
REMARK    2  A    between atoms: C2_2  and  C14_24 
REMARK    3  A    between atoms: S1_3  and  C3_4 
REMARK    4  A    between atoms: N3_12  and  C7_13 
ROOT
HETATM    1  C3  UNL     1     -22.454  -9.841  55.333  1.00  0.00     0.149 A 
HETATM    2  N1  UNL     1     -23.100  -9.683  54.165  1.00  0.00    -0.320 N 
ATOM      3  H1  UNL     1     -24.093  -9.449  54.148  1.00  0.00     0.169 HD
HETATM    4  C4  UNL     1     -22.410  -9.839  53.013  1.00  0.00     0.146 A 
HETATM    5  C5  UNL     1     -21.066 -10.154  52.989  1.00  0.00     0.095 A 
HETATM    6  C6  UNL     1     -20.733 -10.225  51.663  1.00  0.00     0.128 A 
HETATM    7  N2  UNL     1     -21.840  -9.961  50.966  1.00  0.00    -0.302 N 
ATOM      8  H2  UNL     1     -21.877  -9.947  49.948  1.00  0.00     0.186 HD
HETATM    9  N3  UNL     1     -22.882  -9.720  51.742  1.00  0.00    -0.239 N 
HETATM   10  C13 UNL     1     -20.434 -10.309  54.205  1.00  0.00     0.262 A 
HETATM   11  O1  UNL     1     -19.212 -10.596  54.208  1.00  0.00    -0.267 OA
HETATM   12  N4  UNL     1     -21.145 -10.148  55.358  1.00  0.00    -0.303 N 
ATOM     13  H4  UNL     1     -20.675 -10.262  56.256  1.00  0.00     0.171 HD
ENDROOT
BRANCH   9  14
HETATM   14  C7  UNL     1     -24.224  -9.402  51.378  1.00  0.00     0.060 A 
HETATM   15  C8  UNL     1     -24.503  -8.492  50.374  1.00  0.00     0.032 A 
HETATM   16  C9  UNL     1     -25.801  -8.179  50.021  1.00  0.00     0.004 A 
HETATM   17  C10 UNL     1     -26.878  -8.763  50.654  1.00  0.00     0.024 A 
HETATM   18  C11 UNL     1     -26.608  -9.671  51.655  1.00  0.00     0.036 A 
HETATM   19 CL1  UNL     1     -27.977 -10.429  52.479  1.00  0.00    -0.084 Cl
HETATM   20  C12 UNL     1     -25.309  -9.979  52.004  1.00  0.00     0.055 A 
ENDBRANCH   9  14
BRANCH   1  21
HETATM   21  S1  UNL     1     -23.318  -9.644  56.907  1.00  0.00    -0.080 SA
BRANCH  21  22
HETATM   22  C2  UNL     1     -25.098  -9.495  56.581  1.00  0.00     0.140 C 
HETATM   23  C1  UNL     1     -25.795  -8.692  57.637  1.00  0.00     0.031 C 
BRANCH  22  24
HETATM   24  C14 UNL     1     -25.685 -10.843  56.493  1.00  0.00     0.245 C 
HETATM   25  N5  UNL     1     -25.624 -11.559  55.258  1.00  0.00    -0.061 NA
HETATM   26  O2  UNL     1     -26.230 -11.341  57.506  1.00  0.00    -0.276 OA
ENDBRANCH  22  24
ENDBRANCH  21  22
ENDBRANCH   1  21
TORSDOF 4
ENDMDL
