MODEL 3
REMARK VINA RESULT: -7.626161443      0.996      1.003
REMARK  4 active torsions:
REMARK  status: ('A' for Active; 'I' for Inactive)
REMARK    1  A    between atoms: C2_2  and  S1_3 
REMARK    2  A    between atoms: C2_2  and  C14_24 
REMARK    3  A    between atoms: S1_3  and  C3_4 
REMARK    4  A    between atoms: N3_12  and  C7_13 
ROOT
HETATM    1  C3  UNL     1     -22.897 -10.329  55.824  1.00  0.00     0.149 A 
HETATM    2  N1  UNL     1     -23.338 -10.053  54.585  1.00  0.00    -0.320 N 
ATOM      3  H1  UNL     1     -24.322  -9.842  54.419  1.00  0.00     0.169 HD
HETATM    4  C4  UNL     1     -22.454 -10.059  53.563  1.00  0.00     0.146 A 
HETATM    5  C5  UNL     1     -21.113 -10.337  53.742  1.00  0.00     0.095 A 
HETATM    6  C6  UNL     1     -20.553 -10.247  52.496  1.00  0.00     0.128 A 
HETATM    7  N2  UNL     1     -21.533  -9.931  51.648  1.00  0.00    -0.302 N 
ATOM      8  H2  UNL     1     -21.395  -9.801  50.647  1.00  0.00     0.186 HD
HETATM    9  N3  UNL     1     -22.703  -9.806  52.249  1.00  0.00    -0.239 N 
HETATM   10  C13 UNL     1     -20.694 -10.616  55.027  1.00  0.00     0.262 A 
HETATM   11  O1  UNL     1     -19.480 -10.872  55.214  1.00  0.00    -0.267 OA
HETATM   12  N4  UNL     1     -21.600 -10.605  56.047  1.00  0.00    -0.303 N 
ATOM     13  H4  UNL     1     -21.288 -10.811  56.995  1.00  0.00     0.171 HD
ENDROOT
BRANCH   9  14
HETATM   14  C7  UNL     1     -23.976  -9.481  51.690  1.00  0.00     0.060 A 
HETATM   15  C8  UNL     1     -24.095  -8.589  50.640  1.00  0.00     0.032 A 
HETATM   16  C9  UNL     1     -25.325  -8.269  50.099  1.00  0.00     0.004 A 
HETATM   17  C10 UNL     1     -26.489  -8.827  50.582  1.00  0.00     0.024 A 
HETATM   18  C11 UNL     1     -26.378  -9.717  51.629  1.00  0.00     0.036 A 
HETATM   19 CL1  UNL     1     -27.861 -10.442  52.263  1.00  0.00    -0.084 Cl
HETATM   20  C12 UNL     1     -25.146 -10.032  52.166  1.00  0.00     0.055 A 
ENDBRANCH   9  14
BRANCH   1  21
HETATM   21  S1  UNL     1     -24.027 -10.335  57.234  1.00  0.00    -0.080 SA
BRANCH  21  22
HETATM   22  C2  UNL     1     -25.167  -8.930  57.072  1.00  0.00     0.140 C 
HETATM   23  C1  UNL     1     -25.463  -8.295  58.397  1.00  0.00     0.031 C 
BRANCH  22  24
HETATM   24  C14 UNL     1     -26.412  -9.392  56.438  1.00  0.00     0.245 C 
HETATM   25  N5  UNL     1     -26.382 -10.528  55.569  1.00  0.00    -0.061 NA
HETATM   26  O2  UNL     1     -27.482  -8.781  56.669  1.00  0.00    -0.276 OA
ENDBRANCH  22  24
ENDBRANCH  21  22
ENDBRANCH   1  21
TORSDOF 4
ENDMDL
