MODEL 2
REMARK VINA RESULT: -7.757391680      3.610      5.311
REMARK  4 active torsions:
REMARK  status: ('A' for Active; 'I' for Inactive)
REMARK    1  A    between atoms: C2_2  and  S1_3 
REMARK    2  A    between atoms: C2_2  and  C14_24 
REMARK    3  A    between atoms: S1_3  and  C3_4 
REMARK    4  A    between atoms: N3_12  and  C7_13 
ROOT
HETATM    1  C3  UNL     1     -27.008  -9.911  53.396  1.00  0.00     0.149 A 
HETATM    2  N1  UNL     1     -25.689  -9.850  53.146  1.00  0.00    -0.320 N 
ATOM      3  H1  UNL     1     -25.013 -10.151  53.848  1.00  0.00     0.169 HD
HETATM    4  C4  UNL     1     -25.274  -9.383  51.948  1.00  0.00     0.146 A 
HETATM    5  C5  UNL     1     -26.153  -8.966  50.968  1.00  0.00     0.095 A 
HETATM    6  C6  UNL     1     -25.368  -8.570  49.919  1.00  0.00     0.128 A 
HETATM    7  N2  UNL     1     -24.100  -8.754  50.288  1.00  0.00    -0.302 N 
ATOM      8  H2  UNL     1     -23.300  -8.540  49.693  1.00  0.00     0.186 HD
HETATM    9  N3  UNL     1     -23.993  -9.246  51.509  1.00  0.00    -0.239 N 
HETATM   10  C13 UNL     1     -27.500  -9.042  51.257  1.00  0.00     0.262 A 
HETATM   11  O1  UNL     1     -28.319  -8.668  50.382  1.00  0.00    -0.267 OA
HETATM   12  N4  UNL     1     -27.902  -9.516  52.472  1.00  0.00    -0.303 N 
ATOM     13  H4  UNL     1     -28.898  -9.572  52.682  1.00  0.00     0.171 HD
ENDROOT
BRANCH   9  14
HETATM   14  C7  UNL     1     -22.819  -9.577  52.251  1.00  0.00     0.060 A 
HETATM   15  C8  UNL     1     -21.658  -9.983  51.619  1.00  0.00     0.032 A 
HETATM   16  C9  UNL     1     -20.521 -10.307  52.332  1.00  0.00     0.004 A 
HETATM   17  C10 UNL     1     -20.493 -10.239  53.709  1.00  0.00     0.024 A 
HETATM   18  C11 UNL     1     -21.648  -9.835  54.346  1.00  0.00     0.036 A 
HETATM   19 CL1  UNL     1     -21.632  -9.742  56.112  1.00  0.00    -0.084 Cl
HETATM   20  C12 UNL     1     -22.780  -9.513  53.627  1.00  0.00     0.055 A 
ENDBRANCH   9  14
BRANCH   1  21
HETATM   21  S1  UNL     1     -27.628 -10.528  54.977  1.00  0.00    -0.080 SA
BRANCH  21  22
HETATM   22  C2  UNL     1     -28.805 -11.873  54.657  1.00  0.00     0.140 C 
HETATM   23  C1  UNL     1     -30.225 -11.395  54.701  1.00  0.00     0.031 C 
BRANCH  22  24
HETATM   24  C14 UNL     1     -28.594 -12.942  55.647  1.00  0.00     0.245 C 
HETATM   25  N5  UNL     1     -27.924 -12.644  56.874  1.00  0.00    -0.061 NA
HETATM   26  O2  UNL     1     -29.006 -14.098  55.397  1.00  0.00    -0.276 OA
ENDBRANCH  22  24
ENDBRANCH  21  22
ENDBRANCH   1  21
TORSDOF 4
ENDMDL
