MODEL 3
REMARK VINA RESULT: -9.335126038      1.303      8.188
REMARK  2 active torsions:
REMARK  status: ('A' for Active; 'I' for Inactive)
REMARK       I    between atoms: C1_2  and  N1_3 
REMARK       I    between atoms: C1_2  and  N2_12 
REMARK    1  A    between atoms: N1_3  and  C2_5 
REMARK    2  A    between atoms: N2_12  and  C8_14 
ROOT
HETATM    1  O1  UNL     1     -36.839  22.539  -0.443  1.00  0.00    -0.247 OA
HETATM    2  C1  UNL     1     -37.382  21.554   0.063  1.00  0.00     0.325 C 
HETATM    3  N1  UNL     1     -36.625  20.363   0.136  1.00  0.00    -0.309 N 
ATOM      4  H1  UNL     1     -37.101  19.565   0.559  1.00  0.00     0.170 HD
HETATM    5  N2  UNL     1     -38.708  21.667   0.531  1.00  0.00    -0.309 N 
ATOM      6  H2  UNL     1     -39.117  20.829   0.943  1.00  0.00     0.170 HD
ENDROOT
BRANCH   3   7
HETATM    7  C2  UNL     1     -35.322  20.128  -0.287  1.00  0.00     0.036 A 
HETATM    8  C3  UNL     1     -34.456  19.430   0.560  1.00  0.00     0.031 A 
HETATM    9  C4  UNL     1     -33.162  19.160   0.218  1.00  0.00     0.026 A 
HETATM   10  C5  UNL     1     -32.661  19.565  -0.979  1.00  0.00     0.034 A 
HETATM   11 CL1  UNL     1     -30.998  19.230  -1.446  1.00  0.00    -0.084 Cl
HETATM   12  C6  UNL     1     -33.471  20.252  -1.845  1.00  0.00     0.026 A 
HETATM   13  C7  UNL     1     -34.799  20.523  -1.477  1.00  0.00     0.031 A 
ENDBRANCH   3   7
BRANCH   5  14
HETATM   14  C8  UNL     1     -39.538  22.824   0.491  1.00  0.00     0.038 A 
HETATM   15  C9  UNL     1     -39.142  24.058   0.047  1.00  0.00     0.031 A 
HETATM   16  C10 UNL     1     -39.965  25.174   0.027  1.00  0.00     0.028 A 
HETATM   17  C11 UNL     1     -41.257  25.038   0.479  1.00  0.00     0.055 A 
HETATM   18 CL2  UNL     1     -42.332  26.407   0.475  1.00  0.00    -0.083 Cl
HETATM   19  C12 UNL     1     -41.678  23.805   0.931  1.00  0.00     0.058 A 
HETATM   20 CL3  UNL     1     -43.329  23.669   1.499  1.00  0.00    -0.082 Cl
HETATM   21  C13 UNL     1     -40.859  22.713   0.946  1.00  0.00     0.055 A 
ENDBRANCH   5  14
TORSDOF 2
ENDMDL
