MODEL 2
REMARK VINA RESULT: -9.377437576      0.098      1.080
REMARK  2 active torsions:
REMARK  status: ('A' for Active; 'I' for Inactive)
REMARK       I    between atoms: C1_2  and  N1_3 
REMARK       I    between atoms: C1_2  and  N2_12 
REMARK    1  A    between atoms: N1_3  and  C2_5 
REMARK    2  A    between atoms: N2_12  and  C8_14 
ROOT
HETATM    1  O1  UNL     1     -37.489  22.740   0.404  1.00  0.00    -0.247 OA
HETATM    2  C1  UNL     1     -38.175  21.902  -0.185  1.00  0.00     0.325 C 
HETATM    3  N1  UNL     1     -39.567  22.134  -0.252  1.00  0.00    -0.309 N 
ATOM      4  H1  UNL     1     -40.108  21.423  -0.745  1.00  0.00     0.170 HD
HETATM    5  N2  UNL     1     -37.544  20.773  -0.749  1.00  0.00    -0.309 N 
ATOM      6  H2  UNL     1     -38.149  20.107  -1.228  1.00  0.00     0.170 HD
ENDROOT
BRANCH   3   7
HETATM    7  C2  UNL     1     -40.301  23.198   0.259  1.00  0.00     0.036 A 
HETATM    8  C3  UNL     1     -39.929  24.500  -0.089  1.00  0.00     0.031 A 
HETATM    9  C4  UNL     1     -40.598  25.597   0.373  1.00  0.00     0.026 A 
HETATM   10  C5  UNL     1     -41.668  25.462   1.200  1.00  0.00     0.034 A 
HETATM   11 CL1  UNL     1     -42.550  26.858   1.809  1.00  0.00    -0.084 Cl
HETATM   12  C6  UNL     1     -42.072  24.205   1.569  1.00  0.00     0.026 A 
HETATM   13  C7  UNL     1     -41.373  23.088   1.087  1.00  0.00     0.031 A 
ENDBRANCH   3   7
BRANCH   5  14
HETATM   14  C8  UNL     1     -36.154  20.463  -0.722  1.00  0.00     0.038 A 
HETATM   15  C9  UNL     1     -35.233  20.909  -1.632  1.00  0.00     0.031 A 
HETATM   16  C10 UNL     1     -33.885  20.585  -1.593  1.00  0.00     0.028 A 
HETATM   17  C11 UNL     1     -33.442  19.768  -0.580  1.00  0.00     0.055 A 
HETATM   18 CL2  UNL     1     -31.760  19.330  -0.483  1.00  0.00    -0.083 Cl
HETATM   19  C12 UNL     1     -34.351  19.306   0.349  1.00  0.00     0.058 A 
HETATM   20 CL3  UNL     1     -33.751  18.266   1.624  1.00  0.00    -0.082 Cl
HETATM   21  C13 UNL     1     -35.676  19.631   0.299  1.00  0.00     0.055 A 
ENDBRANCH   5  14
TORSDOF 2
ENDMDL
