MODEL 9
REMARK VINA RESULT: -8.560668913      1.209      8.343
REMARK  2 active torsions:
REMARK  status: ('A' for Active; 'I' for Inactive)
REMARK       I    between atoms: C1_2  and  N1_3 
REMARK       I    between atoms: C1_2  and  N2_12 
REMARK    1  A    between atoms: N1_3  and  C2_5 
REMARK    2  A    between atoms: N2_12  and  C8_14 
ROOT
HETATM    1  O1  UNL     1     -37.936  21.347   0.394  1.00  0.00    -0.247 OA
HETATM    2  C1  UNL     1     -37.705  22.264  -0.397  1.00  0.00     0.325 C 
HETATM    3  N1  UNL     1     -36.451  22.257  -1.050  1.00  0.00    -0.309 N 
ATOM      4  H1  UNL     1     -36.289  23.028  -1.698  1.00  0.00     0.170 HD
HETATM    5  N2  UNL     1     -38.687  23.255  -0.604  1.00  0.00    -0.309 N 
ATOM      6  H2  UNL     1     -38.454  23.993  -1.268  1.00  0.00     0.170 HD
ENDROOT
BRANCH   3   7
HETATM    7  C2  UNL     1     -35.410  21.344  -0.931  1.00  0.00     0.036 A 
HETATM    8  C3  UNL     1     -34.387  21.364  -1.884  1.00  0.00     0.031 A 
HETATM    9  C4  UNL     1     -33.330  20.501  -1.838  1.00  0.00     0.026 A 
HETATM   10  C5  UNL     1     -33.232  19.575  -0.847  1.00  0.00     0.034 A 
HETATM   11 CL1  UNL     1     -31.881  18.451  -0.762  1.00  0.00    -0.084 Cl
HETATM   12  C6  UNL     1     -34.210  19.516   0.112  1.00  0.00     0.026 A 
HETATM   13  C7  UNL     1     -35.290  20.410   0.049  1.00  0.00     0.031 A 
ENDBRANCH   3   7
BRANCH   5  14
HETATM   14  C8  UNL     1     -39.967  23.338   0.014  1.00  0.00     0.038 A 
HETATM   15  C9  UNL     1     -40.737  22.263   0.371  1.00  0.00     0.031 A 
HETATM   16  C10 UNL     1     -41.987  22.367   0.962  1.00  0.00     0.028 A 
HETATM   17  C11 UNL     1     -42.488  23.624   1.207  1.00  0.00     0.055 A 
HETATM   18 CL2  UNL     1     -44.052  23.813   1.947  1.00  0.00    -0.083 Cl
HETATM   19  C12 UNL     1     -41.731  24.722   0.856  1.00  0.00     0.058 A 
HETATM   20 CL3  UNL     1     -42.401  26.308   1.183  1.00  0.00    -0.082 Cl
HETATM   21  C13 UNL     1     -40.502  24.607   0.274  1.00  0.00     0.055 A 
ENDBRANCH   5  14
TORSDOF 2
ENDMDL
