MODEL 7
REMARK VINA RESULT: -8.897269466      0.761      8.243
REMARK  2 active torsions:
REMARK  status: ('A' for Active; 'I' for Inactive)
REMARK       I    between atoms: C1_2  and  N1_3 
REMARK       I    between atoms: C1_2  and  N2_12 
REMARK    1  A    between atoms: N1_3  and  C2_5 
REMARK    2  A    between atoms: N2_12  and  C8_14 
ROOT
HETATM    1  O1  UNL     1     -37.855  22.685   0.682  1.00  0.00    -0.247 OA
HETATM    2  C1  UNL     1     -38.464  22.077  -0.201  1.00  0.00     0.325 C 
HETATM    3  N1  UNL     1     -37.770  21.047  -0.875  1.00  0.00    -0.309 N 
ATOM      4  H1  UNL     1     -38.299  20.562  -1.601  1.00  0.00     0.170 HD
HETATM    5  N2  UNL     1     -39.797  22.438  -0.488  1.00  0.00    -0.309 N 
ATOM      6  H2  UNL     1     -40.262  21.908  -1.224  1.00  0.00     0.170 HD
ENDROOT
BRANCH   3   7
HETATM    7  C2  UNL     1     -36.466  20.601  -0.686  1.00  0.00     0.036 A 
HETATM    8  C3  UNL     1     -35.472  21.043  -1.563  1.00  0.00     0.031 A 
HETATM    9  C4  UNL     1     -34.169  20.651  -1.445  1.00  0.00     0.026 A 
HETATM   10  C5  UNL     1     -33.786  19.805  -0.453  1.00  0.00     0.034 A 
HETATM   11 CL1  UNL     1     -32.114  19.284  -0.276  1.00  0.00    -0.084 Cl
HETATM   12  C6  UNL     1     -34.725  19.345   0.434  1.00  0.00     0.026 A 
HETATM   13  C7  UNL     1     -36.060  19.757   0.297  1.00  0.00     0.031 A 
ENDBRANCH   3   7
BRANCH   5  14
HETATM   14  C8  UNL     1     -40.564  23.461   0.138  1.00  0.00     0.038 A 
HETATM   15  C9  UNL     1     -41.716  23.254   0.849  1.00  0.00     0.031 A 
HETATM   16  C10 UNL     1     -42.454  24.268   1.442  1.00  0.00     0.028 A 
HETATM   17  C11 UNL     1     -42.004  25.561   1.311  1.00  0.00     0.055 A 
HETATM   18 CL2  UNL     1     -42.891  26.872   2.036  1.00  0.00    -0.083 Cl
HETATM   19  C12 UNL     1     -40.846  25.794   0.601  1.00  0.00     0.058 A 
HETATM   20 CL3  UNL     1     -40.303  27.454   0.455  1.00  0.00    -0.082 Cl
HETATM   21  C13 UNL     1     -40.128  24.788   0.020  1.00  0.00     0.055 A 
ENDBRANCH   5  14
TORSDOF 2
ENDMDL
