MODEL 1
REMARK VINA RESULT: -9.562590426      0.000      0.000
REMARK  2 active torsions:
REMARK  status: ('A' for Active; 'I' for Inactive)
REMARK       I    between atoms: C1_2  and  N1_3 
REMARK       I    between atoms: C1_2  and  N2_12 
REMARK    1  A    between atoms: N1_3  and  C2_5 
REMARK    2  A    between atoms: N2_12  and  C8_14 
ROOT
HETATM    1  O1  UNL     1     -37.418  22.821   0.261  1.00  0.00    -0.247 OA
HETATM    2  C1  UNL     1     -38.137  21.921  -0.178  1.00  0.00     0.325 C 
HETATM    3  N1  UNL     1     -39.531  22.150  -0.182  1.00  0.00    -0.309 N 
ATOM      4  H1  UNL     1     -40.101  21.387  -0.550  1.00  0.00     0.170 HD
HETATM    5  N2  UNL     1     -37.539  20.731  -0.643  1.00  0.00    -0.309 N 
ATOM      6  H2  UNL     1     -38.172  20.014  -0.999  1.00  0.00     0.170 HD
ENDROOT
BRANCH   3   7
HETATM    7  C2  UNL     1     -40.235  23.270   0.246  1.00  0.00     0.036 A 
HETATM    8  C3  UNL     1     -41.353  23.088   1.065  1.00  0.00     0.031 A 
HETATM    9  C4  UNL     1     -42.097  24.136   1.526  1.00  0.00     0.026 A 
HETATM   10  C5  UNL     1     -41.771  25.416   1.201  1.00  0.00     0.034 A 
HETATM   11 CL1  UNL     1     -42.711  26.785   1.781  1.00  0.00    -0.084 Cl
HETATM   12  C6  UNL     1     -40.682  25.645   0.400  1.00  0.00     0.026 A 
HETATM   13  C7  UNL     1     -39.929  24.556  -0.066  1.00  0.00     0.031 A 
ENDBRANCH   3   7
BRANCH   5  14
HETATM   14  C8  UNL     1     -36.150  20.420  -0.670  1.00  0.00     0.038 A 
HETATM   15  C9  UNL     1     -35.267  20.855  -1.623  1.00  0.00     0.031 A 
HETATM   16  C10 UNL     1     -33.919  20.531  -1.635  1.00  0.00     0.028 A 
HETATM   17  C11 UNL     1     -33.434  19.727  -0.631  1.00  0.00     0.055 A 
HETATM   18 CL2  UNL     1     -31.749  19.290  -0.599  1.00  0.00    -0.083 Cl
HETATM   19  C12 UNL     1     -34.303  19.277   0.340  1.00  0.00     0.058 A 
HETATM   20 CL3  UNL     1     -33.651  18.253   1.603  1.00  0.00    -0.082 Cl
HETATM   21  C13 UNL     1     -35.629  19.601   0.341  1.00  0.00     0.055 A 
ENDBRANCH   5  14
TORSDOF 2
ENDMDL
