MODEL 8
REMARK VINA RESULT: -8.642273670      0.993      1.730
REMARK  2 active torsions:
REMARK  status: ('A' for Active; 'I' for Inactive)
REMARK       I    between atoms: C1_2  and  N1_3 
REMARK       I    between atoms: C1_2  and  N2_12 
REMARK    1  A    between atoms: N1_3  and  C2_5 
REMARK    2  A    between atoms: N2_12  and  C8_14 
ROOT
HETATM    1  O1  UNL     1     -38.045  22.966   0.666  1.00  0.00    -0.247 OA
HETATM    2  C1  UNL     1     -38.721  22.276  -0.100  1.00  0.00     0.325 C 
HETATM    3  N1  UNL     1     -40.058  22.675  -0.322  1.00  0.00    -0.309 N 
ATOM      4  H1  UNL     1     -40.593  22.085  -0.959  1.00  0.00     0.170 HD
HETATM    5  N2  UNL     1     -38.134  21.144  -0.702  1.00  0.00    -0.309 N 
ATOM      6  H2  UNL     1     -38.730  20.603  -1.330  1.00  0.00     0.170 HD
ENDROOT
BRANCH   3   7
HETATM    7  C2  UNL     1     -40.746  23.761   0.209  1.00  0.00     0.036 A 
HETATM    8  C3  UNL     1     -41.868  23.521   1.007  1.00  0.00     0.031 A 
HETATM    9  C4  UNL     1     -42.597  24.532   1.564  1.00  0.00     0.026 A 
HETATM   10  C5  UNL     1     -42.252  25.831   1.359  1.00  0.00     0.034 A 
HETATM   11 CL1  UNL     1     -43.172  27.155   2.065  1.00  0.00    -0.084 Cl
HETATM   12  C6  UNL     1     -41.158  26.118   0.584  1.00  0.00     0.026 A 
HETATM   13  C7  UNL     1     -40.421  25.066   0.018  1.00  0.00     0.031 A 
ENDBRANCH   3   7
BRANCH   5  14
HETATM   14  C8  UNL     1     -36.802  20.672  -0.530  1.00  0.00     0.038 A 
HETATM   15  C9  UNL     1     -36.400  19.794   0.441  1.00  0.00     0.031 A 
HETATM   16  C10 UNL     1     -35.093  19.356   0.597  1.00  0.00     0.028 A 
HETATM   17  C11 UNL     1     -34.141  19.828  -0.274  1.00  0.00     0.055 A 
HETATM   18 CL2  UNL     1     -32.486  19.311  -0.124  1.00  0.00    -0.083 Cl
HETATM   19  C12 UNL     1     -34.521  20.713  -1.261  1.00  0.00     0.058 A 
HETATM   20 CL3  UNL     1     -33.281  21.294  -2.353  1.00  0.00    -0.082 Cl
HETATM   21  C13 UNL     1     -35.810  21.138  -1.404  1.00  0.00     0.055 A 
ENDBRANCH   5  14
TORSDOF 2
ENDMDL
