MODEL 5
REMARK VINA RESULT: -9.066722364      0.761      8.213
REMARK  2 active torsions:
REMARK  status: ('A' for Active; 'I' for Inactive)
REMARK       I    between atoms: C1_2  and  N1_3 
REMARK       I    between atoms: C1_2  and  N2_12 
REMARK    1  A    between atoms: N1_3  and  C2_5 
REMARK    2  A    between atoms: N2_12  and  C8_14 
ROOT
HETATM    1  O1  UNL     1     -37.524  22.683   0.439  1.00  0.00    -0.247 OA
HETATM    2  C1  UNL     1     -38.204  21.875  -0.198  1.00  0.00     0.325 C 
HETATM    3  N1  UNL     1     -37.546  20.730  -0.701  1.00  0.00    -0.309 N 
ATOM      4  H1  UNL     1     -38.133  20.080  -1.224  1.00  0.00     0.170 HD
HETATM    5  N2  UNL     1     -39.578  22.132  -0.387  1.00  0.00    -0.309 N 
ATOM      6  H2  UNL     1     -40.101  21.436  -0.918  1.00  0.00     0.170 HD
ENDROOT
BRANCH   3   7
HETATM    7  C2  UNL     1     -36.209  20.368  -0.583  1.00  0.00     0.036 A 
HETATM    8  C3  UNL     1     -35.319  20.742  -1.594  1.00  0.00     0.031 A 
HETATM    9  C4  UNL     1     -33.992  20.424  -1.552  1.00  0.00     0.026 A 
HETATM   10  C5  UNL     1     -33.479  19.721  -0.508  1.00  0.00     0.034 A 
HETATM   11 CL1  UNL     1     -31.773  19.297  -0.427  1.00  0.00    -0.084 Cl
HETATM   12  C6  UNL     1     -34.312  19.331   0.509  1.00  0.00     0.026 A 
HETATM   13  C7  UNL     1     -35.674  19.666   0.450  1.00  0.00     0.031 A 
ENDBRANCH   3   7
BRANCH   5  14
HETATM   14  C8  UNL     1     -40.314  23.258   0.081  1.00  0.00     0.038 A 
HETATM   15  C9  UNL     1     -39.873  24.555   0.041  1.00  0.00     0.031 A 
HETATM   16  C10 UNL     1     -40.604  25.635   0.513  1.00  0.00     0.028 A 
HETATM   17  C11 UNL     1     -41.845  25.395   1.053  1.00  0.00     0.055 A 
HETATM   18 CL2  UNL     1     -42.804  26.715   1.660  1.00  0.00    -0.083 Cl
HETATM   19  C12 UNL     1     -42.310  24.098   1.104  1.00  0.00     0.058 A 
HETATM   20 CL3  UNL     1     -43.895  23.830   1.799  1.00  0.00    -0.082 Cl
HETATM   21  C13 UNL     1     -41.582  23.042   0.637  1.00  0.00     0.055 A 
ENDBRANCH   5  14
TORSDOF 2
ENDMDL
