MODEL 4
REMARK VINA RESULT: -9.107988971      0.791      8.155
REMARK  2 active torsions:
REMARK  status: ('A' for Active; 'I' for Inactive)
REMARK       I    between atoms: C1_2  and  N1_3 
REMARK       I    between atoms: C1_2  and  N2_12 
REMARK    1  A    between atoms: N1_3  and  C2_5 
REMARK    2  A    between atoms: N2_12  and  C8_14 
ROOT
HETATM    1  O1  UNL     1     -37.542  22.748   0.276  1.00  0.00    -0.247 OA
HETATM    2  C1  UNL     1     -38.228  21.889  -0.281  1.00  0.00     0.325 C 
HETATM    3  N1  UNL     1     -37.558  20.750  -0.783  1.00  0.00    -0.309 N 
ATOM      4  H1  UNL     1     -38.152  20.056  -1.239  1.00  0.00     0.170 HD
HETATM    5  N2  UNL     1     -39.621  22.085  -0.388  1.00  0.00    -0.309 N 
ATOM      6  H2  UNL     1     -40.149  21.349  -0.854  1.00  0.00     0.170 HD
ENDROOT
BRANCH   3   7
HETATM    7  C2  UNL     1     -36.203  20.443  -0.741  1.00  0.00     0.036 A 
HETATM    8  C3  UNL     1     -35.723  19.667   0.318  1.00  0.00     0.031 A 
HETATM    9  C4  UNL     1     -34.406  19.324   0.432  1.00  0.00     0.026 A 
HETATM   10  C5  UNL     1     -33.500  19.731  -0.496  1.00  0.00     0.034 A 
HETATM   11 CL1  UNL     1     -31.797  19.303  -0.375  1.00  0.00    -0.084 Cl
HETATM   12  C6  UNL     1     -33.922  20.494  -1.553  1.00  0.00     0.026 A 
HETATM   13  C7  UNL     1     -35.279  20.839  -1.655  1.00  0.00     0.031 A 
ENDBRANCH   3   7
BRANCH   5  14
HETATM   14  C8  UNL     1     -40.370  23.201   0.085  1.00  0.00     0.038 A 
HETATM   15  C9  UNL     1     -39.947  24.503   0.045  1.00  0.00     0.031 A 
HETATM   16  C10 UNL     1     -40.689  25.574   0.521  1.00  0.00     0.028 A 
HETATM   17  C11 UNL     1     -41.925  25.316   1.067  1.00  0.00     0.055 A 
HETATM   18 CL2  UNL     1     -42.898  26.623   1.679  1.00  0.00    -0.083 Cl
HETATM   19  C12 UNL     1     -42.372  24.013   1.118  1.00  0.00     0.058 A 
HETATM   20 CL3  UNL     1     -43.951  23.723   1.820  1.00  0.00    -0.082 Cl
HETATM   21  C13 UNL     1     -41.632  22.967   0.647  1.00  0.00     0.055 A 
ENDBRANCH   5  14
TORSDOF 2
ENDMDL
