MODEL 2
REMARK VINA RESULT: -9.457504188      0.857      1.608
REMARK  2 active torsions:
REMARK  status: ('A' for Active; 'I' for Inactive)
REMARK       I    between atoms: C1_2  and  N1_3 
REMARK       I    between atoms: C1_2  and  N2_12 
REMARK    1  A    between atoms: N1_3  and  C2_5 
REMARK    2  A    between atoms: N2_12  and  C8_14 
ROOT
HETATM    1  O1  UNL     1      -6.811  24.805   5.444  1.00  0.00    -0.247 OA
HETATM    2  C1  UNL     1      -7.654  23.907   5.475  1.00  0.00     0.325 C 
HETATM    3  N1  UNL     1      -8.459  23.733   4.326  1.00  0.00    -0.309 N 
ATOM      4  H1  UNL     1      -9.148  22.982   4.381  1.00  0.00     0.170 HD
HETATM    5  N2  UNL     1      -7.770  23.114   6.636  1.00  0.00    -0.309 N 
ATOM      6  H2  UNL     1      -8.480  22.382   6.617  1.00  0.00     0.170 HD
ENDROOT
BRANCH   3   7
HETATM    7  C2  UNL     1      -8.441  24.444   3.131  1.00  0.00     0.036 A 
HETATM    8  C3  UNL     1      -8.831  23.793   1.958  1.00  0.00     0.031 A 
HETATM    9  C4  UNL     1      -8.841  24.420   0.745  1.00  0.00     0.026 A 
HETATM   10  C5  UNL     1      -8.465  25.722   0.633  1.00  0.00     0.034 A 
HETATM   11 CL1  UNL     1      -8.468  26.556  -0.916  1.00  0.00    -0.084 Cl
HETATM   12  C6  UNL     1      -8.075  26.404   1.757  1.00  0.00     0.026 A 
HETATM   13  C7  UNL     1      -8.070  25.743   2.995  1.00  0.00     0.031 A 
ENDBRANCH   3   7
BRANCH   5  14
HETATM   14  C8  UNL     1      -7.006  23.225   7.833  1.00  0.00     0.038 A 
HETATM   15  C9  UNL     1      -7.526  23.466   9.077  1.00  0.00     0.031 A 
HETATM   16  C10 UNL     1      -6.761  23.581  10.228  1.00  0.00     0.028 A 
HETATM   17  C11 UNL     1      -5.397  23.445  10.118  1.00  0.00     0.055 A 
HETATM   18 CL2  UNL     1      -4.389  23.580  11.531  1.00  0.00    -0.083 Cl
HETATM   19  C12 UNL     1      -4.850  23.201   8.876  1.00  0.00     0.058 A 
HETATM   20 CL3  UNL     1      -3.109  23.033   8.774  1.00  0.00    -0.082 Cl
HETATM   21  C13 UNL     1      -5.613  23.090   7.750  1.00  0.00     0.055 A 
ENDBRANCH   5  14
TORSDOF 2
ENDMDL
