MODEL 5
REMARK VINA RESULT: -9.129903178      1.005      1.083
REMARK  2 active torsions:
REMARK  status: ('A' for Active; 'I' for Inactive)
REMARK       I    between atoms: C1_2  and  N1_3 
REMARK       I    between atoms: C1_2  and  N2_12 
REMARK    1  A    between atoms: N1_3  and  C2_5 
REMARK    2  A    between atoms: N2_12  and  C8_14 
ROOT
HETATM    1  O1  UNL     1      -7.201  24.767   6.248  1.00  0.00    -0.247 OA
HETATM    2  C1  UNL     1      -7.540  23.609   5.996  1.00  0.00     0.325 C 
HETATM    3  N1  UNL     1      -7.944  23.326   4.672  1.00  0.00    -0.309 N 
ATOM      4  H1  UNL     1      -8.219  22.360   4.493  1.00  0.00     0.170 HD
HETATM    5  N2  UNL     1      -7.509  22.646   7.026  1.00  0.00    -0.309 N 
ATOM      6  H2  UNL     1      -7.796  21.700   6.772  1.00  0.00     0.170 HD
ENDROOT
BRANCH   3   7
HETATM    7  C2  UNL     1      -8.017  24.181   3.578  1.00  0.00     0.036 A 
HETATM    8  C3  UNL     1      -8.685  23.748   2.430  1.00  0.00     0.031 A 
HETATM    9  C4  UNL     1      -8.800  24.528   1.315  1.00  0.00     0.026 A 
HETATM   10  C5  UNL     1      -8.260  25.775   1.281  1.00  0.00     0.034 A 
HETATM   11 CL1  UNL     1      -8.394  26.802  -0.141  1.00  0.00    -0.084 Cl
HETATM   12  C6  UNL     1      -7.595  26.246   2.383  1.00  0.00     0.026 A 
HETATM   13  C7  UNL     1      -7.485  25.430   3.521  1.00  0.00     0.031 A 
ENDBRANCH   3   7
BRANCH   5  14
HETATM   14  C8  UNL     1      -7.121  22.848   8.381  1.00  0.00     0.038 A 
HETATM   15  C9  UNL     1      -5.994  23.515   8.783  1.00  0.00     0.031 A 
HETATM   16  C10 UNL     1      -5.630  23.692  10.110  1.00  0.00     0.028 A 
HETATM   17  C11 UNL     1      -6.447  23.168  11.083  1.00  0.00     0.055 A 
HETATM   18 CL2  UNL     1      -6.038  23.361  12.764  1.00  0.00    -0.083 Cl
HETATM   19  C12 UNL     1      -7.588  22.492  10.703  1.00  0.00     0.058 A 
HETATM   20 CL3  UNL     1      -8.604  21.838  11.971  1.00  0.00    -0.082 Cl
HETATM   21  C13 UNL     1      -7.936  22.324   9.394  1.00  0.00     0.055 A 
ENDBRANCH   5  14
TORSDOF 2
ENDMDL
