MODEL 6
REMARK VINA RESULT: -9.111131102      0.207      1.095
REMARK  2 active torsions:
REMARK  status: ('A' for Active; 'I' for Inactive)
REMARK       I    between atoms: C1_2  and  N1_3 
REMARK       I    between atoms: C1_2  and  N2_12 
REMARK    1  A    between atoms: N1_3  and  C2_5 
REMARK    2  A    between atoms: N2_12  and  C8_14 
ROOT
HETATM    1  O1  UNL     1      -6.678  24.552   5.096  1.00  0.00    -0.247 OA
HETATM    2  C1  UNL     1      -7.692  23.880   5.294  1.00  0.00     0.325 C 
HETATM    3  N1  UNL     1      -8.641  23.816   4.248  1.00  0.00    -0.309 N 
ATOM      4  H1  UNL     1      -9.470  23.253   4.440  1.00  0.00     0.170 HD
HETATM    5  N2  UNL     1      -7.850  23.222   6.532  1.00  0.00    -0.309 N 
ATOM      6  H2  UNL     1      -8.703  22.676   6.651  1.00  0.00     0.170 HD
ENDROOT
BRANCH   3   7
HETATM    7  C2  UNL     1      -8.601  24.414   2.994  1.00  0.00     0.036 A 
HETATM    8  C3  UNL     1      -8.250  25.764   2.904  1.00  0.00     0.031 A 
HETATM    9  C4  UNL     1      -8.188  26.424   1.710  1.00  0.00     0.026 A 
HETATM   10  C5  UNL     1      -8.470  25.781   0.546  1.00  0.00     0.034 A 
HETATM   11 CL1  UNL     1      -8.397  26.606  -1.007  1.00  0.00    -0.084 Cl
HETATM   12  C6  UNL     1      -8.818  24.456   0.582  1.00  0.00     0.026 A 
HETATM   13  C7  UNL     1      -8.878  23.793   1.818  1.00  0.00     0.031 A 
ENDBRANCH   3   7
BRANCH   5  14
HETATM   14  C8  UNL     1      -6.948  23.238   7.634  1.00  0.00     0.038 A 
HETATM   15  C9  UNL     1      -5.606  23.502   7.546  1.00  0.00     0.031 A 
HETATM   16  C10 UNL     1      -4.744  23.502   8.632  1.00  0.00     0.028 A 
HETATM   17  C11 UNL     1      -5.263  23.221   9.874  1.00  0.00     0.055 A 
HETATM   18 CL2  UNL     1      -4.225  23.208  11.272  1.00  0.00    -0.083 Cl
HETATM   19  C12 UNL     1      -6.611  22.954   9.988  1.00  0.00     0.058 A 
HETATM   20 CL3  UNL     1      -7.237  22.601  11.586  1.00  0.00    -0.082 Cl
HETATM   21  C13 UNL     1      -7.450  22.956   8.911  1.00  0.00     0.055 A 
ENDBRANCH   5  14
TORSDOF 2
ENDMDL
