MODEL 7
REMARK VINA RESULT: -8.980961931      1.093      2.138
REMARK  2 active torsions:
REMARK  status: ('A' for Active; 'I' for Inactive)
REMARK       I    between atoms: C1_2  and  N1_3 
REMARK       I    between atoms: C1_2  and  N2_12 
REMARK    1  A    between atoms: N1_3  and  C2_5 
REMARK    2  A    between atoms: N2_12  and  C8_14 
ROOT
HETATM    1  O1  UNL     1      -8.322  23.887   5.582  1.00  0.00    -0.247 OA
HETATM    2  C1  UNL     1      -7.181  24.352   5.592  1.00  0.00     0.325 C 
HETATM    3  N1  UNL     1      -6.737  25.005   4.420  1.00  0.00    -0.309 N 
ATOM      4  H1  UNL     1      -5.788  25.379   4.457  1.00  0.00     0.170 HD
HETATM    5  N2  UNL     1      -6.391  24.209   6.752  1.00  0.00    -0.309 N 
ATOM      6  H2  UNL     1      -5.454  24.611   6.717  1.00  0.00     0.170 HD
ENDROOT
BRANCH   3   7
HETATM    7  C2  UNL     1      -7.414  25.208   3.223  1.00  0.00     0.036 A 
HETATM    8  C3  UNL     1      -7.339  26.464   2.613  1.00  0.00     0.031 A 
HETATM    9  C4  UNL     1      -7.976  26.744   1.438  1.00  0.00     0.026 A 
HETATM   10  C5  UNL     1      -8.717  25.795   0.808  1.00  0.00     0.034 A 
HETATM   11 CL1  UNL     1      -9.548  26.127  -0.708  1.00  0.00    -0.084 Cl
HETATM   12  C6  UNL     1      -8.821  24.547   1.366  1.00  0.00     0.026 A 
HETATM   13  C7  UNL     1      -8.161  24.277   2.575  1.00  0.00     0.031 A 
ENDBRANCH   3   7
BRANCH   5  14
HETATM   14  C8  UNL     1      -6.759  23.565   7.968  1.00  0.00     0.038 A 
HETATM   15  C9  UNL     1      -8.041  23.238   8.326  1.00  0.00     0.031 A 
HETATM   16  C10 UNL     1      -8.377  22.620   9.521  1.00  0.00     0.028 A 
HETATM   17  C11 UNL     1      -7.367  22.315  10.402  1.00  0.00     0.055 A 
HETATM   18 CL2  UNL     1      -7.734  21.538  11.916  1.00  0.00    -0.083 Cl
HETATM   19  C12 UNL     1      -6.069  22.634  10.064  1.00  0.00     0.058 A 
HETATM   20 CL3  UNL     1      -4.809  22.230  11.211  1.00  0.00    -0.082 Cl
HETATM   21  C13 UNL     1      -5.750  23.243   8.885  1.00  0.00     0.055 A 
ENDBRANCH   5  14
TORSDOF 2
ENDMDL
