MODEL 3
REMARK VINA RESULT: -9.244000985      1.315      8.282
REMARK  2 active torsions:
REMARK  status: ('A' for Active; 'I' for Inactive)
REMARK       I    between atoms: C1_2  and  N1_3 
REMARK       I    between atoms: C1_2  and  N2_12 
REMARK    1  A    between atoms: N1_3  and  C2_5 
REMARK    2  A    between atoms: N2_12  and  C8_14 
ROOT
HETATM    1  O1  UNL     1      -7.304  24.632   6.551  1.00  0.00    -0.247 OA
HETATM    2  C1  UNL     1      -7.549  23.463   6.246  1.00  0.00     0.325 C 
HETATM    3  N1  UNL     1      -7.476  22.496   7.274  1.00  0.00    -0.309 N 
ATOM      4  H1  UNL     1      -7.683  21.537   6.991  1.00  0.00     0.170 HD
HETATM    5  N2  UNL     1      -7.881  23.158   4.909  1.00  0.00    -0.309 N 
ATOM      6  H2  UNL     1      -8.077  22.179   4.702  1.00  0.00     0.170 HD
ENDROOT
BRANCH   3   7
HETATM    7  C2  UNL     1      -7.162  22.670   8.617  1.00  0.00     0.036 A 
HETATM    8  C3  UNL     1      -8.163  22.472   9.572  1.00  0.00     0.031 A 
HETATM    9  C4  UNL     1      -7.935  22.624  10.909  1.00  0.00     0.026 A 
HETATM   10  C5  UNL     1      -6.705  22.978  11.369  1.00  0.00     0.034 A 
HETATM   11 CL1  UNL     1      -6.383  23.180  13.087  1.00  0.00    -0.084 Cl
HETATM   12  C6  UNL     1      -5.690  23.182  10.471  1.00  0.00     0.026 A 
HETATM   13  C7  UNL     1      -5.942  23.023   9.099  1.00  0.00     0.031 A 
ENDBRANCH   3   7
BRANCH   5  14
HETATM   14  C8  UNL     1      -7.972  24.067   3.817  1.00  0.00     0.038 A 
HETATM   15  C9  UNL     1      -7.540  25.367   3.842  1.00  0.00     0.031 A 
HETATM   16  C10 UNL     1      -7.649  26.239   2.768  1.00  0.00     0.028 A 
HETATM   17  C11 UNL     1      -8.223  25.775   1.609  1.00  0.00     0.055 A 
HETATM   18 CL2  UNL     1      -8.383  26.827   0.231  1.00  0.00    -0.083 Cl
HETATM   19  C12 UNL     1      -8.664  24.470   1.560  1.00  0.00     0.058 A 
HETATM   20 CL3  UNL     1      -9.390  23.913   0.066  1.00  0.00    -0.082 Cl
HETATM   21  C13 UNL     1      -8.553  23.620   2.623  1.00  0.00     0.055 A 
ENDBRANCH   5  14
TORSDOF 2
ENDMDL
