MODEL 4
REMARK VINA RESULT: -9.228378821      0.870      8.278
REMARK  2 active torsions:
REMARK  status: ('A' for Active; 'I' for Inactive)
REMARK       I    between atoms: C1_2  and  N1_3 
REMARK       I    between atoms: C1_2  and  N2_12 
REMARK    1  A    between atoms: N1_3  and  C2_5 
REMARK    2  A    between atoms: N2_12  and  C8_14 
ROOT
HETATM    1  O1  UNL     1      -6.668  24.758   5.534  1.00  0.00    -0.247 OA
HETATM    2  C1  UNL     1      -7.554  23.904   5.605  1.00  0.00     0.325 C 
HETATM    3  N1  UNL     1      -7.638  23.155   6.801  1.00  0.00    -0.309 N 
ATOM      4  H1  UNL     1      -8.380  22.455   6.830  1.00  0.00     0.170 HD
HETATM    5  N2  UNL     1      -8.420  23.721   4.507  1.00  0.00    -0.309 N 
ATOM      6  H2  UNL     1      -9.139  23.005   4.610  1.00  0.00     0.170 HD
ENDROOT
BRANCH   3   7
HETATM    7  C2  UNL     1      -6.850  23.241   7.943  1.00  0.00     0.036 A 
HETATM    8  C3  UNL     1      -7.479  23.358   9.186  1.00  0.00     0.031 A 
HETATM    9  C4  UNL     1      -6.776  23.448  10.353  1.00  0.00     0.026 A 
HETATM   10  C5  UNL     1      -5.417  23.426  10.349  1.00  0.00     0.034 A 
HETATM   11 CL1  UNL     1      -4.485  23.539  11.838  1.00  0.00    -0.084 Cl
HETATM   12  C6  UNL     1      -4.754  23.312   9.154  1.00  0.00     0.026 A 
HETATM   13  C7  UNL     1      -5.492  23.221   7.964  1.00  0.00     0.031 A 
ENDBRANCH   3   7
BRANCH   5  14
HETATM   14  C8  UNL     1      -8.401  24.427   3.271  1.00  0.00     0.038 A 
HETATM   15  C9  UNL     1      -7.937  25.705   3.104  1.00  0.00     0.031 A 
HETATM   16  C10 UNL     1      -7.938  26.378   1.891  1.00  0.00     0.028 A 
HETATM   17  C11 UNL     1      -8.432  25.725   0.786  1.00  0.00     0.055 A 
HETATM   18 CL2  UNL     1      -8.455  26.522  -0.761  1.00  0.00    -0.083 Cl
HETATM   19  C12 UNL     1      -8.904  24.437   0.929  1.00  0.00     0.058 A 
HETATM   20 CL3  UNL     1      -9.525  23.638  -0.500  1.00  0.00    -0.082 Cl
HETATM   21  C13 UNL     1      -8.899  23.786   2.128  1.00  0.00     0.055 A 
ENDBRANCH   5  14
TORSDOF 2
ENDMDL
