MODEL 1
REMARK VINA RESULT: -9.599891425      0.000      0.000
REMARK  2 active torsions:
REMARK  status: ('A' for Active; 'I' for Inactive)
REMARK       I    between atoms: C1_2  and  N1_3 
REMARK       I    between atoms: C1_2  and  N2_12 
REMARK    1  A    between atoms: N1_3  and  C2_5 
REMARK    2  A    between atoms: N2_12  and  C8_14 
ROOT
HETATM    1  O1  UNL     1      -6.738  24.671   5.235  1.00  0.00    -0.247 OA
HETATM    2  C1  UNL     1      -7.687  23.889   5.316  1.00  0.00     0.325 C 
HETATM    3  N1  UNL     1      -8.563  23.816   4.210  1.00  0.00    -0.309 N 
ATOM      4  H1  UNL     1      -9.339  23.160   4.306  1.00  0.00     0.170 HD
HETATM    5  N2  UNL     1      -7.845  23.121   6.489  1.00  0.00    -0.309 N 
ATOM      6  H2  UNL     1      -8.642  22.486   6.512  1.00  0.00     0.170 HD
ENDROOT
BRANCH   3   7
HETATM    7  C2  UNL     1      -8.514  24.514   3.009  1.00  0.00     0.036 A 
HETATM    8  C3  UNL     1      -8.864  23.848   1.830  1.00  0.00     0.031 A 
HETATM    9  C4  UNL     1      -8.840  24.463   0.611  1.00  0.00     0.026 A 
HETATM   10  C5  UNL     1      -8.472  25.767   0.498  1.00  0.00     0.034 A 
HETATM   11 CL1  UNL     1      -8.434  26.585  -1.060  1.00  0.00    -0.084 Cl
HETATM   12  C6  UNL     1      -8.120  26.463   1.625  1.00  0.00     0.026 A 
HETATM   13  C7  UNL     1      -8.149  25.815   2.870  1.00  0.00     0.031 A 
ENDBRANCH   3   7
BRANCH   5  14
HETATM   14  C8  UNL     1      -7.014  23.137   7.645  1.00  0.00     0.038 A 
HETATM   15  C9  UNL     1      -5.703  23.534   7.663  1.00  0.00     0.031 A 
HETATM   16  C10 UNL     1      -4.908  23.532   8.800  1.00  0.00     0.028 A 
HETATM   17  C11 UNL     1      -5.466  23.107   9.982  1.00  0.00     0.055 A 
HETATM   18 CL2  UNL     1      -4.513  23.083  11.439  1.00  0.00    -0.083 Cl
HETATM   19  C12 UNL     1      -6.784  22.703   9.990  1.00  0.00     0.058 A 
HETATM   20 CL3  UNL     1      -7.461  22.167  11.514  1.00  0.00    -0.082 Cl
HETATM   21  C13 UNL     1      -7.557  22.709   8.864  1.00  0.00     0.055 A 
ENDBRANCH   5  14
TORSDOF 2
ENDMDL
