MODEL 8
REMARK VINA RESULT: -8.969421854      0.905      8.176
REMARK  2 active torsions:
REMARK  status: ('A' for Active; 'I' for Inactive)
REMARK       I    between atoms: C1_2  and  N1_3 
REMARK       I    between atoms: C1_2  and  N2_12 
REMARK    1  A    between atoms: N1_3  and  C2_5 
REMARK    2  A    between atoms: N2_12  and  C8_14 
ROOT
HETATM    1  O1  UNL     1      -6.965  24.670   5.493  1.00  0.00    -0.247 OA
HETATM    2  C1  UNL     1      -7.626  23.630   5.461  1.00  0.00     0.325 C 
HETATM    3  N1  UNL     1      -7.626  22.826   6.623  1.00  0.00    -0.309 N 
ATOM      4  H1  UNL     1      -8.181  21.972   6.566  1.00  0.00     0.170 HD
HETATM    5  N2  UNL     1      -8.333  23.303   4.285  1.00  0.00    -0.309 N 
ATOM      6  H2  UNL     1      -8.868  22.435   4.303  1.00  0.00     0.170 HD
ENDROOT
BRANCH   3   7
HETATM    7  C2  UNL     1      -6.975  23.038   7.833  1.00  0.00     0.036 A 
HETATM    8  C3  UNL     1      -7.691  22.865   9.020  1.00  0.00     0.031 A 
HETATM    9  C4  UNL     1      -7.124  23.055  10.248  1.00  0.00     0.026 A 
HETATM   10  C5  UNL     1      -5.821  23.424  10.362  1.00  0.00     0.034 A 
HETATM   11 CL1  UNL     1      -5.064  23.675  11.931  1.00  0.00    -0.084 Cl
HETATM   12  C6  UNL     1      -5.076  23.606   9.225  1.00  0.00     0.026 A 
HETATM   13  C7  UNL     1      -5.675  23.408   7.971  1.00  0.00     0.031 A 
ENDBRANCH   3   7
BRANCH   5  14
HETATM   14  C8  UNL     1      -8.382  24.053   3.075  1.00  0.00     0.038 A 
HETATM   15  C9  UNL     1      -8.940  23.614   1.903  1.00  0.00     0.031 A 
HETATM   16  C10 UNL     1      -8.967  24.358   0.733  1.00  0.00     0.028 A 
HETATM   17  C11 UNL     1      -8.402  25.611   0.745  1.00  0.00     0.055 A 
HETATM   18 CL2  UNL     1      -8.409  26.587  -0.696  1.00  0.00    -0.083 Cl
HETATM   19  C12 UNL     1      -7.835  26.075   1.913  1.00  0.00     0.058 A 
HETATM   20 CL3  UNL     1      -7.124  27.675   1.892  1.00  0.00    -0.082 Cl
HETATM   21  C13 UNL     1      -7.813  25.333   3.060  1.00  0.00     0.055 A 
ENDBRANCH   5  14
TORSDOF 2
ENDMDL
