MODEL 3
REMARK VINA RESULT: -8.674391659      1.358      1.505
REMARK  3 active torsions:
REMARK  status: ('A' for Active; 'I' for Inactive)
REMARK       I    between atoms: N1_2  and  C2_4 
REMARK    1  A    between atoms: C2_4  and  C3_6 
REMARK    2  A    between atoms: C7_10  and  C8_11 
REMARK       I    between atoms: N2_17  and  C14_18 
REMARK    3  A    between atoms: C14_18  and  C15_20 
REMARK       I    between atoms: N3_28  and  C22_29 
ROOT
HETATM    1  C8  UNL     1       8.306  19.004  -7.784  1.00  0.00    -0.024 A 
HETATM    2  C9  UNL     1       8.329  18.444  -9.028  1.00  0.00     0.014 A 
HETATM    3  C10 UNL     1       9.432  17.736  -9.460  1.00  0.00     0.033 A 
HETATM    4  C11 UNL     1      10.531  17.590  -8.629  1.00  0.00     0.064 A 
HETATM    5  C12 UNL     1      10.546  18.144  -7.367  1.00  0.00     0.065 A 
HETATM    6  C13 UNL     1       9.442  18.831  -6.974  1.00  0.00     0.044 A 
HETATM    7  N2  UNL     1      11.677  18.049  -6.493  1.00  0.00    -0.308 N 
HETATM    8  C14 UNL     1      11.853  18.868  -5.360  1.00  0.00     0.282 C 
HETATM    9  O2  UNL     1      11.235  19.956  -5.295  1.00  0.00    -0.265 OA
HETATM   10  C19 UNL     1      12.729  17.110  -6.895  1.00  0.00     0.158 C 
HETATM   11  C20 UNL     1      12.905  17.202  -8.415  1.00  0.00     0.107 C 
HETATM   12  C21 UNL     1      13.282  18.612  -8.749  1.00  0.00     0.034 C 
HETATM   13  N3  UNL     1      11.653  16.822  -9.039  1.00  0.00    -0.310 N 
HETATM   14  C22 UNL     1      11.591  15.746  -9.919  1.00  0.00     0.220 C 
HETATM   15  C23 UNL     1      10.423  15.049 -10.469  1.00  0.00     0.117 C 
HETATM   16  O4  UNL     1      12.744  15.295 -10.299  1.00  0.00    -0.273 OA
ENDROOT
BRANCH   1  17
HETATM   17  C7  UNL     1       7.164  19.758  -7.283  1.00  0.00    -0.025 A 
HETATM   18  C6  UNL     1       7.057  21.106  -7.510  1.00  0.00     0.012 A 
HETATM   19  C5  UNL     1       6.001  21.868  -7.063  1.00  0.00     0.002 A 
HETATM   20  C4  UNL     1       4.994  21.265  -6.349  1.00  0.00     0.017 A 
HETATM   21  C3  UNL     1       5.047  19.915  -6.091  1.00  0.00     0.032 A 
HETATM   22  C24 UNL     1       6.140  19.179  -6.565  1.00  0.00     0.029 A 
BRANCH  21  23
HETATM   23  C2  UNL     1       4.000  19.226  -5.330  1.00  0.00     0.251 C 
HETATM   24  N1  UNL     1       3.600  19.582  -4.025  1.00  0.00    -0.361 N 
HETATM   25  C1  UNL     1       2.541  18.855  -3.313  1.00  0.00     0.149 C 
ATOM     26  H1  UNL     1       4.058  20.367  -3.562  1.00  0.00     0.162 HD
HETATM   27  O1  UNL     1       3.420  18.256  -5.875  1.00  0.00    -0.268 OA
ENDBRANCH  21  23
ENDBRANCH   1  17
BRANCH   8  28
HETATM   28  C15 UNL     1      12.719  18.519  -4.245  1.00  0.00     0.142 A 
HETATM   29  C16 UNL     1      12.519  17.705  -3.157  1.00  0.00     0.045 A 
HETATM   30  C17 UNL     1      13.691  17.730  -2.406  1.00  0.00     0.027 A 
HETATM   31  C18 UNL     1      14.550  18.557  -3.070  1.00  0.00     0.143 A 
HETATM   32  O3  UNL     1      13.957  18.996  -4.126  1.00  0.00    -0.317 OA
ENDBRANCH   8  28
TORSDOF 3
ENDMDL
