MODEL 9
REMARK VINA RESULT: -8.398578641      4.148      7.219
REMARK  3 active torsions:
REMARK  status: ('A' for Active; 'I' for Inactive)
REMARK       I    between atoms: N1_2  and  C2_4 
REMARK    1  A    between atoms: C2_4  and  C3_6 
REMARK    2  A    between atoms: C7_10  and  C8_11 
REMARK       I    between atoms: N2_17  and  C14_18 
REMARK    3  A    between atoms: C14_18  and  C15_20 
REMARK       I    between atoms: N3_28  and  C22_29 
ROOT
HETATM    1  C8  UNL     1      12.689  17.428  -7.107  1.00  0.00    -0.024 A 
HETATM    2  C9  UNL     1      13.880  18.013  -7.420  1.00  0.00     0.014 A 
HETATM    3  C10 UNL     1      14.755  18.403  -6.427  1.00  0.00     0.033 A 
HETATM    4  C11 UNL     1      14.427  18.202  -5.097  1.00  0.00     0.064 A 
HETATM    5  C12 UNL     1      13.232  17.617  -4.740  1.00  0.00     0.065 A 
HETATM    6  C13 UNL     1      12.395  17.244  -5.744  1.00  0.00     0.044 A 
HETATM    7  N2  UNL     1      12.839  17.428  -3.376  1.00  0.00    -0.308 N 
HETATM    8  C14 UNL     1      11.514  17.151  -2.981  1.00  0.00     0.282 C 
HETATM    9  O2  UNL     1      10.575  17.443  -3.757  1.00  0.00    -0.265 OA
HETATM   10  C19 UNL     1      13.879  17.646  -2.366  1.00  0.00     0.158 C 
HETATM   11  C20 UNL     1      14.720  18.855  -2.790  1.00  0.00     0.107 C 
HETATM   12  C21 UNL     1      13.806  20.037  -2.889  1.00  0.00     0.034 C 
HETATM   13  N3  UNL     1      15.339  18.551  -4.065  1.00  0.00    -0.310 N 
HETATM   14  C22 UNL     1      16.723  18.553  -4.206  1.00  0.00     0.220 C 
HETATM   15  C23 UNL     1      17.556  18.056  -5.307  1.00  0.00     0.117 C 
HETATM   16  O4  UNL     1      17.364  19.069  -3.205  1.00  0.00    -0.273 OA
ENDROOT
BRANCH   1  17
HETATM   17  C7  UNL     1      11.732  16.999  -8.119  1.00  0.00    -0.025 A 
HETATM   18  C6  UNL     1      10.407  17.335  -8.023  1.00  0.00     0.012 A 
HETATM   19  C5  UNL     1       9.460  16.960  -8.949  1.00  0.00     0.002 A 
HETATM   20  C4  UNL     1       9.844  16.208 -10.033  1.00  0.00     0.017 A 
HETATM   21  C3  UNL     1      11.161  15.841 -10.183  1.00  0.00     0.032 A 
HETATM   22  C24 UNL     1      12.090  16.245  -9.216  1.00  0.00     0.029 A 
BRANCH  21  23
HETATM   23  C2  UNL     1      11.620  15.036 -11.319  1.00  0.00     0.251 C 
HETATM   24  N1  UNL     1      10.762  14.418 -12.255  1.00  0.00    -0.361 N 
HETATM   25  C1  UNL     1      11.281  13.624 -13.375  1.00  0.00     0.149 C 
ATOM     26  H1  UNL     1       9.754  14.527 -12.150  1.00  0.00     0.162 HD
HETATM   27  O1  UNL     1      12.856  14.886 -11.472  1.00  0.00    -0.268 OA
ENDBRANCH  21  23
ENDBRANCH   1  17
BRANCH   8  28
HETATM   28  C15 UNL     1      11.168  16.536  -1.709  1.00  0.00     0.142 A 
HETATM   29  C16 UNL     1      10.920  17.078  -0.473  1.00  0.00     0.045 A 
HETATM   30  C17 UNL     1      10.630  16.022   0.387  1.00  0.00     0.027 A 
HETATM   31  C18 UNL     1      10.716  14.886  -0.365  1.00  0.00     0.143 A 
HETATM   32  O3  UNL     1      11.029  15.218  -1.569  1.00  0.00    -0.317 OA
ENDBRANCH   8  28
TORSDOF 3
ENDMDL
