MODEL 5
REMARK VINA RESULT: -8.551693546      2.756      7.603
REMARK  3 active torsions:
REMARK  status: ('A' for Active; 'I' for Inactive)
REMARK       I    between atoms: N1_2  and  C2_4 
REMARK    1  A    between atoms: C2_4  and  C3_6 
REMARK    2  A    between atoms: C7_10  and  C8_11 
REMARK       I    between atoms: N2_17  and  C14_18 
REMARK    3  A    between atoms: C14_18  and  C15_20 
REMARK       I    between atoms: N3_28  and  C22_29 
ROOT
HETATM    1  C8  UNL     1       8.983  18.525  -8.297  1.00  0.00    -0.024 A 
HETATM    2  C9  UNL     1       7.978  18.523  -9.219  1.00  0.00     0.014 A 
HETATM    3  C10 UNL     1       6.784  19.163  -8.959  1.00  0.00     0.033 A 
HETATM    4  C11 UNL     1       6.595  19.813  -7.751  1.00  0.00     0.064 A 
HETATM    5  C12 UNL     1       7.585  19.835  -6.792  1.00  0.00     0.065 A 
HETATM    6  C13 UNL     1       8.749  19.197  -7.084  1.00  0.00     0.044 A 
HETATM    7  N2  UNL     1       7.415  20.462  -5.517  1.00  0.00    -0.308 N 
HETATM    8  C14 UNL     1       8.258  20.219  -4.413  1.00  0.00     0.282 C 
HETATM    9  O2  UNL     1       8.939  19.167  -4.389  1.00  0.00    -0.265 OA
HETATM   10  C19 UNL     1       6.231  21.314  -5.366  1.00  0.00     0.158 C 
HETATM   11  C20 UNL     1       5.056  20.639  -6.083  1.00  0.00     0.107 C 
HETATM   12  C21 UNL     1       4.843  19.299  -5.451  1.00  0.00     0.034 C 
HETATM   13  N3  UNL     1       5.391  20.520  -7.488  1.00  0.00    -0.310 N 
HETATM   14  C22 UNL     1       4.600  21.117  -8.464  1.00  0.00     0.220 C 
HETATM   15  C23 UNL     1       4.868  21.326  -9.891  1.00  0.00     0.117 C 
HETATM   16  O4  UNL     1       3.459  21.555  -8.037  1.00  0.00    -0.273 OA
ENDROOT
BRANCH   1  17
HETATM   17  C7  UNL     1      10.262  17.865  -8.526  1.00  0.00    -0.025 A 
HETATM   18  C6  UNL     1      11.313  18.050  -7.665  1.00  0.00     0.012 A 
HETATM   19  C5  UNL     1      12.542  17.451  -7.829  1.00  0.00     0.002 A 
HETATM   20  C4  UNL     1      12.745  16.623  -8.907  1.00  0.00     0.017 A 
HETATM   21  C3  UNL     1      11.727  16.400  -9.805  1.00  0.00     0.032 A 
HETATM   22  C24 UNL     1      10.494  17.030  -9.597  1.00  0.00     0.029 A 
BRANCH  21  23
HETATM   23  C2  UNL     1      11.895  15.529 -10.972  1.00  0.00     0.251 C 
HETATM   24  N1  UNL     1      10.882  14.697 -11.497  1.00  0.00    -0.361 N 
HETATM   25  C1  UNL     1      11.109  13.847 -12.671  1.00  0.00     0.149 C 
ATOM     26  H1  UNL     1       9.967  14.687 -11.047  1.00  0.00     0.162 HD
HETATM   27  O1  UNL     1      13.011  15.521 -11.544  1.00  0.00    -0.268 OA
ENDBRANCH  21  23
ENDBRANCH   1  17
BRANCH   8  28
HETATM   28  C15 UNL     1       8.389  21.130  -3.287  1.00  0.00     0.142 A 
HETATM   29  C16 UNL     1       7.995  21.019  -1.976  1.00  0.00     0.045 A 
HETATM   30  C17 UNL     1       8.381  22.192  -1.333  1.00  0.00     0.027 A 
HETATM   31  C18 UNL     1       8.990  22.962  -2.280  1.00  0.00     0.143 A 
HETATM   32  O3  UNL     1       8.977  22.320  -3.397  1.00  0.00    -0.317 OA
ENDBRANCH   8  28
TORSDOF 3
ENDMDL
