MODEL 10
REMARK VINA RESULT: -8.268779142      2.602      7.730
REMARK  3 active torsions:
REMARK  status: ('A' for Active; 'I' for Inactive)
REMARK       I    between atoms: N1_2  and  C2_4 
REMARK    1  A    between atoms: C2_4  and  C3_6 
REMARK    2  A    between atoms: C7_10  and  C8_11 
REMARK       I    between atoms: N2_17  and  C14_18 
REMARK    3  A    between atoms: C14_18  and  C15_20 
REMARK       I    between atoms: N3_28  and  C22_29 
ROOT
HETATM    1  C8  UNL     1       8.657  18.456  -8.725  1.00  0.00    -0.024 A 
HETATM    2  C9  UNL     1       7.605  18.582  -9.584  1.00  0.00     0.014 A 
HETATM    3  C10 UNL     1       6.470  19.273  -9.211  1.00  0.00     0.033 A 
HETATM    4  C11 UNL     1       6.391  19.846  -7.952  1.00  0.00     0.064 A 
HETATM    5  C12 UNL     1       7.431  19.738  -7.055  1.00  0.00     0.065 A 
HETATM    6  C13 UNL     1       8.534  19.053  -7.458  1.00  0.00     0.044 A 
HETATM    7  N2  UNL     1       7.373  20.282  -5.732  1.00  0.00    -0.308 N 
HETATM    8  C14 UNL     1       8.257  19.909  -4.699  1.00  0.00     0.282 C 
HETATM    9  O2  UNL     1       8.869  18.819  -4.787  1.00  0.00    -0.265 OA
HETATM   10  C19 UNL     1       6.257  21.191  -5.454  1.00  0.00     0.158 C 
HETATM   11  C20 UNL     1       5.002  20.642  -6.144  1.00  0.00     0.107 C 
HETATM   12  C21 UNL     1       4.738  19.275  -5.593  1.00  0.00     0.034 C 
HETATM   13  N3  UNL     1       5.251  20.603  -7.571  1.00  0.00    -0.310 N 
HETATM   14  C22 UNL     1       4.448  21.316  -8.456  1.00  0.00     0.220 C 
HETATM   15  C23 UNL     1       4.650  21.610  -9.879  1.00  0.00     0.117 C 
HETATM   16  O4  UNL     1       3.363  21.791  -7.933  1.00  0.00    -0.273 OA
ENDROOT
BRANCH   1  17
HETATM   17  C7  UNL     1       9.876  17.738  -9.074  1.00  0.00    -0.025 A 
HETATM   18  C6  UNL     1       9.833  16.420  -9.448  1.00  0.00     0.012 A 
HETATM   19  C5  UNL     1      10.951  15.693  -9.791  1.00  0.00     0.002 A 
HETATM   20  C4  UNL     1      12.182  16.302  -9.761  1.00  0.00     0.017 A 
HETATM   21  C3  UNL     1      12.287  17.624  -9.394  1.00  0.00     0.032 A 
HETATM   22  C24 UNL     1      11.123  18.324  -9.054  1.00  0.00     0.029 A 
BRANCH  21  23
HETATM   23  C2  UNL     1      13.577  18.317  -9.342  1.00  0.00     0.251 C 
HETATM   24  N1  UNL     1      14.207  18.738  -8.151  1.00  0.00    -0.361 N 
HETATM   25  C1  UNL     1      15.503  19.428  -8.162  1.00  0.00     0.149 C 
ATOM     26  H1  UNL     1      13.749  18.558  -7.257  1.00  0.00     0.162 HD
HETATM   27  O1  UNL     1      14.162  18.552 -10.426  1.00  0.00    -0.268 OA
ENDBRANCH  21  23
ENDBRANCH   1  17
BRANCH   8  28
HETATM   28  C15 UNL     1       8.508  20.728  -3.524  1.00  0.00     0.142 A 
HETATM   29  C16 UNL     1       8.057  20.626  -2.230  1.00  0.00     0.045 A 
HETATM   30  C17 UNL     1       8.622  21.679  -1.516  1.00  0.00     0.027 A 
HETATM   31  C18 UNL     1       9.389  22.374  -2.406  1.00  0.00     0.143 A 
HETATM   32  O3  UNL     1       9.301  21.798  -3.556  1.00  0.00    -0.317 OA
ENDBRANCH   8  28
TORSDOF 3
ENDMDL
