MODEL 1
REMARK VINA RESULT: -9.067622293      0.000      0.000
REMARK  3 active torsions:
REMARK  status: ('A' for Active; 'I' for Inactive)
REMARK       I    between atoms: N1_2  and  C2_4 
REMARK    1  A    between atoms: C2_4  and  C3_6 
REMARK    2  A    between atoms: C7_10  and  C8_11 
REMARK       I    between atoms: N2_17  and  C14_18 
REMARK    3  A    between atoms: C14_18  and  C15_20 
REMARK       I    between atoms: N3_28  and  C22_29 
ROOT
HETATM    1  C8  UNL     1       8.733  18.639  -7.179  1.00  0.00    -0.024 A 
HETATM    2  C9  UNL     1       8.428  18.100  -8.394  1.00  0.00     0.014 A 
HETATM    3  C10 UNL     1       9.406  17.502  -9.162  1.00  0.00     0.033 A 
HETATM    4  C11 UNL     1      10.711  17.444  -8.702  1.00  0.00     0.064 A 
HETATM    5  C12 UNL     1      11.058  17.980  -7.481  1.00  0.00     0.065 A 
HETATM    6  C13 UNL     1      10.070  18.559  -6.750  1.00  0.00     0.044 A 
HETATM    7  N2  UNL     1      12.402  17.975  -6.987  1.00  0.00    -0.308 N 
HETATM    8  C14 UNL     1      12.842  18.791  -5.925  1.00  0.00     0.282 C 
HETATM    9  O2  UNL     1      12.184  19.818  -5.635  1.00  0.00    -0.265 OA
HETATM   10  C19 UNL     1      13.359  17.141  -7.720  1.00  0.00     0.158 C 
HETATM   11  C20 UNL     1      13.064  17.269  -9.219  1.00  0.00     0.107 C 
HETATM   12  C21 UNL     1      13.206  18.712  -9.592  1.00  0.00     0.034 C 
HETATM   13  N3  UNL     1      11.718  16.786  -9.458  1.00  0.00    -0.310 N 
HETATM   14  C22 UNL     1      11.484  15.721 -10.321  1.00  0.00     0.220 C 
HETATM   15  C23 UNL     1      10.266  14.929 -10.527  1.00  0.00     0.117 C 
HETATM   16  O4  UNL     1      12.503  15.381 -11.044  1.00  0.00    -0.273 OA
ENDROOT
BRANCH   1  17
HETATM   17  C7  UNL     1       7.736  19.280  -6.330  1.00  0.00    -0.025 A 
HETATM   18  C6  UNL     1       8.113  20.103  -5.301  1.00  0.00     0.012 A 
HETATM   19  C5  UNL     1       7.216  20.737  -4.470  1.00  0.00     0.002 A 
HETATM   20  C4  UNL     1       5.870  20.546  -4.667  1.00  0.00     0.017 A 
HETATM   21  C3  UNL     1       5.432  19.731  -5.685  1.00  0.00     0.032 A 
HETATM   22  C24 UNL     1       6.380  19.107  -6.505  1.00  0.00     0.029 A 
BRANCH  21  23
HETATM   23  C2  UNL     1       4.007  19.492  -5.933  1.00  0.00     0.251 C 
HETATM   24  N1  UNL     1       3.088  20.493  -6.316  1.00  0.00    -0.361 N 
HETATM   25  C1  UNL     1       1.670  20.192  -6.553  1.00  0.00     0.149 C 
ATOM     26  H1  UNL     1       3.417  21.451  -6.433  1.00  0.00     0.162 HD
HETATM   27  O1  UNL     1       3.574  18.323  -5.797  1.00  0.00    -0.268 OA
ENDBRANCH  21  23
ENDBRANCH   1  17
BRANCH   8  28
HETATM   28  C15 UNL     1      14.027  18.507  -5.132  1.00  0.00     0.142 A 
HETATM   29  C16 UNL     1      14.285  17.536  -4.196  1.00  0.00     0.045 A 
HETATM   30  C17 UNL     1      15.591  17.728  -3.755  1.00  0.00     0.027 A 
HETATM   31  C18 UNL     1      16.069  18.807  -4.442  1.00  0.00     0.143 A 
HETATM   32  O3  UNL     1      15.140  19.232  -5.227  1.00  0.00    -0.317 OA
ENDBRANCH   8  28
TORSDOF 3
ENDMDL
