MODEL 6
REMARK VINA RESULT: -8.816624813      3.577      8.927
REMARK  13 active torsions:
REMARK  status: ('A' for Active; 'I' for Inactive)
REMARK    1  A    between atoms: N1_5  and  C4_6 
REMARK    2  A    between atoms: C5_8  and  C6_9 
REMARK    3  A    between atoms: C6_9  and  O3_10 
REMARK    4  A    between atoms: O3_10  and  P1_11 
REMARK    5  A    between atoms: P1_11  and  O6_14 
REMARK    6  A    between atoms: O6_14  and  P2_15 
REMARK    7  A    between atoms: P2_15  and  O9_18 
REMARK    8  A    between atoms: O9_18  and  C7_19 
REMARK    9  A    between atoms: C9_22  and  O11_23 
REMARK   10  A    between atoms: C10_25  and  O12_26 
REMARK   11  A    between atoms: C11_28  and  O13_29 
REMARK   12  A    between atoms: C12_31  and  O14_32 
REMARK   13  A    between atoms: C13_34  and  O15_35 
ROOT
HETATM    1  O3  UNL     1      20.015  -9.177  23.721  1.00  0.00    -0.287 OA
ENDROOT
BRANCH   1   2
HETATM    2  C6  UNL     1      18.663  -8.942  23.685  1.00  0.00     0.216 C 
BRANCH   2   3
HETATM    3  C5  UNL     1      18.076  -8.659  25.042  1.00  0.00     0.180 C 
HETATM    4  O2  UNL     1      17.061  -9.597  25.267  1.00  0.00    -0.353 OA
HETATM    5  C4  UNL     1      16.852  -9.448  26.639  1.00  0.00     0.263 C 
HETATM    6  C13 UNL     1      18.262  -9.638  27.173  1.00  0.00     0.198 C 
HETATM    7  C12 UNL     1      19.057  -8.812  26.154  1.00  0.00     0.182 C 
BRANCH   5   8
HETATM    8  N1  UNL     1      15.926 -10.412  27.162  1.00  0.00    -0.280 N 
HETATM    9  C3  UNL     1      15.920 -11.692  26.722  1.00  0.00     0.104 A 
HETATM   10  C2  UNL     1      14.983 -12.546  27.292  1.00  0.00     0.092 A 
HETATM   11  C1  UNL     1      14.110 -12.084  28.262  1.00  0.00     0.250 A 
HETATM   12  O1  UNL     1      13.249 -12.842  28.796  1.00  0.00    -0.268 OA
HETATM   13  N2  UNL     1      14.145 -10.800  28.678  1.00  0.00    -0.275 N 
HETATM   14  C14 UNL     1      15.058  -9.997  28.110  1.00  0.00     0.331 A 
ATOM     15  H2  UNL     1      13.505 -10.454  29.393  1.00  0.00     0.173 HD
HETATM   16  O16 UNL     1      15.093  -8.780  28.501  1.00  0.00    -0.246 OA
ENDBRANCH   5   8
BRANCH   6  17
HETATM   17  O15 UNL     1      18.384  -9.145  28.448  1.00  0.00    -0.388 OA
ATOM     18  H15 UNL     1      19.212  -9.398  28.838  1.00  0.00     0.210 HD
ENDBRANCH   6  17
BRANCH   7  19
HETATM   19  O14 UNL     1      19.431  -7.596  26.720  1.00  0.00    -0.390 OA
ATOM     20  H14 UNL     1      20.357  -7.553  26.928  1.00  0.00     0.210 HD
ENDBRANCH   7  19
ENDBRANCH   2   3
ENDBRANCH   1   2
BRANCH   1  21
HETATM   21  P1  UNL     1      20.255 -10.795  23.469  1.00  0.00     0.417 P 
HETATM   22  O4  UNL     1      21.395 -11.350  22.462  1.00  0.00    -0.624 OA
HETATM   23  O5  UNL     1      19.150 -11.866  24.133  1.00  0.00    -0.624 OA
BRANCH  21  24
HETATM   24  O6  UNL     1      21.071 -10.863  24.757  1.00  0.00    -0.180 OA
BRANCH  24  25
HETATM   25  P2  UNL     1      22.511 -11.336  24.973  1.00  0.00     0.420 P 
HETATM   26  O7  UNL     1      23.035  -9.804  24.698  1.00  0.00    -0.624 OA
HETATM   27  O8  UNL     1      22.028 -11.745  26.506  1.00  0.00    -0.624 OA
BRANCH  25  28
HETATM   28  O9  UNL     1      23.907 -11.853  25.352  1.00  0.00    -0.256 OA
BRANCH  28  29
HETATM   29  C7  UNL     1      24.510 -12.891  24.695  1.00  0.00     0.303 C 
HETATM   30  O10 UNL     1      23.680 -14.030  24.610  1.00  0.00    -0.355 OA
HETATM   31  C8  UNL     1      24.305 -15.042  23.915  1.00  0.00     0.205 C 
HETATM   32  C9  UNL     1      24.290 -14.747  22.431  1.00  0.00     0.173 C 
HETATM   33  C10 UNL     1      24.251 -13.244  22.278  1.00  0.00     0.182 C 
HETATM   34  C11 UNL     1      25.082 -12.564  23.362  1.00  0.00     0.205 C 
BRANCH  32  35
HETATM   35  O11 UNL     1      23.160 -15.258  21.822  1.00  0.00    -0.391 OA
ATOM     36  H11 UNL     1      23.375 -15.961  21.219  1.00  0.00     0.210 HD
ENDBRANCH  32  35
BRANCH  33  37
HETATM   37  O12 UNL     1      24.725 -12.842  21.042  1.00  0.00    -0.390 OA
ATOM     38  H12 UNL     1      25.673 -12.795  21.027  1.00  0.00     0.210 HD
ENDBRANCH  33  37
BRANCH  34  39
HETATM   39  O13 UNL     1      25.087 -11.215  23.058  1.00  0.00    -0.388 OA
ATOM     40  H13 UNL     1      24.810 -11.011  22.173  1.00  0.00     0.210 HD
ENDBRANCH  34  39
ENDBRANCH  28  29
ENDBRANCH  25  28
ENDBRANCH  24  25
ENDBRANCH  21  24
ENDBRANCH   1  21
TORSDOF 13
ENDMDL
