MODEL 1
REMARK VINA RESULT: -10.359244296      0.000      0.000
REMARK  13 active torsions:
REMARK  status: ('A' for Active; 'I' for Inactive)
REMARK    1  A    between atoms: N1_5  and  C4_6 
REMARK    2  A    between atoms: C5_8  and  C6_9 
REMARK    3  A    between atoms: C6_9  and  O3_10 
REMARK    4  A    between atoms: O3_10  and  P1_11 
REMARK    5  A    between atoms: P1_11  and  O6_14 
REMARK    6  A    between atoms: O6_14  and  P2_15 
REMARK    7  A    between atoms: P2_15  and  O9_18 
REMARK    8  A    between atoms: O9_18  and  C7_19 
REMARK    9  A    between atoms: C9_22  and  O11_23 
REMARK   10  A    between atoms: C10_25  and  O12_26 
REMARK   11  A    between atoms: C11_28  and  O13_29 
REMARK   12  A    between atoms: C12_31  and  O14_32 
REMARK   13  A    between atoms: C13_34  and  O15_35 
ROOT
HETATM    1  O3  UNL     1      21.273  -9.855  25.011  1.00  0.00    -0.287 OA
ENDROOT
BRANCH   1   2
HETATM    2  C6  UNL     1      21.558 -11.063  25.599  1.00  0.00     0.216 C 
BRANCH   2   3
HETATM    3  C5  UNL     1      23.036 -11.313  25.747  1.00  0.00     0.180 C 
HETATM    4  O2  UNL     1      23.210 -12.175  26.837  1.00  0.00    -0.353 OA
HETATM    5  C4  UNL     1      24.532 -12.583  26.651  1.00  0.00     0.263 C 
HETATM    6  C13 UNL     1      24.485 -13.089  25.220  1.00  0.00     0.198 C 
HETATM    7  C12 UNL     1      23.643 -11.986  24.564  1.00  0.00     0.182 C 
BRANCH   5   8
HETATM    8  N1  UNL     1      24.930 -13.598  27.586  1.00  0.00    -0.280 N 
HETATM    9  C3  UNL     1      24.154 -14.681  27.820  1.00  0.00     0.104 A 
HETATM   10  C2  UNL     1      24.630 -15.606  28.744  1.00  0.00     0.092 A 
HETATM   11  C1  UNL     1      25.843 -15.402  29.379  1.00  0.00     0.250 A 
HETATM   12  O1  UNL     1      26.298 -16.228  30.223  1.00  0.00    -0.268 OA
HETATM   13  N2  UNL     1      26.592 -14.309  29.120  1.00  0.00    -0.275 N 
HETATM   14  C14 UNL     1      26.109 -13.433  28.225  1.00  0.00     0.331 A 
ATOM     15  H2  UNL     1      27.486 -14.155  29.584  1.00  0.00     0.173 HD
HETATM   16  O16 UNL     1      26.815 -12.397  27.979  1.00  0.00    -0.246 OA
ENDBRANCH   5   8
BRANCH   6  17
HETATM   17  O15 UNL     1      25.742 -13.173  24.677  1.00  0.00    -0.388 OA
ATOM     18  H15 UNL     1      25.839 -12.588  23.935  1.00  0.00     0.210 HD
ENDBRANCH   6  17
BRANCH   7  19
HETATM   19  O14 UNL     1      24.465 -11.144  23.822  1.00  0.00    -0.390 OA
ATOM     20  H14 UNL     1      25.233 -10.856  24.303  1.00  0.00     0.210 HD
ENDBRANCH   7  19
ENDBRANCH   2   3
ENDBRANCH   1   2
BRANCH   1  21
HETATM   21  P1  UNL     1      20.045 -10.097  23.928  1.00  0.00     0.417 P 
HETATM   22  O4  UNL     1      18.967 -11.294  24.100  1.00  0.00    -0.624 OA
HETATM   23  O5  UNL     1      20.051  -9.190  22.519  1.00  0.00    -0.624 OA
BRANCH  21  24
HETATM   24  O6  UNL     1      19.239  -8.997  24.614  1.00  0.00    -0.180 OA
BRANCH  24  25
HETATM   25  P2  UNL     1      18.150  -9.112  25.683  1.00  0.00     0.420 P 
HETATM   26  O7  UNL     1      18.972  -8.034  26.609  1.00  0.00    -0.624 OA
HETATM   27  O8  UNL     1      17.110  -8.533  24.527  1.00  0.00    -0.624 OA
BRANCH  25  28
HETATM   28  O9  UNL     1      16.945  -9.165  26.636  1.00  0.00    -0.256 OA
BRANCH  28  29
HETATM   29  C7  UNL     1      15.851  -9.950  26.394  1.00  0.00     0.303 C 
HETATM   30  O10 UNL     1      16.185 -11.317  26.272  1.00  0.00    -0.355 OA
HETATM   31  C8  UNL     1      15.058 -12.081  26.062  1.00  0.00     0.205 C 
HETATM   32  C9  UNL     1      14.285 -12.241  27.353  1.00  0.00     0.173 C 
HETATM   33  C10 UNL     1      14.581 -11.026  28.201  1.00  0.00     0.182 C 
HETATM   34  C11 UNL     1      14.713  -9.776  27.335  1.00  0.00     0.205 C 
BRANCH  32  35
HETATM   35  O11 UNL     1      14.700 -13.354  28.060  1.00  0.00    -0.391 OA
ATOM     36  H11 UNL     1      14.459 -13.296  28.977  1.00  0.00     0.210 HD
ENDBRANCH  32  35
BRANCH  33  37
HETATM   37  O12 UNL     1      13.592 -10.806  29.144  1.00  0.00    -0.390 OA
ATOM     38  H12 UNL     1      13.566  -9.898  29.422  1.00  0.00     0.210 HD
ENDBRANCH  33  37
BRANCH  34  39
HETATM   39  O13 UNL     1      14.851  -8.712  28.208  1.00  0.00    -0.388 OA
ATOM     40  H13 UNL     1      14.277  -8.748  28.964  1.00  0.00     0.210 HD
ENDBRANCH  34  39
ENDBRANCH  28  29
ENDBRANCH  25  28
ENDBRANCH  24  25
ENDBRANCH  21  24
ENDBRANCH   1  21
TORSDOF 13
ENDMDL
