MODEL 2
REMARK VINA RESULT: -9.956720947      1.019      1.106
REMARK  13 active torsions:
REMARK  status: ('A' for Active; 'I' for Inactive)
REMARK    1  A    between atoms: N1_5  and  C4_6 
REMARK    2  A    between atoms: C5_8  and  C6_9 
REMARK    3  A    between atoms: C6_9  and  O3_10 
REMARK    4  A    between atoms: O3_10  and  P1_11 
REMARK    5  A    between atoms: P1_11  and  O6_14 
REMARK    6  A    between atoms: O6_14  and  P2_15 
REMARK    7  A    between atoms: P2_15  and  O9_18 
REMARK    8  A    between atoms: O9_18  and  C7_19 
REMARK    9  A    between atoms: C9_22  and  O11_23 
REMARK   10  A    between atoms: C10_25  and  O12_26 
REMARK   11  A    between atoms: C11_28  and  O13_29 
REMARK   12  A    between atoms: C12_31  and  O14_32 
REMARK   13  A    between atoms: C13_34  and  O15_35 
ROOT
HETATM    1  O3  UNL     1      20.769 -11.328  25.796  1.00  0.00    -0.287 OA
ENDROOT
BRANCH   1   2
HETATM    2  C6  UNL     1      21.669 -10.365  26.179  1.00  0.00     0.216 C 
BRANCH   2   3
HETATM    3  C5  UNL     1      23.101 -10.814  26.058  1.00  0.00     0.180 C 
HETATM    4  O2  UNL     1      23.345 -11.727  27.092  1.00  0.00    -0.353 OA
HETATM    5  C4  UNL     1      24.545 -12.302  26.669  1.00  0.00     0.263 C 
HETATM    6  C13 UNL     1      24.177 -12.749  25.265  1.00  0.00     0.198 C 
HETATM    7  C12 UNL     1      23.392 -11.523  24.780  1.00  0.00     0.182 C 
BRANCH   5   8
HETATM    8  N1  UNL     1      24.959 -13.391  27.509  1.00  0.00    -0.280 N 
HETATM    9  C3  UNL     1      24.537 -14.656  27.277  1.00  0.00     0.104 A 
HETATM   10  C2  UNL     1      24.995 -15.638  28.148  1.00  0.00     0.092 A 
HETATM   11  C1  UNL     1      25.840 -15.310  29.194  1.00  0.00     0.250 A 
HETATM   12  O1  UNL     1      26.271 -16.185  30.000  1.00  0.00    -0.268 OA
HETATM   13  N2  UNL     1      26.241 -14.036  29.395  1.00  0.00    -0.275 N 
HETATM   14  C14 UNL     1      25.783 -13.108  28.540  1.00  0.00     0.331 A 
ATOM     15  H2  UNL     1      26.864 -13.789  30.163  1.00  0.00     0.173 HD
HETATM   16  O16 UNL     1      26.160 -11.901  28.728  1.00  0.00    -0.246 OA
ENDBRANCH   5   8
BRANCH   6  17
HETATM   17  O15 UNL     1      25.296 -12.983  24.505  1.00  0.00    -0.388 OA
ATOM     18  H15 UNL     1      25.074 -13.408  23.685  1.00  0.00     0.210 HD
ENDBRANCH   6  17
BRANCH   7  19
HETATM   19  O14 UNL     1      24.179 -10.774  23.909  1.00  0.00    -0.390 OA
ATOM     20  H14 UNL     1      25.066 -11.106  23.833  1.00  0.00     0.210 HD
ENDBRANCH   7  19
ENDBRANCH   2   3
ENDBRANCH   1   2
BRANCH   1  21
HETATM   21  P1  UNL     1      19.835 -10.695  24.585  1.00  0.00     0.417 P 
HETATM   22  O4  UNL     1      18.375 -11.294  24.220  1.00  0.00    -0.624 OA
HETATM   23  O5  UNL     1      20.519  -9.530  23.594  1.00  0.00    -0.624 OA
BRANCH  21  24
HETATM   24  O6  UNL     1      19.372  -9.593  25.534  1.00  0.00    -0.180 OA
BRANCH  24  25
HETATM   25  P2  UNL     1      18.001  -9.378  26.179  1.00  0.00     0.420 P 
HETATM   26  O7  UNL     1      18.702  -9.485  27.660  1.00  0.00    -0.624 OA
HETATM   27  O8  UNL     1      17.994  -7.908  25.410  1.00  0.00    -0.624 OA
BRANCH  25  28
HETATM   28  O9  UNL     1      16.623  -9.005  26.748  1.00  0.00    -0.256 OA
BRANCH  28  29
HETATM   29  C7  UNL     1      15.574  -9.884  26.768  1.00  0.00     0.303 C 
HETATM   30  O10 UNL     1      15.602 -10.782  25.679  1.00  0.00    -0.355 OA
HETATM   31  C8  UNL     1      14.553 -11.672  25.749  1.00  0.00     0.205 C 
HETATM   32  C9  UNL     1      14.825 -12.723  26.803  1.00  0.00     0.173 C 
HETATM   33  C10 UNL     1      15.730 -12.092  27.836  1.00  0.00     0.182 C 
HETATM   34  C11 UNL     1      15.376 -10.622  28.044  1.00  0.00     0.205 C 
BRANCH  32  35
HETATM   35  O11 UNL     1      15.490 -13.813  26.275  1.00  0.00    -0.391 OA
ATOM     36  H11 UNL     1      16.380 -13.873  26.605  1.00  0.00     0.210 HD
ENDBRANCH  32  35
BRANCH  33  37
HETATM   37  O12 UNL     1      15.649 -12.742  29.055  1.00  0.00    -0.390 OA
ATOM     38  H12 UNL     1      16.254 -12.376  29.689  1.00  0.00     0.210 HD
ENDBRANCH  33  37
BRANCH  34  39
HETATM   39  O13 UNL     1      16.166 -10.177  29.089  1.00  0.00    -0.388 OA
ATOM     40  H13 UNL     1      16.755 -10.833  29.442  1.00  0.00     0.210 HD
ENDBRANCH  34  39
ENDBRANCH  28  29
ENDBRANCH  25  28
ENDBRANCH  24  25
ENDBRANCH  21  24
ENDBRANCH   1  21
TORSDOF 13
ENDMDL
