MODEL 5
REMARK VINA RESULT: -9.101796409      3.243      9.115
REMARK  13 active torsions:
REMARK  status: ('A' for Active; 'I' for Inactive)
REMARK    1  A    between atoms: N1_5  and  C4_6 
REMARK    2  A    between atoms: C5_8  and  C6_9 
REMARK    3  A    between atoms: C6_9  and  O3_10 
REMARK    4  A    between atoms: O3_10  and  P1_11 
REMARK    5  A    between atoms: P1_11  and  O6_14 
REMARK    6  A    between atoms: O6_14  and  P2_15 
REMARK    7  A    between atoms: P2_15  and  O9_18 
REMARK    8  A    between atoms: O9_18  and  C7_19 
REMARK    9  A    between atoms: C9_22  and  O11_23 
REMARK   10  A    between atoms: C10_25  and  O12_26 
REMARK   11  A    between atoms: C11_28  and  O13_29 
REMARK   12  A    between atoms: C12_31  and  O14_32 
REMARK   13  A    between atoms: C13_34  and  O15_35 
ROOT
HETATM    1  O3  UNL     1      20.123 -11.579  23.806  1.00  0.00    -0.287 OA
ENDROOT
BRANCH   1   2
HETATM    2  C6  UNL     1      20.045 -10.221  23.615  1.00  0.00     0.216 C 
BRANCH   2   3
HETATM    3  C5  UNL     1      19.251  -9.521  24.687  1.00  0.00     0.180 C 
HETATM    4  O2  UNL     1      17.985 -10.119  24.732  1.00  0.00    -0.353 OA
HETATM    5  C4  UNL     1      17.499  -9.633  25.947  1.00  0.00     0.263 C 
HETATM    6  C13 UNL     1      18.617 -10.035  26.892  1.00  0.00     0.198 C 
HETATM    7  C12 UNL     1      19.842  -9.662  26.047  1.00  0.00     0.182 C 
BRANCH   5   8
HETATM    8  N1  UNL     1      16.234 -10.212  26.304  1.00  0.00    -0.280 N 
HETATM    9  C3  UNL     1      16.160 -11.288  27.120  1.00  0.00     0.104 A 
HETATM   10  C2  UNL     1      14.888 -11.773  27.404  1.00  0.00     0.092 A 
HETATM   11  C1  UNL     1      13.768 -11.165  26.864  1.00  0.00     0.250 A 
HETATM   12  O1  UNL     1      12.601 -11.587  27.107  1.00  0.00    -0.268 OA
HETATM   13  N2  UNL     1      13.881 -10.091  26.053  1.00  0.00    -0.275 N 
HETATM   14  C14 UNL     1      15.120  -9.645  25.795  1.00  0.00     0.331 A 
ATOM     15  H2  UNL     1      13.059  -9.639  25.653  1.00  0.00     0.173 HD
HETATM   16  O16 UNL     1      15.229  -8.629  25.027  1.00  0.00    -0.246 OA
ENDBRANCH   5   8
BRANCH   6  17
HETATM   17  O15 UNL     1      18.560  -9.324  28.065  1.00  0.00    -0.388 OA
ATOM     18  H15 UNL     1      18.572  -9.901  28.820  1.00  0.00     0.210 HD
ENDBRANCH   6  17
BRANCH   7  19
HETATM   19  O14 UNL     1      20.400  -8.479  26.523  1.00  0.00    -0.390 OA
ATOM     20  H14 UNL     1      20.893  -8.598  27.326  1.00  0.00     0.210 HD
ENDBRANCH   7  19
ENDBRANCH   2   3
ENDBRANCH   1   2
BRANCH   1  21
HETATM   21  P1  UNL     1      21.184 -12.185  22.689  1.00  0.00     0.417 P 
HETATM   22  O4  UNL     1      21.429 -11.471  21.256  1.00  0.00    -0.624 OA
HETATM   23  O5  UNL     1      21.867 -13.686  22.989  1.00  0.00    -0.624 OA
BRANCH  21  24
HETATM   24  O6  UNL     1      22.336 -11.527  23.444  1.00  0.00    -0.180 OA
BRANCH  24  25
HETATM   25  P2  UNL     1      23.480 -12.174  24.227  1.00  0.00     0.420 P 
HETATM   26  O7  UNL     1      24.551 -11.516  23.170  1.00  0.00    -0.624 OA
HETATM   27  O8  UNL     1      22.970 -11.257  25.512  1.00  0.00    -0.624 OA
BRANCH  25  28
HETATM   28  O9  UNL     1      24.578 -12.726  25.151  1.00  0.00    -0.256 OA
BRANCH  28  29
HETATM   29  C7  UNL     1      24.295 -13.433  26.288  1.00  0.00     0.303 C 
HETATM   30  O10 UNL     1      24.537 -14.816  26.135  1.00  0.00    -0.355 OA
HETATM   31  C8  UNL     1      24.273 -15.492  27.306  1.00  0.00     0.205 C 
HETATM   32  C9  UNL     1      25.386 -15.265  28.307  1.00  0.00     0.173 C 
HETATM   33  C10 UNL     1      25.996 -13.918  27.992  1.00  0.00     0.182 C 
HETATM   34  C11 UNL     1      24.928 -12.929  27.535  1.00  0.00     0.205 C 
BRANCH  32  35
HETATM   35  O11 UNL     1      26.383 -16.214  28.183  1.00  0.00    -0.391 OA
ATOM     36  H11 UNL     1      26.035 -17.052  27.901  1.00  0.00     0.210 HD
ENDBRANCH  32  35
BRANCH  33  37
HETATM   37  O12 UNL     1      26.652 -13.384  29.088  1.00  0.00    -0.390 OA
ATOM     38  H12 UNL     1      27.570 -13.225  28.905  1.00  0.00     0.210 HD
ENDBRANCH  33  37
BRANCH  34  39
HETATM   39  O13 UNL     1      25.562 -11.707  27.400  1.00  0.00    -0.388 OA
ATOM     40  H13 UNL     1      25.117 -10.986  27.828  1.00  0.00     0.210 HD
ENDBRANCH  34  39
ENDBRANCH  28  29
ENDBRANCH  25  28
ENDBRANCH  24  25
ENDBRANCH  21  24
ENDBRANCH   1  21
TORSDOF 13
ENDMDL
