MODEL 4
REMARK VINA RESULT: -9.229428454      3.511      6.409
REMARK  13 active torsions:
REMARK  status: ('A' for Active; 'I' for Inactive)
REMARK    1  A    between atoms: N1_5  and  C4_6 
REMARK    2  A    between atoms: C5_8  and  C6_9 
REMARK    3  A    between atoms: C6_9  and  O3_10 
REMARK    4  A    between atoms: O3_10  and  P1_11 
REMARK    5  A    between atoms: P1_11  and  O6_14 
REMARK    6  A    between atoms: O6_14  and  P2_15 
REMARK    7  A    between atoms: P2_15  and  O9_18 
REMARK    8  A    between atoms: O9_18  and  C7_19 
REMARK    9  A    between atoms: C9_22  and  O11_23 
REMARK   10  A    between atoms: C10_25  and  O12_26 
REMARK   11  A    between atoms: C11_28  and  O13_29 
REMARK   12  A    between atoms: C12_31  and  O14_32 
REMARK   13  A    between atoms: C13_34  and  O15_35 
ROOT
HETATM    1  O3  UNL     1      16.569 -10.829  27.232  1.00  0.00    -0.287 OA
ENDROOT
BRANCH   1   2
HETATM    2  C6  UNL     1      17.452  -9.972  27.842  1.00  0.00     0.216 C 
BRANCH   2   3
HETATM    3  C5  UNL     1      18.423  -9.342  26.879  1.00  0.00     0.180 C 
HETATM    4  O2  UNL     1      19.464 -10.256  26.673  1.00  0.00    -0.353 OA
HETATM    5  C4  UNL     1      20.081  -9.714  25.544  1.00  0.00     0.263 C 
HETATM    6  C13 UNL     1      18.904  -9.601  24.592  1.00  0.00     0.198 C 
HETATM    7  C12 UNL     1      17.830  -9.057  25.542  1.00  0.00     0.182 C 
BRANCH   5   8
HETATM    8  N1  UNL     1      21.130 -10.553  25.034  1.00  0.00    -0.280 N 
HETATM    9  C3  UNL     1      20.871 -11.536  24.142  1.00  0.00     0.104 A 
HETATM   10  C2  UNL     1      21.955 -12.292  23.710  1.00  0.00     0.092 A 
HETATM   11  C1  UNL     1      23.228 -12.031  24.188  1.00  0.00     0.250 A 
HETATM   12  O1  UNL     1      24.231 -12.704  23.811  1.00  0.00    -0.268 OA
HETATM   13  N2  UNL     1      23.449 -11.040  25.079  1.00  0.00    -0.275 N 
HETATM   14  C14 UNL     1      22.385 -10.326  25.479  1.00  0.00     0.331 A 
ATOM     15  H2  UNL     1      24.384 -10.842  25.433  1.00  0.00     0.173 HD
HETATM   16  O16 UNL     1      22.591  -9.389  26.322  1.00  0.00    -0.246 OA
ENDBRANCH   5   8
BRANCH   6  17
HETATM   17  O15 UNL     1      19.173  -8.733  23.563  1.00  0.00    -0.388 OA
ATOM     18  H15 UNL     1      20.048  -8.867  23.218  1.00  0.00     0.210 HD
ENDBRANCH   6  17
BRANCH   7  19
HETATM   19  O14 UNL     1      17.639  -7.698  25.310  1.00  0.00    -0.390 OA
ATOM     20  H14 UNL     1      17.765  -7.456  24.400  1.00  0.00     0.210 HD
ENDBRANCH   7  19
ENDBRANCH   2   3
ENDBRANCH   1   2
BRANCH   1  21
HETATM   21  P1  UNL     1      15.406 -11.230  28.339  1.00  0.00     0.417 P 
HETATM   22  O4  UNL     1      14.179 -10.236  28.698  1.00  0.00    -0.624 OA
HETATM   23  O5  UNL     1      15.630 -12.623  29.243  1.00  0.00    -0.624 OA
BRANCH  21  24
HETATM   24  O6  UNL     1      14.692 -12.056  27.272  1.00  0.00    -0.180 OA
BRANCH  24  25
HETATM   25  P2  UNL     1      15.169 -12.462  25.876  1.00  0.00     0.420 P 
HETATM   26  O7  UNL     1      15.208 -14.029  26.365  1.00  0.00    -0.624 OA
HETATM   27  O8  UNL     1      13.733 -11.839  25.326  1.00  0.00    -0.624 OA
BRANCH  25  28
HETATM   28  O9  UNL     1      15.495 -12.806  24.414  1.00  0.00    -0.256 OA
BRANCH  28  29
HETATM   29  C7  UNL     1      15.548 -14.095  23.956  1.00  0.00     0.303 C 
HETATM   30  O10 UNL     1      14.311 -14.532  23.435  1.00  0.00    -0.355 OA
HETATM   31  C8  UNL     1      14.409 -15.820  22.954  1.00  0.00     0.205 C 
HETATM   32  C9  UNL     1      15.132 -15.831  21.625  1.00  0.00     0.173 C 
HETATM   33  C10 UNL     1      16.062 -14.638  21.616  1.00  0.00     0.182 C 
HETATM   34  C11 UNL     1      16.649 -14.395  23.003  1.00  0.00     0.205 C 
BRANCH  32  35
HETATM   35  O11 UNL     1      14.255 -15.684  20.567  1.00  0.00    -0.391 OA
ATOM     36  H11 UNL     1      14.667 -15.251  19.828  1.00  0.00     0.210 HD
ENDBRANCH  32  35
BRANCH  33  37
HETATM   37  O12 UNL     1      17.102 -14.806  20.719  1.00  0.00    -0.390 OA
ATOM     38  H12 UNL     1      17.693 -14.063  20.723  1.00  0.00     0.210 HD
ENDBRANCH  33  37
BRANCH  34  39
HETATM   39  O13 UNL     1      17.574 -13.377  22.860  1.00  0.00    -0.388 OA
ATOM     40  H13 UNL     1      18.126 -13.455  22.091  1.00  0.00     0.210 HD
ENDBRANCH  34  39
ENDBRANCH  28  29
ENDBRANCH  25  28
ENDBRANCH  24  25
ENDBRANCH  21  24
ENDBRANCH   1  21
TORSDOF 13
ENDMDL
