MODEL 3
REMARK VINA RESULT: -7.234056956      1.610      6.142
REMARK  6 active torsions:
REMARK  status: ('A' for Active; 'I' for Inactive)
REMARK    1  A    between atoms: O1_2  and  C2_3 
REMARK    2  A    between atoms: C5_8  and  N2_9 
REMARK    3  A    between atoms: N2_9  and  C7_11 
REMARK    4  A    between atoms: C12_18  and  N4_19 
REMARK    5  A    between atoms: N4_19  and  C13_21 
REMARK    6  A    between atoms: C21_30  and  O2_31 
ROOT
HETATM    1  C2  UNL     1      20.039 -14.167  -0.881  1.00  0.00     0.103 A 
HETATM    2  C3  UNL     1      20.736 -13.020  -1.159  1.00  0.00     0.070 A 
HETATM    3  C4  UNL     1      21.417 -12.876  -2.366  1.00  0.00     0.066 A 
HETATM    4  N1  UNL     1      22.099 -11.760  -2.643  1.00  0.00    -0.191 N 
ATOM      5  H1  UNL     1      22.102 -11.020  -1.942  1.00  0.00     0.184 HD
HETATM    6  C5  UNL     1      22.785 -11.543  -3.787  1.00  0.00     0.682 A 
HETATM    7  N3  UNL     1      22.748 -12.548  -4.671  1.00  0.00    -0.176 N 
ATOM      8  H3  UNL     1      23.253 -12.425  -5.548  1.00  0.00     0.186 HD
HETATM    9  C12 UNL     1      22.088 -13.712  -4.484  1.00  0.00     0.130 A 
HETATM   10  C19 UNL     1      21.401 -13.893  -3.304  1.00  0.00     0.038 A 
HETATM   11  C20 UNL     1      20.699 -15.068  -3.041  1.00  0.00     0.057 A 
HETATM   12  C21 UNL     1      20.032 -15.183  -1.836  1.00  0.00     0.102 A 
ENDROOT
BRANCH   9  13
HETATM   13  N4  UNL     1      22.110 -14.716  -5.492  1.00  0.00    -0.370 N 
ATOM     14  H4  UNL     1      21.244 -15.149  -5.813  1.00  0.00     0.161 HD
BRANCH  13  15
HETATM   15  C13 UNL     1      23.396 -15.114  -6.057  1.00  0.00     0.086 C 
HETATM   16  C14 UNL     1      23.604 -16.622  -5.970  1.00  0.00     0.055 C 
HETATM   17  C15 UNL     1      23.202 -17.268  -7.292  1.00  0.00     0.274 C 
HETATM   18  N5  UNL     1      24.124 -16.945  -8.342  1.00  0.00     0.084 N 
HETATM   19  C16 UNL     1      25.230 -17.874  -8.296  1.00  0.00     0.309 C 
HETATM   20  C17 UNL     1      24.544 -15.564  -8.204  1.00  0.00     0.274 C 
HETATM   21  C18 UNL     1      23.476 -14.732  -7.508  1.00  0.00     0.055 C 
ENDBRANCH  13  15
ENDBRANCH   9  13
BRANCH   6  22
HETATM   22  N2  UNL     1      23.492 -10.332  -4.022  1.00  0.00    -0.217 N 
HETATM   23  C6  UNL     1      22.781  -9.093  -3.857  1.00  0.00     0.169 C 
BRANCH  22  24
HETATM   24  C7  UNL     1      24.853 -10.363  -4.406  1.00  0.00     0.101 C 
HETATM   25  C8  UNL     1      25.734 -10.931  -3.304  1.00  0.00     0.026 C 
HETATM   26  C9  UNL     1      27.119 -10.555  -3.787  1.00  0.00     0.002 C 
HETATM   27  C10 UNL     1      26.894  -9.118  -4.250  1.00  0.00     0.002 C 
HETATM   28  C11 UNL     1      25.464  -9.014  -4.674  1.00  0.00     0.026 C 
ENDBRANCH  22  24
ENDBRANCH   6  22
BRANCH  12  29
HETATM   29  O2  UNL     1      19.335 -16.358  -1.581  1.00  0.00    -0.353 OA
HETATM   30  C22 UNL     1      19.995 -17.408  -0.914  1.00  0.00     0.210 C 
ENDBRANCH  12  29
BRANCH   1  31
HETATM   31  O1  UNL     1      19.351 -14.338   0.312  1.00  0.00    -0.353 OA
HETATM   32  C1  UNL     1      19.513 -13.431   1.381  1.00  0.00     0.210 C 
ENDBRANCH   1  31
TORSDOF 6
ENDMDL
