MODEL 1
REMARK VINA RESULT: -8.410543938      0.000      0.000
REMARK  6 active torsions:
REMARK  status: ('A' for Active; 'I' for Inactive)
REMARK    1  A    between atoms: O1_2  and  C2_3 
REMARK    2  A    between atoms: C5_8  and  N2_9 
REMARK    3  A    between atoms: N2_9  and  C7_11 
REMARK    4  A    between atoms: C12_18  and  N4_19 
REMARK    5  A    between atoms: N4_19  and  C13_21 
REMARK    6  A    between atoms: C21_30  and  O2_31 
ROOT
HETATM    1  C2  UNL     1      19.512 -15.464  -1.067  1.00  0.00     0.103 A 
HETATM    2  C3  UNL     1      20.054 -15.670  -2.309  1.00  0.00     0.070 A 
HETATM    3  C4  UNL     1      20.872 -14.707  -2.898  1.00  0.00     0.066 A 
HETATM    4  N1  UNL     1      21.403 -14.902  -4.110  1.00  0.00    -0.191 N 
ATOM      5  H1  UNL     1      21.190 -15.778  -4.585  1.00  0.00     0.184 HD
HETATM    6  C5  UNL     1      22.203 -14.020  -4.748  1.00  0.00     0.682 A 
HETATM    7  N3  UNL     1      22.450 -12.888  -4.077  1.00  0.00    -0.176 N 
ATOM      8  H3  UNL     1      23.049 -12.194  -4.523  1.00  0.00     0.186 HD
HETATM    9  C12 UNL     1      21.961 -12.599  -2.851  1.00  0.00     0.130 A 
HETATM   10  C19 UNL     1      21.149 -13.525  -2.235  1.00  0.00     0.038 A 
HETATM   11  C20 UNL     1      20.608 -13.296  -0.972  1.00  0.00     0.057 A 
HETATM   12  C21 UNL     1      19.800 -14.268  -0.412  1.00  0.00     0.102 A 
ENDROOT
BRANCH   9  13
HETATM   13  N4  UNL     1      22.288 -11.364  -2.223  1.00  0.00    -0.370 N 
ATOM     14  H4  UNL     1      21.976 -11.166  -1.273  1.00  0.00     0.161 HD
BRANCH  13  15
HETATM   15  C13 UNL     1      23.080 -10.389  -2.967  1.00  0.00     0.086 C 
HETATM   16  C14 UNL     1      22.221  -9.232  -3.465  1.00  0.00     0.055 C 
HETATM   17  C15 UNL     1      22.320  -8.067  -2.487  1.00  0.00     0.274 C 
HETATM   18  N5  UNL     1      23.616  -7.453  -2.522  1.00  0.00     0.084 N 
HETATM   19  C16 UNL     1      23.644  -6.478  -3.588  1.00  0.00     0.309 C 
HETATM   20  C17 UNL     1      24.629  -8.480  -2.673  1.00  0.00     0.274 C 
HETATM   21  C18 UNL     1      24.156  -9.807  -2.096  1.00  0.00     0.055 C 
ENDBRANCH  13  15
ENDBRANCH   9  13
BRANCH   6  22
HETATM   22  N2  UNL     1      22.738 -14.286  -6.038  1.00  0.00    -0.217 N 
HETATM   23  C6  UNL     1      23.193 -13.171  -6.824  1.00  0.00     0.169 C 
BRANCH  22  24
HETATM   24  C7  UNL     1      22.814 -15.614  -6.518  1.00  0.00     0.101 C 
HETATM   25  C8  UNL     1      24.041 -16.335  -5.983  1.00  0.00     0.026 C 
HETATM   26  C9  UNL     1      24.094 -17.562  -6.870  1.00  0.00     0.002 C 
HETATM   27  C10 UNL     1      23.808 -16.952  -8.240  1.00  0.00     0.002 C 
HETATM   28  C11 UNL     1      22.967 -15.738  -8.010  1.00  0.00     0.026 C 
ENDBRANCH  22  24
ENDBRANCH   6  22
BRANCH  12  29
HETATM   29  O2  UNL     1      19.265 -14.031   0.848  1.00  0.00    -0.353 OA
HETATM   30  C22 UNL     1      19.784 -12.972   1.619  1.00  0.00     0.210 C 
ENDBRANCH  12  29
BRANCH   1  31
HETATM   31  O1  UNL     1      18.695 -16.405  -0.457  1.00  0.00    -0.353 OA
HETATM   32  C1  UNL     1      18.956 -17.786  -0.583  1.00  0.00     0.210 C 
ENDBRANCH   1  31
TORSDOF 6
ENDMDL
