MODEL 6
REMARK VINA RESULT: -6.896933699      2.765      6.272
REMARK  6 active torsions:
REMARK  status: ('A' for Active; 'I' for Inactive)
REMARK    1  A    between atoms: O1_2  and  C2_3 
REMARK    2  A    between atoms: C5_8  and  N2_9 
REMARK    3  A    between atoms: N2_9  and  C7_11 
REMARK    4  A    between atoms: C12_18  and  N4_19 
REMARK    5  A    between atoms: N4_19  and  C13_21 
REMARK    6  A    between atoms: C21_30  and  O2_31 
ROOT
HETATM    1  C2  UNL     1      23.916  -8.633  -3.803  1.00  0.00     0.103 A 
HETATM    2  C3  UNL     1      24.395  -9.679  -4.549  1.00  0.00     0.070 A 
HETATM    3  C4  UNL     1      23.918 -10.974  -4.350  1.00  0.00     0.066 A 
HETATM    4  N1  UNL     1      24.382 -11.998  -5.073  1.00  0.00    -0.191 N 
ATOM      5  H1  UNL     1      25.095 -11.798  -5.775  1.00  0.00     0.184 HD
HETATM    6  C5  UNL     1      23.974 -13.278  -4.941  1.00  0.00     0.682 A 
HETATM    7  N3  UNL     1      23.038 -13.482  -4.006  1.00  0.00    -0.176 N 
ATOM      8  H3  UNL     1      22.701 -14.436  -3.873  1.00  0.00     0.186 HD
HETATM    9  C12 UNL     1      22.508 -12.516  -3.225  1.00  0.00     0.130 A 
HETATM   10  C19 UNL     1      22.951 -11.222  -3.392  1.00  0.00     0.038 A 
HETATM   11  C20 UNL     1      22.451 -10.174  -2.622  1.00  0.00     0.057 A 
HETATM   12  C21 UNL     1      22.942  -8.900  -2.842  1.00  0.00     0.102 A 
ENDROOT
BRANCH   9  13
HETATM   13  N4  UNL     1      21.513 -12.840  -2.261  1.00  0.00    -0.370 N 
ATOM     14  H4  UNL     1      20.995 -12.105  -1.780  1.00  0.00     0.161 HD
BRANCH  13  15
HETATM   15  C13 UNL     1      21.247 -14.248  -1.975  1.00  0.00     0.086 C 
HETATM   16  C14 UNL     1      20.764 -14.447  -0.543  1.00  0.00     0.055 C 
HETATM   17  C15 UNL     1      19.240 -14.502  -0.524  1.00  0.00     0.274 C 
HETATM   18  N5  UNL     1      18.745 -15.705  -1.128  1.00  0.00     0.084 N 
HETATM   19  C16 UNL     1      18.732 -16.756  -0.138  1.00  0.00     0.309 C 
HETATM   20  C17 UNL     1      19.558 -16.031  -2.284  1.00  0.00     0.274 C 
HETATM   21  C18 UNL     1      20.180 -14.780  -2.888  1.00  0.00     0.055 C 
ENDBRANCH  13  15
ENDBRANCH   9  13
BRANCH   6  22
HETATM   22  N2  UNL     1      24.506 -14.324  -5.743  1.00  0.00    -0.217 N 
HETATM   23  C6  UNL     1      25.903 -14.271  -6.084  1.00  0.00     0.169 C 
BRANCH  22  24
HETATM   24  C7  UNL     1      23.674 -15.380  -6.183  1.00  0.00     0.101 C 
HETATM   25  C8  UNL     1      24.443 -16.686  -6.308  1.00  0.00     0.026 C 
HETATM   26  C9  UNL     1      23.474 -17.545  -7.092  1.00  0.00     0.002 C 
HETATM   27  C10 UNL     1      22.994 -16.560  -8.155  1.00  0.00     0.002 C 
HETATM   28  C11 UNL     1      23.091 -15.192  -7.558  1.00  0.00     0.026 C 
ENDBRANCH  22  24
ENDBRANCH   6  22
BRANCH  12  29
HETATM   29  O2  UNL     1      22.438  -7.861  -2.070  1.00  0.00    -0.353 OA
HETATM   30  C22 UNL     1      23.002  -7.622  -0.802  1.00  0.00     0.210 C 
ENDBRANCH  12  29
BRANCH   1  31
HETATM   31  O1  UNL     1      24.372  -7.335  -3.979  1.00  0.00    -0.353 OA
HETATM   32  C1  UNL     1      25.639  -6.937  -3.500  1.00  0.00     0.210 C 
ENDBRANCH   1  31
TORSDOF 6
ENDMDL
