MODEL 5
REMARK VINA RESULT: -7.091538657      1.354      1.609
REMARK  6 active torsions:
REMARK  status: ('A' for Active; 'I' for Inactive)
REMARK    1  A    between atoms: O1_2  and  C2_3 
REMARK    2  A    between atoms: C5_8  and  N2_9 
REMARK    3  A    between atoms: N2_9  and  C7_11 
REMARK    4  A    between atoms: C12_18  and  N4_19 
REMARK    5  A    between atoms: N4_19  and  C13_21 
REMARK    6  A    between atoms: C21_30  and  O2_31 
ROOT
HETATM    1  C2  UNL     1      19.565 -14.940  -1.380  1.00  0.00     0.103 A 
HETATM    2  C3  UNL     1      20.123 -15.409  -2.542  1.00  0.00     0.070 A 
HETATM    3  C4  UNL     1      21.132 -14.695  -3.186  1.00  0.00     0.066 A 
HETATM    4  N1  UNL     1      21.679 -15.146  -4.319  1.00  0.00    -0.191 N 
ATOM      5  H1  UNL     1      21.334 -16.029  -4.693  1.00  0.00     0.184 HD
HETATM    6  C5  UNL     1      22.658 -14.515  -5.004  1.00  0.00     0.682 A 
HETATM    7  N3  UNL     1      23.072 -13.360  -4.468  1.00  0.00    -0.176 N 
ATOM      8  H3  UNL     1      23.810 -12.851  -4.953  1.00  0.00     0.186 HD
HETATM    9  C12 UNL     1      22.582 -12.822  -3.329  1.00  0.00     0.130 A 
HETATM   10  C19 UNL     1      21.585 -13.497  -2.661  1.00  0.00     0.038 A 
HETATM   11  C20 UNL     1      21.032 -13.003  -1.483  1.00  0.00     0.057 A 
HETATM   12  C21 UNL     1      20.033 -13.733  -0.864  1.00  0.00     0.102 A 
ENDROOT
BRANCH   9  13
HETATM   13  N4  UNL     1      23.097 -11.588  -2.843  1.00  0.00    -0.370 N 
ATOM     14  H4  UNL     1      22.613 -11.077  -2.105  1.00  0.00     0.161 HD
BRANCH  13  15
HETATM   15  C13 UNL     1      24.334 -11.068  -3.420  1.00  0.00     0.086 C 
HETATM   16  C14 UNL     1      24.299  -9.549  -3.546  1.00  0.00     0.055 C 
HETATM   17  C15 UNL     1      24.993  -8.923  -2.341  1.00  0.00     0.274 C 
HETATM   18  N5  UNL     1      26.409  -9.147  -2.369  1.00  0.00     0.084 N 
HETATM   19  C16 UNL     1      27.030  -8.124  -3.179  1.00  0.00     0.309 C 
HETATM   20  C17 UNL     1      26.674 -10.487  -2.857  1.00  0.00     0.274 C 
HETATM   21  C18 UNL     1      25.510 -11.420  -2.555  1.00  0.00     0.055 C 
ENDBRANCH  13  15
ENDBRANCH   9  13
BRANCH   6  22
HETATM   22  N2  UNL     1      23.200 -15.047  -6.205  1.00  0.00    -0.217 N 
HETATM   23  C6  UNL     1      23.043 -14.285  -7.414  1.00  0.00     0.169 C 
BRANCH  22  24
HETATM   24  C7  UNL     1      23.872 -16.292  -6.194  1.00  0.00     0.101 C 
HETATM   25  C8  UNL     1      25.296 -16.165  -6.712  1.00  0.00     0.026 C 
HETATM   26  C9  UNL     1      25.680 -17.614  -6.927  1.00  0.00     0.002 C 
HETATM   27  C10 UNL     1      24.418 -18.163  -7.588  1.00  0.00     0.002 C 
HETATM   28  C11 UNL     1      23.272 -17.341  -7.091  1.00  0.00     0.026 C 
ENDBRANCH  22  24
ENDBRANCH   6  22
BRANCH  12  29
HETATM   29  O2  UNL     1      19.486 -13.232   0.311  1.00  0.00    -0.353 OA
HETATM   30  C22 UNL     1      20.243 -13.305   1.497  1.00  0.00     0.210 C 
ENDBRANCH  12  29
BRANCH   1  31
HETATM   31  O1  UNL     1      18.560 -15.629  -0.718  1.00  0.00    -0.353 OA
HETATM   32  C1  UNL     1      18.712 -16.992  -0.383  1.00  0.00     0.210 C 
ENDBRANCH   1  31
TORSDOF 6
ENDMDL
