MODEL 2
REMARK VINA RESULT: -7.465242210      1.048      1.432
REMARK  6 active torsions:
REMARK  status: ('A' for Active; 'I' for Inactive)
REMARK    1  A    between atoms: O1_2  and  C2_3 
REMARK    2  A    between atoms: C5_8  and  N2_9 
REMARK    3  A    between atoms: N2_9  and  C7_11 
REMARK    4  A    between atoms: C12_18  and  N4_19 
REMARK    5  A    between atoms: N4_19  and  C13_21 
REMARK    6  A    between atoms: C21_30  and  O2_31 
ROOT
HETATM    1  C2  UNL     1      19.633 -15.469  -1.066  1.00  0.00     0.103 A 
HETATM    2  C3  UNL     1      20.250 -15.706  -2.267  1.00  0.00     0.070 A 
HETATM    3  C4  UNL     1      21.045 -14.729  -2.865  1.00  0.00     0.066 A 
HETATM    4  N1  UNL     1      21.648 -14.954  -4.037  1.00  0.00    -0.191 N 
ATOM      5  H1  UNL     1      21.507 -15.863  -4.476  1.00  0.00     0.184 HD
HETATM    6  C5  UNL     1      22.431 -14.061  -4.681  1.00  0.00     0.682 A 
HETATM    7  N3  UNL     1      22.582 -12.885  -4.059  1.00  0.00    -0.176 N 
ATOM      8  H3  UNL     1      23.166 -12.182  -4.511  1.00  0.00     0.186 HD
HETATM    9  C12 UNL     1      22.015 -12.563  -2.876  1.00  0.00     0.130 A 
HETATM   10  C19 UNL     1      21.223 -13.502  -2.252  1.00  0.00     0.038 A 
HETATM   11  C20 UNL     1      20.605 -13.240  -1.031  1.00  0.00     0.057 A 
HETATM   12  C21 UNL     1      19.823 -14.228  -0.461  1.00  0.00     0.102 A 
ENDROOT
BRANCH   9  13
HETATM   13  N4  UNL     1      22.243 -11.283  -2.298  1.00  0.00    -0.370 N 
ATOM     14  H4  UNL     1      21.843 -11.043  -1.391  1.00  0.00     0.161 HD
BRANCH  13  15
HETATM   15  C13 UNL     1      23.060 -10.319  -3.031  1.00  0.00     0.086 C 
HETATM   16  C14 UNL     1      22.247  -9.100  -3.451  1.00  0.00     0.055 C 
HETATM   17  C15 UNL     1      22.442  -7.983  -2.431  1.00  0.00     0.274 C 
HETATM   18  N5  UNL     1      23.766  -7.437  -2.489  1.00  0.00     0.084 N 
HETATM   19  C16 UNL     1      23.811  -6.421  -3.515  1.00  0.00     0.309 C 
HETATM   20  C17 UNL     1      24.718  -8.508  -2.717  1.00  0.00     0.274 C 
HETATM   21  C18 UNL     1      24.194  -9.831  -2.176  1.00  0.00     0.055 C 
ENDBRANCH  13  15
ENDBRANCH   9  13
BRANCH   6  22
HETATM   22  N2  UNL     1      23.046 -14.361  -5.926  1.00  0.00    -0.217 N 
HETATM   23  C6  UNL     1      22.219 -14.885  -6.980  1.00  0.00     0.169 C 
BRANCH  22  24
HETATM   24  C7  UNL     1      24.432 -14.144  -6.109  1.00  0.00     0.101 C 
HETATM   25  C8  UNL     1      24.871 -14.484  -7.524  1.00  0.00     0.026 C 
HETATM   26  C9  UNL     1      26.379 -14.507  -7.386  1.00  0.00     0.002 C 
HETATM   27  C10 UNL     1      26.547 -15.269  -6.074  1.00  0.00     0.002 C 
HETATM   28  C11 UNL     1      25.324 -15.005  -5.256  1.00  0.00     0.026 C 
ENDBRANCH  22  24
ENDBRANCH   6  22
BRANCH  12  29
HETATM   29  O2  UNL     1      19.210 -13.959   0.757  1.00  0.00    -0.353 OA
HETATM   30  C22 UNL     1      19.809 -13.027   1.627  1.00  0.00     0.210 C 
ENDBRANCH  12  29
BRANCH   1  31
HETATM   31  O1  UNL     1      18.838 -16.423  -0.448  1.00  0.00    -0.353 OA
HETATM   32  C1  UNL     1      19.071 -17.801  -0.641  1.00  0.00     0.210 C 
ENDBRANCH   1  31
TORSDOF 6
ENDMDL
