MODEL 4
REMARK VINA RESULT: -7.129053431      1.390      6.651
REMARK  6 active torsions:
REMARK  status: ('A' for Active; 'I' for Inactive)
REMARK    1  A    between atoms: O1_2  and  C2_3 
REMARK    2  A    between atoms: C5_8  and  N2_9 
REMARK    3  A    between atoms: N2_9  and  C7_11 
REMARK    4  A    between atoms: C12_18  and  N4_19 
REMARK    5  A    between atoms: N4_19  and  C13_21 
REMARK    6  A    between atoms: C21_30  and  O2_31 
ROOT
HETATM    1  C2  UNL     1      20.127 -14.138  -0.994  1.00  0.00     0.103 A 
HETATM    2  C3  UNL     1      20.775 -12.943  -1.173  1.00  0.00     0.070 A 
HETATM    3  C4  UNL     1      21.426 -12.657  -2.372  1.00  0.00     0.066 A 
HETATM    4  N1  UNL     1      22.061 -11.495  -2.552  1.00  0.00    -0.191 N 
ATOM      5  H1  UNL     1      22.051 -10.826  -1.783  1.00  0.00     0.184 HD
HETATM    6  C5  UNL     1      22.715 -11.143  -3.680  1.00  0.00     0.682 A 
HETATM    7  N3  UNL     1      22.696 -12.060  -4.657  1.00  0.00    -0.176 N 
ATOM      8  H3  UNL     1      23.178 -11.835  -5.526  1.00  0.00     0.186 HD
HETATM    9  C12 UNL     1      22.084 -13.261  -4.571  1.00  0.00     0.130 A 
HETATM   10  C19 UNL     1      21.428 -13.581  -3.403  1.00  0.00     0.038 A 
HETATM   11  C20 UNL     1      20.776 -14.801  -3.242  1.00  0.00     0.057 A 
HETATM   12  C21 UNL     1      20.138 -15.057  -2.042  1.00  0.00     0.102 A 
ENDROOT
BRANCH   9  13
HETATM   13  N4  UNL     1      22.121 -14.162  -5.672  1.00  0.00    -0.370 N 
ATOM     14  H4  UNL     1      21.268 -14.402  -6.177  1.00  0.00     0.161 HD
BRANCH  13  15
HETATM   15  C13 UNL     1      23.405 -14.738  -6.063  1.00  0.00     0.086 C 
HETATM   16  C14 UNL     1      23.400 -16.258  -5.937  1.00  0.00     0.055 C 
HETATM   17  C15 UNL     1      23.088 -16.878  -7.295  1.00  0.00     0.274 C 
HETATM   18  N5  UNL     1      24.170 -16.704  -8.219  1.00  0.00     0.084 N 
HETATM   19  C16 UNL     1      25.129 -17.767  -8.024  1.00  0.00     0.309 C 
HETATM   20  C17 UNL     1      24.748 -15.386  -8.039  1.00  0.00     0.274 C 
HETATM   21  C18 UNL     1      23.719 -14.406  -7.493  1.00  0.00     0.055 C 
ENDBRANCH  13  15
ENDBRANCH   9  13
BRANCH   6  22
HETATM   22  N2  UNL     1      23.371  -9.889  -3.810  1.00  0.00    -0.217 N 
HETATM   23  C6  UNL     1      24.525  -9.816  -4.665  1.00  0.00     0.169 C 
BRANCH  22  24
HETATM   24  C7  UNL     1      22.889  -8.756  -3.113  1.00  0.00     0.101 C 
HETATM   25  C8  UNL     1      23.083  -7.480  -3.916  1.00  0.00     0.026 C 
HETATM   26  C9  UNL     1      22.827  -6.413  -2.872  1.00  0.00     0.002 C 
HETATM   27  C10 UNL     1      23.597  -6.972  -1.679  1.00  0.00     0.002 C 
HETATM   28  C11 UNL     1      23.601  -8.461  -1.821  1.00  0.00     0.026 C 
ENDBRANCH  22  24
ENDBRANCH   6  22
BRANCH  12  29
HETATM   29  O2  UNL     1      19.490 -16.276  -1.891  1.00  0.00    -0.353 OA
HETATM   30  C22 UNL     1      20.025 -17.222  -0.994  1.00  0.00     0.210 C 
ENDBRANCH  12  29
BRANCH   1  31
HETATM   31  O1  UNL     1      19.471 -14.448   0.188  1.00  0.00    -0.353 OA
HETATM   32  C1  UNL     1      19.624 -13.644   1.338  1.00  0.00     0.210 C 
ENDBRANCH   1  31
TORSDOF 6
ENDMDL
