MODEL 1
REMARK VINA RESULT: -8.230083010      0.000      0.000
REMARK  15 active torsions:
REMARK  status: ('A' for Active; 'I' for Inactive)
REMARK    1  A    between atoms: O1_1  and  C1_3 
REMARK    2  A    between atoms: C1_3  and  C2_4 
REMARK    3  A    between atoms: C3_6  and  O3_7 
REMARK    4  A    between atoms: O3_7  and  C4_8 
REMARK    5  A    between atoms: C5_9  and  O4_10 
REMARK    6  A    between atoms: C6_12  and  C7_13 
REMARK    7  A    between atoms: C7_13  and  O5_14 
REMARK    8  A    between atoms: N1_16  and  C8_17 
REMARK    9  A    between atoms: C8_17  and  C9_18 
REMARK   10  A    between atoms: C9_18  and  P1_19 
REMARK   11  A    between atoms: C10_23  and  C11_24 
REMARK   12  A    between atoms: C11_24  and  O9_25 
REMARK   13  A    between atoms: C12_27  and  O10_28 
REMARK   14  A    between atoms: C13_30  and  O11_31 
REMARK   15  A    between atoms: C14_33  and  O12_34 
ROOT
HETATM    1  C4  UNL     1      25.313 -31.379 283.985  1.00  0.00     0.191 C 
HETATM    2  C5  UNL     1      26.649 -31.782 283.356  1.00  0.00     0.185 C 
HETATM    3  C6  UNL     1      26.830 -30.585 282.424  1.00  0.00     0.278 C 
HETATM    4  N1  UNL     1      25.523 -30.275 281.955  1.00  0.00     0.107 N 
HETATM    5  C10 UNL     1      24.550 -30.847 282.820  1.00  0.00     0.278 C 
ENDROOT
BRANCH   1   6
HETATM    6  O3  UNL     1      24.692 -32.505 284.523  1.00  0.00    -0.348 OA
BRANCH   6   7
HETATM    7  C3  UNL     1      24.860 -32.527 285.903  1.00  0.00     0.292 C 
HETATM    8  O2  UNL     1      23.682 -32.229 286.517  1.00  0.00    -0.348 OA
HETATM    9  C2  UNL     1      22.917 -33.353 286.709  1.00  0.00     0.179 C 
HETATM   10  C14 UNL     1      23.495 -34.113 287.881  1.00  0.00     0.180 C 
HETATM   11  C13 UNL     1      24.927 -34.426 287.552  1.00  0.00     0.183 C 
HETATM   12  C12 UNL     1      25.366 -33.923 286.224  1.00  0.00     0.204 C 
BRANCH   9  13
HETATM   13  C1  UNL     1      21.454 -33.009 286.955  1.00  0.00     0.198 C 
BRANCH  13  14
HETATM   14  O1  UNL     1      21.152 -31.727 286.559  1.00  0.00    -0.398 OA
ATOM     15  H1  UNL     1      21.788 -31.386 285.940  1.00  0.00     0.209 HD
ENDBRANCH  13  14
ENDBRANCH   9  13
BRANCH  10  16
HETATM   16  O12 UNL     1      22.748 -35.208 288.250  1.00  0.00    -0.390 OA
ATOM     17  H12 UNL     1      22.624 -35.285 289.188  1.00  0.00     0.210 HD
ENDBRANCH  10  16
BRANCH  11  18
HETATM   18  O11 UNL     1      25.808 -34.012 288.577  1.00  0.00    -0.390 OA
ATOM     19  H11 UNL     1      25.340 -33.576 289.280  1.00  0.00     0.210 HD
ENDBRANCH  11  18
BRANCH  12  20
HETATM   20  O10 UNL     1      25.092 -34.835 285.207  1.00  0.00    -0.388 OA
ATOM     21  H10 UNL     1      25.569 -35.650 285.313  1.00  0.00     0.210 HD
ENDBRANCH  12  20
ENDBRANCH   6   7
ENDBRANCH   1   6
BRANCH   2  22
HETATM   22  O4  UNL     1      27.661 -31.899 284.275  1.00  0.00    -0.391 OA
ATOM     23  H4  UNL     1      28.061 -32.761 284.279  1.00  0.00     0.210 HD
ENDBRANCH   2  22
BRANCH   5  24
HETATM   24  C11 UNL     1      23.566 -29.810 283.340  1.00  0.00     0.202 C 
BRANCH  24  25
HETATM   25  O9  UNL     1      23.939 -29.505 284.640  1.00  0.00    -0.399 OA
ATOM     26  H9  UNL     1      23.963 -28.558 284.711  1.00  0.00     0.209 HD
ENDBRANCH  24  25
ENDBRANCH   5  24
BRANCH   3  27
HETATM   27  C7  UNL     1      27.831 -30.950 281.383  1.00  0.00     0.202 C 
BRANCH  27  28
HETATM   28  O5  UNL     1      29.124 -30.679 281.891  1.00  0.00    -0.399 OA
ATOM     29  H5  UNL     1      29.432 -29.864 281.511  1.00  0.00     0.209 HD
ENDBRANCH  27  28
ENDBRANCH   3  27
BRANCH   4  30
HETATM   30  C8  UNL     1      25.367 -30.606 280.551  1.00  0.00     0.287 C 
BRANCH  30  31
HETATM   31  C9  UNL     1      24.457 -31.791 280.312  1.00  0.00     0.176 C 
BRANCH  31  32
HETATM   32  P1  UNL     1      25.004 -32.593 278.865  1.00  0.00     0.261 P 
HETATM   33  O6  UNL     1      24.141 -33.848 278.905  1.00  0.00    -0.640 OA
HETATM   34  O7  UNL     1      24.242 -32.239 277.395  1.00  0.00    -0.640 OA
HETATM   35  O8  UNL     1      26.420 -33.416 278.832  1.00  0.00    -0.640 OA
ENDBRANCH  31  32
ENDBRANCH  30  31
ENDBRANCH   4  30
TORSDOF 15
ENDMDL
