MODEL 2
REMARK VINA RESULT: -7.663347602      1.938      3.451
REMARK  15 active torsions:
REMARK  status: ('A' for Active; 'I' for Inactive)
REMARK    1  A    between atoms: O1_1  and  C1_3 
REMARK    2  A    between atoms: C1_3  and  C2_4 
REMARK    3  A    between atoms: C3_6  and  O3_7 
REMARK    4  A    between atoms: O3_7  and  C4_8 
REMARK    5  A    between atoms: C5_9  and  O4_10 
REMARK    6  A    between atoms: C6_12  and  C7_13 
REMARK    7  A    between atoms: C7_13  and  O5_14 
REMARK    8  A    between atoms: N1_16  and  C8_17 
REMARK    9  A    between atoms: C8_17  and  C9_18 
REMARK   10  A    between atoms: C9_18  and  P1_19 
REMARK   11  A    between atoms: C10_23  and  C11_24 
REMARK   12  A    between atoms: C11_24  and  O9_25 
REMARK   13  A    between atoms: C12_27  and  O10_28 
REMARK   14  A    between atoms: C13_30  and  O11_31 
REMARK   15  A    between atoms: C14_33  and  O12_34 
ROOT
HETATM    1  C4  UNL     1      24.203 -32.645 284.400  1.00  0.00     0.191 C 
HETATM    2  C5  UNL     1      24.209 -31.118 284.293  1.00  0.00     0.185 C 
HETATM    3  C6  UNL     1      24.072 -30.998 282.776  1.00  0.00     0.278 C 
HETATM    4  N1  UNL     1      24.841 -32.071 282.245  1.00  0.00     0.107 N 
HETATM    5  C10 UNL     1      25.051 -33.057 283.247  1.00  0.00     0.278 C 
ENDROOT
BRANCH   1   6
HETATM    6  O3  UNL     1      24.775 -33.029 285.612  1.00  0.00    -0.348 OA
BRANCH   6   7
HETATM    7  C3  UNL     1      23.877 -33.803 286.338  1.00  0.00     0.292 C 
HETATM    8  O2  UNL     1      24.380 -35.057 286.509  1.00  0.00    -0.348 OA
HETATM    9  C2  UNL     1      25.172 -35.132 287.629  1.00  0.00     0.179 C 
HETATM   10  C14 UNL     1      24.263 -35.183 288.836  1.00  0.00     0.180 C 
HETATM   11  C13 UNL     1      23.405 -33.950 288.805  1.00  0.00     0.183 C 
HETATM   12  C12 UNL     1      23.669 -33.058 287.645  1.00  0.00     0.204 C 
BRANCH   9  13
HETATM   13  C1  UNL     1      26.092 -36.345 287.593  1.00  0.00     0.198 C 
BRANCH  13  14
HETATM   14  O1  UNL     1      25.421 -37.510 287.883  1.00  0.00    -0.398 OA
ATOM     15  H1  UNL     1      25.753 -38.246 287.382  1.00  0.00     0.209 HD
ENDBRANCH  13  14
ENDBRANCH   9  13
BRANCH  10  16
HETATM   16  O12 UNL     1      24.933 -35.373 290.023  1.00  0.00    -0.390 OA
ATOM     17  H12 UNL     1      25.431 -36.181 290.053  1.00  0.00     0.210 HD
ENDBRANCH  10  16
BRANCH  11  18
HETATM   18  O11 UNL     1      22.030 -34.260 288.913  1.00  0.00    -0.390 OA
ATOM     19  H11 UNL     1      21.806 -35.023 288.393  1.00  0.00     0.210 HD
ENDBRANCH  11  18
BRANCH  12  20
HETATM   20  O10 UNL     1      24.694 -32.153 287.910  1.00  0.00    -0.388 OA
ATOM     21  H10 UNL     1      25.556 -32.534 287.783  1.00  0.00     0.210 HD
ENDBRANCH  12  20
ENDBRANCH   6   7
ENDBRANCH   1   6
BRANCH   2  22
HETATM   22  O4  UNL     1      23.171 -30.528 284.969  1.00  0.00    -0.391 OA
ATOM     23  H4  UNL     1      23.449 -29.800 285.513  1.00  0.00     0.210 HD
ENDBRANCH   2  22
BRANCH   5  24
HETATM   24  C11 UNL     1      24.592 -34.436 282.798  1.00  0.00     0.202 C 
BRANCH  24  25
HETATM   25  O9  UNL     1      23.461 -34.753 283.536  1.00  0.00    -0.399 OA
ATOM     26  H9  UNL     1      22.795 -35.036 282.922  1.00  0.00     0.209 HD
ENDBRANCH  24  25
ENDBRANCH   5  24
BRANCH   3  27
HETATM   27  C7  UNL     1      24.495 -29.627 282.375  1.00  0.00     0.202 C 
BRANCH  27  28
HETATM   28  O5  UNL     1      23.692 -28.690 283.068  1.00  0.00    -0.399 OA
ATOM     29  H5  UNL     1      23.254 -28.138 282.430  1.00  0.00     0.209 HD
ENDBRANCH  27  28
ENDBRANCH   3  27
BRANCH   4  30
HETATM   30  C8  UNL     1      26.046 -31.592 281.592  1.00  0.00     0.287 C 
BRANCH  30  31
HETATM   31  C9  UNL     1      26.501 -32.476 280.451  1.00  0.00     0.176 C 
BRANCH  31  32
HETATM   32  P1  UNL     1      25.198 -32.558 279.297  1.00  0.00     0.261 P 
HETATM   33  O6  UNL     1      25.897 -33.273 278.147  1.00  0.00    -0.640 OA
HETATM   34  O7  UNL     1      24.145 -33.882 279.344  1.00  0.00    -0.640 OA
HETATM   35  O8  UNL     1      24.777 -31.256 278.395  1.00  0.00    -0.640 OA
ENDBRANCH  31  32
ENDBRANCH  30  31
ENDBRANCH   4  30
TORSDOF 15
ENDMDL
