MODEL 8
REMARK VINA RESULT: -7.349460980      2.566      7.563
REMARK  15 active torsions:
REMARK  status: ('A' for Active; 'I' for Inactive)
REMARK    1  A    between atoms: O1_1  and  C1_3 
REMARK    2  A    between atoms: C1_3  and  C2_4 
REMARK    3  A    between atoms: C3_6  and  O3_7 
REMARK    4  A    between atoms: O3_7  and  C4_8 
REMARK    5  A    between atoms: C5_9  and  O4_10 
REMARK    6  A    between atoms: C6_12  and  C7_13 
REMARK    7  A    between atoms: C7_13  and  O5_14 
REMARK    8  A    between atoms: N1_16  and  C8_17 
REMARK    9  A    between atoms: C8_17  and  C9_18 
REMARK   10  A    between atoms: C9_18  and  P1_19 
REMARK   11  A    between atoms: C10_23  and  C11_24 
REMARK   12  A    between atoms: C11_24  and  O9_25 
REMARK   13  A    between atoms: C12_27  and  O10_28 
REMARK   14  A    between atoms: C13_30  and  O11_31 
REMARK   15  A    between atoms: C14_33  and  O12_34 
ROOT
HETATM    1  C4  UNL     1      25.818 -31.455 282.148  1.00  0.00     0.191 C 
HETATM    2  C5  UNL     1      24.383 -30.951 282.322  1.00  0.00     0.185 C 
HETATM    3  C6  UNL     1      24.539 -30.291 283.690  1.00  0.00     0.278 C 
HETATM    4  N1  UNL     1      25.430 -31.135 284.413  1.00  0.00     0.107 N 
HETATM    5  C10 UNL     1      26.154 -31.959 283.509  1.00  0.00     0.278 C 
ENDROOT
BRANCH   1   6
HETATM    6  O3  UNL     1      25.840 -32.484 281.208  1.00  0.00    -0.348 OA
BRANCH   6   7
HETATM    7  C3  UNL     1      25.509 -31.988 279.951  1.00  0.00     0.292 C 
HETATM    8  O2  UNL     1      26.625 -31.508 279.336  1.00  0.00    -0.348 OA
HETATM    9  C2  UNL     1      27.283 -32.495 278.646  1.00  0.00     0.179 C 
HETATM   10  C14 UNL     1      26.520 -32.754 277.366  1.00  0.00     0.180 C 
HETATM   11  C13 UNL     1      25.119 -33.138 277.748  1.00  0.00     0.183 C 
HETATM   12  C12 UNL     1      24.874 -33.154 279.214  1.00  0.00     0.204 C 
BRANCH   9  13
HETATM   13  C1  UNL     1      28.727 -32.114 278.348  1.00  0.00     0.198 C 
BRANCH  13  14
HETATM   14  O1  UNL     1      28.830 -31.323 277.228  1.00  0.00    -0.398 OA
ATOM     15  H1  UNL     1      29.710 -30.983 277.112  1.00  0.00     0.209 HD
ENDBRANCH  13  14
ENDBRANCH   9  13
BRANCH  10  16
HETATM   16  O12 UNL     1      27.141 -33.649 276.525  1.00  0.00    -0.390 OA
ATOM     17  H12 UNL     1      27.066 -34.552 276.809  1.00  0.00     0.210 HD
ENDBRANCH  10  16
BRANCH  11  18
HETATM   18  O11 UNL     1      24.154 -32.354 277.074  1.00  0.00    -0.390 OA
ATOM     19  H11 UNL     1      24.439 -32.136 276.194  1.00  0.00     0.210 HD
ENDBRANCH  11  18
BRANCH  12  20
HETATM   20  O10 UNL     1      25.203 -34.384 279.780  1.00  0.00    -0.388 OA
ATOM     21  H10 UNL     1      24.566 -35.059 279.577  1.00  0.00     0.210 HD
ENDBRANCH  12  20
ENDBRANCH   6   7
ENDBRANCH   1   6
BRANCH   2  22
HETATM   22  O4  UNL     1      24.002 -30.066 281.345  1.00  0.00    -0.391 OA
ATOM     23  H4  UNL     1      24.140 -30.400 280.466  1.00  0.00     0.210 HD
ENDBRANCH   2  22
BRANCH   5  24
HETATM   24  C11 UNL     1      27.659 -31.828 283.697  1.00  0.00     0.202 C 
BRANCH  24  25
HETATM   25  O9  UNL     1      27.980 -30.491 283.518  1.00  0.00    -0.399 OA
ATOM     26  H9  UNL     1      28.914 -30.405 283.666  1.00  0.00     0.209 HD
ENDBRANCH  24  25
ENDBRANCH   5  24
BRANCH   3  27
HETATM   27  C7  UNL     1      23.183 -30.111 284.280  1.00  0.00     0.202 C 
BRANCH  27  28
HETATM   28  O5  UNL     1      22.466 -29.190 283.481  1.00  0.00    -0.399 OA
ATOM     29  H5  UNL     1      22.508 -28.335 283.895  1.00  0.00     0.209 HD
ENDBRANCH  27  28
ENDBRANCH   3  27
BRANCH   4  30
HETATM   30  C8  UNL     1      24.746 -31.845 285.478  1.00  0.00     0.287 C 
BRANCH  30  31
HETATM   31  C9  UNL     1      24.654 -33.336 285.241  1.00  0.00     0.176 C 
BRANCH  31  32
HETATM   32  P1  UNL     1      25.336 -34.133 286.632  1.00  0.00     0.261 P 
HETATM   33  O6  UNL     1      26.785 -33.674 286.527  1.00  0.00    -0.640 OA
HETATM   34  O7  UNL     1      25.302 -33.343 288.128  1.00  0.00    -0.640 OA
HETATM   35  O8  UNL     1      25.710 -35.728 286.600  1.00  0.00    -0.640 OA
ENDBRANCH  31  32
ENDBRANCH  30  31
ENDBRANCH   4  30
TORSDOF 15
ENDMDL
