MODEL 4
REMARK VINA RESULT: -7.541738401      1.623      3.044
REMARK  15 active torsions:
REMARK  status: ('A' for Active; 'I' for Inactive)
REMARK    1  A    between atoms: O1_1  and  C1_3 
REMARK    2  A    between atoms: C1_3  and  C2_4 
REMARK    3  A    between atoms: C3_6  and  O3_7 
REMARK    4  A    between atoms: O3_7  and  C4_8 
REMARK    5  A    between atoms: C5_9  and  O4_10 
REMARK    6  A    between atoms: C6_12  and  C7_13 
REMARK    7  A    between atoms: C7_13  and  O5_14 
REMARK    8  A    between atoms: N1_16  and  C8_17 
REMARK    9  A    between atoms: C8_17  and  C9_18 
REMARK   10  A    between atoms: C9_18  and  P1_19 
REMARK   11  A    between atoms: C10_23  and  C11_24 
REMARK   12  A    between atoms: C11_24  and  O9_25 
REMARK   13  A    between atoms: C12_27  and  O10_28 
REMARK   14  A    between atoms: C13_30  and  O11_31 
REMARK   15  A    between atoms: C14_33  and  O12_34 
ROOT
HETATM    1  C4  UNL     1      25.400 -32.292 283.205  1.00  0.00     0.191 C 
HETATM    2  C5  UNL     1      26.336 -31.082 283.168  1.00  0.00     0.185 C 
HETATM    3  C6  UNL     1      26.244 -30.772 281.675  1.00  0.00     0.278 C 
HETATM    4  N1  UNL     1      26.174 -32.040 281.032  1.00  0.00     0.107 N 
HETATM    5  C10 UNL     1      25.774 -33.033 281.968  1.00  0.00     0.278 C 
ENDROOT
BRANCH   1   6
HETATM    6  O3  UNL     1      25.663 -33.049 284.346  1.00  0.00    -0.348 OA
BRANCH   6   7
HETATM    7  C3  UNL     1      24.478 -33.571 284.854  1.00  0.00     0.292 C 
HETATM    8  O2  UNL     1      24.719 -34.773 285.446  1.00  0.00    -0.348 OA
HETATM    9  C2  UNL     1      25.081 -34.621 286.763  1.00  0.00     0.179 C 
HETATM   10  C14 UNL     1      23.829 -34.325 287.556  1.00  0.00     0.180 C 
HETATM   11  C13 UNL     1      23.208 -33.088 286.971  1.00  0.00     0.183 C 
HETATM   12  C12 UNL     1      23.958 -32.521 285.820  1.00  0.00     0.204 C 
BRANCH   9  13
HETATM   13  C1  UNL     1      25.785 -35.858 287.304  1.00  0.00     0.198 C 
BRANCH  13  14
HETATM   14  O1  UNL     1      26.284 -35.655 288.569  1.00  0.00    -0.398 OA
ATOM     15  H1  UNL     1      27.052 -35.095 288.564  1.00  0.00     0.209 HD
ENDBRANCH  13  14
ENDBRANCH   9  13
BRANCH  10  16
HETATM   16  O12 UNL     1      24.039 -34.261 288.914  1.00  0.00    -0.390 OA
ATOM     17  H12 UNL     1      23.348 -34.665 289.426  1.00  0.00     0.210 HD
ENDBRANCH  10  16
BRANCH  11  18
HETATM   18  O11 UNL     1      21.844 -33.282 286.651  1.00  0.00    -0.390 OA
ATOM     19  H11 UNL     1      21.545 -34.142 286.922  1.00  0.00     0.210 HD
ENDBRANCH  11  18
BRANCH  12  20
HETATM   20  O10 UNL     1      24.955 -31.640 286.235  1.00  0.00    -0.388 OA
ATOM     21  H10 UNL     1      25.586 -31.457 285.549  1.00  0.00     0.210 HD
ENDBRANCH  12  20
ENDBRANCH   6   7
ENDBRANCH   1   6
BRANCH   2  22
HETATM   22  O4  UNL     1      25.903 -30.044 283.954  1.00  0.00    -0.391 OA
ATOM     23  H4  UNL     1      25.336 -29.439 283.491  1.00  0.00     0.210 HD
ENDBRANCH   2  22
BRANCH   5  24
HETATM   24  C11 UNL     1      24.550 -33.803 281.496  1.00  0.00     0.202 C 
BRANCH  24  25
HETATM   25  O9  UNL     1      23.833 -32.962 280.659  1.00  0.00    -0.399 OA
ATOM     26  H9  UNL     1      23.950 -33.280 279.772  1.00  0.00     0.209 HD
ENDBRANCH  24  25
ENDBRANCH   5  24
BRANCH   3  27
HETATM   27  C7  UNL     1      27.402 -29.911 281.303  1.00  0.00     0.202 C 
BRANCH  27  28
HETATM   28  O5  UNL     1      28.289 -29.854 282.404  1.00  0.00    -0.399 OA
ATOM     29  H5  UNL     1      28.733 -29.014 282.390  1.00  0.00     0.209 HD
ENDBRANCH  27  28
ENDBRANCH   3  27
BRANCH   4  30
HETATM   30  C8  UNL     1      27.393 -32.337 280.304  1.00  0.00     0.287 C 
BRANCH  30  31
HETATM   31  C9  UNL     1      27.290 -32.056 278.821  1.00  0.00     0.176 C 
BRANCH  31  32
HETATM   32  P1  UNL     1      26.509 -33.425 278.079  1.00  0.00     0.261 P 
HETATM   33  O6  UNL     1      26.526 -32.991 276.618  1.00  0.00    -0.640 OA
HETATM   34  O7  UNL     1      27.454 -34.743 277.592  1.00  0.00    -0.640 OA
HETATM   35  O8  UNL     1      24.882 -33.610 278.134  1.00  0.00    -0.640 OA
ENDBRANCH  31  32
ENDBRANCH  30  31
ENDBRANCH   4  30
TORSDOF 15
ENDMDL
