MODEL 2
REMARK VINA RESULT: -8.506357543      1.143      1.540
REMARK  9 active torsions:
REMARK  status: ('A' for Active; 'I' for Inactive)
REMARK    1  A    between atoms: O1_2  and  C2_3 
REMARK    2  A    between atoms: C2_3  and  C3_5 
REMARK    3  A    between atoms: C4_6  and  O3_7 
REMARK    4  A    between atoms: C6_10  and  O4_11 
REMARK    5  A    between atoms: C8_15  and  C9_16 
REMARK    6  A    between atoms: C9_16  and  C10_17 
REMARK    7  A    between atoms: C10_17  and  C11_18 
REMARK    8  A    between atoms: N2_23  and  C14_24 
REMARK    9  A    between atoms: C14_24  and  C15_25 
ROOT
HETATM    1  C3  UNL     1      -4.266 -33.758   4.119  1.00  0.00     0.080 A 
HETATM    2  C4  UNL     1      -5.466 -33.711   3.420  1.00  0.00     0.085 A 
HETATM    3  C5  UNL     1      -5.464 -33.503   2.025  1.00  0.00     0.076 A 
HETATM    4  C6  UNL     1      -4.270 -33.354   1.405  1.00  0.00     0.090 A 
HETATM    5  C7  UNL     1      -3.055 -33.397   2.090  1.00  0.00     0.074 A 
HETATM    6 CL1  UNL     1      -1.617 -33.233   1.098  1.00  0.00    -0.081 Cl
HETATM    7  C8  UNL     1      -3.040 -33.596   3.453  1.00  0.00    -0.014 A 
ENDROOT
BRANCH   7   8
HETATM    8  C9  UNL     1      -1.809 -33.609   4.226  1.00  0.00     0.049 C 
BRANCH   8   9
HETATM    9  C10 UNL     1      -1.162 -34.939   4.506  1.00  0.00     0.081 C 
BRANCH   9  10
HETATM   10  C11 UNL     1       0.045 -35.147   3.669  1.00  0.00     0.083 A 
HETATM   11  N1  UNL     1       0.093 -36.025   2.625  1.00  0.00    -0.354 N 
HETATM   12  C12 UNL     1       1.309 -36.007   2.053  1.00  0.00     0.106 A 
ATOM     13  H1  UNL     1      -0.684 -36.611   2.321  1.00  0.00     0.166 HD
HETATM   14  C13 UNL     1       2.055 -35.094   2.750  1.00  0.00     0.109 A 
HETATM   15  N2  UNL     1       1.258 -34.593   3.722  1.00  0.00    -0.341 N 
BRANCH  15  16
HETATM   16  C14 UNL     1       1.674 -33.596   4.679  1.00  0.00     0.168 C 
BRANCH  16  17
HETATM   17  C15 UNL     1       1.602 -32.218   4.195  1.00  0.00    -0.040 A 
HETATM   18  C16 UNL     1       1.973 -31.179   5.015  1.00  0.00     0.009 A 
HETATM   19  C17 UNL     1       1.928 -29.861   4.632  1.00  0.00     0.001 A 
HETATM   20  C18 UNL     1       1.485 -29.606   3.357  1.00  0.00     0.000 A 
HETATM   21  C19 UNL     1       1.108 -30.629   2.518  1.00  0.00     0.001 A 
HETATM   22  C20 UNL     1       1.162 -31.944   2.926  1.00  0.00     0.009 A 
ENDBRANCH  16  17
ENDBRANCH  15  16
ENDBRANCH   9  10
ENDBRANCH   8   9
ENDBRANCH   7   8
BRANCH   1  23
HETATM   23  C2  UNL     1      -4.336 -34.021   5.540  1.00  0.00     0.296 C 
HETATM   24  O2  UNL     1      -4.623 -33.056   6.319  1.00  0.00    -0.259 OA
BRANCH  23  25
HETATM   25  O1  UNL     1      -4.121 -35.220   6.165  1.00  0.00    -0.322 OA
HETATM   26  C1  UNL     1      -3.981 -35.265   7.563  1.00  0.00     0.213 C 
ENDBRANCH  23  25
ENDBRANCH   1  23
BRANCH   2  27
HETATM   27  O3  UNL     1      -6.722 -33.848   3.940  1.00  0.00    -0.360 OA
ATOM     28  H3  UNL     1      -7.517 -34.053   3.462  1.00  0.00     0.217 HD
ENDBRANCH   2  27
BRANCH   4  29
HETATM   29  O4  UNL     1      -4.260 -33.148   0.016  1.00  0.00    -0.359 OA
ATOM     30  H4  UNL     1      -4.700 -33.782  -0.538  1.00  0.00     0.217 HD
ENDBRANCH   4  29
TORSDOF 9
ENDMDL
