MODEL 1
REMARK VINA RESULT: -9.094823057      0.000      0.000
REMARK  9 active torsions:
REMARK  status: ('A' for Active; 'I' for Inactive)
REMARK    1  A    between atoms: O1_2  and  C2_3 
REMARK    2  A    between atoms: C2_3  and  C3_5 
REMARK    3  A    between atoms: C4_6  and  O3_7 
REMARK    4  A    between atoms: C6_10  and  O4_11 
REMARK    5  A    between atoms: C8_15  and  C9_16 
REMARK    6  A    between atoms: C9_16  and  C10_17 
REMARK    7  A    between atoms: C10_17  and  C11_18 
REMARK    8  A    between atoms: N2_23  and  C14_24 
REMARK    9  A    between atoms: C14_24  and  C15_25 
ROOT
HETATM    1  C3  UNL     1      -4.157 -33.422   3.459  1.00  0.00     0.080 A 
HETATM    2  C4  UNL     1      -5.490 -33.602   3.116  1.00  0.00     0.085 A 
HETATM    3  C5  UNL     1      -5.896 -33.483   1.770  1.00  0.00     0.076 A 
HETATM    4  C6  UNL     1      -4.953 -33.192   0.844  1.00  0.00     0.090 A 
HETATM    5  C7  UNL     1      -3.609 -33.008   1.170  1.00  0.00     0.074 A 
HETATM    6 CL1  UNL     1      -2.535 -32.689  -0.181  1.00  0.00    -0.081 Cl
HETATM    7  C8  UNL     1      -3.197 -33.118   2.480  1.00  0.00    -0.014 A 
ENDROOT
BRANCH   7   8
HETATM    8  C9  UNL     1      -1.819 -32.896   2.886  1.00  0.00     0.049 C 
BRANCH   8   9
HETATM    9  C10 UNL     1      -0.749 -33.748   2.259  1.00  0.00     0.081 C 
BRANCH   9  10
HETATM   10  C11 UNL     1      -0.038 -34.566   3.270  1.00  0.00     0.083 A 
HETATM   11  N1  UNL     1      -0.634 -35.565   3.984  1.00  0.00    -0.354 N 
HETATM   12  C12 UNL     1       0.247 -36.130   4.827  1.00  0.00     0.106 A 
ATOM     13  H1  UNL     1      -1.611 -35.843   3.890  1.00  0.00     0.166 HD
HETATM   14  C13 UNL     1       1.436 -35.474   4.645  1.00  0.00     0.109 A 
HETATM   15  N2  UNL     1       1.227 -34.534   3.696  1.00  0.00    -0.341 N 
BRANCH  15  16
HETATM   16  C14 UNL     1       2.241 -33.625   3.218  1.00  0.00     0.168 C 
BRANCH  16  17
HETATM   17  C15 UNL     1       2.026 -32.225   3.584  1.00  0.00    -0.040 A 
HETATM   18  C16 UNL     1       1.893 -31.270   2.604  1.00  0.00     0.009 A 
HETATM   19  C17 UNL     1       1.694 -29.938   2.870  1.00  0.00     0.001 A 
HETATM   20  C18 UNL     1       1.629 -29.579   4.195  1.00  0.00     0.000 A 
HETATM   21  C19 UNL     1       1.759 -30.517   5.193  1.00  0.00     0.001 A 
HETATM   22  C20 UNL     1       1.959 -31.848   4.899  1.00  0.00     0.009 A 
ENDBRANCH  16  17
ENDBRANCH  15  16
ENDBRANCH   9  10
ENDBRANCH   8   9
ENDBRANCH   7   8
BRANCH   1  23
HETATM   23  C2  UNL     1      -3.800 -33.605   4.850  1.00  0.00     0.296 C 
HETATM   24  O2  UNL     1      -4.343 -32.847   5.717  1.00  0.00    -0.259 OA
BRANCH  23  25
HETATM   25  O1  UNL     1      -2.918 -34.521   5.358  1.00  0.00    -0.322 OA
HETATM   26  C1  UNL     1      -3.271 -35.278   6.489  1.00  0.00     0.213 C 
ENDBRANCH  23  25
ENDBRANCH   1  23
BRANCH   2  27
HETATM   27  O3  UNL     1      -6.522 -33.896   3.962  1.00  0.00    -0.360 OA
ATOM     28  H3  UNL     1      -7.264 -34.462   3.782  1.00  0.00     0.217 HD
ENDBRANCH   2  27
BRANCH   4  29
HETATM   29  O4  UNL     1      -5.348 -33.073  -0.498  1.00  0.00    -0.359 OA
ATOM     30  H4  UNL     1      -5.600 -33.860  -0.966  1.00  0.00     0.217 HD
ENDBRANCH   4  29
TORSDOF 9
ENDMDL
