MODEL 14
REMARK VINA RESULT: -7.914708106      4.588      5.790
REMARK  9 active torsions:
REMARK  status: ('A' for Active; 'I' for Inactive)
REMARK    1  A    between atoms: O1_2  and  C2_3 
REMARK    2  A    between atoms: C2_3  and  C3_5 
REMARK    3  A    between atoms: C4_6  and  O3_7 
REMARK    4  A    between atoms: C6_10  and  O4_11 
REMARK    5  A    between atoms: C8_15  and  C9_16 
REMARK    6  A    between atoms: C9_16  and  C10_17 
REMARK    7  A    between atoms: C10_17  and  C11_18 
REMARK    8  A    between atoms: N2_23  and  C14_24 
REMARK    9  A    between atoms: C14_24  and  C15_25 
ROOT
HETATM    1  C3  UNL     1      -0.570 -38.692   3.700  1.00  0.00     0.080 A 
HETATM    2  C4  UNL     1      -1.820 -39.292   3.779  1.00  0.00     0.085 A 
HETATM    3  C5  UNL     1      -2.466 -39.418   5.027  1.00  0.00     0.076 A 
HETATM    4  C6  UNL     1      -1.832 -38.940   6.123  1.00  0.00     0.090 A 
HETATM    5  C7  UNL     1      -0.576 -38.335   6.063  1.00  0.00     0.074 A 
HETATM    6 CL1  UNL     1       0.053 -37.736   7.587  1.00  0.00    -0.081 Cl
HETATM    7  C8  UNL     1       0.070 -38.207   4.853  1.00  0.00    -0.014 A 
ENDROOT
BRANCH   7   8
HETATM    8  C9  UNL     1       1.395 -37.625   4.733  1.00  0.00     0.049 C 
BRANCH   8   9
HETATM    9  C10 UNL     1       1.529 -36.132   4.873  1.00  0.00     0.081 C 
BRANCH   9  10
HETATM   10  C11 UNL     1       2.496 -35.575   3.896  1.00  0.00     0.083 A 
HETATM   11  N1  UNL     1       3.736 -36.104   3.680  1.00  0.00    -0.354 N 
HETATM   12  C12 UNL     1       4.392 -35.395   2.746  1.00  0.00     0.106 A 
ATOM     13  H1  UNL     1       4.111 -36.922   4.160  1.00  0.00     0.166 HD
HETATM   14  C13 UNL     1       3.549 -34.388   2.357  1.00  0.00     0.109 A 
HETATM   15  N2  UNL     1       2.410 -34.528   3.073  1.00  0.00    -0.341 N 
BRANCH  15  16
HETATM   16  C14 UNL     1       1.266 -33.656   2.956  1.00  0.00     0.168 C 
BRANCH  16  17
HETATM   17  C15 UNL     1       1.484 -32.294   3.444  1.00  0.00    -0.040 A 
HETATM   18  C16 UNL     1       1.424 -31.232   2.573  1.00  0.00     0.009 A 
HETATM   19  C17 UNL     1       1.621 -29.929   2.956  1.00  0.00     0.001 A 
HETATM   20  C18 UNL     1       1.890 -29.714   4.287  1.00  0.00     0.000 A 
HETATM   21  C19 UNL     1       1.956 -30.760   5.177  1.00  0.00     0.001 A 
HETATM   22  C20 UNL     1       1.754 -32.060   4.767  1.00  0.00     0.009 A 
ENDBRANCH  16  17
ENDBRANCH  15  16
ENDBRANCH   9  10
ENDBRANCH   8   9
ENDBRANCH   7   8
BRANCH   1  23
HETATM   23  C2  UNL     1       0.016 -38.553   2.384  1.00  0.00     0.296 C 
HETATM   24  O2  UNL     1       0.302 -39.611   1.735  1.00  0.00    -0.259 OA
BRANCH  23  25
HETATM   25  O1  UNL     1       0.311 -37.383   1.736  1.00  0.00    -0.322 OA
HETATM   26  C1  UNL     1       1.439 -37.312   0.900  1.00  0.00     0.213 C 
ENDBRANCH  23  25
ENDBRANCH   1  23
BRANCH   2  27
HETATM   27  O3  UNL     1      -2.549 -39.808   2.745  1.00  0.00    -0.360 OA
ATOM     28  H3  UNL     1      -2.446 -40.663   2.345  1.00  0.00     0.217 HD
ENDBRANCH   2  27
BRANCH   4  29
HETATM   29  O4  UNL     1      -2.469 -39.060   7.369  1.00  0.00    -0.359 OA
ATOM     30  H4  UNL     1      -1.967 -38.871   8.153  1.00  0.00     0.217 HD
ENDBRANCH   4  29
TORSDOF 9
ENDMDL
