MODEL 13
REMARK VINA RESULT: -7.917833756      3.384      5.072
REMARK  9 active torsions:
REMARK  status: ('A' for Active; 'I' for Inactive)
REMARK    1  A    between atoms: O1_2  and  C2_3 
REMARK    2  A    between atoms: C2_3  and  C3_5 
REMARK    3  A    between atoms: C4_6  and  O3_7 
REMARK    4  A    between atoms: C6_10  and  O4_11 
REMARK    5  A    between atoms: C8_15  and  C9_16 
REMARK    6  A    between atoms: C9_16  and  C10_17 
REMARK    7  A    between atoms: C10_17  and  C11_18 
REMARK    8  A    between atoms: N2_23  and  C14_24 
REMARK    9  A    between atoms: C14_24  and  C15_25 
ROOT
HETATM    1  C3  UNL     1      -0.933 -38.898   3.342  1.00  0.00     0.080 A 
HETATM    2  C4  UNL     1      -2.139 -39.457   3.743  1.00  0.00     0.085 A 
HETATM    3  C5  UNL     1      -3.231 -38.625   4.067  1.00  0.00     0.076 A 
HETATM    4  C6  UNL     1      -3.061 -37.286   3.973  1.00  0.00     0.090 A 
HETATM    5  C7  UNL     1      -1.856 -36.706   3.572  1.00  0.00     0.074 A 
HETATM    6 CL1  UNL     1      -1.853 -34.955   3.466  1.00  0.00    -0.081 Cl
HETATM    7  C8  UNL     1      -0.779 -37.505   3.256  1.00  0.00    -0.014 A 
ENDROOT
BRANCH   7   8
HETATM    8  C9  UNL     1       0.512 -36.959   2.873  1.00  0.00     0.049 C 
BRANCH   8   9
HETATM    9  C10 UNL     1       1.375 -36.359   3.950  1.00  0.00     0.081 C 
BRANCH   9  10
HETATM   10  C11 UNL     1       2.495 -35.572   3.379  1.00  0.00     0.083 A 
HETATM   11  N1  UNL     1       3.780 -36.030   3.316  1.00  0.00    -0.354 N 
HETATM   12  C12 UNL     1       4.580 -35.106   2.755  1.00  0.00     0.106 A 
ATOM     13  H1  UNL     1       4.089 -36.943   3.649  1.00  0.00     0.166 HD
HETATM   14  C13 UNL     1       3.784 -34.034   2.452  1.00  0.00     0.109 A 
HETATM   15  N2  UNL     1       2.529 -34.351   2.844  1.00  0.00    -0.341 N 
BRANCH  15  16
HETATM   16  C14 UNL     1       1.389 -33.476   2.698  1.00  0.00     0.168 C 
BRANCH  16  17
HETATM   17  C15 UNL     1       1.552 -32.155   3.304  1.00  0.00    -0.040 A 
HETATM   18  C16 UNL     1       1.797 -32.042   4.652  1.00  0.00     0.009 A 
HETATM   19  C17 UNL     1       1.958 -30.838   5.292  1.00  0.00     0.001 A 
HETATM   20  C18 UNL     1       1.863 -29.710   4.512  1.00  0.00     0.000 A 
HETATM   21  C19 UNL     1       1.618 -29.799   3.161  1.00  0.00     0.001 A 
HETATM   22  C20 UNL     1       1.461 -31.019   2.543  1.00  0.00     0.009 A 
ENDBRANCH  16  17
ENDBRANCH  15  16
ENDBRANCH   9  10
ENDBRANCH   8   9
ENDBRANCH   7   8
BRANCH   1  23
HETATM   23  C2  UNL     1       0.132 -39.809   2.980  1.00  0.00     0.296 C 
HETATM   24  O2  UNL     1       0.045 -40.430   1.872  1.00  0.00    -0.259 OA
BRANCH  23  25
HETATM   25  O1  UNL     1       1.255 -40.092   3.711  1.00  0.00    -0.322 OA
HETATM   26  C1  UNL     1       1.191 -40.099   5.115  1.00  0.00     0.213 C 
ENDBRANCH  23  25
ENDBRANCH   1  23
BRANCH   2  27
HETATM   27  O3  UNL     1      -2.423 -40.788   3.874  1.00  0.00    -0.360 OA
ATOM     28  H3  UNL     1      -2.678 -41.241   4.669  1.00  0.00     0.217 HD
ENDBRANCH   2  27
BRANCH   4  29
HETATM   29  O4  UNL     1      -4.143 -36.450   4.292  1.00  0.00    -0.359 OA
ATOM     30  H4  UNL     1      -4.156 -36.034   5.146  1.00  0.00     0.217 HD
ENDBRANCH   4  29
TORSDOF 9
ENDMDL
