MODEL 12
REMARK VINA RESULT: -7.918181480      2.941      5.035
REMARK  9 active torsions:
REMARK  status: ('A' for Active; 'I' for Inactive)
REMARK    1  A    between atoms: O1_2  and  C2_3 
REMARK    2  A    between atoms: C2_3  and  C3_5 
REMARK    3  A    between atoms: C4_6  and  O3_7 
REMARK    4  A    between atoms: C6_10  and  O4_11 
REMARK    5  A    between atoms: C8_15  and  C9_16 
REMARK    6  A    between atoms: C9_16  and  C10_17 
REMARK    7  A    between atoms: C10_17  and  C11_18 
REMARK    8  A    between atoms: N2_23  and  C14_24 
REMARK    9  A    between atoms: C14_24  and  C15_25 
ROOT
HETATM    1  C3  UNL     1      -2.591 -36.315   5.251  1.00  0.00     0.080 A 
HETATM    2  C4  UNL     1      -1.904 -36.843   6.337  1.00  0.00     0.085 A 
HETATM    3  C5  UNL     1      -2.261 -36.468   7.649  1.00  0.00     0.076 A 
HETATM    4  C6  UNL     1      -3.279 -35.590   7.806  1.00  0.00     0.090 A 
HETATM    5  C7  UNL     1      -3.979 -35.048   6.728  1.00  0.00     0.074 A 
HETATM    6 CL1  UNL     1      -5.297 -33.968   7.142  1.00  0.00    -0.081 Cl
HETATM    7  C8  UNL     1      -3.641 -35.402   5.440  1.00  0.00    -0.014 A 
ENDROOT
BRANCH   7   8
HETATM    8  C9  UNL     1      -4.306 -34.840   4.276  1.00  0.00     0.049 C 
BRANCH   8   9
HETATM    9  C10 UNL     1      -4.112 -33.376   3.987  1.00  0.00     0.081 C 
BRANCH   9  10
HETATM   10  C11 UNL     1      -3.299 -33.161   2.766  1.00  0.00     0.083 A 
HETATM   11  N1  UNL     1      -3.817 -33.189   1.503  1.00  0.00    -0.354 N 
HETATM   12  C12 UNL     1      -2.852 -32.968   0.595  1.00  0.00     0.106 A 
ATOM     13  H1  UNL     1      -4.799 -33.355   1.281  1.00  0.00     0.166 HD
HETATM   14  C13 UNL     1      -1.689 -32.793   1.297  1.00  0.00     0.109 A 
HETATM   15  N2  UNL     1      -1.997 -32.917   2.608  1.00  0.00    -0.341 N 
BRANCH  15  16
HETATM   16  C14 UNL     1      -1.038 -32.800   3.681  1.00  0.00     0.168 C 
BRANCH  16  17
HETATM   17  C15 UNL     1       0.182 -32.072   3.331  1.00  0.00    -0.040 A 
HETATM   18  C16 UNL     1       0.190 -30.698   3.337  1.00  0.00     0.009 A 
HETATM   19  C17 UNL     1       1.294 -29.947   3.017  1.00  0.00     0.001 A 
HETATM   20  C18 UNL     1       2.432 -30.640   2.680  1.00  0.00     0.000 A 
HETATM   21  C19 UNL     1       2.448 -32.016   2.668  1.00  0.00     0.001 A 
HETATM   22  C20 UNL     1       1.326 -32.746   2.993  1.00  0.00     0.009 A 
ENDBRANCH  16  17
ENDBRANCH  15  16
ENDBRANCH   9  10
ENDBRANCH   8   9
ENDBRANCH   7   8
BRANCH   1  23
HETATM   23  C2  UNL     1      -2.205 -36.777   3.935  1.00  0.00     0.296 C 
HETATM   24  O2  UNL     1      -2.623 -37.916   3.548  1.00  0.00    -0.259 OA
BRANCH  23  25
HETATM   25  O1  UNL     1      -1.419 -36.115   3.030  1.00  0.00    -0.322 OA
HETATM   26  C1  UNL     1      -0.029 -36.322   3.028  1.00  0.00     0.213 C 
ENDBRANCH  23  25
ENDBRANCH   1  23
BRANCH   2  27
HETATM   27  O3  UNL     1      -0.866 -37.731   6.298  1.00  0.00    -0.360 OA
ATOM     28  H3  UNL     1       0.061 -37.526   6.321  1.00  0.00     0.217 HD
ENDBRANCH   2  27
BRANCH   4  29
HETATM   29  O4  UNL     1      -3.641 -35.213   9.109  1.00  0.00    -0.359 OA
ATOM     30  H4  UNL     1      -3.551 -35.852   9.806  1.00  0.00     0.217 HD
ENDBRANCH   4  29
TORSDOF 9
ENDMDL
