MODEL 2
REMARK VINA RESULT: -6.715481778      0.083      1.011
REMARK  2 active torsions:
REMARK  status: ('A' for Active; 'I' for Inactive)
REMARK    1  A    between atoms: C1_2  and  C2_4 
REMARK    2  A    between atoms: C5_7  and  O3_8 
ROOT
HETATM    1  C2  UNL     1       0.133  71.024  22.230  1.00  0.00     0.041 A 
HETATM    2  C3  UNL     1       1.386  70.572  22.576  1.00  0.00     0.021 A 
HETATM    3  C4  UNL     1       1.785  70.518  23.905  1.00  0.00     0.037 A 
HETATM    4  C5  UNL     1       0.936  70.918  24.915  1.00  0.00     0.065 A 
HETATM    5  C6  UNL     1      -0.317  71.370  24.567  1.00  0.00     0.037 A 
HETATM    6  C7  UNL     1      -0.699  71.418  23.248  1.00  0.00     0.021 A 
ENDROOT
BRANCH   1   7
HETATM    7  C1  UNL     1      -0.256  71.069  20.825  1.00  0.00     0.209 C 
HETATM    8  O1  UNL     1       0.210  70.265  19.983  1.00  0.00    -0.644 OA
HETATM    9  O2  UNL     1      -1.165  72.013  20.365  1.00  0.00    -0.644 OA
ENDBRANCH   1   7
BRANCH   4  10
HETATM   10  O3  UNL     1       1.371  70.849  26.229  1.00  0.00    -0.361 OA
ATOM     11  H3  UNL     1       1.096  71.519  26.843  1.00  0.00     0.217 HD
ENDBRANCH   4  10
TORSDOF 2
ENDMDL
