MODEL 1
REMARK VINA RESULT: -6.748391272      0.000      0.000
REMARK  2 active torsions:
REMARK  status: ('A' for Active; 'I' for Inactive)
REMARK    1  A    between atoms: C1_2  and  C2_4 
REMARK    2  A    between atoms: C5_7  and  O3_8 
ROOT
HETATM    1  C2  UNL     1       0.099  71.074  22.248  1.00  0.00     0.041 A 
HETATM    2  C3  UNL     1       1.324  70.539  22.577  1.00  0.00     0.021 A 
HETATM    3  C4  UNL     1       1.746  70.478  23.898  1.00  0.00     0.037 A 
HETATM    4  C5  UNL     1       0.950  70.953  24.918  1.00  0.00     0.065 A 
HETATM    5  C6  UNL     1      -0.275  71.489  24.587  1.00  0.00     0.037 A 
HETATM    6  C7  UNL     1      -0.681  71.543  23.276  1.00  0.00     0.021 A 
ENDROOT
BRANCH   1   7
HETATM    7  C1  UNL     1      -0.316  71.124  20.851  1.00  0.00     0.209 C 
HETATM    8  O1  UNL     1      -1.128  71.983  20.432  1.00  0.00    -0.644 OA
HETATM    9  O2  UNL     1       0.178  70.214  19.926  1.00  0.00    -0.644 OA
ENDBRANCH   1   7
BRANCH   4  10
HETATM   10  O3  UNL     1       1.407  70.875  26.224  1.00  0.00    -0.361 OA
ATOM     11  H3  UNL     1       0.993  70.265  26.823  1.00  0.00     0.217 HD
ENDBRANCH   4  10
TORSDOF 2
ENDMDL
