MODEL 3
REMARK VINA RESULT: -6.699922370      0.069      1.491
REMARK  2 active torsions:
REMARK  status: ('A' for Active; 'I' for Inactive)
REMARK    1  A    between atoms: C1_2  and  C2_4 
REMARK    2  A    between atoms: C5_7  and  O3_8 
ROOT
HETATM    1  C2  UNL     1       0.166  71.031  22.221  1.00  0.00     0.041 A 
HETATM    2  C3  UNL     1      -0.650  71.470  23.240  1.00  0.00     0.021 A 
HETATM    3  C4  UNL     1      -0.234  71.412  24.563  1.00  0.00     0.037 A 
HETATM    4  C5  UNL     1       1.007  70.911  24.893  1.00  0.00     0.065 A 
HETATM    5  C6  UNL     1       1.822  70.473  23.873  1.00  0.00     0.037 A 
HETATM    6  C7  UNL     1       1.398  70.536  22.568  1.00  0.00     0.021 A 
ENDROOT
BRANCH   1   7
HETATM    7  C1  UNL     1      -0.300  71.105  20.840  1.00  0.00     0.209 C 
HETATM    8  O1  UNL     1      -1.099  71.993  20.458  1.00  0.00    -0.644 OA
HETATM    9  O2  UNL     1       0.130  70.188  19.892  1.00  0.00    -0.644 OA
ENDBRANCH   1   7
BRANCH   4  10
HETATM   10  O3  UNL     1       1.385  70.870  26.226  1.00  0.00    -0.361 OA
ATOM     11  H3  UNL     1       2.141  70.352  26.476  1.00  0.00     0.217 HD
ENDBRANCH   4  10
TORSDOF 2
ENDMDL
