MODEL 4
REMARK VINA RESULT: -6.672398090      0.111      1.801
REMARK  2 active torsions:
REMARK  status: ('A' for Active; 'I' for Inactive)
REMARK    1  A    between atoms: C1_2  and  C2_4 
REMARK    2  A    between atoms: C5_7  and  O3_8 
ROOT
HETATM    1  C2  UNL     1       0.218  70.995  22.234  1.00  0.00     0.041 A 
HETATM    2  C3  UNL     1      -0.629  71.414  23.234  1.00  0.00     0.021 A 
HETATM    3  C4  UNL     1      -0.243  71.361  24.567  1.00  0.00     0.037 A 
HETATM    4  C5  UNL     1       1.000  70.885  24.925  1.00  0.00     0.065 A 
HETATM    5  C6  UNL     1       1.846  70.466  23.923  1.00  0.00     0.037 A 
HETATM    6  C7  UNL     1       1.452  70.524  22.608  1.00  0.00     0.021 A 
ENDROOT
BRANCH   1   7
HETATM    7  C1  UNL     1      -0.216  71.063  20.843  1.00  0.00     0.209 C 
HETATM    8  O1  UNL     1       0.209  70.262  19.976  1.00  0.00    -0.644 OA
HETATM    9  O2  UNL     1      -1.125  72.026  20.425  1.00  0.00    -0.644 OA
ENDBRANCH   1   7
BRANCH   4  10
HETATM   10  O3  UNL     1       1.348  70.848  26.266  1.00  0.00    -0.361 OA
ATOM     11  H3  UNL     1       2.265  70.779  26.504  1.00  0.00     0.217 HD
ENDBRANCH   4  10
TORSDOF 2
ENDMDL
