MODEL 5
REMARK VINA RESULT: -6.042831037      1.037      1.821
REMARK  2 active torsions:
REMARK  status: ('A' for Active; 'I' for Inactive)
REMARK    1  A    between atoms: C1_2  and  C2_4 
REMARK    2  A    between atoms: C5_7  and  O3_8 
ROOT
HETATM    1  C2  UNL     1      -0.110  71.496  22.478  1.00  0.00     0.041 A 
HETATM    2  C3  UNL     1      -1.139  71.998  23.243  1.00  0.00     0.021 A 
HETATM    3  C4  UNL     1      -0.936  72.355  24.569  1.00  0.00     0.037 A 
HETATM    4  C5  UNL     1       0.302  72.215  25.158  1.00  0.00     0.065 A 
HETATM    5  C6  UNL     1       1.330  71.712  24.392  1.00  0.00     0.037 A 
HETATM    6  C7  UNL     1       1.116  71.363  23.081  1.00  0.00     0.021 A 
ENDROOT
BRANCH   1   7
HETATM    7  C1  UNL     1      -0.355  71.130  21.088  1.00  0.00     0.209 C 
HETATM    8  O1  UNL     1      -1.474  71.294  20.547  1.00  0.00    -0.644 OA
HETATM    9  O2  UNL     1       0.652  70.581  20.306  1.00  0.00    -0.644 OA
ENDBRANCH   1   7
BRANCH   4  10
HETATM   10  O3  UNL     1       0.464  72.583  26.484  1.00  0.00    -0.361 OA
ATOM     11  H3  UNL     1       1.081  72.104  27.025  1.00  0.00     0.217 HD
ENDBRANCH   4  10
TORSDOF 2
ENDMDL
