MODEL 1
REMARK VINA RESULT: -9.079776018      0.000      0.000
REMARK  7 active torsions:
REMARK  status: ('A' for Active; 'I' for Inactive)
REMARK       I    between atoms: C1_2  and  N1_3 
REMARK    1  A    between atoms: C1_2  and  C10_13 
REMARK    2  A    between atoms: N1_3  and  C2_5 
REMARK    3  A    between atoms: C2_5  and  C3_6 
REMARK    4  A    between atoms: C3_6  and  C4_7 
REMARK    5  A    between atoms: C11_16  and  C12_17 
REMARK       I    between atoms: N3_21  and  C16_22 
REMARK    6  A    between atoms: C16_22  and  C17_24 
REMARK    7  A    between atoms: C24_36  and  O4_37 
ROOT
HETATM    1  C10 UNL     1     -11.005  80.796  15.060  1.00  0.00     0.141 A 
HETATM    2  N2  UNL     1     -10.805  80.396  13.757  1.00  0.00    -0.337 N 
ATOM      3  H2  UNL     1     -11.125  81.021  13.017  1.00  0.00     0.167 HD
HETATM    4  C11 UNL     1     -10.227  79.260  13.393  1.00  0.00     0.108 A 
HETATM    5  N4  UNL     1      -9.812  78.453  14.417  1.00  0.00    -0.309 N 
ATOM      6  H4  UNL     1      -9.361  77.568  14.185  1.00  0.00     0.170 HD
HETATM    7  C23 UNL     1      -9.967  78.766  15.693  1.00  0.00     0.282 A 
HETATM    8  O3  UNL     1      -9.576  78.005  16.635  1.00  0.00    -0.265 OA
HETATM    9  C24 UNL     1     -10.578  79.966  16.060  1.00  0.00     0.167 A 
ENDROOT
BRANCH   4  10
HETATM   10  C12 UNL     1     -10.031  78.866  12.002  1.00  0.00     0.155 C 
HETATM   11  C13 UNL     1      -9.908  77.350  11.880  1.00  0.00     0.035 C 
HETATM   12  C14 UNL     1      -9.367  77.224  10.455  1.00  0.00     0.022 C 
HETATM   13  C15 UNL     1      -8.939  78.621  10.029  1.00  0.00     0.127 C 
HETATM   14  N3  UNL     1      -8.839  79.274  11.346  1.00  0.00    -0.336 N 
HETATM   15  C16 UNL     1      -7.783  80.069  11.742  1.00  0.00     0.257 C 
HETATM   16  O2  UNL     1      -7.737  80.600  12.871  1.00  0.00    -0.267 OA
BRANCH  15  17
HETATM   17  C17 UNL     1      -6.641  80.337  10.845  1.00  0.00     0.075 A 
HETATM   18  C18 UNL     1      -5.584  79.460  10.792  1.00  0.00     0.051 A 
HETATM   19 CL1  UNL     1      -5.661  78.039  11.818  1.00  0.00    -0.083 Cl
HETATM   20  C19 UNL     1      -4.519  79.693   9.970  1.00  0.00     0.025 A 
HETATM   21  C20 UNL     1      -4.543  80.844   9.193  1.00  0.00     0.003 A 
HETATM   22  C21 UNL     1      -5.596  81.723   9.242  1.00  0.00     0.025 A 
HETATM   23  C22 UNL     1      -6.661  81.482  10.071  1.00  0.00     0.051 A 
HETATM   24 CL2  UNL     1      -8.037  82.565  10.181  1.00  0.00    -0.083 Cl
ENDBRANCH  15  17
ENDBRANCH   4  10
BRANCH   1  25
HETATM   25  C1  UNL     1     -11.654  82.072  15.299  1.00  0.00     0.271 C 
HETATM   26  O1  UNL     1     -11.359  82.699  16.396  1.00  0.00    -0.266 OA
HETATM   27  N1  UNL     1     -12.579  82.695  14.446  1.00  0.00    -0.355 N 
ATOM     28  H1  UNL     1     -12.842  82.236  13.574  1.00  0.00     0.162 HD
BRANCH  27  29
HETATM   29  C2  UNL     1     -13.182  84.003  14.782  1.00  0.00     0.127 C 
BRANCH  29  30
HETATM   30  C3  UNL     1     -14.664  83.938  14.924  1.00  0.00     0.058 C 
BRANCH  30  31
HETATM   31  C4  UNL     1     -15.192  84.954  15.880  1.00  0.00    -0.057 A 
HETATM   32  C5  UNL     1     -14.284  85.441  16.820  1.00  0.00     0.007 A 
HETATM   33  C6  UNL     1     -14.656  86.375  17.747  1.00  0.00     0.001 A 
HETATM   34  C7  UNL     1     -15.957  86.829  17.731  1.00  0.00     0.000 A 
HETATM   35  C8  UNL     1     -16.865  86.351  16.803  1.00  0.00     0.001 A 
HETATM   36  C9  UNL     1     -16.485  85.410  15.871  1.00  0.00     0.007 A 
ENDBRANCH  30  31
ENDBRANCH  29  30
ENDBRANCH  27  29
ENDBRANCH   1  25
BRANCH   9  37
HETATM   37  O4  UNL     1     -10.730  80.272  17.385  1.00  0.00    -0.354 OA
ATOM     38  H4  UNL     1     -10.011  80.576  17.925  1.00  0.00     0.218 HD
ENDBRANCH   9  37
TORSDOF 7
ENDMDL
