MODEL 3
REMARK VINA RESULT: -9.065861307      0.037      1.542
REMARK  7 active torsions:
REMARK  status: ('A' for Active; 'I' for Inactive)
REMARK       I    between atoms: C1_2  and  N1_3 
REMARK    1  A    between atoms: C1_2  and  C10_13 
REMARK    2  A    between atoms: N1_3  and  C2_5 
REMARK    3  A    between atoms: C2_5  and  C3_6 
REMARK    4  A    between atoms: C3_6  and  C4_7 
REMARK    5  A    between atoms: C11_16  and  C12_17 
REMARK       I    between atoms: N3_21  and  C16_22 
REMARK    6  A    between atoms: C16_22  and  C17_24 
REMARK    7  A    between atoms: C24_36  and  O4_37 
ROOT
HETATM    1  C10 UNL     1     -11.000  80.790  15.051  1.00  0.00     0.141 A 
HETATM    2  N2  UNL     1     -10.794  80.385  13.751  1.00  0.00    -0.337 N 
ATOM      3  H2  UNL     1     -11.114  81.005  13.006  1.00  0.00     0.167 HD
HETATM    4  C11 UNL     1     -10.210  79.249  13.395  1.00  0.00     0.108 A 
HETATM    5  N4  UNL     1      -9.794  78.450  14.424  1.00  0.00    -0.309 N 
ATOM      6  H4  UNL     1      -9.338  77.566  14.198  1.00  0.00     0.170 HD
HETATM    7  C23 UNL     1      -9.955  78.768  15.698  1.00  0.00     0.282 A 
HETATM    8  O3  UNL     1      -9.564  78.015  16.646  1.00  0.00    -0.265 OA
HETATM    9  C24 UNL     1     -10.573  79.968  16.057  1.00  0.00     0.167 A 
ENDROOT
BRANCH   4  10
HETATM   10  C12 UNL     1     -10.007  78.849  12.007  1.00  0.00     0.155 C 
HETATM   11  C13 UNL     1      -9.871  77.333  11.894  1.00  0.00     0.035 C 
HETATM   12  C14 UNL     1      -9.326  77.204  10.471  1.00  0.00     0.022 C 
HETATM   13  C15 UNL     1      -8.908  78.601  10.038  1.00  0.00     0.127 C 
HETATM   14  N3  UNL     1      -8.817  79.263  11.351  1.00  0.00    -0.336 N 
HETATM   15  C16 UNL     1      -7.769  80.069  11.745  1.00  0.00     0.257 C 
HETATM   16  O2  UNL     1      -7.730  80.607  12.870  1.00  0.00    -0.267 OA
BRANCH  15  17
HETATM   17  C17 UNL     1      -6.627  80.342  10.849  1.00  0.00     0.075 A 
HETATM   18  C18 UNL     1      -6.630  81.458  10.046  1.00  0.00     0.051 A 
HETATM   19 CL1  UNL     1      -8.026  82.516  10.139  1.00  0.00    -0.083 Cl
HETATM   20  C19 UNL     1      -5.583  81.724   9.211  1.00  0.00     0.025 A 
HETATM   21  C20 UNL     1      -4.519  80.832   9.204  1.00  0.00     0.003 A 
HETATM   22  C21 UNL     1      -4.511  79.716  10.003  1.00  0.00     0.025 A 
HETATM   23  C22 UNL     1      -5.566  79.455  10.838  1.00  0.00     0.051 A 
HETATM   24 CL2  UNL     1      -5.618  78.048  11.885  1.00  0.00    -0.083 Cl
ENDBRANCH  15  17
ENDBRANCH   4  10
BRANCH   1  25
HETATM   25  C1  UNL     1     -11.656  82.065  15.281  1.00  0.00     0.271 C 
HETATM   26  O1  UNL     1     -11.366  82.699  16.375  1.00  0.00    -0.266 OA
HETATM   27  N1  UNL     1     -12.582  82.679  14.422  1.00  0.00    -0.355 N 
ATOM     28  H1  UNL     1     -12.840  82.213  13.553  1.00  0.00     0.162 HD
BRANCH  27  29
HETATM   29  C2  UNL     1     -13.191  83.986  14.749  1.00  0.00     0.127 C 
BRANCH  29  30
HETATM   30  C3  UNL     1     -14.672  83.912  14.903  1.00  0.00     0.058 C 
BRANCH  30  31
HETATM   31  C4  UNL     1     -15.201  84.939  15.846  1.00  0.00    -0.057 A 
HETATM   32  C5  UNL     1     -14.297  85.433  16.785  1.00  0.00     0.007 A 
HETATM   33  C6  UNL     1     -14.670  86.377  17.700  1.00  0.00     0.001 A 
HETATM   34  C7  UNL     1     -15.970  86.833  17.675  1.00  0.00     0.000 A 
HETATM   35  C8  UNL     1     -16.876  86.348  16.748  1.00  0.00     0.001 A 
HETATM   36  C9  UNL     1     -16.494  85.397  15.827  1.00  0.00     0.007 A 
ENDBRANCH  30  31
ENDBRANCH  29  30
ENDBRANCH  27  29
ENDBRANCH   1  25
BRANCH   9  37
HETATM   37  O4  UNL     1     -10.731  80.280  17.379  1.00  0.00    -0.354 OA
ATOM     38  H4  UNL     1     -10.366  79.750  18.077  1.00  0.00     0.218 HD
ENDBRANCH   9  37
TORSDOF 7
ENDMDL
