MODEL 2
REMARK VINA RESULT: -9.068062370      2.407      2.759
REMARK  7 active torsions:
REMARK  status: ('A' for Active; 'I' for Inactive)
REMARK       I    between atoms: C1_2  and  N1_3 
REMARK    1  A    between atoms: C1_2  and  C10_13 
REMARK    2  A    between atoms: N1_3  and  C2_5 
REMARK    3  A    between atoms: C2_5  and  C3_6 
REMARK    4  A    between atoms: C3_6  and  C4_7 
REMARK    5  A    between atoms: C11_16  and  C12_17 
REMARK       I    between atoms: N3_21  and  C16_22 
REMARK    6  A    between atoms: C16_22  and  C17_24 
REMARK    7  A    between atoms: C24_36  and  O4_37 
ROOT
HETATM    1  C10 UNL     1     -10.900  80.904  15.514  1.00  0.00     0.141 A 
HETATM    2  N2  UNL     1     -10.772  80.792  14.147  1.00  0.00    -0.337 N 
ATOM      3  H2  UNL     1     -11.081  81.581  13.578  1.00  0.00     0.167 HD
HETATM    4  C11 UNL     1     -10.278  79.737  13.516  1.00  0.00     0.108 A 
HETATM    5  N4  UNL     1      -9.875  78.704  14.317  1.00  0.00    -0.309 N 
ATOM      6  H4  UNL     1      -9.487  77.870  13.875  1.00  0.00     0.170 HD
HETATM    7  C23 UNL     1      -9.964  78.734  15.637  1.00  0.00     0.282 A 
HETATM    8  O3  UNL     1      -9.586  77.765  16.369  1.00  0.00    -0.265 OA
HETATM    9  C24 UNL     1     -10.488  79.853  16.287  1.00  0.00     0.167 A 
ENDROOT
BRANCH   4  10
HETATM   10  C12 UNL     1     -10.157  79.650  12.065  1.00  0.00     0.155 C 
HETATM   11  C13 UNL     1     -10.206  78.197  11.602  1.00  0.00     0.035 C 
HETATM   12  C14 UNL     1      -9.714  78.342  10.161  1.00  0.00     0.022 C 
HETATM   13  C15 UNL     1      -9.141  79.746  10.038  1.00  0.00     0.127 C 
HETATM   14  N3  UNL     1      -8.941  80.070  11.462  1.00  0.00    -0.336 N 
HETATM   15  C16 UNL     1      -7.795  80.640  11.976  1.00  0.00     0.257 C 
HETATM   16  O2  UNL     1      -7.666  80.894  13.191  1.00  0.00    -0.267 OA
BRANCH  15  17
HETATM   17  C17 UNL     1      -6.649  80.985  11.110  1.00  0.00     0.075 A 
HETATM   18  C18 UNL     1      -5.678  80.049  10.845  1.00  0.00     0.051 A 
HETATM   19 CL1  UNL     1      -5.867  78.462  11.569  1.00  0.00    -0.083 Cl
HETATM   20  C19 UNL     1      -4.612  80.351  10.048  1.00  0.00     0.025 A 
HETATM   21  C20 UNL     1      -4.545  81.633   9.517  1.00  0.00     0.003 A 
HETATM   22  C21 UNL     1      -5.511  82.571   9.778  1.00  0.00     0.025 A 
HETATM   23  C22 UNL     1      -6.579  82.260  10.580  1.00  0.00     0.051 A 
HETATM   24 CL2  UNL     1      -7.848  83.413  10.954  1.00  0.00    -0.083 Cl
ENDBRANCH  15  17
ENDBRANCH   4  10
BRANCH   1  25
HETATM   25  C1  UNL     1     -11.462  82.127  16.058  1.00  0.00     0.271 C 
HETATM   26  O1  UNL     1     -12.234  82.827  15.285  1.00  0.00    -0.266 OA
HETATM   27  N1  UNL     1     -11.246  82.625  17.353  1.00  0.00    -0.355 N 
ATOM     28  H1  UNL     1     -10.643  82.107  17.992  1.00  0.00     0.162 HD
BRANCH  27  29
HETATM   29  C2  UNL     1     -11.872  83.884  17.811  1.00  0.00     0.127 C 
BRANCH  29  30
HETATM   30  C3  UNL     1     -11.651  84.145  19.262  1.00  0.00     0.058 C 
BRANCH  30  31
HETATM   31  C4  UNL     1     -12.695  83.515  20.122  1.00  0.00    -0.057 A 
HETATM   32  C5  UNL     1     -12.447  82.204  20.526  1.00  0.00     0.007 A 
HETATM   33  C6  UNL     1     -13.333  81.527  21.315  1.00  0.00     0.001 A 
HETATM   34  C7  UNL     1     -14.486  82.173  21.707  1.00  0.00     0.000 A 
HETATM   35  C8  UNL     1     -14.741  83.474  21.310  1.00  0.00     0.001 A 
HETATM   36  C9  UNL     1     -13.844  84.153  20.515  1.00  0.00     0.007 A 
ENDBRANCH  30  31
ENDBRANCH  29  30
ENDBRANCH  27  29
ENDBRANCH   1  25
BRANCH   9  37
HETATM   37  O4  UNL     1     -10.572  79.866  17.652  1.00  0.00    -0.354 OA
ATOM     38  H4  UNL     1     -10.099  79.252  18.199  1.00  0.00     0.218 HD
ENDBRANCH   9  37
TORSDOF 7
ENDMDL
