MODEL 4
REMARK VINA RESULT: -9.604762378      2.902      6.930
REMARK  5 active torsions:
REMARK  status: ('A' for Active; 'I' for Inactive)
REMARK       I    between atoms: C1_2  and  N1_3 
REMARK    1  A    between atoms: C1_2  and  C11_14 
REMARK    2  A    between atoms: N1_3  and  C2_5 
REMARK    3  A    between atoms: C12_17  and  C13_18 
REMARK       I    between atoms: N3_22  and  C17_23 
REMARK    4  A    between atoms: C17_23  and  C18_25 
REMARK    5  A    between atoms: C24_38  and  O4_39 
ROOT
HETATM    1  C11 UNL     1     130.837 105.690 286.849  1.00  0.00     0.141 A 
HETATM    2  N2  UNL     1     131.042 104.572 286.130  1.00  0.00    -0.337 N 
ATOM      3  H2  UNL     1     130.397 104.357 285.370  1.00  0.00     0.167 HD
HETATM    4  C12 UNL     1     132.061 103.723 286.367  1.00  0.00     0.108 A 
HETATM    5  N5  UNL     1     132.901 104.032 287.377  1.00  0.00    -0.309 N 
ATOM      6  H5  UNL     1     133.677 103.399 287.569  1.00  0.00     0.170 HD
HETATM    7  C23 UNL     1     132.771 105.123 288.142  1.00  0.00     0.282 A 
HETATM    8  O3  UNL     1     133.584 105.362 289.072  1.00  0.00    -0.265 OA
HETATM    9  C24 UNL     1     131.729 105.975 287.888  1.00  0.00     0.167 A 
ENDROOT
BRANCH   4  10
HETATM   10  C13 UNL     1     132.219 102.518 285.523  1.00  0.00     0.155 C 
HETATM   11  C14 UNL     1     133.613 101.951 285.514  1.00  0.00     0.035 C 
HETATM   12  C15 UNL     1     134.330 102.942 284.631  1.00  0.00     0.022 C 
HETATM   13  C16 UNL     1     133.270 103.603 283.788  1.00  0.00     0.127 C 
HETATM   14  N3  UNL     1     132.061 102.914 284.149  1.00  0.00    -0.336 N 
HETATM   15  C17 UNL     1     130.969 102.675 283.295  1.00  0.00     0.258 C 
HETATM   16  O2  UNL     1     129.920 102.078 283.675  1.00  0.00    -0.267 OA
BRANCH  15  17
HETATM   17  C18 UNL     1     131.021 103.125 281.906  1.00  0.00     0.078 A 
HETATM   18  C19 UNL     1     131.309 102.237 280.912  1.00  0.00     0.066 A 
HETATM   19 CL1  UNL     1     131.599 100.559 281.259  1.00  0.00    -0.082 Cl
HETATM   20  C20 UNL     1     131.381 102.613 279.572  1.00  0.00     0.112 A 
HETATM   21  N4  UNL     1     131.159 103.891 279.244  1.00  0.00    -0.372 N 
HETATM   22  C21 UNL     1     130.874 104.777 280.217  1.00  0.00     0.112 A 
ATOM     23  H4  UNL     1     131.205 104.190 278.270  1.00  0.00     0.164 HD
HETATM   24  C22 UNL     1     130.793 104.447 281.549  1.00  0.00     0.066 A 
HETATM   25 CL2  UNL     1     130.420 105.630 282.781  1.00  0.00    -0.082 Cl
ENDBRANCH  15  17
ENDBRANCH   4  10
BRANCH   1  26
HETATM   26  C1  UNL     1     129.734 106.610 286.617  1.00  0.00     0.271 C 
HETATM   27  O1  UNL     1     129.943 107.766 286.166  1.00  0.00    -0.266 OA
HETATM   28  N1  UNL     1     128.395 106.223 286.897  1.00  0.00    -0.350 N 
ATOM     29  H1  UNL     1     128.224 105.286 287.261  1.00  0.00     0.163 HD
BRANCH  28  30
HETATM   30  C2  UNL     1     127.269 107.100 286.689  1.00  0.00     0.093 C 
HETATM   31  C3  UNL     1     125.991 106.607 287.317  1.00  0.00     0.064 C 
HETATM   32  C4  UNL     1     125.523 105.595 286.314  1.00  0.00    -0.050 A 
HETATM   33  C5  UNL     1     124.670 104.515 286.500  1.00  0.00     0.007 A 
HETATM   34  C9  UNL     1     126.075 105.867 285.086  1.00  0.00    -0.050 A 
HETATM   35  C6  UNL     1     124.396 103.722 285.408  1.00  0.00     0.001 A 
HETATM   36  C7  UNL     1     124.943 103.978 284.163  1.00  0.00     0.001 A 
HETATM   37  C8  UNL     1     125.785 105.047 283.983  1.00  0.00     0.007 A 
HETATM   38  C10 UNL     1     126.919 107.077 285.229  1.00  0.00     0.064 C 
ENDBRANCH  28  30
ENDBRANCH   1  26
BRANCH   9  39
HETATM   39  O4  UNL     1     131.504 107.132 288.619  1.00  0.00    -0.354 OA
ATOM     40  H4  UNL     1     131.105 107.035 289.475  1.00  0.00     0.218 HD
ENDBRANCH   9  39
TORSDOF 5
ENDMDL
