MODEL 5
REMARK VINA RESULT: -9.592618979      6.786      9.750
REMARK  5 active torsions:
REMARK  status: ('A' for Active; 'I' for Inactive)
REMARK       I    between atoms: C1_2  and  N1_3 
REMARK    1  A    between atoms: C1_2  and  C11_14 
REMARK    2  A    between atoms: N1_3  and  C2_5 
REMARK    3  A    between atoms: C12_17  and  C13_18 
REMARK       I    between atoms: N3_22  and  C17_23 
REMARK    4  A    between atoms: C17_23  and  C18_25 
REMARK    5  A    between atoms: C24_38  and  O4_39 
ROOT
HETATM    1  C11 UNL     1     133.190 103.116 290.152  1.00  0.00     0.141 A 
HETATM    2  N2  UNL     1     132.796 104.201 289.462  1.00  0.00    -0.337 N 
ATOM      3  H2  UNL     1     132.285 104.932 289.956  1.00  0.00     0.167 HD
HETATM    4  C12 UNL     1     133.044 104.366 288.148  1.00  0.00     0.108 A 
HETATM    5  N5  UNL     1     133.722 103.383 287.519  1.00  0.00    -0.309 N 
ATOM      6  H5  UNL     1     133.918 103.494 286.524  1.00  0.00     0.170 HD
HETATM    7  C23 UNL     1     134.152 102.272 288.128  1.00  0.00     0.282 A 
HETATM    8  O3  UNL     1     134.780 101.387 287.492  1.00  0.00    -0.265 OA
HETATM    9  C24 UNL     1     133.890 102.120 289.464  1.00  0.00     0.167 A 
ENDROOT
BRANCH   4  10
HETATM   10  C13 UNL     1     132.580 105.594 287.466  1.00  0.00     0.155 C 
HETATM   11  C14 UNL     1     131.255 106.110 287.960  1.00  0.00     0.035 C 
HETATM   12  C15 UNL     1     130.301 105.125 287.330  1.00  0.00     0.022 C 
HETATM   13  C16 UNL     1     131.022 104.535 286.146  1.00  0.00     0.127 C 
HETATM   14  N3  UNL     1     132.266 105.254 286.103  1.00  0.00    -0.336 N 
HETATM   15  C17 UNL     1     132.994 105.564 284.940  1.00  0.00     0.258 C 
HETATM   16  O2  UNL     1     134.096 106.185 284.967  1.00  0.00    -0.267 OA
BRANCH  15  17
HETATM   17  C18 UNL     1     132.479 105.163 283.633  1.00  0.00     0.078 A 
HETATM   18  C19 UNL     1     131.655 105.999 282.939  1.00  0.00     0.066 A 
HETATM   19 CL1  UNL     1     131.214 107.558 283.569  1.00  0.00    -0.082 Cl
HETATM   20  C20 UNL     1     131.128 105.664 281.694  1.00  0.00     0.112 A 
HETATM   21  N4  UNL     1     131.440 104.480 281.154  1.00  0.00    -0.372 N 
HETATM   22  C21 UNL     1     132.252 103.646 281.831  1.00  0.00     0.112 A 
ATOM     23  H4  UNL     1     131.067 104.213 280.243  1.00  0.00     0.164 HD
HETATM   24  C22 UNL     1     132.792 103.938 283.060  1.00  0.00     0.066 A 
HETATM   25 CL2  UNL     1     133.843 102.825 283.905  1.00  0.00    -0.082 Cl
ENDBRANCH  15  17
ENDBRANCH   4  10
BRANCH   1  26
HETATM   26  C1  UNL     1     132.918 102.914 291.567  1.00  0.00     0.271 C 
HETATM   27  O1  UNL     1     131.739 102.771 291.983  1.00  0.00    -0.266 OA
HETATM   28  N1  UNL     1     133.980 102.874 292.512  1.00  0.00    -0.350 N 
ATOM     29  H1  UNL     1     134.936 102.987 292.175  1.00  0.00     0.163 HD
BRANCH  28  30
HETATM   30  C2  UNL     1     133.762 102.681 293.924  1.00  0.00     0.093 C 
HETATM   31  C3  UNL     1     133.876 103.947 294.734  1.00  0.00     0.064 C 
HETATM   32  C4  UNL     1     135.363 104.089 294.877  1.00  0.00    -0.050 A 
HETATM   33  C5  UNL     1     136.106 105.235 295.130  1.00  0.00     0.007 A 
HETATM   34  C9  UNL     1     135.966 102.867 294.713  1.00  0.00    -0.050 A 
HETATM   35  C6  UNL     1     137.475 105.102 295.211  1.00  0.00     0.001 A 
HETATM   36  C7  UNL     1     138.102 103.880 295.047  1.00  0.00     0.001 A 
HETATM   37  C8  UNL     1     137.363 102.750 294.797  1.00  0.00     0.007 A 
HETATM   38  C10 UNL     1     134.900 101.867 294.469  1.00  0.00     0.064 C 
ENDBRANCH  28  30
ENDBRANCH   1  26
BRANCH   9  39
HETATM   39  O4  UNL     1     134.291 101.007 290.190  1.00  0.00    -0.354 OA
ATOM     40  H4  UNL     1     133.638 100.338 290.355  1.00  0.00     0.218 HD
ENDBRANCH   9  39
TORSDOF 5
ENDMDL
