MODEL 6
REMARK VINA RESULT: -9.582852945      4.611      7.233
REMARK  5 active torsions:
REMARK  status: ('A' for Active; 'I' for Inactive)
REMARK       I    between atoms: C1_2  and  N1_3 
REMARK    1  A    between atoms: C1_2  and  C11_14 
REMARK    2  A    between atoms: N1_3  and  C2_5 
REMARK    3  A    between atoms: C12_17  and  C13_18 
REMARK       I    between atoms: N3_22  and  C17_23 
REMARK    4  A    between atoms: C17_23  and  C18_25 
REMARK    5  A    between atoms: C24_38  and  O4_39 
ROOT
HETATM    1  C11 UNL     1     133.292 105.226 286.937  1.00  0.00     0.141 A 
HETATM    2  N2  UNL     1     132.127 105.316 286.270  1.00  0.00    -0.337 N 
ATOM      3  H2  UNL     1     131.258 105.283 286.803  1.00  0.00     0.167 HD
HETATM    4  C12 UNL     1     132.054 105.450 284.932  1.00  0.00     0.108 A 
HETATM    5  N5  UNL     1     133.219 105.492 284.251  1.00  0.00    -0.309 N 
ATOM      6  H5  UNL     1     133.180 105.593 283.237  1.00  0.00     0.170 HD
HETATM    7  C23 UNL     1     134.421 105.410 284.833  1.00  0.00     0.282 A 
HETATM    8  O3  UNL     1     135.476 105.455 284.149  1.00  0.00    -0.265 OA
HETATM    9  C24 UNL     1     134.476 105.274 286.195  1.00  0.00     0.167 A 
ENDROOT
BRANCH   4  10
HETATM   10  C13 UNL     1     130.731 105.549 284.278  1.00  0.00     0.155 C 
HETATM   11  C14 UNL     1     130.643 106.621 283.225  1.00  0.00     0.035 C 
HETATM   12  C15 UNL     1     130.572 107.866 284.075  1.00  0.00     0.022 C 
HETATM   13  C16 UNL     1     130.063 107.429 285.425  1.00  0.00     0.127 C 
HETATM   14  N3  UNL     1     129.788 106.028 285.255  1.00  0.00    -0.336 N 
HETATM   15  C17 UNL     1     128.776 105.307 285.915  1.00  0.00     0.258 C 
HETATM   16  O2  UNL     1     128.593 104.067 285.738  1.00  0.00    -0.267 OA
BRANCH  15  17
HETATM   17  C18 UNL     1     127.886 105.993 286.847  1.00  0.00     0.078 A 
HETATM   18  C19 UNL     1     128.192 106.038 288.175  1.00  0.00     0.066 A 
HETATM   19 CL1  UNL     1     129.644 105.306 288.790  1.00  0.00    -0.082 Cl
HETATM   20  C20 UNL     1     127.374 106.669 289.109  1.00  0.00     0.112 A 
HETATM   21  N4  UNL     1     126.247 107.257 288.693  1.00  0.00    -0.372 N 
HETATM   22  C21 UNL     1     125.934 107.220 287.384  1.00  0.00     0.112 A 
ATOM     23  H4  UNL     1     125.633 107.727 289.358  1.00  0.00     0.164 HD
HETATM   24  C22 UNL     1     126.713 106.607 286.431  1.00  0.00     0.066 A 
HETATM   25 CL2  UNL     1     126.269 106.582 284.740  1.00  0.00    -0.082 Cl
ENDBRANCH  15  17
ENDBRANCH   4  10
BRANCH   1  26
HETATM   26  C1  UNL     1     133.389 105.067 288.380  1.00  0.00     0.271 C 
HETATM   27  O1  UNL     1     133.906 105.964 289.094  1.00  0.00    -0.266 OA
HETATM   28  N1  UNL     1     132.901 103.892 289.014  1.00  0.00    -0.350 N 
ATOM     29  H1  UNL     1     132.479 103.165 288.437  1.00  0.00     0.163 HD
BRANCH  28  30
HETATM   30  C2  UNL     1     132.978 103.685 290.439  1.00  0.00     0.093 C 
HETATM   31  C3  UNL     1     134.036 102.694 290.852  1.00  0.00     0.064 C 
HETATM   32  C4  UNL     1     133.351 101.384 290.594  1.00  0.00    -0.050 A 
HETATM   33  C5  UNL     1     133.917 100.137 290.365  1.00  0.00     0.007 A 
HETATM   34  C9  UNL     1     131.989 101.561 290.604  1.00  0.00    -0.050 A 
HETATM   35  C6  UNL     1     133.062  99.079 290.146  1.00  0.00     0.001 A 
HETATM   36  C7  UNL     1     131.687  99.236 290.150  1.00  0.00     0.001 A 
HETATM   37  C8  UNL     1     131.133 100.472 290.378  1.00  0.00     0.007 A 
HETATM   38  C10 UNL     1     131.722 102.992 290.883  1.00  0.00     0.064 C 
ENDBRANCH  28  30
ENDBRANCH   1  26
BRANCH   9  39
HETATM   39  O4  UNL     1     135.670 105.180 286.897  1.00  0.00    -0.354 OA
ATOM     40  H4  UNL     1     136.449 105.522 286.476  1.00  0.00     0.218 HD
ENDBRANCH   9  39
TORSDOF 5
ENDMDL
