MODEL 1
REMARK VINA RESULT: -8.390777243      0.000      0.000
REMARK  10 active torsions:
REMARK  status: ('A' for Active; 'I' for Inactive)
REMARK    1  A    between atoms: O1_2  and  C2_3 
REMARK    2  A    between atoms: C2_3  and  C3_5 
REMARK    3  A    between atoms: C3_5  and  N1_7 
REMARK    4  A    between atoms: N1_7  and  P1_9 
REMARK    5  A    between atoms: P1_9  and  O5_12 
REMARK    6  A    between atoms: O5_12  and  C5_13 
REMARK    7  A    between atoms: C5_13  and  C6_14 
REMARK    8  A    between atoms: C7_16  and  N2_17 
REMARK    9  A    between atoms: C13_30  and  O7_31 
REMARK   10  A    between atoms: C14_33  and  O8_34 
ROOT
HETATM    1  C6  UNL     1     -29.412   5.005 -27.503  1.00  0.00     0.180 C 
HETATM    2  O6  UNL     1     -29.408   4.472 -28.792  1.00  0.00    -0.353 OA
HETATM    3  C7  UNL     1     -29.170   5.569 -29.581  1.00  0.00     0.262 C 
HETATM    4  C13 UNL     1     -30.177   6.580 -29.092  1.00  0.00     0.198 C 
HETATM    5  C14 UNL     1     -30.259   6.256 -27.614  1.00  0.00     0.182 C 
ENDROOT
BRANCH   1   6
HETATM    6  C5  UNL     1     -30.103   4.087 -26.528  1.00  0.00     0.215 C 
BRANCH   6   7
HETATM    7  O5  UNL     1     -30.287   4.635 -25.296  1.00  0.00    -0.293 OA
BRANCH   7   8
HETATM    8  P1  UNL     1     -31.609   4.195 -24.451  1.00  0.00     0.360 P 
HETATM    9  O3  UNL     1     -32.141   2.648 -24.363  1.00  0.00    -0.630 OA
HETATM   10  O4  UNL     1     -30.864   4.072 -23.130  1.00  0.00    -0.630 OA
BRANCH   8  11
HETATM   11  N1  UNL     1     -32.623   5.422 -23.791  1.00  0.00    -0.312 N 
ATOM     12  H1  UNL     1     -33.595   5.234 -23.546  1.00  0.00     0.166 HD
BRANCH  11  13
HETATM   13  C3  UNL     1     -32.062   6.666 -23.610  1.00  0.00     0.183 C 
HETATM   14  C4  UNL     1     -32.364   7.527 -24.844  1.00  0.00     0.043 C 
BRANCH  13  15
HETATM   15  C2  UNL     1     -32.613   7.408 -22.448  1.00  0.00     0.281 C 
HETATM   16  O2  UNL     1     -32.431   7.073 -21.256  1.00  0.00    -0.263 OA
BRANCH  15  17
HETATM   17  O1  UNL     1     -33.372   8.535 -22.688  1.00  0.00    -0.325 OA
HETATM   18  C1  UNL     1     -34.432   8.935 -21.819  1.00  0.00     0.213 C 
ENDBRANCH  15  17
ENDBRANCH  13  15
ENDBRANCH  11  13
ENDBRANCH   8  11
ENDBRANCH   7   8
ENDBRANCH   6   7
ENDBRANCH   1   6
BRANCH   5  19
HETATM   19  O8  UNL     1     -29.719   7.300 -26.862  1.00  0.00    -0.390 OA
ATOM     20  H8  UNL     1     -29.990   8.145 -27.203  1.00  0.00     0.210 HD
ENDBRANCH   5  19
BRANCH   3  21
HETATM   21  N2  UNL     1     -29.423   5.276 -30.979  1.00  0.00    -0.297 N 
HETATM   22  C8  UNL     1     -30.614   5.182 -31.602  1.00  0.00     0.188 A 
HETATM   23  N3  UNL     1     -30.424   4.894 -32.905  1.00  0.00    -0.346 N 
HETATM   24  C9  UNL     1     -29.117   4.800 -33.127  1.00  0.00     0.119 A 
ATOM     25  H3  UNL     1     -31.159   4.770 -33.602  1.00  0.00     0.167 HD
HETATM   26  C10 UNL     1     -28.419   4.526 -34.281  1.00  0.00     0.148 A 
HETATM   27  C12 UNL     1     -28.492   5.039 -31.919  1.00  0.00     0.142 A 
HETATM   28  N4  UNL     1     -29.027   4.275 -35.538  1.00  0.00    -0.080 NA
HETATM   29  N5  UNL     1     -27.080   4.494 -34.209  1.00  0.00    -0.339 N 
HETATM   30  C11 UNL     1     -26.448   4.729 -33.021  1.00  0.00     0.183 A 
ATOM     31  H5  UNL     1     -26.531   4.293 -35.045  1.00  0.00     0.167 HD
HETATM   32  N6  UNL     1     -27.155   4.995 -31.908  1.00  0.00    -0.336 N 
ATOM     33  H6  UNL     1     -26.660   5.167 -31.033  1.00  0.00     0.168 HD
ENDBRANCH   3  21
BRANCH   4  34
HETATM   34  O7  UNL     1     -29.728   7.890 -29.276  1.00  0.00    -0.388 OA
ATOM     35  H7  UNL     1     -29.679   8.365 -28.454  1.00  0.00     0.210 HD
ENDBRANCH   4  34
TORSDOF 10
ENDMDL
