MODEL 6
REMARK VINA RESULT: -7.493919548      2.813      9.766
REMARK  10 active torsions:
REMARK  status: ('A' for Active; 'I' for Inactive)
REMARK    1  A    between atoms: O1_2  and  C2_3 
REMARK    2  A    between atoms: C2_3  and  C3_5 
REMARK    3  A    between atoms: C3_5  and  N1_7 
REMARK    4  A    between atoms: N1_7  and  P1_9 
REMARK    5  A    between atoms: P1_9  and  O5_12 
REMARK    6  A    between atoms: O5_12  and  C5_13 
REMARK    7  A    between atoms: C5_13  and  C6_14 
REMARK    8  A    between atoms: C7_16  and  N2_17 
REMARK    9  A    between atoms: C13_30  and  O7_31 
REMARK   10  A    between atoms: C14_33  and  O8_34 
ROOT
HETATM    1  C6  UNL     1     -30.396   6.668 -25.064  1.00  0.00     0.180 C 
HETATM    2  O6  UNL     1     -31.160   7.635 -24.412  1.00  0.00    -0.353 OA
HETATM    3  C7  UNL     1     -31.598   6.981 -23.289  1.00  0.00     0.262 C 
HETATM    4  C13 UNL     1     -32.159   5.690 -23.829  1.00  0.00     0.198 C 
HETATM    5  C14 UNL     1     -31.243   5.414 -25.004  1.00  0.00     0.182 C 
ENDROOT
BRANCH   1   6
HETATM    6  C5  UNL     1     -30.203   7.003 -26.520  1.00  0.00     0.215 C 
BRANCH   6   7
HETATM    7  O5  UNL     1     -29.693   5.979 -27.256  1.00  0.00    -0.293 OA
BRANCH   7   8
HETATM    8  P1  UNL     1     -30.156   5.848 -28.813  1.00  0.00     0.360 P 
HETATM    9  O3  UNL     1     -31.672   5.419 -29.262  1.00  0.00    -0.630 OA
HETATM   10  O4  UNL     1     -30.471   7.329 -28.963  1.00  0.00    -0.630 OA
BRANCH   8  11
HETATM   11  N1  UNL     1     -28.961   5.954 -30.049  1.00  0.00    -0.312 N 
ATOM     12  H1  UNL     1     -28.416   6.804 -30.192  1.00  0.00     0.166 HD
BRANCH  11  13
HETATM   13  C3  UNL     1     -28.775   4.839 -30.836  1.00  0.00     0.183 C 
HETATM   14  C4  UNL     1     -29.825   4.846 -31.955  1.00  0.00     0.043 C 
BRANCH  13  15
HETATM   15  C2  UNL     1     -27.454   4.796 -31.513  1.00  0.00     0.281 C 
HETATM   16  O2  UNL     1     -26.384   5.164 -30.979  1.00  0.00    -0.263 OA
BRANCH  15  17
HETATM   17  O1  UNL     1     -27.395   4.326 -32.809  1.00  0.00    -0.325 OA
HETATM   18  C1  UNL     1     -26.378   4.741 -33.721  1.00  0.00     0.213 C 
ENDBRANCH  15  17
ENDBRANCH  13  15
ENDBRANCH  11  13
ENDBRANCH   8  11
ENDBRANCH   7   8
ENDBRANCH   6   7
ENDBRANCH   1   6
BRANCH   5  19
HETATM   19  O8  UNL     1     -30.460   4.287 -24.749  1.00  0.00    -0.390 OA
ATOM     20  H8  UNL     1     -30.969   3.603 -24.329  1.00  0.00     0.210 HD
ENDBRANCH   5  19
BRANCH   3  21
HETATM   21  N2  UNL     1     -32.653   7.724 -22.626  1.00  0.00    -0.297 N 
HETATM   22  C8  UNL     1     -32.988   7.700 -21.321  1.00  0.00     0.188 A 
HETATM   23  N3  UNL     1     -34.025   8.532 -21.102  1.00  0.00    -0.346 N 
HETATM   24  C9  UNL     1     -34.363   9.094 -22.258  1.00  0.00     0.119 A 
ATOM     25  H3  UNL     1     -34.473   8.703 -20.202  1.00  0.00     0.167 HD
HETATM   26  C10 UNL     1     -35.350  10.005 -22.560  1.00  0.00     0.148 A 
HETATM   27  C12 UNL     1     -33.503   8.586 -23.212  1.00  0.00     0.142 A 
HETATM   28  N4  UNL     1     -36.250  10.547 -21.608  1.00  0.00    -0.080 NA
HETATM   29  N5  UNL     1     -35.463  10.403 -23.836  1.00  0.00    -0.339 N 
HETATM   30  C11 UNL     1     -34.618   9.909 -24.790  1.00  0.00     0.183 A 
ATOM     31  H5  UNL     1     -36.183  11.078 -24.095  1.00  0.00     0.167 HD
HETATM   32  N6  UNL     1     -33.664   9.020 -24.467  1.00  0.00    -0.336 N 
ATOM     33  H6  UNL     1     -33.046   8.666 -25.197  1.00  0.00     0.168 HD
ENDBRANCH   3  21
BRANCH   4  34
HETATM   34  O7  UNL     1     -32.070   4.655 -22.894  1.00  0.00    -0.388 OA
ATOM     35  H7  UNL     1     -32.923   4.286 -22.694  1.00  0.00     0.210 HD
ENDBRANCH   4  34
TORSDOF 10
ENDMDL
