MODEL 4
REMARK VINA RESULT: -7.557147082      2.844      9.855
REMARK  10 active torsions:
REMARK  status: ('A' for Active; 'I' for Inactive)
REMARK    1  A    between atoms: O1_2  and  C2_3 
REMARK    2  A    between atoms: C2_3  and  C3_5 
REMARK    3  A    between atoms: C3_5  and  N1_7 
REMARK    4  A    between atoms: N1_7  and  P1_9 
REMARK    5  A    between atoms: P1_9  and  O5_12 
REMARK    6  A    between atoms: O5_12  and  C5_13 
REMARK    7  A    between atoms: C5_13  and  C6_14 
REMARK    8  A    between atoms: C7_16  and  N2_17 
REMARK    9  A    between atoms: C13_30  and  O7_31 
REMARK   10  A    between atoms: C14_33  and  O8_34 
ROOT
HETATM    1  C6  UNL     1     -30.682   6.257 -24.955  1.00  0.00     0.180 C 
HETATM    2  O6  UNL     1     -31.516   7.374 -24.934  1.00  0.00    -0.353 OA
HETATM    3  C7  UNL     1     -32.072   7.324 -23.681  1.00  0.00     0.262 C 
HETATM    4  C13 UNL     1     -32.566   5.903 -23.571  1.00  0.00     0.198 C 
HETATM    5  C14 UNL     1     -31.527   5.144 -24.371  1.00  0.00     0.182 C 
ENDROOT
BRANCH   1   6
HETATM    6  C5  UNL     1     -30.333   5.854 -26.364  1.00  0.00     0.215 C 
BRANCH   6   7
HETATM    7  O5  UNL     1     -31.309   6.127 -27.271  1.00  0.00    -0.293 OA
BRANCH   7   8
HETATM    8  P1  UNL     1     -30.876   6.826 -28.678  1.00  0.00     0.360 P 
HETATM    9  O3  UNL     1     -31.904   7.723 -29.585  1.00  0.00    -0.630 OA
HETATM   10  O4  UNL     1     -30.294   8.066 -28.014  1.00  0.00    -0.630 OA
BRANCH   8  11
HETATM   11  N1  UNL     1     -29.341   6.444 -29.362  1.00  0.00    -0.312 N 
ATOM     12  H1  UNL     1     -28.602   7.142 -29.434  1.00  0.00     0.166 HD
BRANCH  11  13
HETATM   13  C3  UNL     1     -29.158   5.154 -29.805  1.00  0.00     0.183 C 
HETATM   14  C4  UNL     1     -30.509   4.600 -30.280  1.00  0.00     0.043 C 
BRANCH  13  15
HETATM   15  C2  UNL     1     -28.239   5.043 -30.965  1.00  0.00     0.281 C 
HETATM   16  O2  UNL     1     -27.078   5.510 -30.983  1.00  0.00    -0.263 OA
BRANCH  15  17
HETATM   17  O1  UNL     1     -28.683   4.389 -32.096  1.00  0.00    -0.325 OA
HETATM   18  C1  UNL     1     -27.920   4.353 -33.302  1.00  0.00     0.213 C 
ENDBRANCH  15  17
ENDBRANCH  13  15
ENDBRANCH  11  13
ENDBRANCH   8  11
ENDBRANCH   7   8
ENDBRANCH   6   7
ENDBRANCH   1   6
BRANCH   5  19
HETATM   19  O8  UNL     1     -30.772   4.328 -23.526  1.00  0.00    -0.390 OA
ATOM     20  H8  UNL     1     -31.043   4.428 -22.620  1.00  0.00     0.210 HD
ENDBRANCH   5  19
BRANCH   3  21
HETATM   21  N2  UNL     1     -33.196   8.234 -23.567  1.00  0.00    -0.297 N 
HETATM   22  C8  UNL     1     -33.852   8.867 -24.560  1.00  0.00     0.188 A 
HETATM   23  N3  UNL     1     -34.838   9.625 -24.042  1.00  0.00    -0.346 N 
HETATM   24  C9  UNL     1     -34.823   9.486 -22.720  1.00  0.00     0.119 A 
ATOM     25  H3  UNL     1     -35.486  10.207 -24.574  1.00  0.00     0.167 HD
HETATM   26  C10 UNL     1     -35.622  10.047 -21.749  1.00  0.00     0.148 A 
HETATM   27  C12 UNL     1     -33.794   8.614 -22.424  1.00  0.00     0.142 A 
HETATM   28  N4  UNL     1     -36.686  10.945 -22.015  1.00  0.00    -0.080 NA
HETATM   29  N5  UNL     1     -35.374   9.721 -20.471  1.00  0.00    -0.339 N 
HETATM   30  C11 UNL     1     -34.358   8.859 -20.165  1.00  0.00     0.183 A 
ATOM     31  H5  UNL     1     -35.945  10.118 -19.726  1.00  0.00     0.167 HD
HETATM   32  N6  UNL     1     -33.594   8.326 -21.134  1.00  0.00    -0.336 N 
ATOM     33  H6  UNL     1     -32.843   7.685 -20.879  1.00  0.00     0.168 HD
ENDBRANCH   3  21
BRANCH   4  34
HETATM   34  O7  UNL     1     -32.577   5.458 -22.247  1.00  0.00    -0.388 OA
ATOM     35  H7  UNL     1     -33.462   5.339 -21.921  1.00  0.00     0.210 HD
ENDBRANCH   4  34
TORSDOF 10
ENDMDL
