MODEL 5
REMARK VINA RESULT: -7.525656928      2.625      9.561
REMARK  10 active torsions:
REMARK  status: ('A' for Active; 'I' for Inactive)
REMARK    1  A    between atoms: O1_2  and  C2_3 
REMARK    2  A    between atoms: C2_3  and  C3_5 
REMARK    3  A    between atoms: C3_5  and  N1_7 
REMARK    4  A    between atoms: N1_7  and  P1_9 
REMARK    5  A    between atoms: P1_9  and  O5_12 
REMARK    6  A    between atoms: O5_12  and  C5_13 
REMARK    7  A    between atoms: C5_13  and  C6_14 
REMARK    8  A    between atoms: C7_16  and  N2_17 
REMARK    9  A    between atoms: C13_30  and  O7_31 
REMARK   10  A    between atoms: C14_33  and  O8_34 
ROOT
HETATM    1  C6  UNL     1     -30.598   4.870 -25.446  1.00  0.00     0.180 C 
HETATM    2  O6  UNL     1     -31.280   6.077 -25.589  1.00  0.00    -0.353 OA
HETATM    3  C7  UNL     1     -31.705   6.347 -24.313  1.00  0.00     0.262 C 
HETATM    4  C13 UNL     1     -32.357   5.059 -23.877  1.00  0.00     0.198 C 
HETATM    5  C14 UNL     1     -31.508   4.020 -24.583  1.00  0.00     0.182 C 
ENDROOT
BRANCH   1   6
HETATM    6  C5  UNL     1     -30.449   4.158 -26.766  1.00  0.00     0.215 C 
BRANCH   6   7
HETATM    7  O5  UNL     1     -29.546   4.737 -27.602  1.00  0.00    -0.293 OA
BRANCH   7   8
HETATM    8  P1  UNL     1     -30.086   5.338 -29.018  1.00  0.00     0.360 P 
HETATM    9  O3  UNL     1     -31.677   5.453 -29.392  1.00  0.00    -0.630 OA
HETATM   10  O4  UNL     1     -30.034   6.786 -28.554  1.00  0.00    -0.630 OA
BRANCH   8  11
HETATM   11  N1  UNL     1     -28.950   5.673 -30.269  1.00  0.00    -0.312 N 
ATOM     12  H1  UNL     1     -28.469   6.570 -30.325  1.00  0.00     0.166 HD
BRANCH  11  13
HETATM   13  C3  UNL     1     -28.722   4.675 -31.190  1.00  0.00     0.183 C 
HETATM   14  C4  UNL     1     -29.728   4.826 -32.339  1.00  0.00     0.043 C 
BRANCH  13  15
HETATM   15  C2  UNL     1     -27.375   4.732 -31.813  1.00  0.00     0.281 C 
HETATM   16  O2  UNL     1     -26.342   5.102 -31.211  1.00  0.00    -0.263 OA
BRANCH  15  17
HETATM   17  O1  UNL     1     -27.247   4.357 -33.135  1.00  0.00    -0.325 OA
HETATM   18  C1  UNL     1     -26.145   4.777 -33.939  1.00  0.00     0.213 C 
ENDBRANCH  15  17
ENDBRANCH  13  15
ENDBRANCH  11  13
ENDBRANCH   8  11
ENDBRANCH   7   8
ENDBRANCH   6   7
ENDBRANCH   1   6
BRANCH   5  19
HETATM   19  O8  UNL     1     -30.776   3.283 -23.650  1.00  0.00    -0.390 OA
ATOM     20  H8  UNL     1     -30.296   2.579 -24.070  1.00  0.00     0.210 HD
ENDBRANCH   5  19
BRANCH   3  21
HETATM   21  N2  UNL     1     -32.689   7.412 -24.301  1.00  0.00    -0.297 N 
HETATM   22  C8  UNL     1     -33.235   8.047 -25.357  1.00  0.00     0.188 A 
HETATM   23  N3  UNL     1     -34.110   8.976 -24.927  1.00  0.00    -0.346 N 
HETATM   24  C9  UNL     1     -34.133   8.947 -23.598  1.00  0.00     0.119 A 
ATOM     25  H3  UNL     1     -34.662   9.597 -25.520  1.00  0.00     0.167 HD
HETATM   26  C10 UNL     1     -34.857   9.693 -22.695  1.00  0.00     0.148 A 
HETATM   27  C12 UNL     1     -33.243   7.966 -23.207  1.00  0.00     0.142 A 
HETATM   28  N4  UNL     1     -35.779  10.706 -23.059  1.00  0.00    -0.080 NA
HETATM   29  N5  UNL     1     -34.675   9.442 -21.390  1.00  0.00    -0.339 N 
HETATM   30  C11 UNL     1     -33.797   8.475 -20.990  1.00  0.00     0.183 A 
ATOM     31  H5  UNL     1     -35.194   9.976 -20.693  1.00  0.00     0.167 HD
HETATM   32  N6  UNL     1     -33.103   7.761 -21.894  1.00  0.00    -0.336 N 
ATOM     33  H6  UNL     1     -32.454   7.044 -21.569  1.00  0.00     0.168 HD
ENDBRANCH   3  21
BRANCH   4  34
HETATM   34  O7  UNL     1     -32.285   4.883 -22.493  1.00  0.00    -0.388 OA
ATOM     35  H7  UNL     1     -32.365   3.968 -22.249  1.00  0.00     0.210 HD
ENDBRANCH   4  34
TORSDOF 10
ENDMDL
