MODEL 20
REMARK VINA RESULT: -6.931386331      1.735      2.162
REMARK  10 active torsions:
REMARK  status: ('A' for Active; 'I' for Inactive)
REMARK    1  A    between atoms: O1_2  and  C2_3 
REMARK    2  A    between atoms: C2_3  and  C3_5 
REMARK    3  A    between atoms: C3_5  and  N1_7 
REMARK    4  A    between atoms: N1_7  and  P1_9 
REMARK    5  A    between atoms: P1_9  and  O5_12 
REMARK    6  A    between atoms: O5_12  and  C5_13 
REMARK    7  A    between atoms: C5_13  and  C6_14 
REMARK    8  A    between atoms: C7_16  and  N2_17 
REMARK    9  A    between atoms: C13_30  and  O7_31 
REMARK   10  A    between atoms: C14_33  and  O8_34 
ROOT
HETATM    1  C6  UNL     1     -29.574   5.576 -26.639  1.00  0.00     0.180 C 
HETATM    2  O6  UNL     1     -29.737   4.967 -27.883  1.00  0.00    -0.353 OA
HETATM    3  C7  UNL     1     -29.253   5.950 -28.735  1.00  0.00     0.262 C 
HETATM    4  C13 UNL     1     -30.061   7.156 -28.308  1.00  0.00     0.198 C 
HETATM    5  C14 UNL     1     -30.050   6.989 -26.782  1.00  0.00     0.182 C 
ENDROOT
BRANCH   1   6
HETATM    6  C5  UNL     1     -30.334   4.835 -25.555  1.00  0.00     0.215 C 
BRANCH   6   7
HETATM    7  O5  UNL     1     -31.361   5.599 -25.139  1.00  0.00    -0.293 OA
BRANCH   7   8
HETATM    8  P1  UNL     1     -31.624   5.826 -23.540  1.00  0.00     0.360 P 
HETATM    9  O3  UNL     1     -31.537   4.439 -22.513  1.00  0.00    -0.630 OA
HETATM   10  O4  UNL     1     -30.154   6.047 -23.179  1.00  0.00    -0.630 OA
BRANCH   8  11
HETATM   11  N1  UNL     1     -32.232   7.226 -22.914  1.00  0.00    -0.312 N 
ATOM     12  H1  UNL     1     -31.968   7.473 -21.960  1.00  0.00     0.166 HD
BRANCH  11  13
HETATM   13  C3  UNL     1     -33.090   8.103 -23.605  1.00  0.00     0.183 C 
HETATM   14  C4  UNL     1     -32.408   8.884 -24.708  1.00  0.00     0.043 C 
BRANCH  13  15
HETATM   15  C2  UNL     1     -33.700   9.077 -22.680  1.00  0.00     0.281 C 
HETATM   16  O2  UNL     1     -34.193  10.133 -23.134  1.00  0.00    -0.263 OA
BRANCH  15  17
HETATM   17  O1  UNL     1     -33.765   8.892 -21.303  1.00  0.00    -0.325 OA
HETATM   18  C1  UNL     1     -34.688   9.587 -20.486  1.00  0.00     0.213 C 
ENDBRANCH  15  17
ENDBRANCH  13  15
ENDBRANCH  11  13
ENDBRANCH   8  11
ENDBRANCH   7   8
ENDBRANCH   6   7
ENDBRANCH   1   6
BRANCH   5  19
HETATM   19  O8  UNL     1     -29.113   7.872 -26.233  1.00  0.00    -0.390 OA
ATOM     20  H8  UNL     1     -28.486   7.396 -25.701  1.00  0.00     0.210 HD
ENDBRANCH   5  19
BRANCH   3  21
HETATM   21  N2  UNL     1     -29.420   5.605 -30.111  1.00  0.00    -0.297 N 
HETATM   22  C8  UNL     1     -30.567   5.523 -30.789  1.00  0.00     0.188 A 
HETATM   23  N3  UNL     1     -30.335   5.170 -32.072  1.00  0.00    -0.346 N 
HETATM   24  C9  UNL     1     -29.026   5.019 -32.228  1.00  0.00     0.119 A 
ATOM     25  H3  UNL     1     -31.042   5.041 -32.795  1.00  0.00     0.167 HD
HETATM   26  C10 UNL     1     -28.269   4.670 -33.324  1.00  0.00     0.148 A 
HETATM   27  C12 UNL     1     -28.450   5.294 -30.994  1.00  0.00     0.142 A 
HETATM   28  N4  UNL     1     -28.804   4.380 -34.602  1.00  0.00    -0.080 NA
HETATM   29  N5  UNL     1     -26.938   4.601 -33.163  1.00  0.00    -0.339 N 
HETATM   30  C11 UNL     1     -26.362   4.869 -31.954  1.00  0.00     0.183 A 
ATOM     31  H5  UNL     1     -26.349   4.346 -33.955  1.00  0.00     0.167 HD
HETATM   32  N6  UNL     1     -27.121   5.208 -30.898  1.00  0.00    -0.336 N 
ATOM     33  H6  UNL     1     -26.672   5.405 -30.003  1.00  0.00     0.168 HD
ENDBRANCH   3  21
BRANCH   4  34
HETATM   34  O7  UNL     1     -29.437   8.357 -28.638  1.00  0.00    -0.388 OA
ATOM     35  H7  UNL     1     -28.763   8.246 -29.298  1.00  0.00     0.210 HD
ENDBRANCH   4  34
TORSDOF 10
ENDMDL
