MODEL 6
REMARK VINA RESULT: -7.208489938      2.722      8.022
REMARK  10 active torsions:
REMARK  status: ('A' for Active; 'I' for Inactive)
REMARK    1  A    between atoms: O1_2  and  C2_3 
REMARK    2  A    between atoms: C2_3  and  C3_5 
REMARK    3  A    between atoms: C3_5  and  N1_7 
REMARK    4  A    between atoms: N1_7  and  P1_9 
REMARK    5  A    between atoms: P1_9  and  O5_12 
REMARK    6  A    between atoms: O5_12  and  C5_13 
REMARK    7  A    between atoms: C5_13  and  C6_14 
REMARK    8  A    between atoms: C7_16  and  N2_17 
REMARK    9  A    between atoms: C13_30  and  O7_31 
REMARK   10  A    between atoms: C14_33  and  O8_34 
ROOT
HETATM    1  C6  UNL     1     -30.301   4.568 -25.334  1.00  0.00     0.180 C 
HETATM    2  O6  UNL     1     -30.969   5.770 -25.568  1.00  0.00    -0.353 OA
HETATM    3  C7  UNL     1     -31.228   6.197 -24.272  1.00  0.00     0.262 C 
HETATM    4  C13 UNL     1     -31.917   4.986 -23.679  1.00  0.00     0.198 C 
HETATM    5  C14 UNL     1     -31.062   3.851 -24.261  1.00  0.00     0.182 C 
ENDROOT
BRANCH   1   6
HETATM    6  C5  UNL     1     -30.196   3.737 -26.598  1.00  0.00     0.215 C 
BRANCH   6   7
HETATM    7  O5  UNL     1     -29.530   4.442 -27.532  1.00  0.00    -0.293 OA
BRANCH   7   8
HETATM    8  P1  UNL     1     -30.285   4.906 -28.908  1.00  0.00     0.360 P 
HETATM    9  O3  UNL     1     -31.844   5.634 -28.755  1.00  0.00    -0.630 OA
HETATM   10  O4  UNL     1     -29.740   6.337 -28.898  1.00  0.00    -0.630 OA
BRANCH   8  11
HETATM   11  N1  UNL     1     -29.769   4.469 -30.413  1.00  0.00    -0.312 N 
ATOM     12  H1  UNL     1     -29.859   3.489 -30.679  1.00  0.00     0.166 HD
BRANCH  11  13
HETATM   13  C3  UNL     1     -29.213   5.357 -31.354  1.00  0.00     0.183 C 
HETATM   14  C4  UNL     1     -29.878   5.303 -32.714  1.00  0.00     0.043 C 
BRANCH  13  15
HETATM   15  C2  UNL     1     -27.777   5.083 -31.548  1.00  0.00     0.281 C 
HETATM   16  O2  UNL     1     -26.944   5.564 -30.749  1.00  0.00    -0.263 OA
BRANCH  15  17
HETATM   17  O1  UNL     1     -27.276   4.306 -32.587  1.00  0.00    -0.325 OA
HETATM   18  C1  UNL     1     -26.202   4.732 -33.405  1.00  0.00     0.213 C 
ENDBRANCH  15  17
ENDBRANCH  13  15
ENDBRANCH  11  13
ENDBRANCH   8  11
ENDBRANCH   7   8
ENDBRANCH   6   7
ENDBRANCH   1   6
BRANCH   5  19
HETATM   19  O8  UNL     1     -30.185   3.388 -23.273  1.00  0.00    -0.390 OA
ATOM     20  H8  UNL     1     -30.457   3.703 -22.419  1.00  0.00     0.210 HD
ENDBRANCH   5  19
BRANCH   3  21
HETATM   21  N2  UNL     1     -32.025   7.382 -24.242  1.00  0.00    -0.297 N 
HETATM   22  C8  UNL     1     -32.353   8.107 -23.170  1.00  0.00     0.188 A 
HETATM   23  N3  UNL     1     -33.119   9.160 -23.527  1.00  0.00    -0.346 N 
HETATM   24  C9  UNL     1     -33.291   9.119 -24.842  1.00  0.00     0.119 A 
ATOM     25  H3  UNL     1     -33.499   9.865 -22.896  1.00  0.00     0.167 HD
HETATM   26  C10 UNL     1     -33.980   9.945 -25.701  1.00  0.00     0.148 A 
HETATM   27  C12 UNL     1     -32.602   8.000 -25.292  1.00  0.00     0.142 A 
HETATM   28  N4  UNL     1     -34.697  11.096 -25.296  1.00  0.00    -0.080 NA
HETATM   29  N5  UNL     1     -33.966   9.633 -27.007  1.00  0.00    -0.339 N 
HETATM   30  C11 UNL     1     -33.292   8.535 -27.460  1.00  0.00     0.183 A 
ATOM     31  H5  UNL     1     -34.466  10.225 -27.670  1.00  0.00     0.167 HD
HETATM   32  N6  UNL     1     -32.626   7.743 -26.602  1.00  0.00    -0.336 N 
ATOM     33  H6  UNL     1     -32.127   6.927 -26.959  1.00  0.00     0.168 HD
ENDBRANCH   3  21
BRANCH   4  34
HETATM   34  O7  UNL     1     -31.828   4.954 -22.289  1.00  0.00    -0.388 OA
ATOM     35  H7  UNL     1     -30.932   5.016 -21.982  1.00  0.00     0.210 HD
ENDBRANCH   4  34
TORSDOF 10
ENDMDL
