MODEL 7
REMARK VINA RESULT: -7.202847866      3.912      7.421
REMARK  10 active torsions:
REMARK  status: ('A' for Active; 'I' for Inactive)
REMARK    1  A    between atoms: O1_2  and  C2_3 
REMARK    2  A    between atoms: C2_3  and  C3_5 
REMARK    3  A    between atoms: C3_5  and  N1_7 
REMARK    4  A    between atoms: N1_7  and  P1_9 
REMARK    5  A    between atoms: P1_9  and  O5_12 
REMARK    6  A    between atoms: O5_12  and  C5_13 
REMARK    7  A    between atoms: C5_13  and  C6_14 
REMARK    8  A    between atoms: C7_16  and  N2_17 
REMARK    9  A    between atoms: C13_30  and  O7_31 
REMARK   10  A    between atoms: C14_33  and  O8_34 
ROOT
HETATM    1  C6  UNL     1     -31.464   9.896 -26.576  1.00  0.00     0.180 C 
HETATM    2  O6  UNL     1     -31.970   8.732 -25.998  1.00  0.00    -0.353 OA
HETATM    3  C7  UNL     1     -30.898   8.328 -25.213  1.00  0.00     0.262 C 
HETATM    4  C13 UNL     1     -29.766   8.312 -26.218  1.00  0.00     0.198 C 
HETATM    5  C14 UNL     1     -30.064   9.591 -27.012  1.00  0.00     0.182 C 
ENDROOT
BRANCH   1   6
HETATM    6  C5  UNL     1     -32.325  10.358 -27.736  1.00  0.00     0.215 C 
BRANCH   6   7
HETATM    7  O5  UNL     1     -31.763   9.951 -28.889  1.00  0.00    -0.293 OA
BRANCH   7   8
HETATM    8  P1  UNL     1     -32.702   9.559 -30.170  1.00  0.00     0.360 P 
HETATM    9  O3  UNL     1     -33.445  10.853 -31.040  1.00  0.00    -0.630 OA
HETATM   10  O4  UNL     1     -31.582   9.654 -31.209  1.00  0.00    -0.630 OA
BRANCH   8  11
HETATM   11  N1  UNL     1     -33.191   8.017 -30.494  1.00  0.00    -0.312 N 
ATOM     12  H1  UNL     1     -34.192   7.848 -30.598  1.00  0.00     0.166 HD
BRANCH  11  13
HETATM   13  C3  UNL     1     -32.323   6.918 -30.637  1.00  0.00     0.183 C 
HETATM   14  C4  UNL     1     -33.011   5.647 -31.089  1.00  0.00     0.043 C 
BRANCH  13  15
HETATM   15  C2  UNL     1     -31.634   6.625 -29.365  1.00  0.00     0.281 C 
HETATM   16  O2  UNL     1     -32.309   6.356 -28.347  1.00  0.00    -0.263 OA
BRANCH  15  17
HETATM   17  O1  UNL     1     -30.252   6.628 -29.222  1.00  0.00    -0.325 OA
HETATM   18  C1  UNL     1     -29.418   5.688 -29.873  1.00  0.00     0.213 C 
ENDBRANCH  15  17
ENDBRANCH  13  15
ENDBRANCH  11  13
ENDBRANCH   8  11
ENDBRANCH   7   8
ENDBRANCH   6   7
ENDBRANCH   1   6
BRANCH   5  19
HETATM   19  O8  UNL     1     -29.194  10.604 -26.589  1.00  0.00    -0.390 OA
ATOM     20  H8  UNL     1     -28.306  10.408 -26.862  1.00  0.00     0.210 HD
ENDBRANCH   5  19
BRANCH   3  21
HETATM   21  N2  UNL     1     -31.130   7.063 -24.589  1.00  0.00    -0.297 N 
HETATM   22  C8  UNL     1     -31.604   6.844 -23.361  1.00  0.00     0.188 A 
HETATM   23  N3  UNL     1     -31.688   5.518 -23.117  1.00  0.00    -0.346 N 
HETATM   24  C9  UNL     1     -31.263   4.871 -24.194  1.00  0.00     0.119 A 
ATOM     25  H3  UNL     1     -32.021   5.088 -22.254  1.00  0.00     0.167 HD
HETATM   26  C10 UNL     1     -31.145   3.527 -24.468  1.00  0.00     0.148 A 
HETATM   27  C12 UNL     1     -30.912   5.844 -25.122  1.00  0.00     0.142 A 
HETATM   28  N4  UNL     1     -31.488   2.496 -23.560  1.00  0.00    -0.080 NA
HETATM   29  N5  UNL     1     -30.674   3.178 -25.675  1.00  0.00    -0.339 N 
HETATM   30  C11 UNL     1     -30.325   4.127 -26.594  1.00  0.00     0.183 A 
ATOM     31  H5  UNL     1     -30.574   2.191 -25.910  1.00  0.00     0.167 HD
HETATM   32  N6  UNL     1     -30.449   5.434 -26.305  1.00  0.00    -0.336 N 
ATOM     33  H6  UNL     1     -30.184   6.127 -27.005  1.00  0.00     0.168 HD
ENDBRANCH   3  21
BRANCH   4  34
HETATM   34  O7  UNL     1     -28.518   8.433 -25.612  1.00  0.00    -0.388 OA
ATOM     35  H7  UNL     1     -28.479   7.996 -24.770  1.00  0.00     0.210 HD
ENDBRANCH   4  34
TORSDOF 10
ENDMDL
