MODEL 1
REMARK VINA RESULT: -8.411532487      0.000      0.000
REMARK  10 active torsions:
REMARK  status: ('A' for Active; 'I' for Inactive)
REMARK    1  A    between atoms: O1_2  and  C2_3 
REMARK    2  A    between atoms: C2_3  and  C3_5 
REMARK    3  A    between atoms: C3_5  and  N1_7 
REMARK    4  A    between atoms: N1_7  and  P1_9 
REMARK    5  A    between atoms: P1_9  and  O5_12 
REMARK    6  A    between atoms: O5_12  and  C5_13 
REMARK    7  A    between atoms: C5_13  and  C6_14 
REMARK    8  A    between atoms: C7_16  and  N2_17 
REMARK    9  A    between atoms: C13_30  and  O7_31 
REMARK   10  A    between atoms: C14_33  and  O8_34 
ROOT
HETATM    1  C6  UNL     1     -29.248   4.776 -27.405  1.00  0.00     0.180 C 
HETATM    2  O6  UNL     1     -29.380   4.375 -28.735  1.00  0.00    -0.353 OA
HETATM    3  C7  UNL     1     -29.058   5.546 -29.407  1.00  0.00     0.262 C 
HETATM    4  C13 UNL     1     -29.997   6.542 -28.762  1.00  0.00     0.198 C 
HETATM    5  C14 UNL     1     -29.907   6.116 -27.290  1.00  0.00     0.182 C 
ENDROOT
BRANCH   1   6
HETATM    6  C5  UNL     1     -29.865   3.765 -26.458  1.00  0.00     0.215 C 
BRANCH   6   7
HETATM    7  O5  UNL     1     -29.880   4.281 -25.215  1.00  0.00    -0.293 OA
BRANCH   7   8
HETATM    8  P1  UNL     1     -31.214   4.135 -24.278  1.00  0.00     0.360 P 
HETATM    9  O3  UNL     1     -31.921   2.565 -24.137  1.00  0.00    -0.630 OA
HETATM   10  O4  UNL     1     -30.455   3.785 -22.995  1.00  0.00    -0.630 OA
BRANCH   8  11
HETATM   11  N1  UNL     1     -32.061   5.428 -23.703  1.00  0.00    -0.312 N 
ATOM     12  H1  UNL     1     -33.042   5.284 -23.462  1.00  0.00     0.166 HD
BRANCH  11  13
HETATM   13  C3  UNL     1     -31.523   6.717 -23.521  1.00  0.00     0.183 C 
HETATM   14  C4  UNL     1     -31.892   7.354 -22.198  1.00  0.00     0.043 C 
BRANCH  13  15
HETATM   15  C2  UNL     1     -31.969   7.626 -24.595  1.00  0.00     0.281 C 
HETATM   16  O2  UNL     1     -33.128   7.519 -25.052  1.00  0.00    -0.263 OA
BRANCH  15  17
HETATM   17  O1  UNL     1     -31.164   8.618 -25.144  1.00  0.00    -0.325 OA
HETATM   18  C1  UNL     1     -31.597   9.445 -26.208  1.00  0.00     0.213 C 
ENDBRANCH  15  17
ENDBRANCH  13  15
ENDBRANCH  11  13
ENDBRANCH   8  11
ENDBRANCH   7   8
ENDBRANCH   6   7
ENDBRANCH   1   6
BRANCH   5  19
HETATM   19  O8  UNL     1     -29.070   7.009 -26.608  1.00  0.00    -0.390 OA
ATOM     20  H8  UNL     1     -29.027   7.837 -27.071  1.00  0.00     0.210 HD
ENDBRANCH   5  19
BRANCH   3  21
HETATM   21  N2  UNL     1     -29.232   5.425 -30.820  1.00  0.00    -0.297 N 
HETATM   22  C8  UNL     1     -30.376   5.510 -31.502  1.00  0.00     0.188 A 
HETATM   23  N3  UNL     1     -30.152   5.344 -32.824  1.00  0.00    -0.346 N 
HETATM   24  C9  UNL     1     -28.852   5.148 -33.002  1.00  0.00     0.119 A 
ATOM     25  H3  UNL     1     -30.859   5.366 -33.559  1.00  0.00     0.167 HD
HETATM   26  C10 UNL     1     -28.106   4.929 -34.137  1.00  0.00     0.148 A 
HETATM   27  C12 UNL     1     -28.273   5.199 -31.740  1.00  0.00     0.142 A 
HETATM   28  N4  UNL     1     -28.645   4.868 -35.445  1.00  0.00    -0.080 NA
HETATM   29  N5  UNL     1     -26.782   4.764 -33.989  1.00  0.00    -0.339 N 
HETATM   30  C11 UNL     1     -26.202   4.813 -32.753  1.00  0.00     0.183 A 
ATOM     31  H5  UNL     1     -26.201   4.601 -34.811  1.00  0.00     0.167 HD
HETATM   32  N6  UNL     1     -26.951   5.028 -31.658  1.00  0.00    -0.336 N 
ATOM     33  H6  UNL     1     -26.500   5.061 -30.743  1.00  0.00     0.168 HD
ENDBRANCH   3  21
BRANCH   4  34
HETATM   34  O7  UNL     1     -29.545   7.854 -28.884  1.00  0.00    -0.388 OA
ATOM     35  H7  UNL     1     -30.196   8.489 -28.609  1.00  0.00     0.210 HD
ENDBRANCH   4  34
TORSDOF 10
ENDMDL
