MODEL 5
REMARK VINA RESULT: -7.223104532      2.871      7.646
REMARK  10 active torsions:
REMARK  status: ('A' for Active; 'I' for Inactive)
REMARK    1  A    between atoms: O1_2  and  C2_3 
REMARK    2  A    between atoms: C2_3  and  C3_5 
REMARK    3  A    between atoms: C3_5  and  N1_7 
REMARK    4  A    between atoms: N1_7  and  P1_9 
REMARK    5  A    between atoms: P1_9  and  O5_12 
REMARK    6  A    between atoms: O5_12  and  C5_13 
REMARK    7  A    between atoms: C5_13  and  C6_14 
REMARK    8  A    between atoms: C7_16  and  N2_17 
REMARK    9  A    between atoms: C13_30  and  O7_31 
REMARK   10  A    between atoms: C14_33  and  O8_34 
ROOT
HETATM    1  C6  UNL     1     -31.283   8.943 -27.441  1.00  0.00     0.180 C 
HETATM    2  O6  UNL     1     -31.735   7.895 -26.638  1.00  0.00    -0.353 OA
HETATM    3  C7  UNL     1     -30.825   7.943 -25.590  1.00  0.00     0.262 C 
HETATM    4  C13 UNL     1     -29.503   7.892 -26.325  1.00  0.00     0.198 C 
HETATM    5  C14 UNL     1     -29.792   8.826 -27.509  1.00  0.00     0.182 C 
ENDROOT
BRANCH   1   6
HETATM    6  C5  UNL     1     -31.913   8.895 -28.821  1.00  0.00     0.215 C 
BRANCH   6   7
HETATM    7  O5  UNL     1     -31.078   8.255 -29.661  1.00  0.00    -0.293 OA
BRANCH   7   8
HETATM    8  P1  UNL     1     -31.237   6.646 -29.915  1.00  0.00     0.360 P 
HETATM    9  O3  UNL     1     -32.296   5.774 -28.865  1.00  0.00    -0.630 OA
HETATM   10  O4  UNL     1     -32.444   6.764 -30.850  1.00  0.00    -0.630 OA
BRANCH   8  11
HETATM   11  N1  UNL     1     -30.248   5.787 -30.917  1.00  0.00    -0.312 N 
ATOM     12  H1  UNL     1     -30.376   5.902 -31.923  1.00  0.00     0.166 HD
BRANCH  11  13
HETATM   13  C3  UNL     1     -29.240   4.907 -30.480  1.00  0.00     0.183 C 
HETATM   14  C4  UNL     1     -28.826   5.116 -29.039  1.00  0.00     0.043 C 
BRANCH  13  15
HETATM   15  C2  UNL     1     -28.031   5.038 -31.316  1.00  0.00     0.281 C 
HETATM   16  O2  UNL     1     -27.083   5.752 -30.921  1.00  0.00    -0.263 OA
BRANCH  15  17
HETATM   17  O1  UNL     1     -27.873   4.405 -32.544  1.00  0.00    -0.325 OA
HETATM   18  C1  UNL     1     -26.728   4.592 -33.354  1.00  0.00     0.213 C 
ENDBRANCH  15  17
ENDBRANCH  13  15
ENDBRANCH  11  13
ENDBRANCH   8  11
ENDBRANCH   7   8
ENDBRANCH   6   7
ENDBRANCH   1   6
BRANCH   5  19
HETATM   19  O8  UNL     1     -29.198  10.070 -27.263  1.00  0.00    -0.390 OA
ATOM     20  H8  UNL     1     -28.597  10.290 -27.966  1.00  0.00     0.210 HD
ENDBRANCH   5  19
BRANCH   3  21
HETATM   21  N2  UNL     1     -31.009   6.869 -24.665  1.00  0.00    -0.297 N 
HETATM   22  C8  UNL     1     -31.243   6.964 -23.355  1.00  0.00     0.188 A 
HETATM   23  N3  UNL     1     -31.361   5.736 -22.805  1.00  0.00    -0.346 N 
HETATM   24  C9  UNL     1     -31.202   4.836 -23.766  1.00  0.00     0.119 A 
ATOM     25  H3  UNL     1     -31.543   5.535 -21.822  1.00  0.00     0.167 HD
HETATM   26  C10 UNL     1     -31.227   3.460 -23.745  1.00  0.00     0.148 A 
HETATM   27  C12 UNL     1     -30.980   5.549 -24.938  1.00  0.00     0.142 A 
HETATM   28  N4  UNL     1     -31.448   2.685 -22.581  1.00  0.00    -0.080 NA
HETATM   29  N5  UNL     1     -31.028   2.817 -24.906  1.00  0.00    -0.339 N 
HETATM   30  C11 UNL     1     -30.809   3.508 -26.064  1.00  0.00     0.183 A 
ATOM     31  H5  UNL     1     -31.041   1.797 -24.925  1.00  0.00     0.167 HD
HETATM   32  N6  UNL     1     -30.789   4.853 -26.061  1.00  0.00    -0.336 N 
ATOM     33  H6  UNL     1     -30.625   5.352 -26.935  1.00  0.00     0.168 HD
ENDBRANCH   3  21
BRANCH   4  34
HETATM   34  O7  UNL     1     -28.457   8.423 -25.572  1.00  0.00    -0.388 OA
ATOM     35  H7  UNL     1     -28.110   9.223 -25.948  1.00  0.00     0.210 HD
ENDBRANCH   4  34
TORSDOF 10
ENDMDL
