MODEL 2
REMARK VINA RESULT: -7.721187066      0.734      1.694
REMARK  10 active torsions:
REMARK  status: ('A' for Active; 'I' for Inactive)
REMARK    1  A    between atoms: O1_2  and  C2_3 
REMARK    2  A    between atoms: C2_3  and  C3_5 
REMARK    3  A    between atoms: C3_5  and  N1_7 
REMARK    4  A    between atoms: N1_7  and  P1_9 
REMARK    5  A    between atoms: P1_9  and  O5_12 
REMARK    6  A    between atoms: O5_12  and  C5_13 
REMARK    7  A    between atoms: C5_13  and  C6_14 
REMARK    8  A    between atoms: C7_16  and  N2_17 
REMARK    9  A    between atoms: C13_30  and  O7_31 
REMARK   10  A    between atoms: C14_33  and  O8_34 
ROOT
HETATM    1  C6  UNL     1     -29.194   4.808 -27.363  1.00  0.00     0.180 C 
HETATM    2  O6  UNL     1     -29.030   4.294 -28.650  1.00  0.00    -0.353 OA
HETATM    3  C7  UNL     1     -28.651   5.431 -29.352  1.00  0.00     0.262 C 
HETATM    4  C13 UNL     1     -29.761   6.398 -28.999  1.00  0.00     0.198 C 
HETATM    5  C14 UNL     1     -29.944   6.098 -27.504  1.00  0.00     0.182 C 
ENDROOT
BRANCH   1   6
HETATM    6  C5  UNL     1     -29.926   3.829 -26.465  1.00  0.00     0.215 C 
BRANCH   6   7
HETATM    7  O5  UNL     1     -29.899   4.290 -25.200  1.00  0.00    -0.293 OA
BRANCH   7   8
HETATM    8  P1  UNL     1     -31.216   4.140 -24.240  1.00  0.00     0.360 P 
HETATM    9  O3  UNL     1     -31.899   2.564 -24.064  1.00  0.00    -0.630 OA
HETATM   10  O4  UNL     1     -30.432   3.820 -22.965  1.00  0.00    -0.630 OA
BRANCH   8  11
HETATM   11  N1  UNL     1     -32.071   5.432 -23.672  1.00  0.00    -0.312 N 
ATOM     12  H1  UNL     1     -33.048   5.280 -23.421  1.00  0.00     0.166 HD
BRANCH  11  13
HETATM   13  C3  UNL     1     -31.545   6.728 -23.510  1.00  0.00     0.183 C 
HETATM   14  C4  UNL     1     -31.885   7.364 -22.178  1.00  0.00     0.043 C 
BRANCH  13  15
HETATM   15  C2  UNL     1     -32.032   7.628 -24.572  1.00  0.00     0.281 C 
HETATM   16  O2  UNL     1     -33.201   7.500 -25.001  1.00  0.00    -0.263 OA
BRANCH  15  17
HETATM   17  O1  UNL     1     -31.259   8.632 -25.143  1.00  0.00    -0.325 OA
HETATM   18  C1  UNL     1     -31.767   9.519 -26.122  1.00  0.00     0.213 C 
ENDBRANCH  15  17
ENDBRANCH  13  15
ENDBRANCH  11  13
ENDBRANCH   8  11
ENDBRANCH   7   8
ENDBRANCH   6   7
ENDBRANCH   1   6
BRANCH   5  19
HETATM   19  O8  UNL     1     -29.318   7.104 -26.758  1.00  0.00    -0.390 OA
ATOM     20  H8  UNL     1     -28.778   7.644 -27.323  1.00  0.00     0.210 HD
ENDBRANCH   5  19
BRANCH   3  21
HETATM   21  N2  UNL     1     -28.530   5.185 -30.754  1.00  0.00    -0.297 N 
HETATM   22  C8  UNL     1     -27.470   4.692 -31.399  1.00  0.00     0.188 A 
HETATM   23  N3  UNL     1     -27.722   4.599 -32.722  1.00  0.00    -0.346 N 
HETATM   24  C9  UNL     1     -28.955   5.038 -32.940  1.00  0.00     0.119 A 
ATOM     25  H3  UNL     1     -27.077   4.252 -33.432  1.00  0.00     0.167 HD
HETATM   26  C10 UNL     1     -29.694   5.155 -34.095  1.00  0.00     0.148 A 
HETATM   27  C12 UNL     1     -29.464   5.406 -31.701  1.00  0.00     0.142 A 
HETATM   28  N4  UNL     1     -29.224   4.795 -35.382  1.00  0.00    -0.080 NA
HETATM   29  N5  UNL     1     -30.939   5.644 -33.989  1.00  0.00    -0.339 N 
HETATM   30  C11 UNL     1     -31.450   6.010 -32.776  1.00  0.00     0.183 A 
ATOM     31  H5  UNL     1     -31.514   5.743 -34.826  1.00  0.00     0.167 HD
HETATM   32  N6  UNL     1     -30.709   5.886 -31.661  1.00  0.00    -0.336 N 
ATOM     33  H6  UNL     1     -31.108   6.164 -30.763  1.00  0.00     0.168 HD
ENDBRANCH   3  21
BRANCH   4  34
HETATM   34  O7  UNL     1     -29.375   7.727 -29.151  1.00  0.00    -0.388 OA
ATOM     35  H7  UNL     1     -29.346   8.193 -28.324  1.00  0.00     0.210 HD
ENDBRANCH   4  34
TORSDOF 10
ENDMDL
