MODEL 3
REMARK VINA RESULT: -7.469134263      1.064      1.834
REMARK  10 active torsions:
REMARK  status: ('A' for Active; 'I' for Inactive)
REMARK    1  A    between atoms: O1_2  and  C2_3 
REMARK    2  A    between atoms: C2_3  and  C3_5 
REMARK    3  A    between atoms: C3_5  and  N1_7 
REMARK    4  A    between atoms: N1_7  and  P1_9 
REMARK    5  A    between atoms: P1_9  and  O5_12 
REMARK    6  A    between atoms: O5_12  and  C5_13 
REMARK    7  A    between atoms: C5_13  and  C6_14 
REMARK    8  A    between atoms: C7_16  and  N2_17 
REMARK    9  A    between atoms: C13_30  and  O7_31 
REMARK   10  A    between atoms: C14_33  and  O8_34 
ROOT
HETATM    1  C6  UNL     1     -29.666   4.900 -27.529  1.00  0.00     0.180 C 
HETATM    2  O6  UNL     1     -28.753   4.518 -28.512  1.00  0.00    -0.353 OA
HETATM    3  C7  UNL     1     -28.940   5.514 -29.461  1.00  0.00     0.262 C 
HETATM    4  C13 UNL     1     -30.438   5.461 -29.676  1.00  0.00     0.198 C 
HETATM    5  C14 UNL     1     -30.932   5.276 -28.235  1.00  0.00     0.182 C 
ENDROOT
BRANCH   1   6
HETATM    6  C5  UNL     1     -29.892   3.789 -26.522  1.00  0.00     0.215 C 
BRANCH   6   7
HETATM    7  O5  UNL     1     -29.881   4.312 -25.281  1.00  0.00    -0.293 OA
BRANCH   7   8
HETATM    8  P1  UNL     1     -31.192   4.164 -24.313  1.00  0.00     0.360 P 
HETATM    9  O3  UNL     1     -31.918   2.601 -24.188  1.00  0.00    -0.630 OA
HETATM   10  O4  UNL     1     -30.404   3.773 -23.059  1.00  0.00    -0.630 OA
BRANCH   8  11
HETATM   11  N1  UNL     1     -32.003   5.456 -23.685  1.00  0.00    -0.312 N 
ATOM     12  H1  UNL     1     -32.974   5.316 -23.405  1.00  0.00     0.166 HD
BRANCH  11  13
HETATM   13  C3  UNL     1     -31.449   6.738 -23.512  1.00  0.00     0.183 C 
HETATM   14  C4  UNL     1     -32.061   7.521 -22.369  1.00  0.00     0.043 C 
BRANCH  13  15
HETATM   15  C2  UNL     1     -31.600   7.546 -24.737  1.00  0.00     0.281 C 
HETATM   16  O2  UNL     1     -30.624   8.197 -25.171  1.00  0.00    -0.263 OA
BRANCH  15  17
HETATM   17  O1  UNL     1     -32.786   7.633 -25.458  1.00  0.00    -0.325 OA
HETATM   18  C1  UNL     1     -33.459   8.861 -25.668  1.00  0.00     0.213 C 
ENDBRANCH  15  17
ENDBRANCH  13  15
ENDBRANCH  11  13
ENDBRANCH   8  11
ENDBRANCH   7   8
ENDBRANCH   6   7
ENDBRANCH   1   6
BRANCH   5  19
HETATM   19  O8  UNL     1     -31.407   6.502 -27.755  1.00  0.00    -0.390 OA
ATOM     20  H8  UNL     1     -31.619   7.078 -28.480  1.00  0.00     0.210 HD
ENDBRANCH   5  19
BRANCH   3  21
HETATM   21  N2  UNL     1     -28.182   5.280 -30.649  1.00  0.00    -0.297 N 
HETATM   22  C8  UNL     1     -26.867   5.071 -30.739  1.00  0.00     0.188 A 
HETATM   23  N3  UNL     1     -26.504   4.887 -32.027  1.00  0.00    -0.346 N 
HETATM   24  C9  UNL     1     -27.592   4.979 -32.780  1.00  0.00     0.119 A 
ATOM     25  H3  UNL     1     -25.557   4.708 -32.363  1.00  0.00     0.167 HD
HETATM   26  C10 UNL     1     -27.776   4.872 -34.140  1.00  0.00     0.148 A 
HETATM   27  C12 UNL     1     -28.649   5.226 -31.913  1.00  0.00     0.142 A 
HETATM   28  N4  UNL     1     -26.736   4.622 -35.068  1.00  0.00    -0.080 NA
HETATM   29  N5  UNL     1     -29.024   5.015 -34.612  1.00  0.00    -0.339 N 
HETATM   30  C11 UNL     1     -30.070   5.259 -33.768  1.00  0.00     0.183 A 
ATOM     31  H5  UNL     1     -29.195   4.941 -35.615  1.00  0.00     0.167 HD
HETATM   32  N6  UNL     1     -29.867   5.359 -32.443  1.00  0.00    -0.336 N 
ATOM     33  H6  UNL     1     -30.661   5.540 -31.828  1.00  0.00     0.168 HD
ENDBRANCH   3  21
BRANCH   4  34
HETATM   34  O7  UNL     1     -30.944   6.656 -30.180  1.00  0.00    -0.388 OA
ATOM     35  H7  UNL     1     -31.271   6.565 -31.068  1.00  0.00     0.210 HD
ENDBRANCH   4  34
TORSDOF 10
ENDMDL
