MODEL 4
REMARK VINA RESULT: -8.067000235      1.484      3.976
REMARK  3 active torsions:
REMARK  status: ('A' for Active; 'I' for Inactive)
REMARK       I    between atoms: C1_2  and  N1_3 
REMARK    1  A    between atoms: C1_2  and  C14_25 
REMARK    2  A    between atoms: N1_3  and  C2_5 
REMARK    3  A    between atoms: C6_13  and  C7_14 
ROOT
HETATM    1  C2  UNL     1      -9.240   8.531  13.628  1.00  0.00     0.137 A 
HETATM    2  N2  UNL     1      -9.818   9.712  13.803  1.00  0.00    -0.350 N 
ATOM      3  H2  UNL     1     -10.447  10.064  13.081  1.00  0.00     0.166 HD
HETATM    4  C3  UNL     1      -9.599  10.475  14.916  1.00  0.00     0.092 A 
HETATM    5  C4  UNL     1      -8.755  10.028  15.908  1.00  0.00     0.049 A 
HETATM    6  C5  UNL     1      -8.139   8.803  15.757  1.00  0.00     0.066 A 
HETATM    7  N3  UNL     1      -7.266   8.065  16.515  1.00  0.00    -0.340 N 
ATOM      8  H3  UNL     1      -6.897   8.353  17.421  1.00  0.00     0.167 HD
HETATM    9  C6  UNL     1      -6.967   6.917  15.904  1.00  0.00     0.120 A 
HETATM   10  N4  UNL     1      -7.678   6.953  14.735  1.00  0.00    -0.337 N 
ATOM     11  H4  UNL     1      -7.663   6.211  14.036  1.00  0.00     0.167 HD
HETATM   12  C13 UNL     1      -8.386   8.065  14.620  1.00  0.00     0.105 A 
ENDROOT
BRANCH   9  13
HETATM   13  C7  UNL     1      -6.093   5.817  16.308  1.00  0.00     0.051 A 
HETATM   14  C8  UNL     1      -4.731   5.873  16.385  1.00  0.00     0.049 A 
HETATM   15 CL1  UNL     1      -3.890   7.352  15.981  1.00  0.00    -0.083 Cl
HETATM   16  C9  UNL     1      -3.963   4.763  16.787  1.00  0.00     0.025 A 
HETATM   17  C10 UNL     1      -4.557   3.570  17.118  1.00  0.00     0.003 A 
HETATM   18  C11 UNL     1      -5.929   3.510  17.041  1.00  0.00     0.025 A 
HETATM   19  C12 UNL     1      -6.688   4.596  16.649  1.00  0.00     0.049 A 
HETATM   20 CL2  UNL     1      -8.437   4.492  16.560  1.00  0.00    -0.083 Cl
ENDBRANCH   9  13
BRANCH   1  21
HETATM   21  N1  UNL     1      -9.458   7.734  12.484  1.00  0.00    -0.311 N 
HETATM   22  C1  UNL     1      -8.973   8.064  11.191  1.00  0.00     0.227 C 
HETATM   23  O1  UNL     1      -8.316   9.131  11.091  1.00  0.00    -0.273 OA
ATOM     24  H1  UNL     1      -9.994   6.873  12.591  1.00  0.00     0.170 HD
BRANCH  22  25
HETATM   25  C14 UNL     1      -9.182   7.258   9.990  1.00  0.00     0.078 A 
HETATM   26  C15 UNL     1     -10.363   6.380   9.819  1.00  0.00     0.015 A 
HETATM   27  C16 UNL     1      -9.083   5.739  10.238  1.00  0.00     0.015 A 
ENDBRANCH  22  25
ENDBRANCH   1  21
TORSDOF 3
ENDMDL
