MODEL 3
REMARK VINA RESULT: -8.070110663      2.462      5.645
REMARK  3 active torsions:
REMARK  status: ('A' for Active; 'I' for Inactive)
REMARK       I    between atoms: C1_2  and  N1_3 
REMARK    1  A    between atoms: C1_2  and  C14_25 
REMARK    2  A    between atoms: N1_3  and  C2_5 
REMARK    3  A    between atoms: C6_13  and  C7_14 
ROOT
HETATM    1  C2  UNL     1      -7.719   6.154  14.201  1.00  0.00     0.137 A 
HETATM    2  N2  UNL     1      -8.043   5.991  12.925  1.00  0.00    -0.350 N 
ATOM      3  H2  UNL     1      -8.028   5.051  12.530  1.00  0.00     0.166 HD
HETATM    4  C3  UNL     1      -8.396   7.039  12.121  1.00  0.00     0.092 A 
HETATM    5  C4  UNL     1      -8.426   8.320  12.626  1.00  0.00     0.049 A 
HETATM    6  C5  UNL     1      -8.094   8.523  13.949  1.00  0.00     0.066 A 
HETATM    7  N3  UNL     1      -8.017   9.624  14.764  1.00  0.00    -0.340 N 
ATOM      8  H3  UNL     1      -8.221  10.580  14.469  1.00  0.00     0.167 HD
HETATM    9  C6  UNL     1      -7.639   9.273  15.993  1.00  0.00     0.120 A 
HETATM   10  N4  UNL     1      -7.480   7.916  15.932  1.00  0.00    -0.337 N 
ATOM     11  H4  UNL     1      -7.191   7.338  16.721  1.00  0.00     0.167 HD
HETATM   12  C13 UNL     1      -7.744   7.441  14.725  1.00  0.00     0.105 A 
ENDROOT
BRANCH   9  13
HETATM   13  C7  UNL     1      -7.419  10.078  17.194  1.00  0.00     0.051 A 
HETATM   14  C8  UNL     1      -8.261  11.043  17.667  1.00  0.00     0.049 A 
HETATM   15 CL1  UNL     1      -9.748  11.402  16.820  1.00  0.00    -0.083 Cl
HETATM   16  C9  UNL     1      -7.973  11.774  18.836  1.00  0.00     0.025 A 
HETATM   17  C10 UNL     1      -6.823  11.545  19.551  1.00  0.00     0.003 A 
HETATM   18  C11 UNL     1      -5.972  10.575  19.077  1.00  0.00     0.025 A 
HETATM   19  C12 UNL     1      -6.251   9.853  17.932  1.00  0.00     0.049 A 
HETATM   20 CL2  UNL     1      -5.147   8.620  17.349  1.00  0.00    -0.083 Cl
ENDBRANCH   9  13
BRANCH   1  21
HETATM   21  N1  UNL     1      -7.353   5.080  15.041  1.00  0.00    -0.311 N 
HETATM   22  C1  UNL     1      -6.043   4.894  15.554  1.00  0.00     0.227 C 
HETATM   23  O1  UNL     1      -5.181   5.749  15.224  1.00  0.00    -0.273 OA
ATOM     24  H1  UNL     1      -8.070   4.400  15.293  1.00  0.00     0.170 HD
BRANCH  22  25
HETATM   25  C14 UNL     1      -5.635   3.793  16.425  1.00  0.00     0.078 A 
HETATM   26  C15 UNL     1      -4.244   3.636  16.908  1.00  0.00     0.015 A 
HETATM   27  C16 UNL     1      -4.670   2.796  15.751  1.00  0.00     0.015 A 
ENDBRANCH  22  25
ENDBRANCH   1  21
TORSDOF 3
ENDMDL
