MODEL 2
REMARK VINA RESULT: -8.137128258      1.493      4.393
REMARK  3 active torsions:
REMARK  status: ('A' for Active; 'I' for Inactive)
REMARK       I    between atoms: C1_2  and  N1_3 
REMARK    1  A    between atoms: C1_2  and  C14_25 
REMARK    2  A    between atoms: N1_3  and  C2_5 
REMARK    3  A    between atoms: C6_13  and  C7_14 
ROOT
HETATM    1  C2  UNL     1      -9.215   8.588  13.600  1.00  0.00     0.137 A 
HETATM    2  N2  UNL     1      -9.776   9.781  13.749  1.00  0.00    -0.350 N 
ATOM      3  H2  UNL     1     -10.398  10.127  13.019  1.00  0.00     0.166 HD
HETATM    4  C3  UNL     1      -9.550  10.562  14.847  1.00  0.00     0.092 A 
HETATM    5  C4  UNL     1      -8.714  10.123  15.851  1.00  0.00     0.049 A 
HETATM    6  C5  UNL     1      -8.115   8.887  15.725  1.00  0.00     0.066 A 
HETATM    7  N3  UNL     1      -7.254   8.152  16.500  1.00  0.00    -0.340 N 
ATOM      8  H3  UNL     1      -6.883   8.453  17.402  1.00  0.00     0.167 HD
HETATM    9  C6  UNL     1      -6.970   6.989  15.912  1.00  0.00     0.120 A 
HETATM   10  N4  UNL     1      -7.677   7.011  14.742  1.00  0.00    -0.337 N 
ATOM     11  H4  UNL     1      -7.671   6.255  14.056  1.00  0.00     0.167 HD
HETATM   12  C13 UNL     1      -8.369   8.130  14.603  1.00  0.00     0.105 A 
ENDROOT
BRANCH   9  13
HETATM   13  C7  UNL     1      -6.113   5.884  16.341  1.00  0.00     0.051 A 
HETATM   14  C8  UNL     1      -6.540   4.628  16.664  1.00  0.00     0.049 A 
HETATM   15 CL1  UNL     1      -8.241   4.233  16.583  1.00  0.00    -0.083 Cl
HETATM   16  C9  UNL     1      -5.645   3.619  17.067  1.00  0.00     0.025 A 
HETATM   17  C10 UNL     1      -4.296   3.859  17.153  1.00  0.00     0.003 A 
HETATM   18  C11 UNL     1      -3.862   5.123  16.829  1.00  0.00     0.025 A 
HETATM   19  C12 UNL     1      -4.735   6.117  16.431  1.00  0.00     0.049 A 
HETATM   20 CL2  UNL     1      -4.154   7.722  16.022  1.00  0.00    -0.083 Cl
ENDBRANCH   9  13
BRANCH   1  21
HETATM   21  N1  UNL     1      -9.441   7.772  12.470  1.00  0.00    -0.311 N 
HETATM   22  C1  UNL     1      -8.958   8.076  11.171  1.00  0.00     0.227 C 
HETATM   23  O1  UNL     1      -8.295   9.138  11.049  1.00  0.00    -0.273 OA
ATOM     24  H1  UNL     1      -9.981   6.917  12.595  1.00  0.00     0.170 HD
BRANCH  22  25
HETATM   25  C14 UNL     1      -9.176   7.251   9.984  1.00  0.00     0.078 A 
HETATM   26  C15 UNL     1     -10.359   6.372   9.835  1.00  0.00     0.015 A 
HETATM   27  C16 UNL     1      -9.078   5.736  10.258  1.00  0.00     0.015 A 
ENDBRANCH  22  25
ENDBRANCH   1  21
TORSDOF 3
ENDMDL
