MODEL 5
REMARK VINA RESULT: -8.063867695      2.278      3.853
REMARK  3 active torsions:
REMARK  status: ('A' for Active; 'I' for Inactive)
REMARK       I    between atoms: C1_2  and  N1_3 
REMARK    1  A    between atoms: C1_2  and  C14_25 
REMARK    2  A    between atoms: N1_3  and  C2_5 
REMARK    3  A    between atoms: C6_13  and  C7_14 
ROOT
HETATM    1  C2  UNL     1      -8.987  10.509  17.473  1.00  0.00     0.137 A 
HETATM    2  N2  UNL     1      -9.760  11.378  16.837  1.00  0.00    -0.350 N 
ATOM      3  H2  UNL     1     -10.130  12.178  17.351  1.00  0.00     0.166 HD
HETATM    4  C3  UNL     1     -10.081  11.239  15.515  1.00  0.00     0.092 A 
HETATM    5  C4  UNL     1      -9.598  10.170  14.793  1.00  0.00     0.049 A 
HETATM    6  C5  UNL     1      -8.791   9.249  15.426  1.00  0.00     0.066 A 
HETATM    7  N3  UNL     1      -8.152   8.100  15.035  1.00  0.00    -0.340 N 
ATOM      8  H3  UNL     1      -8.186   7.708  14.093  1.00  0.00     0.167 HD
HETATM    9  C6  UNL     1      -7.479   7.566  16.055  1.00  0.00     0.120 A 
HETATM   10  N4  UNL     1      -7.713   8.412  17.104  1.00  0.00    -0.337 N 
ATOM     11  H4  UNL     1      -7.333   8.278  18.042  1.00  0.00     0.167 HD
HETATM   12  C13 UNL     1      -8.491   9.425  16.759  1.00  0.00     0.105 A 
ENDROOT
BRANCH   9  13
HETATM   13  C7  UNL     1      -6.657   6.359  16.133  1.00  0.00     0.051 A 
HETATM   14  C8  UNL     1      -7.130   5.082  16.229  1.00  0.00     0.049 A 
HETATM   15 CL1  UNL     1      -8.853   4.785  16.271  1.00  0.00    -0.083 Cl
HETATM   16  C9  UNL     1      -6.266   3.972  16.298  1.00  0.00     0.025 A 
HETATM   17  C10 UNL     1      -4.902   4.131  16.272  1.00  0.00     0.003 A 
HETATM   18  C11 UNL     1      -4.422   5.416  16.175  1.00  0.00     0.025 A 
HETATM   19  C12 UNL     1      -5.265   6.508  16.105  1.00  0.00     0.049 A 
HETATM   20 CL2  UNL     1      -4.625   8.138  15.981  1.00  0.00    -0.083 Cl
ENDBRANCH   9  13
BRANCH   1  21
HETATM   21  N1  UNL     1      -8.649  10.641  18.838  1.00  0.00    -0.311 N 
HETATM   22  C1  UNL     1      -7.342  10.949  19.298  1.00  0.00     0.227 C 
HETATM   23  O1  UNL     1      -6.457  11.107  18.419  1.00  0.00    -0.273 OA
ATOM     24  H1  UNL     1      -9.385  10.508  19.531  1.00  0.00     0.170 HD
BRANCH  22  25
HETATM   25  C14 UNL     1      -6.964  11.092  20.703  1.00  0.00     0.078 A 
HETATM   26  C15 UNL     1      -5.558  11.002  21.159  1.00  0.00     0.015 A 
HETATM   27  C16 UNL     1      -6.416   9.795  21.332  1.00  0.00     0.015 A 
ENDBRANCH  22  25
ENDBRANCH   1  21
TORSDOF 3
ENDMDL
