MODEL 6
REMARK VINA RESULT: -8.047267182      2.241      3.354
REMARK  3 active torsions:
REMARK  status: ('A' for Active; 'I' for Inactive)
REMARK       I    between atoms: C1_2  and  N1_3 
REMARK    1  A    between atoms: C1_2  and  C14_25 
REMARK    2  A    between atoms: N1_3  and  C2_5 
REMARK    3  A    between atoms: C6_13  and  C7_14 
ROOT
HETATM    1  C2  UNL     1      -9.054  10.429  17.463  1.00  0.00     0.137 A 
HETATM    2  N2  UNL     1      -9.842  11.298  16.844  1.00  0.00    -0.350 N 
ATOM      3  H2  UNL     1     -10.241  12.069  17.380  1.00  0.00     0.166 HD
HETATM    4  C3  UNL     1     -10.139  11.197  15.514  1.00  0.00     0.092 A 
HETATM    5  C4  UNL     1      -9.616  10.168  14.763  1.00  0.00     0.049 A 
HETATM    6  C5  UNL     1      -8.792   9.247  15.376  1.00  0.00     0.066 A 
HETATM    7  N3  UNL     1      -8.116   8.130  14.956  1.00  0.00    -0.340 N 
ATOM      8  H3  UNL     1      -8.125   7.772  14.001  1.00  0.00     0.167 HD
HETATM    9  C6  UNL     1      -7.443   7.580  15.967  1.00  0.00     0.120 A 
HETATM   10  N4  UNL     1      -7.716   8.382  17.041  1.00  0.00    -0.337 N 
ATOM     11  H4  UNL     1      -7.346   8.226  17.979  1.00  0.00     0.167 HD
HETATM   12  C13 UNL     1      -8.518   9.385  16.719  1.00  0.00     0.105 A 
ENDROOT
BRANCH   9  13
HETATM   13  C7  UNL     1      -6.589   6.394  16.016  1.00  0.00     0.051 A 
HETATM   14  C8  UNL     1      -5.223   6.400  15.998  1.00  0.00     0.049 A 
HETATM   15 CL1  UNL     1      -4.354   7.914  15.911  1.00  0.00    -0.083 Cl
HETATM   16  C9  UNL     1      -4.474   5.209  16.050  1.00  0.00     0.025 A 
HETATM   17  C10 UNL     1      -5.091   3.984  16.119  1.00  0.00     0.003 A 
HETATM   18  C11 UNL     1      -6.466   3.975  16.136  1.00  0.00     0.025 A 
HETATM   19  C12 UNL     1      -7.206   5.140  16.088  1.00  0.00     0.049 A 
HETATM   20 CL2  UNL     1      -8.961   5.099  16.112  1.00  0.00    -0.083 Cl
ENDBRANCH   9  13
BRANCH   1  21
HETATM   21  N1  UNL     1      -8.740  10.523  18.836  1.00  0.00    -0.311 N 
HETATM   22  C1  UNL     1      -7.746  11.390  19.358  1.00  0.00     0.227 C 
HETATM   23  O1  UNL     1      -7.127  12.103  18.528  1.00  0.00    -0.273 OA
ATOM     24  H1  UNL     1      -9.256   9.933  19.489  1.00  0.00     0.170 HD
BRANCH  22  25
HETATM   25  C14 UNL     1      -7.400  11.508  20.773  1.00  0.00     0.078 A 
HETATM   26  C15 UNL     1      -6.050  11.912  21.230  1.00  0.00     0.015 A 
HETATM   27  C16 UNL     1      -6.377  10.457  21.251  1.00  0.00     0.015 A 
ENDBRANCH  22  25
ENDBRANCH   1  21
TORSDOF 3
ENDMDL
