MODEL 1
REMARK VINA RESULT: -6.794691567      0.000      0.000
REMARK  3 active torsions:
REMARK  status: ('A' for Active; 'I' for Inactive)
REMARK    1  A    between atoms: C6_12  and  N4_13 
REMARK    2  A    between atoms: C10_17  and  C11_18 
REMARK    3  A    between atoms: C11_18  and  O1_19 
ROOT
HETATM    1  C1  UNL     1     -20.011 -24.580 -14.852  1.00  0.00     0.050 C 
HETATM    2  C2  UNL     1     -20.038 -24.286 -16.286  1.00  0.00    -0.029 A 
HETATM    3  C3  UNL     1     -21.198 -24.197 -17.067  1.00  0.00     0.097 A 
HETATM    4  N1  UNL     1     -20.842 -23.931 -18.324  1.00  0.00    -0.351 N 
ATOM      5  H1  UNL     1     -21.493 -23.815 -19.101  1.00  0.00     0.166 HD
HETATM    6  C4  UNL     1     -19.498 -23.836 -18.423  1.00  0.00     0.120 A 
HETATM    7  N2  UNL     1     -18.651 -23.598 -19.429  1.00  0.00    -0.338 N 
ATOM      8  H2  UNL     1     -19.013 -23.435 -20.370  1.00  0.00     0.168 HD
HETATM    9  C5  UNL     1     -17.341 -23.574 -19.212  1.00  0.00     0.183 A 
HETATM   10  N3  UNL     1     -16.808 -23.780 -18.007  1.00  0.00    -0.338 N 
ATOM     11  H3  UNL     1     -15.796 -23.753 -17.881  1.00  0.00     0.168 HD
HETATM   12  C6  UNL     1     -17.631 -24.027 -16.943  1.00  0.00     0.118 A 
HETATM   13  C13 UNL     1     -18.995 -24.060 -17.135  1.00  0.00     0.059 A 
ENDROOT
BRANCH  12  14
HETATM   14  N4  UNL     1     -17.074 -24.216 -15.658  1.00  0.00    -0.366 N 
HETATM   15  C7  UNL     1     -16.546 -23.149 -14.839  1.00  0.00     0.124 C 
HETATM   16  C8  UNL     1     -15.054 -23.421 -14.670  1.00  0.00     0.020 C 
HETATM   17  C9  UNL     1     -14.669 -24.749 -15.247  1.00  0.00     0.010 C 
HETATM   18  C10 UNL     1     -15.560 -25.886 -14.870  1.00  0.00     0.027 C 
HETATM   19  C12 UNL     1     -17.006 -25.553 -15.113  1.00  0.00     0.131 C 
BRANCH  18  20
HETATM   20  C11 UNL     1     -15.413 -26.303 -13.430  1.00  0.00     0.170 C 
BRANCH  20  21
HETATM   21  O1  UNL     1     -14.359 -27.180 -13.235  1.00  0.00    -0.400 OA
ATOM     22  H1  UNL     1     -13.717 -26.847 -12.619  1.00  0.00     0.209 HD
ENDBRANCH  20  21
ENDBRANCH  18  20
ENDBRANCH  12  14
TORSDOF 3
ENDMDL
