MODEL 2
REMARK VINA RESULT: -6.724649715      7.346      9.271
REMARK  3 active torsions:
REMARK  status: ('A' for Active; 'I' for Inactive)
REMARK    1  A    between atoms: C6_12  and  N4_13 
REMARK    2  A    between atoms: C10_17  and  C11_18 
REMARK    3  A    between atoms: C11_18  and  O1_19 
ROOT
HETATM    1  C1  UNL     1     -22.021 -29.071 -18.024  1.00  0.00     0.050 C 
HETATM    2  C2  UNL     1     -22.662 -29.229 -16.717  1.00  0.00    -0.029 A 
HETATM    3  C3  UNL     1     -22.252 -30.129 -15.725  1.00  0.00     0.097 A 
HETATM    4  N1  UNL     1     -23.073 -30.009 -14.681  1.00  0.00    -0.351 N 
ATOM      5  H1  UNL     1     -23.000 -30.549 -13.819  1.00  0.00     0.166 HD
HETATM    6  C4  UNL     1     -24.013 -29.070 -14.926  1.00  0.00     0.120 A 
HETATM    7  N2  UNL     1     -25.047 -28.582 -14.234  1.00  0.00    -0.338 N 
ATOM      8  H2  UNL     1     -25.243 -28.936 -13.297  1.00  0.00     0.168 HD
HETATM    9  C5  UNL     1     -25.821 -27.639 -14.759  1.00  0.00     0.183 A 
HETATM   10  N3  UNL     1     -25.616 -27.137 -15.977  1.00  0.00    -0.338 N 
ATOM     11  H3  UNL     1     -26.233 -26.413 -16.346  1.00  0.00     0.168 HD
HETATM   12  C6  UNL     1     -24.571 -27.602 -16.728  1.00  0.00     0.118 A 
HETATM   13  C13 UNL     1     -23.750 -28.580 -16.211  1.00  0.00     0.059 A 
ENDROOT
BRANCH  12  14
HETATM   14  N4  UNL     1     -24.330 -27.052 -18.007  1.00  0.00    -0.366 N 
HETATM   15  C7  UNL     1     -23.434 -25.947 -18.258  1.00  0.00     0.124 C 
HETATM   16  C8  UNL     1     -24.289 -24.798 -18.785  1.00  0.00     0.020 C 
HETATM   17  C9  UNL     1     -25.704 -25.229 -19.020  1.00  0.00     0.010 C 
HETATM   18  C10 UNL     1     -25.859 -26.516 -19.761  1.00  0.00     0.027 C 
HETATM   19  C12 UNL     1     -25.022 -27.605 -19.149  1.00  0.00     0.131 C 
BRANCH  18  20
HETATM   20  C11 UNL     1     -25.492 -26.410 -21.218  1.00  0.00     0.170 C 
BRANCH  20  21
HETATM   21  O1  UNL     1     -24.716 -27.472 -21.650  1.00  0.00    -0.400 OA
ATOM     22  H1  UNL     1     -24.561 -27.453 -22.588  1.00  0.00     0.209 HD
ENDBRANCH  20  21
ENDBRANCH  18  20
ENDBRANCH  12  14
TORSDOF 3
ENDMDL
