MODEL 5
REMARK VINA RESULT: -6.537696429      2.649      5.701
REMARK  3 active torsions:
REMARK  status: ('A' for Active; 'I' for Inactive)
REMARK    1  A    between atoms: C6_12  and  N4_13 
REMARK    2  A    between atoms: C10_17  and  C11_18 
REMARK    3  A    between atoms: C11_18  and  O1_19 
ROOT
HETATM    1  C1  UNL     1     -15.612 -23.352 -16.139  1.00  0.00     0.050 C 
HETATM    2  C2  UNL     1     -15.495 -24.520 -15.263  1.00  0.00    -0.029 A 
HETATM    3  C3  UNL     1     -14.306 -24.968 -14.674  1.00  0.00     0.097 A 
HETATM    4  N1  UNL     1     -14.574 -26.060 -13.959  1.00  0.00    -0.351 N 
ATOM      5  H1  UNL     1     -13.885 -26.590 -13.426  1.00  0.00     0.166 HD
HETATM    6  C4  UNL     1     -15.887 -26.365 -14.038  1.00  0.00     0.120 A 
HETATM    7  N2  UNL     1     -16.653 -27.336 -13.530  1.00  0.00    -0.338 N 
ATOM      8  H2  UNL     1     -16.236 -28.049 -12.930  1.00  0.00     0.168 HD
HETATM    9  C5  UNL     1     -17.953 -27.378 -13.802  1.00  0.00     0.183 A 
HETATM   10  N3  UNL     1     -18.554 -26.477 -14.578  1.00  0.00    -0.338 N 
ATOM     11  H3  UNL     1     -19.555 -26.543 -14.764  1.00  0.00     0.168 HD
HETATM   12  C6  UNL     1     -17.816 -25.462 -15.124  1.00  0.00     0.118 A 
HETATM   13  C13 UNL     1     -16.466 -25.391 -14.862  1.00  0.00     0.059 A 
ENDROOT
BRANCH  12  14
HETATM   14  N4  UNL     1     -18.453 -24.487 -15.924  1.00  0.00    -0.366 N 
HETATM   15  C7  UNL     1     -19.427 -23.542 -15.427  1.00  0.00     0.124 C 
HETATM   16  C8  UNL     1     -20.743 -23.853 -16.133  1.00  0.00     0.020 C 
HETATM   17  C9  UNL     1     -20.563 -24.891 -17.198  1.00  0.00     0.010 C 
HETATM   18  C10 UNL     1     -19.400 -24.670 -18.109  1.00  0.00     0.027 C 
HETATM   19  C12 UNL     1     -18.137 -24.418 -17.332  1.00  0.00     0.131 C 
BRANCH  18  20
HETATM   20  C11 UNL     1     -19.601 -23.518 -19.058  1.00  0.00     0.170 C 
BRANCH  20  21
HETATM   21  O1  UNL     1     -18.725 -22.473 -18.819  1.00  0.00    -0.400 OA
ATOM     22  H1  UNL     1     -18.295 -22.542 -17.974  1.00  0.00     0.209 HD
ENDBRANCH  20  21
ENDBRANCH  18  20
ENDBRANCH  12  14
TORSDOF 3
ENDMDL
