MODEL 3
REMARK VINA RESULT: -6.665248040      3.506      5.813
REMARK  3 active torsions:
REMARK  status: ('A' for Active; 'I' for Inactive)
REMARK    1  A    between atoms: C6_12  and  N4_13 
REMARK    2  A    between atoms: C10_17  and  C11_18 
REMARK    3  A    between atoms: C11_18  and  O1_19 
ROOT
HETATM    1  C1  UNL     1     -18.197 -27.623 -13.426  1.00  0.00     0.050 C 
HETATM    2  C2  UNL     1     -17.869 -26.458 -14.252  1.00  0.00    -0.029 A 
HETATM    3  C3  UNL     1     -16.590 -25.904 -14.389  1.00  0.00     0.097 A 
HETATM    4  N1  UNL     1     -16.671 -24.851 -15.202  1.00  0.00    -0.351 N 
ATOM      5  H1  UNL     1     -15.883 -24.263 -15.472  1.00  0.00     0.166 HD
HETATM    6  C4  UNL     1     -17.944 -24.673 -15.618  1.00  0.00     0.120 A 
HETATM    7  N2  UNL     1     -18.551 -23.787 -16.413  1.00  0.00    -0.338 N 
ATOM      8  H2  UNL     1     -18.007 -23.044 -16.853  1.00  0.00     0.168 HD
HETATM    9  C5  UNL     1     -19.859 -23.867 -16.634  1.00  0.00     0.183 A 
HETATM   10  N3  UNL     1     -20.623 -24.814 -16.088  1.00  0.00    -0.338 N 
ATOM     11  H3  UNL     1     -21.624 -24.842 -16.282  1.00  0.00     0.168 HD
HETATM   12  C6  UNL     1     -20.051 -25.746 -15.266  1.00  0.00     0.118 A 
HETATM   13  C13 UNL     1     -18.697 -25.690 -15.017  1.00  0.00     0.059 A 
ENDROOT
BRANCH  12  14
HETATM   14  N4  UNL     1     -20.849 -26.770 -14.709  1.00  0.00    -0.366 N 
HETATM   15  C7  UNL     1     -21.075 -28.053 -15.335  1.00  0.00     0.124 C 
HETATM   16  C8  UNL     1     -22.566 -28.134 -15.648  1.00  0.00     0.020 C 
HETATM   17  C9  UNL     1     -23.312 -26.970 -15.073  1.00  0.00     0.010 C 
HETATM   18  C10 UNL     1     -22.987 -26.648 -13.652  1.00  0.00     0.027 C 
HETATM   19  C12 UNL     1     -21.503 -26.539 -13.441  1.00  0.00     0.131 C 
BRANCH  18  20
HETATM   20  C11 UNL     1     -23.523 -27.663 -12.676  1.00  0.00     0.170 C 
BRANCH  20  21
HETATM   21  O1  UNL     1     -22.780 -27.723 -11.509  1.00  0.00    -0.400 OA
ATOM     22  H1  UNL     1     -21.875 -27.465 -11.639  1.00  0.00     0.209 HD
ENDBRANCH  20  21
ENDBRANCH  18  20
ENDBRANCH  12  14
TORSDOF 3
ENDMDL
