MODEL 5
REMARK VINA RESULT: -6.537778633      1.495      3.187
REMARK  1 active torsions:
REMARK  status: ('A' for Active; 'I' for Inactive)
REMARK    1  A    between atoms: C8_9  and  N2_10 
ROOT
HETATM    1  C1  UNL     1      -5.984   1.704  20.977  1.00  0.00     0.068 C 
HETATM    2  C2  UNL     1      -5.577   0.320  20.621  1.00  0.00     0.007 A 
HETATM    3  C3  UNL     1      -6.150  -0.764  21.252  1.00  0.00     0.033 A 
HETATM    4  C4  UNL     1      -5.757  -2.041  20.906  1.00  0.00    -0.036 A 
HETATM    5  C5  UNL     1      -6.370  -3.217  21.581  1.00  0.00     0.050 C 
HETATM    6  C6  UNL     1      -4.783  -2.177  19.921  1.00  0.00     0.094 A 
HETATM    7  C7  UNL     1      -4.367  -3.494  19.553  1.00  0.00     0.104 C 
HETATM    8  N1  UNL     1      -4.044  -4.577  19.260  1.00  0.00    -0.191 NA
HETATM    9  C8  UNL     1      -4.213  -1.089  19.293  1.00  0.00     0.125 A 
HETATM   10  N3  UNL     1      -4.639   0.134  19.674  1.00  0.00    -0.345 N 
ATOM     11  H3  UNL     1      -4.232   0.953  19.224  1.00  0.00     0.167 HD
ENDROOT
BRANCH   9  12
HETATM   12  N2  UNL     1      -3.221  -1.272  18.291  1.00  0.00    -0.362 N 
HETATM   13  C9  UNL     1      -3.433  -0.950  16.893  1.00  0.00     0.150 C 
HETATM   14  C10 UNL     1      -2.049  -0.590  16.348  1.00  0.00     0.187 C 
HETATM   15  O1  UNL     1      -1.288  -1.744  16.305  1.00  0.00    -0.388 OA
HETATM   16  C11 UNL     1      -1.294  -2.477  17.458  1.00  0.00     0.187 C 
HETATM   17  C12 UNL     1      -1.907  -1.806  18.639  1.00  0.00     0.150 C 
ENDBRANCH   9  12
TORSDOF 1
ENDMDL
