MODEL 8
REMARK VINA RESULT: -6.279531709      2.649      4.627
REMARK  1 active torsions:
REMARK  status: ('A' for Active; 'I' for Inactive)
REMARK    1  A    between atoms: C8_9  and  N2_10 
ROOT
HETATM    1  C1  UNL     1      -5.036   1.492  18.497  1.00  0.00     0.068 C 
HETATM    2  C2  UNL     1      -4.221   0.256  18.366  1.00  0.00     0.007 A 
HETATM    3  C3  UNL     1      -3.264   0.148  17.378  1.00  0.00     0.033 A 
HETATM    4  C4  UNL     1      -2.519  -1.009  17.274  1.00  0.00    -0.036 A 
HETATM    5  C5  UNL     1      -1.484  -1.133  16.211  1.00  0.00     0.050 C 
HETATM    6  C6  UNL     1      -2.774  -2.030  18.184  1.00  0.00     0.094 A 
HETATM    7  C7  UNL     1      -2.010  -3.235  18.086  1.00  0.00     0.104 C 
HETATM    8  N1  UNL     1      -1.371  -4.208  17.996  1.00  0.00    -0.191 NA
HETATM    9  C8  UNL     1      -3.732  -1.918  19.169  1.00  0.00     0.125 A 
HETATM   10  N3  UNL     1      -4.428  -0.762  19.221  1.00  0.00    -0.345 N 
ATOM     11  H3  UNL     1      -5.143  -0.656  19.942  1.00  0.00     0.167 HD
ENDROOT
BRANCH   9  12
HETATM   12  N2  UNL     1      -3.962  -2.986  20.079  1.00  0.00    -0.362 N 
HETATM   13  C9  UNL     1      -2.948  -3.491  20.985  1.00  0.00     0.150 C 
HETATM   14  C10 UNL     1      -3.720  -4.033  22.191  1.00  0.00     0.187 C 
HETATM   15  O1  UNL     1      -4.398  -5.172  21.793  1.00  0.00    -0.388 OA
HETATM   16  C11 UNL     1      -5.122  -5.034  20.643  1.00  0.00     0.187 C 
HETATM   17  C12 UNL     1      -5.267  -3.638  20.142  1.00  0.00     0.150 C 
ENDBRANCH   9  12
TORSDOF 1
ENDMDL
