MODEL 4
REMARK VINA RESULT: -6.546457974      2.537      4.459
REMARK  1 active torsions:
REMARK  status: ('A' for Active; 'I' for Inactive)
REMARK    1  A    between atoms: C8_9  and  N2_10 
ROOT
HETATM    1  C1  UNL     1      -1.977  -2.337  15.721  1.00  0.00     0.068 C 
HETATM    2  C2  UNL     1      -2.665  -1.722  16.886  1.00  0.00     0.007 A 
HETATM    3  C3  UNL     1      -2.835  -0.355  16.959  1.00  0.00     0.033 A 
HETATM    4  C4  UNL     1      -3.477   0.195  18.049  1.00  0.00    -0.036 A 
HETATM    5  C5  UNL     1      -3.665   1.669  18.137  1.00  0.00     0.050 C 
HETATM    6  C6  UNL     1      -3.930  -0.670  19.041  1.00  0.00     0.094 A 
HETATM    7  C7  UNL     1      -4.597  -0.113  20.177  1.00  0.00     0.104 C 
HETATM    8  N1  UNL     1      -5.145   0.358  21.094  1.00  0.00    -0.191 NA
HETATM    9  C8  UNL     1      -3.758  -2.036  18.963  1.00  0.00     0.125 A 
HETATM   10  N3  UNL     1      -3.123  -2.514  17.872  1.00  0.00    -0.345 N 
ATOM     11  H3  UNL     1      -2.984  -3.522  17.792  1.00  0.00     0.167 HD
ENDROOT
BRANCH   9  12
HETATM   12  N2  UNL     1      -4.236  -2.885  19.999  1.00  0.00    -0.362 N 
HETATM   13  C9  UNL     1      -5.644  -3.074  20.286  1.00  0.00     0.150 C 
HETATM   14  C10 UNL     1      -5.750  -4.485  20.871  1.00  0.00     0.187 C 
HETATM   15  O1  UNL     1      -5.160  -4.479  22.123  1.00  0.00    -0.388 OA
HETATM   16  C11 UNL     1      -3.917  -3.914  22.166  1.00  0.00     0.187 C 
HETATM   17  C12 UNL     1      -3.300  -3.624  20.841  1.00  0.00     0.150 C 
ENDBRANCH   9  12
TORSDOF 1
ENDMDL
