MODEL 2
REMARK VINA RESULT: -6.602636514      1.513      3.421
REMARK  1 active torsions:
REMARK  status: ('A' for Active; 'I' for Inactive)
REMARK    1  A    between atoms: C8_9  and  N2_10 
ROOT
HETATM    1  C1  UNL     1      -5.876   1.642  20.932  1.00  0.00     0.068 C 
HETATM    2  C2  UNL     1      -5.492   0.249  20.586  1.00  0.00     0.007 A 
HETATM    3  C3  UNL     1      -6.100  -0.821  21.207  1.00  0.00     0.033 A 
HETATM    4  C4  UNL     1      -5.728  -2.107  20.871  1.00  0.00    -0.036 A 
HETATM    5  C5  UNL     1      -6.379  -3.268  21.537  1.00  0.00     0.050 C 
HETATM    6  C6  UNL     1      -4.739  -2.265  19.905  1.00  0.00     0.094 A 
HETATM    7  C7  UNL     1      -4.344  -3.592  19.547  1.00  0.00     0.104 C 
HETATM    8  N1  UNL     1      -4.039  -4.683  19.262  1.00  0.00    -0.191 NA
HETATM    9  C8  UNL     1      -4.134  -1.192  19.286  1.00  0.00     0.125 A 
HETATM   10  N3  UNL     1      -4.540   0.041  19.657  1.00  0.00    -0.345 N 
ATOM     11  H3  UNL     1      -4.107   0.850  19.213  1.00  0.00     0.167 HD
ENDROOT
BRANCH   9  12
HETATM   12  N2  UNL     1      -3.127  -1.397  18.304  1.00  0.00    -0.362 N 
HETATM   13  C9  UNL     1      -1.825  -1.960  18.604  1.00  0.00     0.150 C 
HETATM   14  C10 UNL     1      -1.383  -2.662  17.318  1.00  0.00     0.187 C 
HETATM   15  O1  UNL     1      -1.107  -1.692  16.370  1.00  0.00    -0.388 OA
HETATM   16  C11 UNL     1      -2.081  -0.746  16.220  1.00  0.00     0.187 C 
HETATM   17  C12 UNL     1      -3.370  -1.040  16.909  1.00  0.00     0.150 C 
ENDBRANCH   9  12
TORSDOF 1
ENDMDL
