MODEL 3
REMARK VINA RESULT: -6.597293580      2.250      4.003
REMARK  1 active torsions:
REMARK  status: ('A' for Active; 'I' for Inactive)
REMARK    1  A    between atoms: C8_9  and  N2_10 
ROOT
HETATM    1  C1  UNL     1      -2.412  -0.806  14.716  1.00  0.00     0.068 C 
HETATM    2  C2  UNL     1      -2.964  -0.569  16.076  1.00  0.00     0.007 A 
HETATM    3  C3  UNL     1      -3.414   0.683  16.441  1.00  0.00     0.033 A 
HETATM    4  C4  UNL     1      -3.922   0.881  17.709  1.00  0.00    -0.036 A 
HETATM    5  C5  UNL     1      -4.410   2.228  18.112  1.00  0.00     0.050 C 
HETATM    6  C6  UNL     1      -3.956  -0.209  18.573  1.00  0.00     0.094 A 
HETATM    7  C7  UNL     1      -4.481  -0.017  19.890  1.00  0.00     0.104 C 
HETATM    8  N1  UNL     1      -4.918   0.157  20.958  1.00  0.00    -0.191 NA
HETATM    9  C8  UNL     1      -3.505  -1.458  18.203  1.00  0.00     0.125 A 
HETATM   10  N3  UNL     1      -3.020  -1.590  16.950  1.00  0.00    -0.345 N 
ATOM     11  H3  UNL     1      -2.680  -2.505  16.654  1.00  0.00     0.167 HD
ENDROOT
BRANCH   9  12
HETATM   12  N2  UNL     1      -3.557  -2.545  19.117  1.00  0.00    -0.362 N 
HETATM   13  C9  UNL     1      -4.798  -3.105  19.619  1.00  0.00     0.150 C 
HETATM   14  C10 UNL     1      -4.486  -4.573  19.917  1.00  0.00     0.187 C 
HETATM   15  O1  UNL     1      -3.641  -4.622  21.011  1.00  0.00    -0.388 OA
HETATM   16  C11 UNL     1      -2.558  -3.794  20.934  1.00  0.00     0.187 C 
HETATM   17  C12 UNL     1      -2.327  -3.164  19.603  1.00  0.00     0.150 C 
ENDBRANCH   9  12
TORSDOF 1
ENDMDL
