MODEL 4
REMARK VINA RESULT: -5.526048328      1.853      5.398
REMARK  3 active torsions:
REMARK  status: ('A' for Active; 'I' for Inactive)
REMARK    1  A    between atoms: N1_1  and  S1_4 
REMARK    2  A    between atoms: S1_4  and  C1_7 
REMARK    3  A    between atoms: C4_10  and  N2_11 
ROOT
HETATM    1  C1  UNL     1      43.978  24.391  53.875  1.00  0.00     0.079 A 
HETATM    2  C2  UNL     1      42.849  23.829  54.432  1.00  0.00     0.028 A 
HETATM    3  C3  UNL     1      42.029  24.587  55.242  1.00  0.00     0.037 A 
HETATM    4  C4  UNL     1      42.334  25.914  55.502  1.00  0.00     0.102 A 
HETATM    5  C5  UNL     1      43.487  26.446  54.919  1.00  0.00     0.037 A 
HETATM    6  C6  UNL     1      44.316  25.707  54.109  1.00  0.00     0.028 A 
ENDROOT
BRANCH   1   7
HETATM    7  S1  UNL     1      44.972  23.376  52.859  1.00  0.00     0.256 S 
HETATM    8  O1  UNL     1      45.912  24.251  52.091  1.00  0.00    -0.201 OA
HETATM    9  O2  UNL     1      45.707  22.341  53.665  1.00  0.00    -0.201 OA
BRANCH   7  10
HETATM   10  N1  UNL     1      43.952  22.575  51.727  1.00  0.00    -0.324 N 
ATOM     11  H12 UNL     1      43.874  22.807  50.736  1.00  0.00     0.169 HD
ATOM     12  H11 UNL     1      43.451  21.838  52.223  1.00  0.00     0.169 HD
ENDBRANCH   7  10
ENDBRANCH   1   7
BRANCH   4  13
HETATM   13  N2  UNL     1      41.505  26.704  56.329  1.00  0.00    -0.116 N 
HETATM   14  O3  UNL     1      41.608  26.603  57.558  1.00  0.00    -0.532 OA
HETATM   15  O4  UNL     1      40.603  27.569  55.780  1.00  0.00    -0.532 OA
ENDBRANCH   4  13
TORSDOF 3
ENDMDL
