MODEL 3
REMARK VINA RESULT: -5.528820069      1.851      5.234
REMARK  3 active torsions:
REMARK  status: ('A' for Active; 'I' for Inactive)
REMARK    1  A    between atoms: N1_1  and  S1_4 
REMARK    2  A    between atoms: S1_4  and  C1_7 
REMARK    3  A    between atoms: C4_10  and  N2_11 
ROOT
HETATM    1  C1  UNL     1      43.929  24.349  53.888  1.00  0.00     0.079 A 
HETATM    2  C2  UNL     1      44.273  25.663  54.126  1.00  0.00     0.028 A 
HETATM    3  C3  UNL     1      43.476  26.449  54.932  1.00  0.00     0.037 A 
HETATM    4  C4  UNL     1      42.329  25.926  55.507  1.00  0.00     0.102 A 
HETATM    5  C5  UNL     1      42.015  24.591  55.241  1.00  0.00     0.037 A 
HETATM    6  C6  UNL     1      42.796  23.791  54.441  1.00  0.00     0.028 A 
ENDROOT
BRANCH   1   7
HETATM    7  S1  UNL     1      44.982  23.409  52.859  1.00  0.00     0.256 S 
HETATM    8  O1  UNL     1      45.888  24.349  52.127  1.00  0.00    -0.201 OA
HETATM    9  O2  UNL     1      45.756  22.389  53.647  1.00  0.00    -0.201 OA
BRANCH   7  10
HETATM   10  N1  UNL     1      44.015  22.592  51.692  1.00  0.00    -0.324 N 
ATOM     11  H12 UNL     1      43.765  22.958  50.773  1.00  0.00     0.169 HD
ATOM     12  H11 UNL     1      43.745  21.690  52.085  1.00  0.00     0.169 HD
ENDBRANCH   7  10
ENDBRANCH   1   7
BRANCH   4  13
HETATM   13  N2  UNL     1      41.502  26.717  56.335  1.00  0.00    -0.116 N 
HETATM   14  O3  UNL     1      41.609  26.619  57.564  1.00  0.00    -0.532 OA
HETATM   15  O4  UNL     1      40.595  27.578  55.788  1.00  0.00    -0.532 OA
ENDBRANCH   4  13
TORSDOF 3
ENDMDL
