MODEL 5
REMARK VINA RESULT: -5.488326785      1.922      5.244
REMARK  3 active torsions:
REMARK  status: ('A' for Active; 'I' for Inactive)
REMARK    1  A    between atoms: N1_1  and  S1_4 
REMARK    2  A    between atoms: S1_4  and  C1_7 
REMARK    3  A    between atoms: C4_10  and  N2_11 
ROOT
HETATM    1  C1  UNL     1      43.908  24.328  53.848  1.00  0.00     0.079 A 
HETATM    2  C2  UNL     1      44.238  25.657  54.011  1.00  0.00     0.028 A 
HETATM    3  C3  UNL     1      43.471  26.462  54.828  1.00  0.00     0.037 A 
HETATM    4  C4  UNL     1      42.369  25.943  55.488  1.00  0.00     0.102 A 
HETATM    5  C5  UNL     1      42.069  24.591  55.296  1.00  0.00     0.037 A 
HETATM    6  C6  UNL     1      42.820  23.773  54.486  1.00  0.00     0.028 A 
ENDROOT
BRANCH   1   7
HETATM    7  S1  UNL     1      44.921  23.365  52.799  1.00  0.00     0.256 S 
HETATM    8  O1  UNL     1      45.712  22.419  53.646  1.00  0.00    -0.201 OA
HETATM    9  O2  UNL     1      44.108  22.639  51.763  1.00  0.00    -0.201 OA
BRANCH   7  10
HETATM   10  N1  UNL     1      46.029  24.413  52.001  1.00  0.00    -0.324 N 
ATOM     11  H12 UNL     1      46.854  24.835  52.429  1.00  0.00     0.169 HD
ATOM     12  H11 UNL     1      45.713  24.529  51.038  1.00  0.00     0.169 HD
ENDBRANCH   7  10
ENDBRANCH   1   7
BRANCH   4  13
HETATM   13  N2  UNL     1      41.573  26.752  56.329  1.00  0.00    -0.116 N 
HETATM   14  O3  UNL     1      41.630  26.587  57.554  1.00  0.00    -0.532 OA
HETATM   15  O4  UNL     1      40.753  27.705  55.798  1.00  0.00    -0.532 OA
ENDBRANCH   4  13
TORSDOF 3
ENDMDL
