MODEL 2
REMARK VINA RESULT: -5.543404684      0.145      1.336
REMARK  3 active torsions:
REMARK  status: ('A' for Active; 'I' for Inactive)
REMARK    1  A    between atoms: N1_1  and  S1_4 
REMARK    2  A    between atoms: S1_4  and  C1_7 
REMARK    3  A    between atoms: C4_10  and  N2_11 
ROOT
HETATM    1  C1  UNL     1      42.474  25.622  55.275  1.00  0.00     0.079 A 
HETATM    2  C2  UNL     1      42.205  24.305  54.964  1.00  0.00     0.028 A 
HETATM    3  C3  UNL     1      43.097  23.582  54.199  1.00  0.00     0.037 A 
HETATM    4  C4  UNL     1      44.265  24.170  53.740  1.00  0.00     0.102 A 
HETATM    5  C5  UNL     1      44.500  25.506  54.077  1.00  0.00     0.037 A 
HETATM    6  C6  UNL     1      43.624  26.243  54.838  1.00  0.00     0.028 A 
ENDROOT
BRANCH   1   7
HETATM    7  S1  UNL     1      41.303  26.479  56.246  1.00  0.00     0.256 S 
HETATM    8  O1  UNL     1      41.685  26.333  57.686  1.00  0.00    -0.201 OA
HETATM    9  O2  UNL     1      41.203  27.924  55.841  1.00  0.00    -0.201 OA
BRANCH   7  10
HETATM   10  N1  UNL     1      39.766  25.735  56.029  1.00  0.00    -0.324 N 
ATOM     11  H12 UNL     1      38.869  26.222  56.033  1.00  0.00     0.169 HD
ATOM     12  H11 UNL     1      39.917  24.735  55.899  1.00  0.00     0.169 HD
ENDBRANCH   7  10
ENDBRANCH   1   7
BRANCH   4  13
HETATM   13  N2  UNL     1      45.189  23.444  52.957  1.00  0.00    -0.116 N 
HETATM   14  O3  UNL     1      45.720  22.433  53.434  1.00  0.00    -0.532 OA
HETATM   15  O4  UNL     1      45.494  23.852  51.691  1.00  0.00    -0.532 OA
ENDBRANCH   4  13
TORSDOF 3
ENDMDL
