MODEL 1
REMARK VINA RESULT: -5.543482955      0.000      0.000
REMARK  3 active torsions:
REMARK  status: ('A' for Active; 'I' for Inactive)
REMARK    1  A    between atoms: N1_1  and  S1_4 
REMARK    2  A    between atoms: S1_4  and  C1_7 
REMARK    3  A    between atoms: C4_10  and  N2_11 
ROOT
HETATM    1  C1  UNL     1      42.426  25.576  55.288  1.00  0.00     0.079 A 
HETATM    2  C2  UNL     1      43.559  26.232  54.854  1.00  0.00     0.028 A 
HETATM    3  C3  UNL     1      44.490  25.566  54.084  1.00  0.00     0.037 A 
HETATM    4  C4  UNL     1      44.294  24.237  53.742  1.00  0.00     0.102 A 
HETATM    5  C5  UNL     1      43.133  23.609  54.201  1.00  0.00     0.037 A 
HETATM    6  C6  UNL     1      42.194  24.255  54.969  1.00  0.00     0.028 A 
ENDROOT
BRANCH   1   7
HETATM    7  S1  UNL     1      41.289  26.479  56.259  1.00  0.00     0.256 S 
HETATM    8  O1  UNL     1      41.669  26.324  57.698  1.00  0.00    -0.201 OA
HETATM    9  O2  UNL     1      41.240  27.925  55.849  1.00  0.00    -0.201 OA
BRANCH   7  10
HETATM   10  N1  UNL     1      39.725  25.790  56.048  1.00  0.00    -0.324 N 
ATOM     11  H12 UNL     1      39.211  25.268  56.758  1.00  0.00     0.169 HD
ATOM     12  H11 UNL     1      39.417  25.998  55.099  1.00  0.00     0.169 HD
ENDBRANCH   7  10
ENDBRANCH   1   7
BRANCH   4  13
HETATM   13  N2  UNL     1      45.236  23.540  52.954  1.00  0.00    -0.116 N 
HETATM   14  O3  UNL     1      45.561  22.391  53.280  1.00  0.00    -0.532 OA
HETATM   15  O4  UNL     1      45.781  24.125  51.848  1.00  0.00    -0.532 OA
ENDBRANCH   4  13
TORSDOF 3
ENDMDL
