MODEL 12
REMARK VINA RESULT: -5.293639614      1.168      1.317
REMARK  3 active torsions:
REMARK  status: ('A' for Active; 'I' for Inactive)
REMARK    1  A    between atoms: N1_1  and  S1_4 
REMARK    2  A    between atoms: S1_4  and  C1_7 
REMARK    3  A    between atoms: C4_10  and  N2_11 
ROOT
HETATM    1  C1  UNL     1      42.747  25.313  55.211  1.00  0.00     0.079 A 
HETATM    2  C2  UNL     1      43.801  26.009  54.657  1.00  0.00     0.028 A 
HETATM    3  C3  UNL     1      44.629  25.392  53.742  1.00  0.00     0.037 A 
HETATM    4  C4  UNL     1      44.408  24.074  53.374  1.00  0.00     0.102 A 
HETATM    5  C5  UNL     1      43.329  23.404  53.958  1.00  0.00     0.037 A 
HETATM    6  C6  UNL     1      42.493  24.001  54.872  1.00  0.00     0.028 A 
ENDROOT
BRANCH   1   7
HETATM    7  S1  UNL     1      41.739  26.153  56.363  1.00  0.00     0.256 S 
HETATM    8  O1  UNL     1      41.925  27.625  56.169  1.00  0.00    -0.201 OA
HETATM    9  O2  UNL     1      40.296  25.753  56.228  1.00  0.00    -0.201 OA
BRANCH   7  10
HETATM   10  N1  UNL     1      42.277  25.757  57.950  1.00  0.00    -0.324 N 
ATOM     11  H12 UNL     1      41.729  25.257  58.651  1.00  0.00     0.169 HD
ATOM     12  H11 UNL     1      43.229  26.109  58.055  1.00  0.00     0.169 HD
ENDBRANCH   7  10
ENDBRANCH   1   7
BRANCH   4  13
HETATM   13  N2  UNL     1      45.245  23.428  52.438  1.00  0.00    -0.116 N 
HETATM   14  O3  UNL     1      45.857  22.408  52.780  1.00  0.00    -0.532 OA
HETATM   15  O4  UNL     1      45.377  23.920  51.172  1.00  0.00    -0.532 OA
ENDBRANCH   4  13
TORSDOF 3
ENDMDL
