MODEL 1
REMARK VINA RESULT: -8.986742664      0.000      0.000
REMARK  9 active torsions:
REMARK  status: ('A' for Active; 'I' for Inactive)
REMARK       I    between atoms: C1_2  and  N1_3 
REMARK    1  A    between atoms: C1_2  and  C10_13 
REMARK    2  A    between atoms: N1_3  and  C2_5 
REMARK    3  A    between atoms: C2_5  and  C3_6 
REMARK    4  A    between atoms: C3_6  and  C4_7 
REMARK    5  A    between atoms: C11_16  and  C12_17 
REMARK    6  A    between atoms: N3_21  and  C16_22 
REMARK    7  A    between atoms: C16_22  and  O2_23 
REMARK    8  A    between atoms: C16_22  and  C17_25 
REMARK    9  A    between atoms: C24_37  and  O4_38 
ROOT
HETATM    1  C10 UNL     1      -9.744  80.229  17.207  1.00  0.00     0.141 A 
HETATM    2  N2  UNL     1      -9.500  81.216  18.132  1.00  0.00    -0.337 N 
ATOM      3  H2  UNL     1      -9.897  82.140  17.959  1.00  0.00     0.167 HD
HETATM    4  C11 UNL     1      -8.781  81.046  19.240  1.00  0.00     0.108 A 
HETATM    5  N4  UNL     1      -8.270  79.819  19.443  1.00  0.00    -0.309 N 
ATOM      6  H4  UNL     1      -7.714  79.655  20.283  1.00  0.00     0.170 HD
HETATM    7  C23 UNL     1      -8.458  78.806  18.592  1.00  0.00     0.282 A 
HETATM    8  O3  UNL     1      -7.967  77.644  18.794  1.00  0.00    -0.265 OA
HETATM    9  C24 UNL     1      -9.217  78.982  17.424  1.00  0.00     0.167 A 
ENDROOT
BRANCH   4  10
HETATM   10  C12 UNL     1      -8.522  82.154  20.199  1.00  0.00     0.154 C 
HETATM   11  C13 UNL     1      -7.388  81.659  21.094  1.00  0.00     0.035 C 
HETATM   12  C14 UNL     1      -7.473  82.654  22.238  1.00  0.00     0.022 C 
HETATM   13  C15 UNL     1      -9.007  82.830  22.370  1.00  0.00     0.126 C 
HETATM   14  N3  UNL     1      -9.608  82.324  21.185  1.00  0.00    -0.349 N 
BRANCH  14  15
HETATM   15  C16 UNL     1     -10.951  82.048  20.898  1.00  0.00     0.155 C 
BRANCH  15  16
HETATM   16  O2  UNL     1     -11.129  80.756  20.692  1.00  0.00    -0.345 OA
ATOM     17  H2  UNL     1     -11.510  80.601  19.836  1.00  0.00     0.219 HD
ENDBRANCH  15  16
BRANCH  15  18
HETATM   18  C17 UNL     1     -12.132  82.842  20.786  1.00  0.00     0.092 A 
HETATM   19  C18 UNL     1     -13.429  82.487  21.040  1.00  0.00     0.134 A 
HETATM   20  F1  UNL     1     -13.713  81.293  21.553  1.00  0.00    -0.205 F 
HETATM   21  C19 UNL     1     -14.530  83.316  20.843  1.00  0.00     0.043 A 
HETATM   22  C20 UNL     1     -14.324  84.570  20.368  1.00  0.00     0.006 A 
HETATM   23  C21 UNL     1     -13.041  84.989  20.094  1.00  0.00     0.043 A 
HETATM   24  C22 UNL     1     -11.971  84.156  20.293  1.00  0.00     0.134 A 
HETATM   25  F2  UNL     1     -10.737  84.613  20.011  1.00  0.00    -0.205 F 
ENDBRANCH  15  18
ENDBRANCH  14  15
ENDBRANCH   4  10
BRANCH   1  26
HETATM   26  C1  UNL     1     -10.534  80.519  16.048  1.00  0.00     0.271 C 
HETATM   27  O1  UNL     1     -10.176  79.917  14.969  1.00  0.00    -0.266 OA
HETATM   28  N1  UNL     1     -11.631  81.371  15.978  1.00  0.00    -0.355 N 
ATOM     29  H1  UNL     1     -11.935  81.859  16.821  1.00  0.00     0.162 HD
BRANCH  28  30
HETATM   30  C2  UNL     1     -12.364  81.588  14.719  1.00  0.00     0.127 C 
BRANCH  30  31
HETATM   31  C3  UNL     1     -12.400  83.023  14.301  1.00  0.00     0.058 C 
BRANCH  31  32
HETATM   32  C4  UNL     1     -13.462  83.795  14.994  1.00  0.00    -0.057 A 
HETATM   33  C5  UNL     1     -14.794  83.735  14.649  1.00  0.00     0.007 A 
HETATM   34  C6  UNL     1     -15.760  84.471  15.316  1.00  0.00     0.001 A 
HETATM   35  C7  UNL     1     -15.418  85.296  16.358  1.00  0.00     0.000 A 
HETATM   36  C8  UNL     1     -14.090  85.370  16.719  1.00  0.00     0.001 A 
HETATM   37  C9  UNL     1     -13.132  84.631  16.048  1.00  0.00     0.007 A 
ENDBRANCH  31  32
ENDBRANCH  30  31
ENDBRANCH  28  30
ENDBRANCH   1  26
BRANCH   9  38
HETATM   38  O4  UNL     1      -9.382  77.904  16.576  1.00  0.00    -0.354 OA
ATOM     39  H4  UNL     1      -8.679  77.488  16.093  1.00  0.00     0.218 HD
ENDBRANCH   9  38
TORSDOF 9
ENDMDL
