MODEL 3
REMARK VINA RESULT: -8.825915063      1.829      2.559
REMARK  9 active torsions:
REMARK  status: ('A' for Active; 'I' for Inactive)
REMARK       I    between atoms: C1_2  and  N1_3 
REMARK    1  A    between atoms: C1_2  and  C10_13 
REMARK    2  A    between atoms: N1_3  and  C2_5 
REMARK    3  A    between atoms: C2_5  and  C3_6 
REMARK    4  A    between atoms: C3_6  and  C4_7 
REMARK    5  A    between atoms: C11_16  and  C12_17 
REMARK    6  A    between atoms: N3_21  and  C16_22 
REMARK    7  A    between atoms: C16_22  and  O2_23 
REMARK    8  A    between atoms: C16_22  and  C17_25 
REMARK    9  A    between atoms: C24_37  and  O4_38 
ROOT
HETATM    1  C10 UNL     1      -9.482  80.317  17.977  1.00  0.00     0.141 A 
HETATM    2  N2  UNL     1      -9.416  81.686  18.086  1.00  0.00    -0.337 N 
ATOM      3  H2  UNL     1      -9.767  82.243  17.307  1.00  0.00     0.167 HD
HETATM    4  C11 UNL     1      -8.923  82.332  19.142  1.00  0.00     0.108 A 
HETATM    5  N4  UNL     1      -8.467  81.573  20.153  1.00  0.00    -0.309 N 
ATOM      6  H4  UNL     1      -8.083  82.036  20.977  1.00  0.00     0.170 HD
HETATM    7  C23 UNL     1      -8.494  80.236  20.125  1.00  0.00     0.282 A 
HETATM    8  O3  UNL     1      -8.057  79.525  21.091  1.00  0.00    -0.265 OA
HETATM    9  C24 UNL     1      -9.013  79.552  19.014  1.00  0.00     0.167 A 
ENDROOT
BRANCH   4  10
HETATM   10  C12 UNL     1      -8.847  83.817  19.202  1.00  0.00     0.154 C 
HETATM   11  C13 UNL     1      -7.951  84.129  20.399  1.00  0.00     0.035 C 
HETATM   12  C14 UNL     1      -8.254  85.603  20.604  1.00  0.00     0.022 C 
HETATM   13  C15 UNL     1      -9.775  85.641  20.305  1.00  0.00     0.126 C 
HETATM   14  N3  UNL     1     -10.117  84.438  19.629  1.00  0.00    -0.349 N 
BRANCH  14  15
HETATM   15  C16 UNL     1     -11.373  83.889  19.339  1.00  0.00     0.155 C 
BRANCH  15  16
HETATM   16  O2  UNL     1     -11.583  83.868  18.035  1.00  0.00    -0.345 OA
ATOM     17  H2  UNL     1     -11.802  82.991  17.744  1.00  0.00     0.219 HD
ENDBRANCH  15  16
BRANCH  15  18
HETATM   18  C17 UNL     1     -12.438  83.361  20.128  1.00  0.00     0.092 A 
HETATM   19  C18 UNL     1     -12.595  82.091  20.614  1.00  0.00     0.134 A 
HETATM   20  F1  UNL     1     -11.632  81.186  20.459  1.00  0.00    -0.205 F 
HETATM   21  C19 UNL     1     -13.705  81.648  21.328  1.00  0.00     0.043 A 
HETATM   22  C20 UNL     1     -14.713  82.522  21.573  1.00  0.00     0.006 A 
HETATM   23  C21 UNL     1     -14.615  83.817  21.111  1.00  0.00     0.043 A 
HETATM   24  C22 UNL     1     -13.514  84.231  20.409  1.00  0.00     0.134 A 
HETATM   25  F2  UNL     1     -13.466  85.507  19.980  1.00  0.00    -0.205 F 
ENDBRANCH  15  18
ENDBRANCH  14  15
ENDBRANCH   4  10
BRANCH   1  26
HETATM   26  C1  UNL     1     -10.034  79.723  16.796  1.00  0.00     0.271 C 
HETATM   27  O1  UNL     1     -10.738  78.664  16.987  1.00  0.00    -0.266 OA
HETATM   28  N1  UNL     1      -9.885  80.173  15.489  1.00  0.00    -0.355 N 
ATOM     29  H1  UNL     1      -9.332  81.012  15.312  1.00  0.00     0.162 HD
BRANCH  28  30
HETATM   30  C2  UNL     1     -10.505  79.470  14.352  1.00  0.00     0.127 C 
BRANCH  30  31
HETATM   31  C3  UNL     1     -10.911  80.388  13.245  1.00  0.00     0.058 C 
BRANCH  31  32
HETATM   32  C4  UNL     1     -11.618  81.598  13.734  1.00  0.00    -0.057 A 
HETATM   33  C5  UNL     1     -12.910  81.583  14.213  1.00  0.00     0.007 A 
HETATM   34  C6  UNL     1     -13.541  82.732  14.661  1.00  0.00     0.001 A 
HETATM   35  C7  UNL     1     -12.893  83.941  14.642  1.00  0.00     0.000 A 
HETATM   36  C8  UNL     1     -11.600  83.977  14.167  1.00  0.00     0.001 A 
HETATM   37  C9  UNL     1     -10.977  82.825  13.722  1.00  0.00     0.007 A 
ENDBRANCH  31  32
ENDBRANCH  30  31
ENDBRANCH  28  30
ENDBRANCH   1  26
BRANCH   9  38
HETATM   38  O4  UNL     1      -9.018  78.172  19.033  1.00  0.00    -0.354 OA
ATOM     39  H4  UNL     1      -8.646  77.623  18.352  1.00  0.00     0.218 HD
ENDBRANCH   9  38
TORSDOF 9
ENDMDL
