MODEL 2
REMARK VINA RESULT: -8.840745508      1.018      1.763
REMARK  9 active torsions:
REMARK  status: ('A' for Active; 'I' for Inactive)
REMARK       I    between atoms: C1_2  and  N1_3 
REMARK    1  A    between atoms: C1_2  and  C10_13 
REMARK    2  A    between atoms: N1_3  and  C2_5 
REMARK    3  A    between atoms: C2_5  and  C3_6 
REMARK    4  A    between atoms: C3_6  and  C4_7 
REMARK    5  A    between atoms: C11_16  and  C12_17 
REMARK    6  A    between atoms: N3_21  and  C16_22 
REMARK    7  A    between atoms: C16_22  and  O2_23 
REMARK    8  A    between atoms: C16_22  and  C17_25 
REMARK    9  A    between atoms: C24_37  and  O4_38 
ROOT
HETATM    1  C10 UNL     1     -10.697  81.339  16.365  1.00  0.00     0.141 A 
HETATM    2  N2  UNL     1     -10.178  81.927  17.494  1.00  0.00    -0.337 N 
ATOM      3  H2  UNL     1     -10.354  82.921  17.638  1.00  0.00     0.167 HD
HETATM    4  C11 UNL     1      -9.460  81.284  18.414  1.00  0.00     0.108 A 
HETATM    5  N4  UNL     1      -9.242  79.974  18.199  1.00  0.00    -0.309 N 
ATOM      6  H4  UNL     1      -8.696  79.451  18.883  1.00  0.00     0.170 HD
HETATM    7  C23 UNL     1      -9.710  79.328  17.126  1.00  0.00     0.282 A 
HETATM    8  O3  UNL     1      -9.496  78.085  16.931  1.00  0.00    -0.265 OA
HETATM    9  C24 UNL     1     -10.468  80.004  16.156  1.00  0.00     0.167 A 
ENDROOT
BRANCH   4  10
HETATM   10  C12 UNL     1      -8.895  81.970  19.607  1.00  0.00     0.154 C 
HETATM   11  C13 UNL     1      -7.675  81.145  20.010  1.00  0.00     0.035 C 
HETATM   12  C14 UNL     1      -7.423  81.675  21.410  1.00  0.00     0.022 C 
HETATM   13  C15 UNL     1      -8.873  81.854  21.929  1.00  0.00     0.126 C 
HETATM   14  N3  UNL     1      -9.745  81.823  20.806  1.00  0.00    -0.349 N 
BRANCH  14  15
HETATM   15  C16 UNL     1     -11.141  81.722  20.747  1.00  0.00     0.155 C 
BRANCH  15  16
HETATM   16  O2  UNL     1     -11.515  80.456  20.691  1.00  0.00    -0.345 OA
ATOM     17  H2  UNL     1     -11.968  80.205  21.486  1.00  0.00     0.219 HD
ENDBRANCH  15  16
BRANCH  15  18
HETATM   18  C17 UNL     1     -12.211  82.666  20.737  1.00  0.00     0.092 A 
HETATM   19  C18 UNL     1     -13.527  82.470  21.060  1.00  0.00     0.134 A 
HETATM   20  F1  UNL     1     -13.935  81.301  21.547  1.00  0.00    -0.205 F 
HETATM   21  C19 UNL     1     -14.519  83.442  20.961  1.00  0.00     0.043 A 
HETATM   22  C20 UNL     1     -14.178  84.677  20.518  1.00  0.00     0.006 A 
HETATM   23  C21 UNL     1     -12.869  84.939  20.179  1.00  0.00     0.043 A 
HETATM   24  C22 UNL     1     -11.909  83.968  20.281  1.00  0.00     0.134 A 
HETATM   25  F2  UNL     1     -10.643  84.273  19.938  1.00  0.00    -0.205 F 
ENDBRANCH  15  18
ENDBRANCH  14  15
ENDBRANCH   4  10
BRANCH   1  26
HETATM   26  C1  UNL     1     -11.458  82.125  15.440  1.00  0.00     0.271 C 
HETATM   27  O1  UNL     1     -10.913  82.308  14.290  1.00  0.00    -0.266 OA
HETATM   28  N1  UNL     1     -12.706  82.697  15.661  1.00  0.00    -0.355 N 
ATOM     29  H1  UNL     1     -13.160  82.564  16.565  1.00  0.00     0.162 HD
BRANCH  28  30
HETATM   30  C2  UNL     1     -13.390  83.489  14.624  1.00  0.00     0.127 C 
BRANCH  30  31
HETATM   31  C3  UNL     1     -14.845  83.686  14.901  1.00  0.00     0.058 C 
BRANCH  31  32
HETATM   32  C4  UNL     1     -15.117  84.910  15.697  1.00  0.00    -0.057 A 
HETATM   33  C5  UNL     1     -14.212  85.459  16.579  1.00  0.00     0.007 A 
HETATM   34  C6  UNL     1     -14.498  86.602  17.309  1.00  0.00     0.001 A 
HETATM   35  C7  UNL     1     -15.708  87.235  17.176  1.00  0.00     0.000 A 
HETATM   36  C8  UNL     1     -16.626  86.701  16.298  1.00  0.00     0.001 A 
HETATM   37  C9  UNL     1     -16.333  85.560  15.574  1.00  0.00     0.007 A 
ENDBRANCH  31  32
ENDBRANCH  30  31
ENDBRANCH  28  30
ENDBRANCH   1  26
BRANCH   9  38
HETATM   38  O4  UNL     1     -10.927  79.293  15.065  1.00  0.00    -0.354 OA
ATOM     39  H4  UNL     1     -11.197  79.684  14.242  1.00  0.00     0.218 HD
ENDBRANCH   9  38
TORSDOF 9
ENDMDL
