MODEL 14
REMARK VINA RESULT: -6.731996346      2.693      3.161
REMARK  5 active torsions:
REMARK  status: ('A' for Active; 'I' for Inactive)
REMARK    1  A    between atoms: N1_1  and  S1_4 
REMARK    2  A    between atoms: S1_4  and  C1_7 
REMARK    3  A    between atoms: C4_10  and  N2_11 
REMARK    4  A    between atoms: C5_13  and  N3_15 
REMARK    5  A    between atoms: N3_15  and  C6_17 
ROOT
HETATM    1  N2  UNL     1      -0.724   6.593  84.324  1.00  0.00    -0.336 N 
ATOM      2  H2  UNL     1      -0.753   7.475  84.835  1.00  0.00     0.168 HD
HETATM    3  C5  UNL     1      -0.269   6.577  83.108  1.00  0.00     0.156 C 
HETATM    4  S2  UNL     1      -0.225   5.000  82.217  1.00  0.00    -0.013 SA
ENDROOT
BRANCH   1   5
HETATM    5  C4  UNL     1      -1.182   5.405  84.955  1.00  0.00     0.034 A 
HETATM    6  C3  UNL     1      -2.543   5.214  85.193  1.00  0.00     0.031 A 
HETATM    7  C2  UNL     1      -2.949   4.050  85.807  1.00  0.00     0.027 A 
HETATM    8  C1  UNL     1      -2.066   3.062  86.198  1.00  0.00     0.079 A 
HETATM    9  C13 UNL     1      -0.709   3.247  85.964  1.00  0.00     0.027 A 
HETATM   10  C12 UNL     1      -0.304   4.410  85.350  1.00  0.00     0.031 A 
BRANCH   8  11
HETATM   11  S1  UNL     1      -2.700   1.633  86.966  1.00  0.00     0.256 S 
HETATM   12  O1  UNL     1      -2.314   0.377  86.270  1.00  0.00    -0.201 OA
HETATM   13  O2  UNL     1      -2.131   1.565  88.364  1.00  0.00    -0.201 OA
BRANCH  11  14
HETATM   14  N1  UNL     1      -4.432   1.696  87.101  1.00  0.00    -0.324 N 
ATOM     15  H12 UNL     1      -4.982   2.555  87.121  1.00  0.00     0.169 HD
ATOM     16  H11 UNL     1      -4.796   0.744  87.155  1.00  0.00     0.169 HD
ENDBRANCH  11  14
ENDBRANCH   8  11
ENDBRANCH   1   5
BRANCH   3  17
HETATM   17  N3  UNL     1       0.175   7.765  82.535  1.00  0.00    -0.336 N 
ATOM     18  H3  UNL     1       0.006   7.926  81.542  1.00  0.00     0.168 HD
BRANCH  17  19
HETATM   19  C6  UNL     1       0.856   8.761  83.283  1.00  0.00     0.034 A 
HETATM   20  C7  UNL     1       1.111   9.982  82.655  1.00  0.00     0.032 A 
HETATM   21  C8  UNL     1       1.751  10.998  83.303  1.00  0.00     0.044 A 
HETATM   22  C9  UNL     1       2.151  10.800  84.607  1.00  0.00     0.116 A 
HETATM   23  F1  UNL     1       2.791  11.804  85.268  1.00  0.00    -0.206 F 
HETATM   24  C10 UNL     1       1.918   9.614  85.260  1.00  0.00     0.044 A 
HETATM   25  C11 UNL     1       1.265   8.603  84.572  1.00  0.00     0.032 A 
ENDBRANCH  17  19
ENDBRANCH   3  17
TORSDOF 5
ENDMDL
