MODEL 16
REMARK VINA RESULT: -6.696757097      5.666      8.166
REMARK  5 active torsions:
REMARK  status: ('A' for Active; 'I' for Inactive)
REMARK    1  A    between atoms: N1_1  and  S1_4 
REMARK    2  A    between atoms: S1_4  and  C1_7 
REMARK    3  A    between atoms: C4_10  and  N2_11 
REMARK    4  A    between atoms: C5_13  and  N3_15 
REMARK    5  A    between atoms: N3_15  and  C6_17 
ROOT
HETATM    1  N2  UNL     1       0.316   3.095  82.928  1.00  0.00    -0.336 N 
ATOM      2  H2  UNL     1       0.784   3.355  83.796  1.00  0.00     0.168 HD
HETATM    3  C5  UNL     1      -0.690   2.275  82.967  1.00  0.00     0.156 C 
HETATM    4  S2  UNL     1      -1.506   1.826  81.413  1.00  0.00    -0.013 SA
ENDROOT
BRANCH   1   5
HETATM    5  C4  UNL     1       0.778   3.636  81.698  1.00  0.00     0.034 A 
HETATM    6  C3  UNL     1       1.852   3.047  81.028  1.00  0.00     0.031 A 
HETATM    7  C2  UNL     1       2.271   3.600  79.839  1.00  0.00     0.027 A 
HETATM    8  C1  UNL     1       1.674   4.713  79.278  1.00  0.00     0.079 A 
HETATM    9  C13 UNL     1       0.606   5.304  79.941  1.00  0.00     0.027 A 
HETATM   10  C12 UNL     1       0.187   4.751  81.130  1.00  0.00     0.031 A 
BRANCH   8  11
HETATM   11  S1  UNL     1       2.295   5.320  77.768  1.00  0.00     0.256 S 
HETATM   12  O1  UNL     1       1.225   5.742  76.826  1.00  0.00    -0.201 OA
HETATM   13  O2  UNL     1       3.136   6.540  78.068  1.00  0.00    -0.201 OA
BRANCH  11  14
HETATM   14  N1  UNL     1       3.314   4.153  76.981  1.00  0.00    -0.324 N 
ATOM     15  H12 UNL     1       2.990   3.459  76.308  1.00  0.00     0.169 HD
ATOM     16  H11 UNL     1       4.275   4.280  77.303  1.00  0.00     0.169 HD
ENDBRANCH  11  14
ENDBRANCH   8  11
ENDBRANCH   1   5
BRANCH   3  17
HETATM   17  N3  UNL     1      -1.110   1.777  84.197  1.00  0.00    -0.336 N 
ATOM     18  H3  UNL     1      -0.853   0.825  84.456  1.00  0.00     0.168 HD
BRANCH  17  19
HETATM   19  C6  UNL     1      -1.886   2.547  85.103  1.00  0.00     0.034 A 
HETATM   20  C7  UNL     1      -2.289   3.820  84.693  1.00  0.00     0.032 A 
HETATM   21  C8  UNL     1      -3.044   4.624  85.497  1.00  0.00     0.044 A 
HETATM   22  C9  UNL     1      -3.410   4.156  86.740  1.00  0.00     0.116 A 
HETATM   23  F1  UNL     1      -4.163   4.945  87.554  1.00  0.00    -0.206 F 
HETATM   24  C10 UNL     1      -3.034   2.910  87.180  1.00  0.00     0.044 A 
HETATM   25  C11 UNL     1      -2.268   2.118  86.338  1.00  0.00     0.032 A 
ENDBRANCH  17  19
ENDBRANCH   3  17
TORSDOF 5
ENDMDL
