MODEL 15
REMARK VINA RESULT: -6.705412216      5.629      8.239
REMARK  5 active torsions:
REMARK  status: ('A' for Active; 'I' for Inactive)
REMARK    1  A    between atoms: N1_1  and  S1_4 
REMARK    2  A    between atoms: S1_4  and  C1_7 
REMARK    3  A    between atoms: C4_10  and  N2_11 
REMARK    4  A    between atoms: C5_13  and  N3_15 
REMARK    5  A    between atoms: N3_15  and  C6_17 
ROOT
HETATM    1  N2  UNL     1       0.038   3.651  83.314  1.00  0.00    -0.336 N 
ATOM      2  H2  UNL     1      -0.066   2.641  83.411  1.00  0.00     0.168 HD
HETATM    3  C5  UNL     1       0.048   4.396  84.378  1.00  0.00     0.156 C 
HETATM    4  S2  UNL     1       0.234   6.187  84.184  1.00  0.00    -0.013 SA
ENDROOT
BRANCH   1   5
HETATM    5  C4  UNL     1       0.170   4.218  82.018  1.00  0.00     0.034 A 
HETATM    6  C3  UNL     1      -0.944   4.742  81.361  1.00  0.00     0.031 A 
HETATM    7  C2  UNL     1      -0.778   5.283  80.106  1.00  0.00     0.027 A 
HETATM    8  C1  UNL     1       0.446   5.329  79.466  1.00  0.00     0.079 A 
HETATM    9  C13 UNL     1       1.559   4.808  80.114  1.00  0.00     0.027 A 
HETATM   10  C12 UNL     1       1.393   4.268  81.369  1.00  0.00     0.031 A 
BRANCH   8  11
HETATM   11  S1  UNL     1       0.530   6.038  77.878  1.00  0.00     0.256 S 
HETATM   12  O1  UNL     1       1.767   5.668  77.139  1.00  0.00    -0.201 OA
HETATM   13  O2  UNL     1      -0.642   5.524  77.076  1.00  0.00    -0.201 OA
BRANCH  11  14
HETATM   14  N1  UNL     1       0.408   7.771  77.945  1.00  0.00    -0.324 N 
ATOM     15  H12 UNL     1       0.868   8.411  77.297  1.00  0.00     0.169 HD
ATOM     16  H11 UNL     1      -0.192   8.032  78.728  1.00  0.00     0.169 HD
ENDBRANCH  11  14
ENDBRANCH   8  11
ENDBRANCH   1   5
BRANCH   3  17
HETATM   17  N3  UNL     1      -0.076   3.794  85.626  1.00  0.00    -0.336 N 
ATOM     18  H3  UNL     1       0.743   3.745  86.232  1.00  0.00     0.168 HD
BRANCH  17  19
HETATM   19  C6  UNL     1      -1.302   3.245  86.087  1.00  0.00     0.034 A 
HETATM   20  C7  UNL     1      -1.273   1.959  86.630  1.00  0.00     0.032 A 
HETATM   21  C8  UNL     1      -2.403   1.359  87.104  1.00  0.00     0.044 A 
HETATM   22  C9  UNL     1      -3.594   2.050  87.040  1.00  0.00     0.116 A 
HETATM   23  F1  UNL     1      -4.730   1.466  87.509  1.00  0.00    -0.206 F 
HETATM   24  C10 UNL     1      -3.663   3.318  86.514  1.00  0.00     0.044 A 
HETATM   25  C11 UNL     1      -2.497   3.898  86.041  1.00  0.00     0.032 A 
ENDBRANCH  17  19
ENDBRANCH   3  17
TORSDOF 5
ENDMDL
