MODEL 17
REMARK VINA RESULT: -6.695249139      5.587      8.190
REMARK  5 active torsions:
REMARK  status: ('A' for Active; 'I' for Inactive)
REMARK    1  A    between atoms: N1_1  and  S1_4 
REMARK    2  A    between atoms: S1_4  and  C1_7 
REMARK    3  A    between atoms: C4_10  and  N2_11 
REMARK    4  A    between atoms: C5_13  and  N3_15 
REMARK    5  A    between atoms: N3_15  and  C6_17 
ROOT
HETATM    1  N2  UNL     1       0.062   3.684  83.345  1.00  0.00    -0.336 N 
ATOM      2  H2  UNL     1      -0.017   2.672  83.447  1.00  0.00     0.168 HD
HETATM    3  C5  UNL     1       0.082   4.431  84.406  1.00  0.00     0.156 C 
HETATM    4  S2  UNL     1       0.223   6.226  84.203  1.00  0.00    -0.013 SA
ENDROOT
BRANCH   1   5
HETATM    5  C4  UNL     1       0.149   4.248  82.044  1.00  0.00     0.034 A 
HETATM    6  C3  UNL     1      -0.983   4.794  81.436  1.00  0.00     0.031 A 
HETATM    7  C2  UNL     1      -0.861   5.332  80.175  1.00  0.00     0.027 A 
HETATM    8  C1  UNL     1       0.335   5.357  79.484  1.00  0.00     0.079 A 
HETATM    9  C13 UNL     1       1.466   4.815  80.083  1.00  0.00     0.027 A 
HETATM   10  C12 UNL     1       1.343   4.277  81.344  1.00  0.00     0.031 A 
BRANCH   8  11
HETATM   11  S1  UNL     1       0.364   6.066  77.893  1.00  0.00     0.256 S 
HETATM   12  O1  UNL     1       1.611   5.760  77.142  1.00  0.00    -0.201 OA
HETATM   13  O2  UNL     1      -0.787   5.487  77.104  1.00  0.00    -0.201 OA
BRANCH  11  14
HETATM   14  N1  UNL     1       0.151   7.790  77.958  1.00  0.00    -0.324 N 
ATOM     15  H12 UNL     1      -0.412   8.279  78.654  1.00  0.00     0.169 HD
ATOM     16  H11 UNL     1       0.675   8.219  77.194  1.00  0.00     0.169 HD
ENDBRANCH  11  14
ENDBRANCH   8  11
ENDBRANCH   1   5
BRANCH   3  17
HETATM   17  N3  UNL     1       0.002   3.831  85.659  1.00  0.00    -0.336 N 
ATOM     18  H3  UNL     1       0.823   3.847  86.265  1.00  0.00     0.168 HD
BRANCH  17  19
HETATM   19  C6  UNL     1      -1.180   3.198  86.125  1.00  0.00     0.034 A 
HETATM   20  C7  UNL     1      -2.375   3.915  86.043  1.00  0.00     0.032 A 
HETATM   21  C8  UNL     1      -3.559   3.379  86.459  1.00  0.00     0.044 A 
HETATM   22  C9  UNL     1      -3.561   2.100  86.970  1.00  0.00     0.116 A 
HETATM   23  F1  UNL     1      -4.734   1.550  87.389  1.00  0.00    -0.206 F 
HETATM   24  C10 UNL     1      -2.406   1.361  87.067  1.00  0.00     0.044 A 
HETATM   25  C11 UNL     1      -1.220   1.935  86.635  1.00  0.00     0.032 A 
ENDBRANCH  17  19
ENDBRANCH   3  17
TORSDOF 5
ENDMDL
