MODEL 19
REMARK VINA RESULT: -6.671790247      2.682      3.326
REMARK  5 active torsions:
REMARK  status: ('A' for Active; 'I' for Inactive)
REMARK    1  A    between atoms: N1_1  and  S1_4 
REMARK    2  A    between atoms: S1_4  and  C1_7 
REMARK    3  A    between atoms: C4_10  and  N2_11 
REMARK    4  A    between atoms: C5_13  and  N3_15 
REMARK    5  A    between atoms: N3_15  and  C6_17 
ROOT
HETATM    1  N2  UNL     1      -0.576   6.562  84.316  1.00  0.00    -0.336 N 
ATOM      2  H2  UNL     1      -0.418   7.403  84.872  1.00  0.00     0.168 HD
HETATM    3  C5  UNL     1      -0.295   6.574  83.049  1.00  0.00     0.156 C 
HETATM    4  S2  UNL     1      -0.583   5.069  82.080  1.00  0.00    -0.013 SA
ENDROOT
BRANCH   1   5
HETATM    5  C4  UNL     1      -1.098   5.399  84.944  1.00  0.00     0.034 A 
HETATM    6  C3  UNL     1      -0.245   4.364  85.331  1.00  0.00     0.031 A 
HETATM    7  C2  UNL     1      -0.788   3.253  85.936  1.00  0.00     0.027 A 
HETATM    8  C1  UNL     1      -2.141   3.117  86.179  1.00  0.00     0.079 A 
HETATM    9  C13 UNL     1      -2.995   4.144  85.796  1.00  0.00     0.027 A 
HETATM   10  C12 UNL     1      -2.453   5.255  85.191  1.00  0.00     0.031 A 
BRANCH   8  11
HETATM   11  S1  UNL     1      -2.707   1.663  86.953  1.00  0.00     0.256 S 
HETATM   12  O1  UNL     1      -2.298   0.425  86.237  1.00  0.00    -0.201 OA
HETATM   13  O2  UNL     1      -2.100   1.604  88.335  1.00  0.00    -0.201 OA
BRANCH  11  14
HETATM   14  N1  UNL     1      -4.436   1.668  87.132  1.00  0.00    -0.324 N 
ATOM     15  H12 UNL     1      -5.069   1.004  86.684  1.00  0.00     0.169 HD
ATOM     16  H11 UNL     1      -4.704   2.434  87.751  1.00  0.00     0.169 HD
ENDBRANCH  11  14
ENDBRANCH   8  11
ENDBRANCH   1   5
BRANCH   3  17
HETATM   17  N3  UNL     1       0.222   7.734  82.480  1.00  0.00    -0.336 N 
ATOM     18  H3  UNL     1       0.120   7.877  81.476  1.00  0.00     0.168 HD
BRANCH  17  19
HETATM   19  C6  UNL     1       0.886   8.726  83.249  1.00  0.00     0.034 A 
HETATM   20  C7  UNL     1       1.073   9.981  82.665  1.00  0.00     0.032 A 
HETATM   21  C8  UNL     1       1.694  10.995  83.336  1.00  0.00     0.044 A 
HETATM   22  C9  UNL     1       2.142  10.760  84.618  1.00  0.00     0.116 A 
HETATM   23  F1  UNL     1       2.763  11.761  85.301  1.00  0.00    -0.206 F 
HETATM   24  C10 UNL     1       1.977   9.539  85.226  1.00  0.00     0.044 A 
HETATM   25  C11 UNL     1       1.342   8.531  84.517  1.00  0.00     0.032 A 
ENDBRANCH  17  19
ENDBRANCH   3  17
TORSDOF 5
ENDMDL
