MODEL 8
REMARK VINA RESULT: -5.415798835      3.014      5.035
REMARK  0 active torsions:
REMARK  status: ('A' for Active; 'I' for Inactive)
ROOT
HETATM    1  C1  UNL     1       0.648   0.421  81.393  1.00  0.00     0.077 C 
HETATM    2  C2  UNL     1      -0.015   1.752  81.668  1.00  0.00     0.070 C 
HETATM    3  C3  UNL     1       0.187   2.384  82.804  1.00  0.00     0.108 C 
HETATM    4  C4  UNL     1      -0.408   3.661  83.149  1.00  0.00     0.258 C 
HETATM    5  O1  UNL     1      -0.170   4.224  84.275  1.00  0.00    -0.267 OA
HETATM    6  N1  UNL     1      -1.282   4.365  82.275  1.00  0.00    -0.228 N 
ATOM      7  H1  UNL     1      -1.947   5.067  82.600  1.00  0.00     0.184 HD
HETATM    8  S1  UNL     1      -1.116   3.918  80.591  1.00  0.00     0.369 S 
HETATM    9  O2  UNL     1       0.107   4.617  80.078  1.00  0.00    -0.175 OA
HETATM   10  O3  UNL     1      -2.344   4.236  79.823  1.00  0.00    -0.175 OA
HETATM   11  O4  UNL     1      -0.823   2.221  80.643  1.00  0.00    -0.221 OA
ENDROOT
TORSDOF 0
ENDMDL
