MODEL 3
REMARK VINA RESULT: -5.891319613      4.366      5.028
REMARK  0 active torsions:
REMARK  status: ('A' for Active; 'I' for Inactive)
ROOT
HETATM    1  C1  UNL     1       2.662   5.173  80.071  1.00  0.00     0.077 C 
HETATM    2  C2  UNL     1       1.505   4.222  80.277  1.00  0.00     0.070 C 
HETATM    3  C3  UNL     1       1.704   3.008  80.743  1.00  0.00     0.108 C 
HETATM    4  C4  UNL     1       0.653   2.034  80.970  1.00  0.00     0.258 C 
HETATM    5  O1  UNL     1       0.915   0.865  81.426  1.00  0.00    -0.267 OA
HETATM    6  N1  UNL     1      -0.718   2.304  80.704  1.00  0.00    -0.228 N 
ATOM      7  H1  UNL     1      -1.409   1.570  80.545  1.00  0.00     0.184 HD
HETATM    8  S1  UNL     1      -1.114   4.008  80.674  1.00  0.00     0.369 S 
HETATM    9  O2  UNL     1      -1.209   4.454  82.103  1.00  0.00    -0.175 OA
HETATM   10  O3  UNL     1      -2.349   4.263  79.893  1.00  0.00    -0.175 OA
HETATM   11  O4  UNL     1       0.262   4.738  79.939  1.00  0.00    -0.221 OA
ENDROOT
TORSDOF 0
ENDMDL
