MODEL 9
REMARK VINA RESULT: -5.406187600      2.183      2.559
REMARK  0 active torsions:
REMARK  status: ('A' for Active; 'I' for Inactive)
ROOT
HETATM    1  C1  UNL     1      -1.542   7.201  84.932  1.00  0.00     0.077 C 
HETATM    2  C2  UNL     1      -1.603   5.781  85.446  1.00  0.00     0.070 C 
HETATM    3  C3  UNL     1      -0.546   4.999  85.394  1.00  0.00     0.108 C 
HETATM    4  C4  UNL     1      -0.517   3.626  85.863  1.00  0.00     0.258 C 
HETATM    5  O1  UNL     1       0.547   2.917  85.783  1.00  0.00    -0.267 OA
HETATM    6  N1  UNL     1      -1.651   2.984  86.435  1.00  0.00    -0.228 N 
ATOM      7  H1  UNL     1      -1.756   1.969  86.469  1.00  0.00     0.184 HD
HETATM    8  S1  UNL     1      -2.847   4.089  87.075  1.00  0.00     0.369 S 
HETATM    9  O2  UNL     1      -2.331   4.561  88.402  1.00  0.00    -0.175 OA
HETATM   10  O3  UNL     1      -4.184   3.452  87.154  1.00  0.00    -0.175 OA
HETATM   11  O4  UNL     1      -2.835   5.400  85.958  1.00  0.00    -0.221 OA
ENDROOT
TORSDOF 0
ENDMDL
