MODEL 6
REMARK VINA RESULT: -5.481398114      3.620      4.776
REMARK  0 active torsions:
REMARK  status: ('A' for Active; 'I' for Inactive)
ROOT
HETATM    1  C1  UNL     1       0.737   0.799  81.397  1.00  0.00     0.077 C 
HETATM    2  C2  UNL     1       0.350   2.252  81.236  1.00  0.00     0.070 C 
HETATM    3  C3  UNL     1      -0.790   2.587  80.672  1.00  0.00     0.108 C 
HETATM    4  C4  UNL     1      -1.238   3.954  80.478  1.00  0.00     0.258 C 
HETATM    5  O1  UNL     1      -2.362   4.213  79.919  1.00  0.00    -0.267 OA
HETATM    6  N1  UNL     1      -0.473   5.081  80.887  1.00  0.00    -0.228 N 
ATOM      7  H1  UNL     1      -0.598   6.012  80.488  1.00  0.00     0.184 HD
HETATM    8  S1  UNL     1       0.702   4.728  82.135  1.00  0.00     0.369 S 
HETATM    9  O2  UNL     1      -0.052   4.656  83.429  1.00  0.00    -0.175 OA
HETATM   10  O3  UNL     1       1.797   5.727  82.145  1.00  0.00    -0.175 OA
HETATM   11  O4  UNL     1       1.280   3.158  81.723  1.00  0.00    -0.221 OA
ENDROOT
TORSDOF 0
ENDMDL
