MODEL 4
REMARK VINA RESULT: -10.353967406      3.254      5.953
REMARK  4 active torsions:
REMARK  status: ('A' for Active; 'I' for Inactive)
REMARK    1  A    between atoms: C1_2  and  C2_4 
REMARK    2  A    between atoms: C9_11  and  N1_12 
REMARK    3  A    between atoms: N1_12  and  C10_14 
REMARK    4  A    between atoms: C11_17  and  C12_18 
ROOT
HETATM    1  C10 UNL     1     -25.207   4.258  11.826  1.00  0.00     0.143 A 
HETATM    2  N2  UNL     1     -25.383   3.917  13.105  1.00  0.00    -0.326 N 
ATOM      3  H2  UNL     1     -24.902   4.451  13.828  1.00  0.00     0.169 HD
HETATM    4  C11 UNL     1     -26.175   2.890  13.471  1.00  0.00     0.119 A 
HETATM    5  N5  UNL     1     -26.798   2.201  12.507  1.00  0.00    -0.348 N 
ATOM      6  H5  UNL     1     -27.396   1.423  12.785  1.00  0.00     0.167 HD
HETATM    7  C19 UNL     1     -26.684   2.469  11.201  1.00  0.00     0.136 A 
HETATM    8  C20 UNL     1     -25.854   3.542  10.853  1.00  0.00     0.175 A 
HETATM    9  F2  UNL     1     -25.716   3.840   9.538  1.00  0.00    -0.201 F 
ENDROOT
BRANCH   1  10
HETATM   10  N1  UNL     1     -24.356   5.344  11.505  1.00  0.00    -0.368 N 
ATOM     11  H1  UNL     1     -23.626   5.606  12.168  1.00  0.00     0.161 HD
BRANCH  10  12
HETATM   12  C9  UNL     1     -24.479   6.096  10.279  1.00  0.00     0.102 C 
HETATM   13  C2  UNL     1     -23.134   6.214   9.589  1.00  0.00     0.114 C 
HETATM   14  C3  UNL     1     -22.577   7.613   9.852  1.00  0.00     0.002 C 
HETATM   15  C4  UNL     1     -23.395   8.671   9.178  1.00  0.00     0.006 C 
HETATM   16  C8  UNL     1     -22.709   7.779  11.375  1.00  0.00     0.006 C 
HETATM   17  C5  UNL     1     -24.856   8.396   9.394  1.00  0.00     0.007 C 
HETATM   18  C6  UNL     1     -24.990   7.474  10.606  1.00  0.00     0.009 C 
HETATM   19  C7  UNL     1     -24.159   8.076  11.708  1.00  0.00     0.007 C 
BRANCH  13  20
HETATM   20  C1  UNL     1     -23.224   5.938   8.143  1.00  0.00     0.179 C 
HETATM   21  O1  UNL     1     -24.292   5.582   7.582  1.00  0.00    -0.648 OA
HETATM   22  O2  UNL     1     -22.105   6.064   7.333  1.00  0.00    -0.648 OA
ENDBRANCH  13  20
ENDBRANCH  10  12
ENDBRANCH   1  10
BRANCH   4  23
HETATM   23  C12 UNL     1     -26.308   2.576  14.880  1.00  0.00     0.037 A 
HETATM   24  C13 UNL     1     -25.363   2.011  15.703  1.00  0.00     0.106 A 
HETATM   25  N3  UNL     1     -25.916   1.902  16.933  1.00  0.00    -0.351 N 
HETATM   26  C14 UNL     1     -27.177   2.387  16.889  1.00  0.00     0.116 A 
ATOM     27  H3  UNL     1     -25.456   1.518  17.759  1.00  0.00     0.166 HD
HETATM   28  N4  UNL     1     -28.111   2.490  17.855  1.00  0.00    -0.349 N 
HETATM   29  C18 UNL     1     -27.457   2.820  15.611  1.00  0.00     0.026 A 
HETATM   30  C15 UNL     1     -29.300   3.014  17.548  1.00  0.00     0.132 A 
ATOM     31  H4  UNL     1     -27.913   2.173  18.804  1.00  0.00     0.167 HD
HETATM   32  C16 UNL     1     -29.630   3.461  16.287  1.00  0.00     0.132 A 
HETATM   33  F1  UNL     1     -30.860   3.988  16.032  1.00  0.00    -0.205 F 
HETATM   34  C17 UNL     1     -28.684   3.365  15.277  1.00  0.00     0.060 A 
ENDBRANCH   4  23
TORSDOF 4
ENDMDL
