MODEL 2
REMARK VINA RESULT: -10.544388627      3.143      5.702
REMARK  4 active torsions:
REMARK  status: ('A' for Active; 'I' for Inactive)
REMARK    1  A    between atoms: C1_2  and  C2_4 
REMARK    2  A    between atoms: C9_11  and  N1_12 
REMARK    3  A    between atoms: N1_12  and  C10_14 
REMARK    4  A    between atoms: C11_17  and  C12_18 
ROOT
HETATM    1  C10 UNL     1     -25.378   4.496  12.014  1.00  0.00     0.143 A 
HETATM    2  N2  UNL     1     -25.544   3.982  13.235  1.00  0.00    -0.326 N 
ATOM      3  H2  UNL     1     -25.270   4.538  14.045  1.00  0.00     0.169 HD
HETATM    4  C11 UNL     1     -26.060   2.753  13.433  1.00  0.00     0.119 A 
HETATM    5  N5  UNL     1     -26.413   2.039  12.357  1.00  0.00    -0.348 N 
ATOM      6  H5  UNL     1     -26.803   1.108  12.508  1.00  0.00     0.167 HD
HETATM    7  C19 UNL     1     -26.286   2.469  11.097  1.00  0.00     0.136 A 
HETATM    8  C20 UNL     1     -25.747   3.750  10.926  1.00  0.00     0.175 A 
HETATM    9  F2  UNL     1     -25.604   4.216   9.661  1.00  0.00    -0.201 F 
ENDROOT
BRANCH   1  10
HETATM   10  N1  UNL     1     -24.823   5.792  11.873  1.00  0.00    -0.368 N 
ATOM     11  H1  UNL     1     -25.334   6.587  12.255  1.00  0.00     0.161 HD
BRANCH  10  12
HETATM   12  C9  UNL     1     -23.563   6.032  11.210  1.00  0.00     0.102 C 
HETATM   13  C2  UNL     1     -22.689   6.948  12.044  1.00  0.00     0.114 C 
HETATM   14  C3  UNL     1     -22.748   8.352  11.444  1.00  0.00     0.002 C 
HETATM   15  C4  UNL     1     -22.102   8.405  10.094  1.00  0.00     0.006 C 
HETATM   16  C8  UNL     1     -24.255   8.617  11.283  1.00  0.00     0.006 C 
HETATM   17  C5  UNL     1     -22.539   7.225   9.275  1.00  0.00     0.007 C 
HETATM   18  C6  UNL     1     -23.834   6.683   9.879  1.00  0.00     0.009 C 
HETATM   19  C7  UNL     1     -24.755   7.859  10.067  1.00  0.00     0.007 C 
BRANCH  13  20
HETATM   20  C1  UNL     1     -21.298   6.462  12.130  1.00  0.00     0.179 C 
HETATM   21  O1  UNL     1     -20.368   7.144  12.635  1.00  0.00    -0.648 OA
HETATM   22  O2  UNL     1     -20.961   5.207  11.647  1.00  0.00    -0.648 OA
ENDBRANCH  13  20
ENDBRANCH  10  12
ENDBRANCH   1  10
BRANCH   4  23
HETATM   23  C12 UNL     1     -26.201   2.263  14.790  1.00  0.00     0.037 A 
HETATM   24  C13 UNL     1     -25.286   1.534  15.514  1.00  0.00     0.106 A 
HETATM   25  N3  UNL     1     -25.834   1.296  16.728  1.00  0.00    -0.351 N 
HETATM   26  C14 UNL     1     -27.062   1.861  16.771  1.00  0.00     0.116 A 
ATOM     27  H3  UNL     1     -25.393   0.777  17.487  1.00  0.00     0.166 HD
HETATM   28  N4  UNL     1     -27.979   1.891  17.758  1.00  0.00    -0.349 N 
HETATM   29  C18 UNL     1     -27.324   2.477  15.567  1.00  0.00     0.026 A 
HETATM   30  C15 UNL     1     -29.134   2.526  17.545  1.00  0.00     0.132 A 
ATOM     31  H4  UNL     1     -27.793   1.438  18.653  1.00  0.00     0.167 HD
HETATM   32  C16 UNL     1     -29.446   3.157  16.360  1.00  0.00     0.132 A 
HETATM   33  F1  UNL     1     -30.642   3.789  16.200  1.00  0.00    -0.205 F 
HETATM   34  C17 UNL     1     -28.518   3.139  15.330  1.00  0.00     0.060 A 
ENDBRANCH   4  23
TORSDOF 4
ENDMDL
