MODEL 5
REMARK VINA RESULT: -10.352363360      3.325      6.062
REMARK  4 active torsions:
REMARK  status: ('A' for Active; 'I' for Inactive)
REMARK    1  A    between atoms: C1_2  and  C2_4 
REMARK    2  A    between atoms: C9_11  and  N1_12 
REMARK    3  A    between atoms: N1_12  and  C10_14 
REMARK    4  A    between atoms: C11_17  and  C12_18 
ROOT
HETATM    1  C10 UNL     1     -25.061   4.556  12.056  1.00  0.00     0.143 A 
HETATM    2  N2  UNL     1     -25.215   4.419  13.375  1.00  0.00    -0.326 N 
ATOM      3  H2  UNL     1     -24.709   5.048  13.998  1.00  0.00     0.169 HD
HETATM    4  C11 UNL     1     -26.017   3.478  13.910  1.00  0.00     0.119 A 
HETATM    5  N5  UNL     1     -26.672   2.661  13.075  1.00  0.00    -0.348 N 
ATOM      6  H5  UNL     1     -27.278   1.948  13.481  1.00  0.00     0.167 HD
HETATM    7  C19 UNL     1     -26.582   2.723  11.742  1.00  0.00     0.136 A 
HETATM    8  C20 UNL     1     -25.741   3.712  11.218  1.00  0.00     0.175 A 
HETATM    9  F2  UNL     1     -25.627   3.802   9.870  1.00  0.00    -0.201 F 
ENDROOT
BRANCH   1  10
HETATM   10  N1  UNL     1     -24.198   5.563  11.556  1.00  0.00    -0.368 N 
ATOM     11  H1  UNL     1     -23.388   5.834  12.114  1.00  0.00     0.161 HD
BRANCH  10  12
HETATM   12  C9  UNL     1     -24.417   6.219  10.289  1.00  0.00     0.102 C 
HETATM   13  C2  UNL     1     -23.118   6.331   9.515  1.00  0.00     0.114 C 
HETATM   14  C3  UNL     1     -22.599   7.763   9.646  1.00  0.00     0.002 C 
HETATM   15  C4  UNL     1     -23.493   8.741   8.948  1.00  0.00     0.006 C 
HETATM   16  C8  UNL     1     -22.652   8.034  11.159  1.00  0.00     0.006 C 
HETATM   17  C5  UNL     1     -24.927   8.435   9.268  1.00  0.00     0.007 C 
HETATM   18  C6  UNL     1     -24.960   7.599  10.548  1.00  0.00     0.009 C 
HETATM   19  C7  UNL     1     -24.092   8.306  11.554  1.00  0.00     0.007 C 
BRANCH  13  20
HETATM   20  C1  UNL     1     -23.278   5.948   8.100  1.00  0.00     0.179 C 
HETATM   21  O1  UNL     1     -24.363   5.519   7.628  1.00  0.00    -0.648 OA
HETATM   22  O2  UNL     1     -22.211   6.051   7.219  1.00  0.00    -0.648 OA
ENDBRANCH  13  20
ENDBRANCH  10  12
ENDBRANCH   1  10
BRANCH   4  23
HETATM   23  C12 UNL     1     -26.126   3.387  15.353  1.00  0.00     0.037 A 
HETATM   24  C13 UNL     1     -26.534   4.371  16.222  1.00  0.00     0.106 A 
HETATM   25  N3  UNL     1     -26.484   3.849  17.470  1.00  0.00    -0.351 N 
HETATM   26  C14 UNL     1     -26.056   2.569  17.391  1.00  0.00     0.116 A 
ATOM     27  H3  UNL     1     -26.729   4.342  18.329  1.00  0.00     0.166 HD
HETATM   28  N4  UNL     1     -25.849   1.653  18.356  1.00  0.00    -0.349 N 
HETATM   29  C18 UNL     1     -25.821   2.246  16.071  1.00  0.00     0.026 A 
HETATM   30  C15 UNL     1     -25.416   0.438  18.010  1.00  0.00     0.132 A 
ATOM     31  H4  UNL     1     -26.021   1.883  19.336  1.00  0.00     0.167 HD
HETATM   32  C16 UNL     1     -25.165   0.065  16.707  1.00  0.00     0.132 A 
HETATM   33  F1  UNL     1     -24.725  -1.190  16.413  1.00  0.00    -0.205 F 
HETATM   34  C17 UNL     1     -25.372   0.992  15.696  1.00  0.00     0.060 A 
ENDBRANCH   4  23
TORSDOF 4
ENDMDL
