MODEL 1
REMARK VINA RESULT: -11.088937799      0.000      0.000
REMARK  4 active torsions:
REMARK  status: ('A' for Active; 'I' for Inactive)
REMARK    1  A    between atoms: C1_2  and  C2_4 
REMARK    2  A    between atoms: C9_11  and  N1_12 
REMARK    3  A    between atoms: N1_12  and  C10_14 
REMARK    4  A    between atoms: C11_17  and  C12_18 
ROOT
HETATM    1  C10 UNL     1     -24.441   6.490  12.740  1.00  0.00     0.143 A 
HETATM    2  N2  UNL     1     -24.809   5.735  11.701  1.00  0.00    -0.326 N 
ATOM      3  H2  UNL     1     -24.665   6.092  10.757  1.00  0.00     0.169 HD
HETATM    4  C11 UNL     1     -25.364   4.518  11.860  1.00  0.00     0.119 A 
HETATM    5  N5  UNL     1     -25.544   4.066  13.108  1.00  0.00    -0.348 N 
ATOM      6  H5  UNL     1     -25.965   3.145  13.227  1.00  0.00     0.167 HD
HETATM    7  C19 UNL     1     -25.207   4.749  14.207  1.00  0.00     0.136 A 
HETATM    8  C20 UNL     1     -24.633   6.010  14.009  1.00  0.00     0.175 A 
HETATM    9  F2  UNL     1     -24.280   6.728  15.103  1.00  0.00    -0.201 F 
ENDROOT
BRANCH   1  10
HETATM   10  N1  UNL     1     -23.869   7.765  12.506  1.00  0.00    -0.368 N 
ATOM     11  H1  UNL     1     -24.035   8.507  13.186  1.00  0.00     0.161 HD
BRANCH  10  12
HETATM   12  C9  UNL     1     -23.061   8.056  11.346  1.00  0.00     0.102 C 
HETATM   13  C2  UNL     1     -21.994   9.078  11.683  1.00  0.00     0.114 C 
HETATM   14  C3  UNL     1     -22.439  10.438  11.145  1.00  0.00     0.002 C 
HETATM   15  C4  UNL     1     -22.466  10.459   9.648  1.00  0.00     0.006 C 
HETATM   16  C8  UNL     1     -23.878  10.585  11.668  1.00  0.00     0.006 C 
HETATM   17  C5  UNL     1     -23.112   9.205   9.134  1.00  0.00     0.007 C 
HETATM   18  C6  UNL     1     -23.951   8.608  10.264  1.00  0.00     0.009 C 
HETATM   19  C7  UNL     1     -24.795   9.724  10.820  1.00  0.00     0.007 C 
BRANCH  13  20
HETATM   20  C1  UNL     1     -20.672   8.699  11.149  1.00  0.00     0.179 C 
HETATM   21  O1  UNL     1     -20.449   7.586  10.606  1.00  0.00    -0.648 OA
HETATM   22  O2  UNL     1     -19.603   9.580  11.230  1.00  0.00    -0.648 OA
ENDBRANCH  13  20
ENDBRANCH  10  12
ENDBRANCH   1  10
BRANCH   4  23
HETATM   23  C12 UNL     1     -25.743   3.762  10.683  1.00  0.00     0.037 A 
HETATM   24  C13 UNL     1     -26.513   2.623  10.634  1.00  0.00     0.106 A 
HETATM   25  N3  UNL     1     -26.612   2.262   9.333  1.00  0.00    -0.351 N 
HETATM   26  C14 UNL     1     -25.925   3.150   8.580  1.00  0.00     0.116 A 
ATOM     27  H3  UNL     1     -27.122   1.453   8.979  1.00  0.00     0.166 HD
HETATM   28  N4  UNL     1     -25.736   3.209   7.247  1.00  0.00    -0.349 N 
HETATM   29  C18 UNL     1     -25.365   4.107   9.399  1.00  0.00     0.026 A 
HETATM   30  C15 UNL     1     -25.003   4.204   6.744  1.00  0.00     0.132 A 
ATOM     31  H4  UNL     1     -26.147   2.504   6.633  1.00  0.00     0.167 HD
HETATM   32  C16 UNL     1     -24.421   5.185   7.517  1.00  0.00     0.132 A 
HETATM   33  F1  UNL     1     -23.684   6.178   6.947  1.00  0.00    -0.205 F 
HETATM   34  C17 UNL     1     -24.603   5.146   8.891  1.00  0.00     0.060 A 
ENDBRANCH   4  23
TORSDOF 4
ENDMDL
