MODEL 3
REMARK VINA RESULT: -10.210329889      0.645      1.003
REMARK  10 active torsions:
REMARK  status: ('A' for Active; 'I' for Inactive)
REMARK    1  A    between atoms: O1_2  and  C2_3 
REMARK    2  A    between atoms: N1_18  and  C16_19 
REMARK    3  A    between atoms: C16_19  and  C17_20 
REMARK    4  A    between atoms: C17_20  and  O3_21 
REMARK    5  A    between atoms: C17_20  and  C18_23 
REMARK    6  A    between atoms: C18_23  and  C19_24 
REMARK    7  A    between atoms: C18_23  and  N2_31 
REMARK    8  A    between atoms: C19_24  and  C20_25 
REMARK       I    between atoms: N2_31  and  C26_33 
REMARK    9  A    between atoms: C26_33  and  O5_35 
REMARK   10  A    between atoms: O5_35  and  C27_36 
ROOT
HETATM    1  C17 UNL     1      15.892 -19.736  -5.257  1.00  0.00     0.155 C 
ENDROOT
BRANCH   1   2
HETATM    2  C16 UNL     1      16.010 -21.000  -6.048  1.00  0.00     0.141 C 
BRANCH   2   3
HETATM    3  N1  UNL     1      14.807 -21.708  -6.286  1.00  0.00    -0.204 NA
HETATM    4  C15 UNL     1      14.875 -23.122  -6.355  1.00  0.00     0.107 C 
HETATM    5  C14 UNL     1      14.742 -23.652  -4.919  1.00  0.00     0.016 C 
HETATM    6  C13 UNL     1      14.320 -25.084  -4.883  1.00  0.00     0.005 C 
HETATM    7  C12 UNL     1      12.973 -25.241  -4.228  1.00  0.00     0.027 C 
HETATM    8  C11 UNL     1      12.035 -25.908  -5.181  1.00  0.00    -0.029 C 
HETATM    9  C10 UNL     1      10.945 -25.302  -5.634  1.00  0.00    -0.005 C 
HETATM   10  C9  UNL     1      10.591 -23.905  -5.212  1.00  0.00     0.195 C 
HETATM   11  O2  UNL     1      11.490 -22.974  -5.759  1.00  0.00    -0.383 OA
HETATM   12  C8  UNL     1      10.994 -22.429  -6.939  1.00  0.00     0.208 C 
HETATM   13  C6  UNL     1      11.810 -22.856  -8.128  1.00  0.00    -0.009 A 
HETATM   14  C5  UNL     1      13.020 -22.332  -8.442  1.00  0.00     0.083 A 
HETATM   15  C7  UNL     1      11.263 -23.855  -8.937  1.00  0.00     0.047 A 
HETATM   16  C4  UNL     1      13.672 -22.825  -9.580  1.00  0.00     0.028 A 
HETATM   17  S1  UNL     1      13.858 -21.083  -7.551  1.00  0.00     0.244 S 
HETATM   18  C3  UNL     1      13.122 -23.807 -10.365  1.00  0.00     0.038 A 
HETATM   19  C2  UNL     1      11.905 -24.340 -10.057  1.00  0.00     0.068 A 
HETATM   20  O8  UNL     1      12.882 -20.099  -6.970  1.00  0.00    -0.206 OA
HETATM   21  O9  UNL     1      14.711 -20.279  -8.521  1.00  0.00    -0.206 OA
BRANCH  19  22
HETATM   22  O1  UNL     1      11.351 -25.338 -10.859  1.00  0.00    -0.356 OA
HETATM   23  C1  UNL     1      12.100 -26.468 -11.203  1.00  0.00     0.210 C 
ENDBRANCH  19  22
ENDBRANCH   2   3
ENDBRANCH   1   2
BRANCH   1  24
HETATM   24  O3  UNL     1      15.173 -19.871  -4.096  1.00  0.00    -0.392 OA
ATOM     25  H3  UNL     1      14.601 -19.136  -3.910  1.00  0.00     0.210 HD
ENDBRANCH   1  24
BRANCH   1  26
HETATM   26  C18 UNL     1      17.235 -19.140  -4.894  1.00  0.00     0.120 C 
BRANCH  26  27
HETATM   27  C19 UNL     1      17.221 -18.658  -3.503  1.00  0.00     0.066 C 
BRANCH  27  28
HETATM   28  C20 UNL     1      18.274 -19.422  -2.743  1.00  0.00    -0.056 A 
HETATM   29  C21 UNL     1      19.331 -18.713  -2.197  1.00  0.00     0.007 A 
HETATM   30  C22 UNL     1      20.322 -19.323  -1.496  1.00  0.00     0.001 A 
HETATM   31  C23 UNL     1      20.260 -20.684  -1.333  1.00  0.00     0.000 A 
HETATM   32  C24 UNL     1      19.217 -21.404  -1.869  1.00  0.00     0.001 A 
HETATM   33  C25 UNL     1      18.221 -20.769  -2.576  1.00  0.00     0.007 A 
ENDBRANCH  27  28
ENDBRANCH  26  27
BRANCH  26  34
HETATM   34  N2  UNL     1      17.751 -18.263  -5.895  1.00  0.00    -0.329 N 
HETATM   35  C26 UNL     1      19.030 -18.339  -6.467  1.00  0.00     0.361 C 
HETATM   36  O4  UNL     1      19.755 -19.271  -6.036  1.00  0.00    -0.238 OA
ATOM     37  H2  UNL     1      17.138 -17.517  -6.222  1.00  0.00     0.165 HD
BRANCH  35  38
HETATM   38  O5  UNL     1      19.539 -17.502  -7.430  1.00  0.00    -0.296 OA
BRANCH  38  39
HETATM   39  C27 UNL     1      20.041 -16.251  -7.061  1.00  0.00     0.166 C 
HETATM   40  C28 UNL     1      20.328 -16.100  -5.593  1.00  0.00     0.204 C 
HETATM   41  O6  UNL     1      21.400 -15.263  -5.449  1.00  0.00    -0.358 OA
HETATM   42  C29 UNL     1      21.868 -14.861  -6.668  1.00  0.00     0.266 C 
HETATM   43  O7  UNL     1      23.261 -14.960  -6.756  1.00  0.00    -0.361 OA
HETATM   44  C32 UNL     1      21.394 -15.932  -7.659  1.00  0.00     0.075 C 
HETATM   45  C30 UNL     1      23.527 -16.322  -6.693  1.00  0.00     0.171 C 
HETATM   46  C31 UNL     1      22.408 -17.008  -7.453  1.00  0.00     0.038 C 
ENDBRANCH  38  39
ENDBRANCH  35  38
ENDBRANCH  26  34
ENDBRANCH   1  26
TORSDOF 10
ENDMDL
