MODEL 1
REMARK VINA RESULT: -10.576135839      0.000      0.000
REMARK  10 active torsions:
REMARK  status: ('A' for Active; 'I' for Inactive)
REMARK    1  A    between atoms: O1_2  and  C2_3 
REMARK    2  A    between atoms: N1_18  and  C16_19 
REMARK    3  A    between atoms: C16_19  and  C17_20 
REMARK    4  A    between atoms: C17_20  and  O3_21 
REMARK    5  A    between atoms: C17_20  and  C18_23 
REMARK    6  A    between atoms: C18_23  and  C19_24 
REMARK    7  A    between atoms: C18_23  and  N2_31 
REMARK    8  A    between atoms: C19_24  and  C20_25 
REMARK       I    between atoms: N2_31  and  C26_33 
REMARK    9  A    between atoms: C26_33  and  O5_35 
REMARK   10  A    between atoms: O5_35  and  C27_36 
ROOT
HETATM    1  C17 UNL     1      15.983 -19.595  -5.447  1.00  0.00     0.155 C 
ENDROOT
BRANCH   1   2
HETATM    2  C16 UNL     1      16.104 -20.965  -6.037  1.00  0.00     0.141 C 
BRANCH   2   3
HETATM    3  N1  UNL     1      14.892 -21.661  -6.263  1.00  0.00    -0.204 NA
HETATM    4  C15 UNL     1      14.945 -23.076  -6.332  1.00  0.00     0.107 C 
HETATM    5  C14 UNL     1      14.820 -23.604  -4.894  1.00  0.00     0.016 C 
HETATM    6  C13 UNL     1      14.385 -25.032  -4.854  1.00  0.00     0.005 C 
HETATM    7  C12 UNL     1      13.043 -25.176  -4.187  1.00  0.00     0.027 C 
HETATM    8  C11 UNL     1      12.090 -25.834  -5.132  1.00  0.00    -0.029 C 
HETATM    9  C10 UNL     1      11.002 -25.218  -5.575  1.00  0.00    -0.005 C 
HETATM   10  C9  UNL     1      10.665 -23.817  -5.151  1.00  0.00     0.195 C 
HETATM   11  O2  UNL     1      11.568 -22.895  -5.706  1.00  0.00    -0.383 OA
HETATM   12  C8  UNL     1      11.067 -22.345  -6.882  1.00  0.00     0.208 C 
HETATM   13  C6  UNL     1      11.868 -22.781  -8.078  1.00  0.00    -0.009 A 
HETATM   14  C5  UNL     1      13.080 -22.269  -8.403  1.00  0.00     0.083 A 
HETATM   15  C7  UNL     1      11.304 -23.775  -8.881  1.00  0.00     0.047 A 
HETATM   16  C4  UNL     1      13.717 -22.769  -9.546  1.00  0.00     0.028 A 
HETATM   17  S1  UNL     1      13.938 -21.028  -7.520  1.00  0.00     0.244 S 
HETATM   18  C3  UNL     1      13.150 -23.746 -10.326  1.00  0.00     0.038 A 
HETATM   19  C2  UNL     1      11.931 -24.267 -10.007  1.00  0.00     0.068 A 
HETATM   20  O8  UNL     1      12.976 -20.034  -6.931  1.00  0.00    -0.206 OA
HETATM   21  O9  UNL     1      14.790 -20.232  -8.498  1.00  0.00    -0.206 OA
BRANCH  19  22
HETATM   22  O1  UNL     1      11.361 -25.260 -10.803  1.00  0.00    -0.356 OA
HETATM   23  C1  UNL     1      12.108 -26.379 -11.185  1.00  0.00     0.210 C 
ENDBRANCH  19  22
ENDBRANCH   2   3
ENDBRANCH   1   2
BRANCH   1  24
HETATM   24  O3  UNL     1      15.021 -19.490  -4.474  1.00  0.00    -0.392 OA
ATOM     25  H3  UNL     1      14.140 -19.385  -4.813  1.00  0.00     0.210 HD
ENDBRANCH   1  24
BRANCH   1  26
HETATM   26  C18 UNL     1      17.282 -19.090  -4.859  1.00  0.00     0.120 C 
BRANCH  26  27
HETATM   27  C19 UNL     1      17.099 -18.739  -3.441  1.00  0.00     0.066 C 
BRANCH  27  28
HETATM   28  C20 UNL     1      18.122 -19.504  -2.643  1.00  0.00    -0.056 A 
HETATM   29  C21 UNL     1      19.056 -18.785  -1.915  1.00  0.00     0.007 A 
HETATM   30  C22 UNL     1      20.013 -19.396  -1.168  1.00  0.00     0.001 A 
HETATM   31  C23 UNL     1      20.042 -20.768  -1.145  1.00  0.00     0.000 A 
HETATM   32  C24 UNL     1      19.122 -21.497  -1.863  1.00  0.00     0.001 A 
HETATM   33  C25 UNL     1      18.159 -20.861  -2.614  1.00  0.00     0.007 A 
ENDBRANCH  27  28
ENDBRANCH  26  27
BRANCH  26  34
HETATM   34  N2  UNL     1      17.951 -18.146  -5.695  1.00  0.00    -0.329 N 
HETATM   35  C26 UNL     1      18.957 -18.446  -6.625  1.00  0.00     0.361 C 
HETATM   36  O4  UNL     1      19.272 -19.660  -6.700  1.00  0.00    -0.238 OA
ATOM     37  H2  UNL     1      17.672 -17.169  -5.610  1.00  0.00     0.165 HD
BRANCH  35  38
HETATM   38  O5  UNL     1      19.608 -17.548  -7.435  1.00  0.00    -0.296 OA
BRANCH  38  39
HETATM   39  C27 UNL     1      20.574 -16.699  -6.887  1.00  0.00     0.166 C 
HETATM   40  C28 UNL     1      21.989 -17.034  -7.267  1.00  0.00     0.204 C 
HETATM   41  O6  UNL     1      22.703 -15.869  -7.339  1.00  0.00    -0.358 OA
HETATM   42  C29 UNL     1      21.903 -14.794  -7.069  1.00  0.00     0.266 C 
HETATM   43  O7  UNL     1      22.081 -13.761  -7.995  1.00  0.00    -0.361 OA
HETATM   44  C32 UNL     1      20.473 -15.267  -7.365  1.00  0.00     0.075 C 
HETATM   45  C30 UNL     1      21.611 -14.273  -9.198  1.00  0.00     0.171 C 
HETATM   46  C31 UNL     1      20.411 -15.134  -8.851  1.00  0.00     0.038 C 
ENDBRANCH  38  39
ENDBRANCH  35  38
ENDBRANCH  26  34
ENDBRANCH   1  26
TORSDOF 10
ENDMDL
