MODEL 4
REMARK VINA RESULT: -10.031606394      1.095      1.609
REMARK  10 active torsions:
REMARK  status: ('A' for Active; 'I' for Inactive)
REMARK    1  A    between atoms: O1_2  and  C2_3 
REMARK    2  A    between atoms: N1_18  and  C16_19 
REMARK    3  A    between atoms: C16_19  and  C17_20 
REMARK    4  A    between atoms: C17_20  and  O3_21 
REMARK    5  A    between atoms: C17_20  and  C18_23 
REMARK    6  A    between atoms: C18_23  and  C19_24 
REMARK    7  A    between atoms: C18_23  and  N2_31 
REMARK    8  A    between atoms: C19_24  and  C20_25 
REMARK       I    between atoms: N2_31  and  C26_33 
REMARK    9  A    between atoms: C26_33  and  O5_35 
REMARK   10  A    between atoms: O5_35  and  C27_36 
ROOT
HETATM    1  C17 UNL     1      15.504 -19.203  -6.681  1.00  0.00     0.155 C 
ENDROOT
BRANCH   1   2
HETATM    2  C16 UNL     1      15.586 -20.521  -7.384  1.00  0.00     0.141 C 
BRANCH   2   3
HETATM    3  N1  UNL     1      14.474 -21.384  -7.235  1.00  0.00    -0.204 NA
HETATM    4  C15 UNL     1      14.730 -22.765  -7.041  1.00  0.00     0.107 C 
HETATM    5  C14 UNL     1      14.927 -22.982  -5.533  1.00  0.00     0.016 C 
HETATM    6  C13 UNL     1      14.728 -24.409  -5.138  1.00  0.00     0.005 C 
HETATM    7  C12 UNL     1      13.553 -24.558  -4.209  1.00  0.00     0.027 C 
HETATM    8  C11 UNL     1      12.567 -25.509  -4.807  1.00  0.00    -0.029 C 
HETATM    9  C10 UNL     1      11.340 -25.132  -5.141  1.00  0.00    -0.005 C 
HETATM   10  C9  UNL     1      10.869 -23.721  -4.933  1.00  0.00     0.195 C 
HETATM   11  O2  UNL     1      11.516 -22.843  -5.818  1.00  0.00    -0.383 OA
HETATM   12  C8  UNL     1      10.749 -22.620  -6.957  1.00  0.00     0.208 C 
HETATM   13  C6  UNL     1      11.396 -23.208  -8.181  1.00  0.00    -0.009 A 
HETATM   14  C5  UNL     1      12.446 -22.641  -8.827  1.00  0.00     0.083 A 
HETATM   15  C7  UNL     1      10.865 -24.409  -8.655  1.00  0.00     0.047 A 
HETATM   16  C4  UNL     1      12.952 -23.299  -9.955  1.00  0.00     0.028 A 
HETATM   17  S1  UNL     1      13.239 -21.150  -8.380  1.00  0.00     0.244 S 
HETATM   18  C3  UNL     1      12.419 -24.479 -10.409  1.00  0.00     0.038 A 
HETATM   19  C2  UNL     1      11.364 -25.056  -9.767  1.00  0.00     0.068 A 
HETATM   20  O8  UNL     1      12.249 -20.169  -7.815  1.00  0.00    -0.206 OA
HETATM   21  O9  UNL     1      13.785 -20.490  -9.637  1.00  0.00    -0.206 OA
BRANCH  19  22
HETATM   22  O1  UNL     1      10.827 -26.256 -10.233  1.00  0.00    -0.356 OA
HETATM   23  C1  UNL     1      10.738 -27.368  -9.391  1.00  0.00     0.210 C 
ENDBRANCH  19  22
ENDBRANCH   2   3
ENDBRANCH   1   2
BRANCH   1  24
HETATM   24  O3  UNL     1      14.498 -19.130  -5.752  1.00  0.00    -0.392 OA
ATOM     25  H3  UNL     1      14.755 -18.712  -4.938  1.00  0.00     0.210 HD
ENDBRANCH   1  24
BRANCH   1  26
HETATM   26  C18 UNL     1      16.794 -18.823  -5.986  1.00  0.00     0.120 C 
BRANCH  26  27
HETATM   27  C19 UNL     1      16.525 -18.419  -4.596  1.00  0.00     0.066 C 
BRANCH  27  28
HETATM   28  C20 UNL     1      17.411 -19.244  -3.700  1.00  0.00    -0.056 A 
HETATM   29  C21 UNL     1      17.451 -20.614  -3.897  1.00  0.00     0.007 A 
HETATM   30  C22 UNL     1      18.224 -21.431  -3.135  1.00  0.00     0.001 A 
HETATM   31  C23 UNL     1      18.983 -20.865  -2.141  1.00  0.00     0.000 A 
HETATM   32  C24 UNL     1      18.955 -19.505  -1.930  1.00  0.00     0.001 A 
HETATM   33  C25 UNL     1      18.166 -18.693  -2.713  1.00  0.00     0.007 A 
ENDBRANCH  27  28
ENDBRANCH  26  27
BRANCH  26  34
HETATM   34  N2  UNL     1      17.631 -17.978  -6.774  1.00  0.00    -0.329 N 
HETATM   35  C26 UNL     1      18.956 -18.253  -7.142  1.00  0.00     0.361 C 
HETATM   36  O4  UNL     1      19.412 -19.346  -6.723  1.00  0.00    -0.238 OA
ATOM     37  H2  UNL     1      17.230 -17.097  -7.098  1.00  0.00     0.165 HD
BRANCH  35  38
HETATM   38  O5  UNL     1      19.772 -17.447  -7.898  1.00  0.00    -0.296 OA
BRANCH  38  39
HETATM   39  C27 UNL     1      20.193 -16.216  -7.387  1.00  0.00     0.166 C 
HETATM   40  C28 UNL     1      20.194 -16.130  -5.886  1.00  0.00     0.204 C 
HETATM   41  O6  UNL     1      21.218 -15.308  -5.504  1.00  0.00    -0.358 OA
HETATM   42  C29 UNL     1      21.911 -14.858  -6.593  1.00  0.00     0.266 C 
HETATM   43  O7  UNL     1      23.295 -14.964  -6.417  1.00  0.00    -0.361 OA
HETATM   44  C32 UNL     1      21.635 -15.883  -7.702  1.00  0.00     0.075 C 
HETATM   45  C30 UNL     1      23.545 -16.329  -6.363  1.00  0.00     0.171 C 
HETATM   46  C31 UNL     1      22.592 -16.974  -7.352  1.00  0.00     0.038 C 
ENDBRANCH  38  39
ENDBRANCH  35  38
ENDBRANCH  26  34
ENDBRANCH   1  26
TORSDOF 10
ENDMDL
