MODEL 4
REMARK VINA RESULT: -7.895116154      2.598      4.176
REMARK  5 active torsions:
REMARK  status: ('A' for Active; 'I' for Inactive)
REMARK    1  A    between atoms: O1_2  and  C2_3 
REMARK    2  A    between atoms: C4_5  and  N1_6 
REMARK    3  A    between atoms: N1_6  and  C5_8 
REMARK    4  A    between atoms: N3_11  and  C6_12 
REMARK    5  A    between atoms: C13_21  and  C14_22 
ROOT
HETATM    1  C6  UNL     1       9.913  50.996   1.997  1.00  0.00     0.149 C 
HETATM    2  C7  UNL     1      10.356  49.593   1.666  1.00  0.00     0.196 C 
HETATM    3  O2  UNL     1      10.281  49.310   0.318  1.00  0.00    -0.389 OA
HETATM    4  C8  UNL     1      11.092  50.173  -0.403  1.00  0.00     0.169 C 
HETATM    5  C9  UNL     1      10.414  51.534  -0.392  1.00  0.00     0.048 C 
HETATM    6  C10 UNL     1      10.453  52.019   1.046  1.00  0.00     0.121 C 
HETATM    7  C11 UNL     1      11.813  52.419   1.411  1.00  0.00     0.066 C 
HETATM    8  N4  UNL     1      12.875  52.743   1.711  1.00  0.00    -0.197 NA
ENDROOT
BRANCH   1   9
HETATM    9  N3  UNL     1       8.464  51.105   2.011  1.00  0.00    -0.293 N 
HETATM   10  N2  UNL     1       7.823  52.230   1.795  1.00  0.00    -0.282 N 
HETATM   11  C5  UNL     1       6.503  52.056   1.863  1.00  0.00     0.137 A 
ATOM     12  H2  UNL     1       8.276  53.123   1.602  1.00  0.00     0.189 HD
HETATM   13  C13 UNL     1       6.317  50.714   2.144  1.00  0.00     0.091 A 
HETATM   14  C12 UNL     1       7.580  50.138   2.232  1.00  0.00     0.131 A 
BRANCH  11  15
HETATM   15  N1  UNL     1       5.522  53.047   1.680  1.00  0.00    -0.341 N 
ATOM     16  H1  UNL     1       4.561  52.800   1.917  1.00  0.00     0.167 HD
BRANCH  15  17
HETATM   17  C4  UNL     1       5.750  54.337   1.205  1.00  0.00     0.036 A 
HETATM   18  C3  UNL     1       5.265  55.492   1.759  1.00  0.00     0.068 A 
HETATM   19  C2  UNL     1       5.538  56.756   1.227  1.00  0.00     0.092 A 
HETATM   20  C17 UNL     1       6.323  56.871   0.102  1.00  0.00     0.067 A 
HETATM   21  C16 UNL     1       6.822  55.739  -0.476  1.00  0.00     0.029 A 
HETATM   22 CL1  UNL     1       6.667  58.457  -0.567  1.00  0.00    -0.081 Cl
HETATM   23  C15 UNL     1       6.544  54.503   0.062  1.00  0.00     0.031 A 
BRANCH  19  24
HETATM   24  O1  UNL     1       5.016  57.889   1.837  1.00  0.00    -0.354 OA
HETATM   25  C1  UNL     1       3.746  58.373   1.461  1.00  0.00     0.210 C 
ENDBRANCH  19  24
ENDBRANCH  15  17
ENDBRANCH  11  15
BRANCH  13  26
HETATM   26  C14 UNL     1       5.075  50.030   2.315  1.00  0.00     0.270 C 
HETATM   27  N5  UNL     1       4.077  50.121   1.290  1.00  0.00    -0.057 NA
HETATM   28  O3  UNL     1       4.805  49.348   3.320  1.00  0.00    -0.271 OA
ENDBRANCH  13  26
ENDBRANCH   1   9
TORSDOF 5
ENDMDL
