MODEL 1
REMARK VINA RESULT: -8.092787714      0.000      0.000
REMARK  5 active torsions:
REMARK  status: ('A' for Active; 'I' for Inactive)
REMARK    1  A    between atoms: O1_2  and  C2_3 
REMARK    2  A    between atoms: C4_5  and  N1_6 
REMARK    3  A    between atoms: N1_6  and  C5_8 
REMARK    4  A    between atoms: N3_11  and  C6_12 
REMARK    5  A    between atoms: C13_21  and  C14_22 
ROOT
HETATM    1  C6  UNL     1      10.773  51.645   1.468  1.00  0.00     0.149 C 
HETATM    2  C7  UNL     1       9.675  50.729   1.947  1.00  0.00     0.196 C 
HETATM    3  O2  UNL     1       9.129  49.968   0.933  1.00  0.00    -0.389 OA
HETATM    4  C8  UNL     1      10.101  49.168   0.352  1.00  0.00     0.169 C 
HETATM    5  C9  UNL     1      10.996  50.082  -0.470  1.00  0.00     0.048 C 
HETATM    6  C10 UNL     1      11.721  50.976   0.520  1.00  0.00     0.121 C 
HETATM    7  C11 UNL     1      12.742  50.214   1.240  1.00  0.00     0.066 C 
HETATM    8  N4  UNL     1      13.554  49.631   1.809  1.00  0.00    -0.197 NA
ENDROOT
BRANCH   1   9
HETATM    9  N3  UNL     1      10.231  52.825   0.815  1.00  0.00    -0.293 N 
HETATM   10  N2  UNL     1       8.987  52.918   0.408  1.00  0.00    -0.282 N 
HETATM   11  C5  UNL     1       8.748  54.101  -0.156  1.00  0.00     0.137 A 
ATOM     12  H2  UNL     1       8.292  52.178   0.510  1.00  0.00     0.189 HD
HETATM   13  C13 UNL     1       9.944  54.794  -0.092  1.00  0.00     0.091 A 
HETATM   14  C12 UNL     1      10.866  53.956   0.530  1.00  0.00     0.131 A 
BRANCH  11  15
HETATM   15  N1  UNL     1       7.525  54.535  -0.696  1.00  0.00    -0.341 N 
ATOM     16  H1  UNL     1       7.217  54.097  -1.565  1.00  0.00     0.167 HD
BRANCH  15  17
HETATM   17  C4  UNL     1       6.696  55.512  -0.147  1.00  0.00     0.036 A 
HETATM   18  C3  UNL     1       6.700  56.842  -0.475  1.00  0.00     0.068 A 
HETATM   19  C2  UNL     1       5.836  57.768   0.119  1.00  0.00     0.092 A 
HETATM   20  C17 UNL     1       4.936  57.351   1.073  1.00  0.00     0.067 A 
HETATM   21  C16 UNL     1       4.907  56.031   1.424  1.00  0.00     0.029 A 
HETATM   22 CL1  UNL     1       3.850  58.512   1.818  1.00  0.00    -0.081 Cl
HETATM   23  C15 UNL     1       5.764  55.134   0.829  1.00  0.00     0.031 A 
BRANCH  19  24
HETATM   24  O1  UNL     1       5.890  59.103  -0.259  1.00  0.00    -0.354 OA
HETATM   25  C1  UNL     1       7.137  59.737  -0.438  1.00  0.00     0.210 C 
ENDBRANCH  19  24
ENDBRANCH  15  17
ENDBRANCH  11  15
BRANCH  13  26
HETATM   26  C14 UNL     1      10.206  56.115  -0.565  1.00  0.00     0.270 C 
HETATM   27  N5  UNL     1      10.136  56.382  -1.972  1.00  0.00    -0.057 NA
HETATM   28  O3  UNL     1      10.497  57.064   0.186  1.00  0.00    -0.271 OA
ENDBRANCH  13  26
ENDBRANCH   1   9
TORSDOF 5
ENDMDL
