MODEL 2
REMARK VINA RESULT: -7.934937036      2.217      3.270
REMARK  5 active torsions:
REMARK  status: ('A' for Active; 'I' for Inactive)
REMARK    1  A    between atoms: O1_2  and  C2_3 
REMARK    2  A    between atoms: C4_5  and  N1_6 
REMARK    3  A    between atoms: N1_6  and  C5_8 
REMARK    4  A    between atoms: N3_11  and  C6_12 
REMARK    5  A    between atoms: C13_21  and  C14_22 
ROOT
HETATM    1  C6  UNL     1      10.860  54.726   0.700  1.00  0.00     0.149 C 
HETATM    2  C7  UNL     1       9.693  54.533   1.635  1.00  0.00     0.196 C 
HETATM    3  O2  UNL     1       8.662  53.813   1.067  1.00  0.00    -0.389 OA
HETATM    4  C8  UNL     1       9.100  52.551   0.698  1.00  0.00     0.169 C 
HETATM    5  C9  UNL     1       9.989  52.727  -0.523  1.00  0.00     0.048 C 
HETATM    6  C10 UNL     1      11.220  53.480  -0.051  1.00  0.00     0.121 C 
HETATM    7  C11 UNL     1      12.075  52.605   0.752  1.00  0.00     0.066 C 
HETATM    8  N4  UNL     1      12.762  51.928   1.378  1.00  0.00    -0.197 NA
ENDROOT
BRANCH   1   9
HETATM    9  N3  UNL     1      10.598  55.781  -0.265  1.00  0.00    -0.293 N 
HETATM   10  N2  UNL     1       9.536  56.552  -0.220  1.00  0.00    -0.282 N 
HETATM   11  C5  UNL     1       9.537  57.436  -1.218  1.00  0.00     0.137 A 
ATOM     12  H2  UNL     1       8.805  56.483   0.487  1.00  0.00     0.189 HD
HETATM   13  C13 UNL     1      10.693  57.187  -1.937  1.00  0.00     0.091 A 
HETATM   14  C12 UNL     1      11.344  56.131  -1.306  1.00  0.00     0.131 A 
BRANCH  11  15
HETATM   15  N1  UNL     1       8.555  58.411  -1.468  1.00  0.00    -0.341 N 
ATOM     16  H1  UNL     1       8.724  59.056  -2.240  1.00  0.00     0.167 HD
BRANCH  15  17
HETATM   17  C4  UNL     1       7.371  58.572  -0.751  1.00  0.00     0.036 A 
HETATM   18  C3  UNL     1       6.577  57.560  -0.279  1.00  0.00     0.068 A 
HETATM   19  C2  UNL     1       5.399  57.797   0.437  1.00  0.00     0.092 A 
HETATM   20  C17 UNL     1       5.000  59.090   0.691  1.00  0.00     0.067 A 
HETATM   21  C16 UNL     1       5.769  60.122   0.233  1.00  0.00     0.029 A 
HETATM   22 CL1  UNL     1       3.522  59.389   1.589  1.00  0.00    -0.081 Cl
HETATM   23  C15 UNL     1       6.925  59.870  -0.469  1.00  0.00     0.031 A 
BRANCH  19  24
HETATM   24  O1  UNL     1       4.639  56.727   0.888  1.00  0.00    -0.354 OA
HETATM   25  C1  UNL     1       5.260  55.499   1.197  1.00  0.00     0.210 C 
ENDBRANCH  19  24
ENDBRANCH  15  17
ENDBRANCH  11  15
BRANCH  13  26
HETATM   26  C14 UNL     1      11.150  57.871  -3.104  1.00  0.00     0.270 C 
HETATM   27  N5  UNL     1      11.737  57.118  -4.173  1.00  0.00    -0.057 NA
HETATM   28  O3  UNL     1      11.067  59.104  -3.248  1.00  0.00    -0.271 OA
ENDBRANCH  13  26
ENDBRANCH   1   9
TORSDOF 5
ENDMDL
