MODEL 12
REMARK VINA RESULT: -7.975175034      5.578      7.102
REMARK  10 active torsions:
REMARK  status: ('A' for Active; 'I' for Inactive)
REMARK    1  A    between atoms: N5_13  and  C6_14 
REMARK    2  A    between atoms: C7_16  and  C8_17 
REMARK    3  A    between atoms: C8_17  and  S1_18 
REMARK    4  A    between atoms: S1_18  and  C9_19 
REMARK    5  A    between atoms: C9_19  and  C10_20 
REMARK    6  A    between atoms: C10_20  and  C11_21 
REMARK    7  A    between atoms: C11_21  and  N6_22 
REMARK    8  A    between atoms: C11_21  and  C12_26 
REMARK    9  A    between atoms: C13_29  and  O4_30 
REMARK   10  A    between atoms: C14_32  and  O5_33 
ROOT
HETATM    1  C6  UNL     1      -0.801  10.069 -51.438  1.00  0.00     0.262 C 
HETATM    2  O1  UNL     1       0.217   9.158 -51.767  1.00  0.00    -0.355 OA
HETATM    3  C7  UNL     1       0.552   8.570 -50.534  1.00  0.00     0.165 C 
HETATM    4  C13 UNL     1      -0.762   8.403 -49.811  1.00  0.00     0.180 C 
HETATM    5  C14 UNL     1      -1.730   9.150 -50.703  1.00  0.00     0.198 C 
ENDROOT
BRANCH   1   6
HETATM    6  N5  UNL     1      -1.338  10.677 -52.614  1.00  0.00    -0.297 N 
HETATM    7  C3  UNL     1      -2.344  10.186 -53.356  1.00  0.00     0.142 A 
HETATM    8  N3  UNL     1      -3.105   9.084 -53.264  1.00  0.00    -0.336 N 
HETATM    9  C4  UNL     1      -2.542  11.096 -54.395  1.00  0.00     0.119 A 
HETATM   10  C2  UNL     1      -4.051   8.883 -54.193  1.00  0.00     0.183 A 
ATOM     11  H3  UNL     1      -2.968   8.416 -52.506  1.00  0.00     0.168 HD
HETATM   12  N2  UNL     1      -4.257   9.743 -55.198  1.00  0.00    -0.339 N 
HETATM   13  C1  UNL     1      -3.514  10.853 -55.316  1.00  0.00     0.148 A 
ATOM     14  H2  UNL     1      -4.989   9.551 -55.884  1.00  0.00     0.167 HD
HETATM   15  N1  UNL     1      -3.736  11.770 -56.390  1.00  0.00    -0.080 NA
HETATM   16  N4  UNL     1      -1.633  12.086 -54.212  1.00  0.00    -0.346 N 
HETATM   17  C5  UNL     1      -0.899  11.840 -53.134  1.00  0.00     0.188 A 
ATOM     18  H4  UNL     1      -1.529  12.901 -54.815  1.00  0.00     0.167 HD
ENDBRANCH   1   6
BRANCH   5  19
HETATM   19  O5  UNL     1      -2.711   9.801 -49.971  1.00  0.00    -0.388 OA
ATOM     20  H5  UNL     1      -2.539   9.837 -49.038  1.00  0.00     0.210 HD
ENDBRANCH   5  19
BRANCH   3  21
HETATM   21  C8  UNL     1       1.125   7.210 -50.796  1.00  0.00     0.108 C 
BRANCH  21  22
HETATM   22  S1  UNL     1       2.532   6.721 -49.854  1.00  0.00    -0.166 SA
BRANCH  22  23
HETATM   23  C9  UNL     1       3.342   7.989 -48.925  1.00  0.00     0.076 C 
BRANCH  23  24
HETATM   24  C10 UNL     1       4.782   7.696 -48.615  1.00  0.00     0.054 C 
BRANCH  24  25
HETATM   25  C11 UNL     1       5.362   8.727 -47.712  1.00  0.00     0.284 C 
BRANCH  25  26
HETATM   26  N6  UNL     1       6.007   9.792 -48.414  1.00  0.00    -0.065 N 
ATOM     27  H63 UNL     1       7.018   9.653 -48.436  1.00  0.00     0.275 HD
ATOM     28  H62 UNL     1       5.809   9.740 -49.413  1.00  0.00     0.275 HD
ATOM     29  H61 UNL     1       5.775  10.714 -48.046  1.00  0.00     0.275 HD
ENDBRANCH  25  26
BRANCH  25  30
HETATM   30  C12 UNL     1       6.269   8.174 -46.696  1.00  0.00     0.204 C 
HETATM   31  O2  UNL     1       6.903   7.128 -46.934  1.00  0.00    -0.646 OA
HETATM   32  O3  UNL     1       6.424   8.805 -45.481  1.00  0.00    -0.646 OA
ENDBRANCH  25  30
ENDBRANCH  24  25
ENDBRANCH  23  24
ENDBRANCH  22  23
ENDBRANCH  21  22
ENDBRANCH   3  21
BRANCH   4  33
HETATM   33  O4  UNL     1      -0.726   9.076 -48.574  1.00  0.00    -0.390 OA
ATOM     34  H4  UNL     1      -0.158   9.835 -48.630  1.00  0.00     0.210 HD
ENDBRANCH   4  33
TORSDOF 10
ENDMDL
