MODEL 3
REMARK VINA RESULT: -8.727577792      5.357      6.907
REMARK  10 active torsions:
REMARK  status: ('A' for Active; 'I' for Inactive)
REMARK    1  A    between atoms: N5_13  and  C6_14 
REMARK    2  A    between atoms: C7_16  and  C8_17 
REMARK    3  A    between atoms: C8_17  and  S1_18 
REMARK    4  A    between atoms: S1_18  and  C9_19 
REMARK    5  A    between atoms: C9_19  and  C10_20 
REMARK    6  A    between atoms: C10_20  and  C11_21 
REMARK    7  A    between atoms: C11_21  and  N6_22 
REMARK    8  A    between atoms: C11_21  and  C12_26 
REMARK    9  A    between atoms: C13_29  and  O4_30 
REMARK   10  A    between atoms: C14_32  and  O5_33 
ROOT
HETATM    1  C6  UNL     1      -0.666   9.475 -51.247  1.00  0.00     0.262 C 
HETATM    2  O1  UNL     1       0.354   8.589 -51.633  1.00  0.00    -0.355 OA
HETATM    3  C7  UNL     1       1.004   8.280 -50.424  1.00  0.00     0.165 C 
HETATM    4  C13 UNL     1      -0.101   8.169 -49.403  1.00  0.00     0.180 C 
HETATM    5  C14 UNL     1      -1.311   8.657 -50.168  1.00  0.00     0.198 C 
ENDROOT
BRANCH   1   6
HETATM    6  N5  UNL     1      -1.503   9.801 -52.357  1.00  0.00    -0.297 N 
HETATM    7  C3  UNL     1      -1.512  10.976 -53.008  1.00  0.00     0.142 A 
HETATM    8  N3  UNL     1      -0.823  12.119 -52.860  1.00  0.00    -0.336 N 
HETATM    9  C4  UNL     1      -2.469  10.856 -54.017  1.00  0.00     0.119 A 
HETATM   10  C2  UNL     1      -1.079  13.132 -53.700  1.00  0.00     0.183 A 
ATOM     11  H3  UNL     1      -0.121  12.214 -52.126  1.00  0.00     0.168 HD
HETATM   12  N2  UNL     1      -1.993  13.037 -54.674  1.00  0.00    -0.339 N 
HETATM   13  C1  UNL     1      -2.697  11.908 -54.848  1.00  0.00     0.148 A 
ATOM     14  H2  UNL     1      -2.156  13.833 -55.291  1.00  0.00     0.167 HD
HETATM   15  N1  UNL     1      -3.671  11.809 -55.889  1.00  0.00    -0.080 NA
HETATM   16  N4  UNL     1      -2.980   9.604 -53.908  1.00  0.00    -0.346 N 
HETATM   17  C5  UNL     1      -2.400   8.958 -52.904  1.00  0.00     0.188 A 
ATOM     18  H4  UNL     1      -3.705   9.215 -54.510  1.00  0.00     0.167 HD
ENDBRANCH   1   6
BRANCH   5  19
HETATM   19  O5  UNL     1      -2.182   9.371 -49.359  1.00  0.00    -0.388 OA
ATOM     20  H5  UNL     1      -1.890  10.253 -49.158  1.00  0.00     0.210 HD
ENDBRANCH   5  19
BRANCH   3  21
HETATM   21  C8  UNL     1       1.656   6.937 -50.566  1.00  0.00     0.108 C 
BRANCH  21  22
HETATM   22  S1  UNL     1       2.934   6.526 -49.424  1.00  0.00    -0.166 SA
BRANCH  22  23
HETATM   23  C9  UNL     1       3.918   7.865 -48.821  1.00  0.00     0.076 C 
BRANCH  23  24
HETATM   24  C10 UNL     1       5.320   7.476 -48.449  1.00  0.00     0.054 C 
BRANCH  24  25
HETATM   25  C11 UNL     1       5.946   8.492 -47.558  1.00  0.00     0.284 C 
BRANCH  25  26
HETATM   26  N6  UNL     1       6.011   9.792 -48.147  1.00  0.00    -0.065 N 
ATOM     27  H63 UNL     1       6.652   9.800 -48.940  1.00  0.00     0.275 HD
ATOM     28  H62 UNL     1       5.142  10.015 -48.631  1.00  0.00     0.275 HD
ATOM     29  H61 UNL     1       6.251  10.524 -47.478  1.00  0.00     0.275 HD
ENDBRANCH  25  26
BRANCH  25  30
HETATM   30  C12 UNL     1       7.271   8.099 -47.060  1.00  0.00     0.204 C 
HETATM   31  O2  UNL     1       8.204   8.924 -47.063  1.00  0.00    -0.646 OA
HETATM   32  O3  UNL     1       7.490   6.822 -46.590  1.00  0.00    -0.646 OA
ENDBRANCH  25  30
ENDBRANCH  24  25
ENDBRANCH  23  24
ENDBRANCH  22  23
ENDBRANCH  21  22
ENDBRANCH   3  21
BRANCH   4  33
HETATM   33  O4  UNL     1       0.121   9.073 -48.346  1.00  0.00    -0.390 OA
ATOM     34  H4  UNL     1      -0.145   8.685 -47.521  1.00  0.00     0.210 HD
ENDBRANCH   4  33
TORSDOF 10
ENDMDL
