MODEL 4
REMARK VINA RESULT: -8.467016864      1.154      1.171
REMARK  10 active torsions:
REMARK  status: ('A' for Active; 'I' for Inactive)
REMARK    1  A    between atoms: N5_13  and  C6_14 
REMARK    2  A    between atoms: C7_16  and  C8_17 
REMARK    3  A    between atoms: C8_17  and  S1_18 
REMARK    4  A    between atoms: S1_18  and  C9_19 
REMARK    5  A    between atoms: C9_19  and  C10_20 
REMARK    6  A    between atoms: C10_20  and  C11_21 
REMARK    7  A    between atoms: C11_21  and  N6_22 
REMARK    8  A    between atoms: C11_21  and  C12_26 
REMARK    9  A    between atoms: C13_29  and  O4_30 
REMARK   10  A    between atoms: C14_32  and  O5_33 
ROOT
HETATM    1  C6  UNL     1       1.429   6.106 -49.909  1.00  0.00     0.262 C 
HETATM    2  O1  UNL     1       2.786   5.893 -49.609  1.00  0.00    -0.355 OA
HETATM    3  C7  UNL     1       3.305   7.193 -49.468  1.00  0.00     0.165 C 
HETATM    4  C13 UNL     1       2.223   7.972 -48.764  1.00  0.00     0.180 C 
HETATM    5  C14 UNL     1       1.060   7.004 -48.766  1.00  0.00     0.198 C 
ENDROOT
BRANCH   1   6
HETATM    6  N5  UNL     1       0.723   4.866 -49.972  1.00  0.00    -0.297 N 
HETATM    7  C3  UNL     1       1.265   3.673 -50.267  1.00  0.00     0.142 A 
HETATM    8  N3  UNL     1       2.512   3.277 -50.571  1.00  0.00    -0.336 N 
HETATM    9  C4  UNL     1       0.224   2.746 -50.210  1.00  0.00     0.119 A 
HETATM   10  C2  UNL     1       2.724   1.976 -50.818  1.00  0.00     0.183 A 
ATOM     11  H3  UNL     1       3.278   3.948 -50.612  1.00  0.00     0.168 HD
HETATM   12  N2  UNL     1       1.739   1.070 -50.770  1.00  0.00    -0.339 N 
HETATM   13  C1  UNL     1       0.484   1.436 -50.468  1.00  0.00     0.148 A 
ATOM     14  H2  UNL     1       1.945   0.090 -50.965  1.00  0.00     0.167 HD
HETATM   15  N1  UNL     1      -0.566   0.467 -50.416  1.00  0.00    -0.080 NA
HETATM   16  N4  UNL     1      -0.890   3.447 -49.883  1.00  0.00    -0.346 N 
HETATM   17  C5  UNL     1      -0.597   4.733 -49.736  1.00  0.00     0.188 A 
ATOM     18  H4  UNL     1      -1.819   3.043 -49.766  1.00  0.00     0.167 HD
ENDBRANCH   1   6
BRANCH   5  19
HETATM   19  O5  UNL     1      -0.155   7.654 -48.926  1.00  0.00    -0.388 OA
ATOM     20  H5  UNL     1      -0.089   8.601 -48.936  1.00  0.00     0.210 HD
ENDBRANCH   5  19
BRANCH   3  21
HETATM   21  C8  UNL     1       4.505   7.130 -48.571  1.00  0.00     0.108 C 
BRANCH  21  22
HETATM   22  S1  UNL     1       5.859   8.195 -48.943  1.00  0.00    -0.166 SA
BRANCH  22  23
HETATM   23  C9  UNL     1       6.345   9.329 -47.676  1.00  0.00     0.076 C 
BRANCH  23  24
HETATM   24  C10 UNL     1       7.565   8.907 -46.910  1.00  0.00     0.054 C 
BRANCH  24  25
HETATM   25  C11 UNL     1       8.786   9.594 -47.414  1.00  0.00     0.284 C 
BRANCH  25  26
HETATM   26  N6  UNL     1       8.497  10.653 -48.329  1.00  0.00    -0.065 N 
ATOM     27  H63 UNL     1       9.319  11.240 -48.477  1.00  0.00     0.275 HD
ATOM     28  H62 UNL     1       8.376  10.293 -49.275  1.00  0.00     0.275 HD
ATOM     29  H61 UNL     1       7.694  11.217 -48.050  1.00  0.00     0.275 HD
ENDBRANCH  25  26
BRANCH  25  30
HETATM   30  C12 UNL     1       9.775   8.680 -48.001  1.00  0.00     0.204 C 
HETATM   31  O2  UNL     1      10.951   9.058 -48.160  1.00  0.00    -0.646 OA
HETATM   32  O3  UNL     1       9.411   7.405 -48.377  1.00  0.00    -0.646 OA
ENDBRANCH  25  30
ENDBRANCH  24  25
ENDBRANCH  23  24
ENDBRANCH  22  23
ENDBRANCH  21  22
ENDBRANCH   3  21
BRANCH   4  33
HETATM   33  O4  UNL     1       1.843   9.087 -49.538  1.00  0.00    -0.390 OA
ATOM     34  H4  UNL     1       1.242   9.636 -49.049  1.00  0.00     0.210 HD
ENDBRANCH   4  33
TORSDOF 10
ENDMDL
