MODEL 2
REMARK VINA RESULT: -8.727806943      1.093      1.260
REMARK  10 active torsions:
REMARK  status: ('A' for Active; 'I' for Inactive)
REMARK    1  A    between atoms: N5_13  and  C6_14 
REMARK    2  A    between atoms: C7_16  and  C8_17 
REMARK    3  A    between atoms: C8_17  and  S1_18 
REMARK    4  A    between atoms: S1_18  and  C9_19 
REMARK    5  A    between atoms: C9_19  and  C10_20 
REMARK    6  A    between atoms: C10_20  and  C11_21 
REMARK    7  A    between atoms: C11_21  and  N6_22 
REMARK    8  A    between atoms: C11_21  and  C12_26 
REMARK    9  A    between atoms: C13_29  and  O4_30 
REMARK   10  A    between atoms: C14_32  and  O5_33 
ROOT
HETATM    1  C6  UNL     1       2.002   6.108 -49.375  1.00  0.00     0.262 C 
HETATM    2  O1  UNL     1       3.299   6.363 -48.897  1.00  0.00    -0.355 OA
HETATM    3  C7  UNL     1       3.566   7.671 -49.337  1.00  0.00     0.165 C 
HETATM    4  C13 UNL     1       2.263   8.414 -49.173  1.00  0.00     0.180 C 
HETATM    5  C14 UNL     1       1.293   7.308 -48.821  1.00  0.00     0.198 C 
ENDROOT
BRANCH   1   6
HETATM    6  N5  UNL     1       1.529   4.843 -48.911  1.00  0.00    -0.297 N 
HETATM    7  C3  UNL     1       1.771   3.657 -49.494  1.00  0.00     0.142 A 
HETATM    8  N3  UNL     1       2.459   3.291 -50.587  1.00  0.00    -0.336 N 
HETATM    9  C4  UNL     1       1.128   2.698 -48.710  1.00  0.00     0.119 A 
HETATM   10  C2  UNL     1       2.508   1.989 -50.902  1.00  0.00     0.183 A 
ATOM     11  H3  UNL     1       2.933   3.986 -51.164  1.00  0.00     0.168 HD
HETATM   12  N2  UNL     1       1.898   1.053 -50.165  1.00  0.00    -0.339 N 
HETATM   13  C1  UNL     1       1.204   1.388 -49.067  1.00  0.00     0.148 A 
ATOM     14  H2  UNL     1       1.961   0.072 -50.441  1.00  0.00     0.167 HD
HETATM   15  N1  UNL     1       0.555   0.386 -48.280  1.00  0.00    -0.080 NA
HETATM   16  N4  UNL     1       0.533   3.374 -47.696  1.00  0.00    -0.346 N 
HETATM   17  C5  UNL     1       0.771   4.675 -47.810  1.00  0.00     0.188 A 
ATOM     18  H4  UNL     1      -0.018   2.944 -46.953  1.00  0.00     0.167 HD
ENDBRANCH   1   6
BRANCH   5  19
HETATM   19  O5  UNL     1       0.038   7.527 -49.368  1.00  0.00    -0.388 OA
ATOM     20  H5  UNL     1      -0.428   8.262 -48.989  1.00  0.00     0.210 HD
ENDBRANCH   5  19
BRANCH   3  21
HETATM   21  C8  UNL     1       4.580   8.284 -48.417  1.00  0.00     0.108 C 
BRANCH  21  22
HETATM   22  S1  UNL     1       6.072   8.888 -49.132  1.00  0.00    -0.166 SA
BRANCH  22  23
HETATM   23  C9  UNL     1       6.997  10.050 -48.171  1.00  0.00     0.076 C 
BRANCH  23  24
HETATM   24  C10 UNL     1       8.061   9.427 -47.314  1.00  0.00     0.054 C 
BRANCH  24  25
HETATM   25  C11 UNL     1       8.312   8.013 -47.704  1.00  0.00     0.284 C 
BRANCH  25  26
HETATM   26  N6  UNL     1       7.829   7.071 -46.743  1.00  0.00    -0.065 N 
ATOM     27  H63 UNL     1       7.614   7.533 -45.859  1.00  0.00     0.275 HD
ATOM     28  H62 UNL     1       6.896   6.744 -46.993  1.00  0.00     0.275 HD
ATOM     29  H61 UNL     1       8.462   6.285 -46.598  1.00  0.00     0.275 HD
ENDBRANCH  25  26
BRANCH  25  30
HETATM   30  C12 UNL     1       9.719   7.731 -48.020  1.00  0.00     0.204 C 
HETATM   31  O2  UNL     1      10.132   6.556 -48.016  1.00  0.00    -0.646 OA
HETATM   32  O3  UNL     1      10.586   8.758 -48.320  1.00  0.00    -0.646 OA
ENDBRANCH  25  30
ENDBRANCH  24  25
ENDBRANCH  23  24
ENDBRANCH  22  23
ENDBRANCH  21  22
ENDBRANCH   3  21
BRANCH   4  33
HETATM   33  O4  UNL     1       1.853   8.956 -50.407  1.00  0.00    -0.390 OA
ATOM     34  H4  UNL     1       0.915   9.100 -50.406  1.00  0.00     0.210 HD
ENDBRANCH   4  33
TORSDOF 10
ENDMDL
