MODEL 2
REMARK VINA RESULT: -8.417990367      1.432      2.075
REMARK  9 active torsions:
REMARK  status: ('A' for Active; 'I' for Inactive)
REMARK    1  A    between atoms: C2_2  and  N1_3 
REMARK    2  A    between atoms: N1_3  and  C3_4 
REMARK       I    between atoms: N1_3  and  C9_12 
REMARK    3  A    between atoms: C3_4  and  C4_5 
REMARK    4  A    between atoms: C9_12  and  C10_14 
REMARK    5  A    between atoms: C10_14  and  N3_15 
REMARK    6  A    between atoms: N3_15  and  C11_16 
REMARK    7  A    between atoms: N3_15  and  S1_25 
REMARK    8  A    between atoms: C14_19  and  O2_20 
REMARK    9  A    between atoms: S1_25  and  C17_28 
ROOT
HETATM    1  N3  UNL     1      41.402  39.967 -55.441  1.00  0.00    -0.262 N 
ENDROOT
BRANCH   1   2
HETATM    2  C10 UNL     1      40.084  39.602 -55.882  1.00  0.00     0.245 C 
BRANCH   2   3
HETATM    3  C9  UNL     1      39.442  38.564 -55.030  1.00  0.00     0.239 C 
HETATM    4  N1  UNL     1      38.375  38.971 -54.185  1.00  0.00    -0.347 N 
HETATM    5  O1  UNL     1      39.765  37.368 -55.001  1.00  0.00    -0.271 OA
BRANCH   4   6
HETATM    6  C2  UNL     1      37.936  40.353 -54.158  1.00  0.00     0.121 C 
HETATM    7  C1  UNL     1      36.581  40.466 -54.836  1.00  0.00     0.026 C 
ENDBRANCH   4   6
BRANCH   4   8
HETATM    8  C3  UNL     1      37.680  38.031 -53.316  1.00  0.00     0.165 C 
BRANCH   8   9
HETATM    9  C4  UNL     1      37.875  38.374 -51.886  1.00  0.00    -0.025 A 
HETATM   10  C5  UNL     1      39.097  38.440 -51.276  1.00  0.00     0.011 A 
HETATM   11  C6  UNL     1      39.142  38.771 -49.937  1.00  0.00     0.018 A 
HETATM   12  C7  UNL     1      38.013  39.038 -49.189  1.00  0.00     0.087 A 
HETATM   13  N2  UNL     1      36.827  38.964 -49.822  1.00  0.00    -0.375 N 
HETATM   14  C8  UNL     1      36.759  38.642 -51.129  1.00  0.00     0.096 A 
ATOM     15  H2  UNL     1      35.969  39.154 -49.305  1.00  0.00     0.164 HD
ENDBRANCH   8   9
ENDBRANCH   4   8
ENDBRANCH   2   3
ENDBRANCH   1   2
BRANCH   1  16
HETATM   16  C11 UNL     1      41.648  41.022 -54.523  1.00  0.00     0.061 A 
HETATM   17  C12 UNL     1      41.592  40.840 -53.162  1.00  0.00     0.036 A 
HETATM   18  C13 UNL     1      41.844  41.901 -52.296  1.00  0.00     0.058 A 
HETATM   19  C14 UNL     1      42.156  43.156 -52.772  1.00  0.00     0.141 A 
HETATM   20  N4  UNL     1      42.207  43.318 -54.109  1.00  0.00    -0.345 N 
HETATM   21  C16 UNL     1      41.966  42.305 -54.963  1.00  0.00     0.120 A 
ATOM     22  H4  UNL     1      42.434  44.238 -54.485  1.00  0.00     0.167 HD
BRANCH  19  23
HETATM   23  O2  UNL     1      42.409  44.218 -51.916  1.00  0.00    -0.341 OA
HETATM   24  C15 UNL     1      42.206  44.163 -50.536  1.00  0.00     0.211 C 
ENDBRANCH  19  23
ENDBRANCH   1  16
BRANCH   1  25
HETATM   25  S1  UNL     1      42.751  39.112 -56.069  1.00  0.00     0.266 S 
HETATM   26  O3  UNL     1      43.334  38.203 -54.998  1.00  0.00    -0.200 OA
HETATM   27  O4  UNL     1      42.247  38.283 -57.222  1.00  0.00    -0.200 OA
BRANCH  25  28
HETATM   28  C17 UNL     1      44.000  40.148 -56.687  1.00  0.00     0.086 A 
HETATM   29  C18 UNL     1      43.975  40.540 -58.002  1.00  0.00     0.026 A 
HETATM   30  C19 UNL     1      44.998  41.395 -58.425  1.00  0.00     0.002 A 
HETATM   31  C20 UNL     1      45.975  41.816 -57.552  1.00  0.00     0.001 A 
HETATM   32  C21 UNL     1      45.974  41.407 -56.233  1.00  0.00     0.008 A 
HETATM   33  C22 UNL     1      44.984  40.565 -55.782  1.00  0.00    -0.039 A 
HETATM   34  C23 UNL     1      44.941  40.093 -54.362  1.00  0.00     0.050 C 
ENDBRANCH  25  28
ENDBRANCH   1  25
TORSDOF 9
ENDMDL
