MODEL 3
REMARK VINA RESULT: -8.417967517      1.700      6.629
REMARK  9 active torsions:
REMARK  status: ('A' for Active; 'I' for Inactive)
REMARK    1  A    between atoms: C2_2  and  N1_3 
REMARK    2  A    between atoms: N1_3  and  C3_4 
REMARK       I    between atoms: N1_3  and  C9_12 
REMARK    3  A    between atoms: C3_4  and  C4_5 
REMARK    4  A    between atoms: C9_12  and  C10_14 
REMARK    5  A    between atoms: C10_14  and  N3_15 
REMARK    6  A    between atoms: N3_15  and  C11_16 
REMARK    7  A    between atoms: N3_15  and  S1_25 
REMARK    8  A    between atoms: C14_19  and  O2_20 
REMARK    9  A    between atoms: S1_25  and  C17_28 
ROOT
HETATM    1  N3  UNL     1      40.679  39.831 -56.224  1.00  0.00    -0.262 N 
ENDROOT
BRANCH   1   2
HETATM    2  C10 UNL     1      40.579  40.283 -57.584  1.00  0.00     0.245 C 
BRANCH   2   3
HETATM    3  C9  UNL     1      41.898  40.415 -58.263  1.00  0.00     0.239 C 
HETATM    4  N1  UNL     1      42.414  41.725 -58.451  1.00  0.00    -0.347 N 
HETATM    5  O1  UNL     1      42.582  39.469 -58.677  1.00  0.00    -0.271 OA
BRANCH   4   6
HETATM    6  C2  UNL     1      41.675  42.886 -57.997  1.00  0.00     0.121 C 
HETATM    7  C1  UNL     1      41.683  43.948 -59.085  1.00  0.00     0.026 C 
ENDBRANCH   4   6
BRANCH   4   8
HETATM    8  C3  UNL     1      43.696  41.960 -59.101  1.00  0.00     0.165 C 
BRANCH   8   9
HETATM    9  C4  UNL     1      44.792  42.074 -58.107  1.00  0.00    -0.025 A 
HETATM   10  C5  UNL     1      45.463  41.003 -57.585  1.00  0.00     0.011 A 
HETATM   11  C6  UNL     1      46.465  41.245 -56.667  1.00  0.00     0.018 A 
HETATM   12  C7  UNL     1      46.817  42.514 -56.254  1.00  0.00     0.087 A 
HETATM   13  N2  UNL     1      46.135  43.544 -56.789  1.00  0.00    -0.375 N 
HETATM   14  C8  UNL     1      45.153  43.332 -57.687  1.00  0.00     0.096 A 
ATOM     15  H2  UNL     1      46.365  44.498 -56.510  1.00  0.00     0.164 HD
ENDBRANCH   8   9
ENDBRANCH   4   8
ENDBRANCH   2   3
ENDBRANCH   1   2
BRANCH   1  16
HETATM   16  C11 UNL     1      41.366  40.557 -55.214  1.00  0.00     0.061 A 
HETATM   17  C12 UNL     1      42.646  40.242 -54.824  1.00  0.00     0.036 A 
HETATM   18  C13 UNL     1      43.284  40.984 -53.833  1.00  0.00     0.058 A 
HETATM   19  C14 UNL     1      42.659  42.047 -53.219  1.00  0.00     0.141 A 
HETATM   20  N4  UNL     1      41.405  42.342 -53.613  1.00  0.00    -0.345 N 
HETATM   21  C16 UNL     1      40.770  41.638 -54.569  1.00  0.00     0.120 A 
ATOM     22  H4  UNL     1      40.921  43.124 -53.172  1.00  0.00     0.167 HD
BRANCH  19  23
HETATM   23  O2  UNL     1      43.288  42.791 -52.231  1.00  0.00    -0.341 OA
HETATM   24  C15 UNL     1      42.605  43.469 -51.221  1.00  0.00     0.211 C 
ENDBRANCH  19  23
ENDBRANCH   1  16
BRANCH   1  25
HETATM   25  S1  UNL     1      39.962  38.332 -55.795  1.00  0.00     0.266 S 
HETATM   26  O3  UNL     1      38.905  37.951 -56.820  1.00  0.00    -0.200 OA
HETATM   27  O4  UNL     1      41.062  37.303 -55.791  1.00  0.00    -0.200 OA
BRANCH  25  28
HETATM   28  C17 UNL     1      39.253  38.334 -54.211  1.00  0.00     0.086 A 
HETATM   29  C18 UNL     1      39.855  37.640 -53.191  1.00  0.00     0.026 A 
HETATM   30  C19 UNL     1      39.243  37.705 -51.935  1.00  0.00     0.002 A 
HETATM   31  C20 UNL     1      38.093  38.437 -51.746  1.00  0.00     0.001 A 
HETATM   32  C21 UNL     1      37.508  39.126 -52.790  1.00  0.00     0.008 A 
HETATM   33  C22 UNL     1      38.082  39.083 -54.039  1.00  0.00    -0.039 A 
HETATM   34  C23 UNL     1      37.486  39.813 -55.203  1.00  0.00     0.050 C 
ENDBRANCH  25  28
ENDBRANCH   1  25
TORSDOF 9
ENDMDL
