MODEL 4
REMARK VINA RESULT: -8.320098584      1.305      1.775
REMARK  9 active torsions:
REMARK  status: ('A' for Active; 'I' for Inactive)
REMARK    1  A    between atoms: C2_2  and  N1_3 
REMARK    2  A    between atoms: N1_3  and  C3_4 
REMARK       I    between atoms: N1_3  and  C9_12 
REMARK    3  A    between atoms: C3_4  and  C4_5 
REMARK    4  A    between atoms: C9_12  and  C10_14 
REMARK    5  A    between atoms: C10_14  and  N3_15 
REMARK    6  A    between atoms: N3_15  and  C11_16 
REMARK    7  A    between atoms: N3_15  and  S1_25 
REMARK    8  A    between atoms: C14_19  and  O2_20 
REMARK    9  A    between atoms: S1_25  and  C17_28 
ROOT
HETATM    1  N3  UNL     1      41.404  39.965 -55.424  1.00  0.00    -0.262 N 
ENDROOT
BRANCH   1   2
HETATM    2  C10 UNL     1      40.079  39.597 -55.842  1.00  0.00     0.245 C 
BRANCH   2   3
HETATM    3  C9  UNL     1      39.472  38.524 -55.007  1.00  0.00     0.239 C 
HETATM    4  N1  UNL     1      38.398  38.883 -54.149  1.00  0.00    -0.347 N 
HETATM    5  O1  UNL     1      39.831  37.338 -55.003  1.00  0.00    -0.271 OA
BRANCH   4   6
HETATM    6  C2  UNL     1      37.919  40.251 -54.093  1.00  0.00     0.121 C 
HETATM    7  C1  UNL     1      36.626  40.366 -54.885  1.00  0.00     0.026 C 
ENDBRANCH   4   6
BRANCH   4   8
HETATM    8  C3  UNL     1      37.736  37.906 -53.296  1.00  0.00     0.165 C 
BRANCH   8   9
HETATM    9  C4  UNL     1      37.768  38.324 -51.873  1.00  0.00    -0.025 A 
HETATM   10  C5  UNL     1      36.654  38.620 -51.138  1.00  0.00     0.011 A 
HETATM   11  C6  UNL     1      36.820  38.996 -49.821  1.00  0.00     0.018 A 
HETATM   12  C7  UNL     1      38.056  39.086 -49.214  1.00  0.00     0.087 A 
HETATM   13  N2  UNL     1      39.132  38.787 -49.967  1.00  0.00    -0.375 N 
HETATM   14  C8  UNL     1      38.994  38.417 -51.256  1.00  0.00     0.096 A 
ATOM     15  H2  UNL     1      40.064  38.841 -49.557  1.00  0.00     0.164 HD
ENDBRANCH   8   9
ENDBRANCH   4   8
ENDBRANCH   2   3
ENDBRANCH   1   2
BRANCH   1  16
HETATM   16  C11 UNL     1      41.666  41.052 -54.548  1.00  0.00     0.061 A 
HETATM   17  C12 UNL     1      41.983  42.307 -55.009  1.00  0.00     0.036 A 
HETATM   18  C13 UNL     1      42.229  43.347 -54.115  1.00  0.00     0.058 A 
HETATM   19  C14 UNL     1      42.162  43.150 -52.753  1.00  0.00     0.141 A 
HETATM   20  N4  UNL     1      41.851  41.914 -52.317  1.00  0.00    -0.345 N 
HETATM   21  C16 UNL     1      41.609  40.896 -53.165  1.00  0.00     0.120 A 
ATOM     22  H4  UNL     1      41.796  41.744 -51.314  1.00  0.00     0.167 HD
BRANCH  19  23
HETATM   23  O2  UNL     1      42.406  44.180 -51.856  1.00  0.00    -0.341 OA
HETATM   24  C15 UNL     1      42.225  44.063 -50.476  1.00  0.00     0.211 C 
ENDBRANCH  19  23
ENDBRANCH   1  16
BRANCH   1  25
HETATM   25  S1  UNL     1      42.739  39.072 -56.027  1.00  0.00     0.266 S 
HETATM   26  O3  UNL     1      43.321  38.201 -54.924  1.00  0.00    -0.200 OA
HETATM   27  O4  UNL     1      42.219  38.202 -57.141  1.00  0.00    -0.200 OA
BRANCH  25  28
HETATM   28  C17 UNL     1      43.993  40.070 -56.695  1.00  0.00     0.086 A 
HETATM   29  C18 UNL     1      43.964  40.405 -58.026  1.00  0.00     0.026 A 
HETATM   30  C19 UNL     1      44.992  41.233 -58.491  1.00  0.00     0.002 A 
HETATM   31  C20 UNL     1      45.977  41.683 -57.641  1.00  0.00     0.001 A 
HETATM   32  C21 UNL     1      45.980  41.330 -56.306  1.00  0.00     0.008 A 
HETATM   33  C22 UNL     1      44.986  40.517 -55.814  1.00  0.00    -0.039 A 
HETATM   34  C23 UNL     1      44.947  40.107 -54.375  1.00  0.00     0.050 C 
ENDBRANCH  25  28
ENDBRANCH   1  25
TORSDOF 9
ENDMDL
