MODEL 7
REMARK VINA RESULT: -8.211944649      2.629      6.991
REMARK  9 active torsions:
REMARK  status: ('A' for Active; 'I' for Inactive)
REMARK    1  A    between atoms: C2_2  and  N1_3 
REMARK    2  A    between atoms: N1_3  and  C3_4 
REMARK       I    between atoms: N1_3  and  C9_12 
REMARK    3  A    between atoms: C3_4  and  C4_5 
REMARK    4  A    between atoms: C9_12  and  C10_14 
REMARK    5  A    between atoms: C10_14  and  N3_15 
REMARK    6  A    between atoms: N3_15  and  C11_16 
REMARK    7  A    between atoms: N3_15  and  S1_25 
REMARK    8  A    between atoms: C14_19  and  O2_20 
REMARK    9  A    between atoms: S1_25  and  C17_28 
ROOT
HETATM    1  N3  UNL     1      41.390  40.046 -54.507  1.00  0.00    -0.262 N 
ENDROOT
BRANCH   1   2
HETATM    2  C10 UNL     1      40.304  40.102 -55.446  1.00  0.00     0.245 C 
BRANCH   2   3
HETATM    3  C9  UNL     1      40.688  39.678 -56.821  1.00  0.00     0.239 C 
HETATM    4  N1  UNL     1      40.709  40.671 -57.837  1.00  0.00    -0.347 N 
HETATM    5  O1  UNL     1      40.991  38.522 -57.150  1.00  0.00    -0.271 OA
BRANCH   4   6
HETATM    6  C2  UNL     1      40.364  42.047 -57.535  1.00  0.00     0.121 C 
HETATM    7  C1  UNL     1      39.123  42.441 -58.318  1.00  0.00     0.026 C 
ENDBRANCH   4   6
BRANCH   4   8
HETATM    8  C3  UNL     1      41.073  40.358 -59.211  1.00  0.00     0.165 C 
BRANCH   8   9
HETATM    9  C4  UNL     1      42.463  40.784 -59.510  1.00  0.00    -0.025 A 
HETATM   10  C5  UNL     1      43.569  40.269 -58.892  1.00  0.00     0.011 A 
HETATM   11  C6  UNL     1      44.807  40.751 -59.263  1.00  0.00     0.018 A 
HETATM   12  C7  UNL     1      44.979  41.724 -60.226  1.00  0.00     0.087 A 
HETATM   13  N2  UNL     1      43.869  42.208 -60.814  1.00  0.00    -0.375 N 
HETATM   14  C8  UNL     1      42.648  41.753 -60.468  1.00  0.00     0.096 A 
ATOM     15  H2  UNL     1      43.952  42.928 -61.531  1.00  0.00     0.164 HD
ENDBRANCH   8   9
ENDBRANCH   4   8
ENDBRANCH   2   3
ENDBRANCH   1   2
BRANCH   1  16
HETATM   16  C11 UNL     1      42.658  40.635 -54.754  1.00  0.00     0.061 A 
HETATM   17  C12 UNL     1      43.740  39.900 -55.176  1.00  0.00     0.036 A 
HETATM   18  C13 UNL     1      44.966  40.518 -55.411  1.00  0.00     0.058 A 
HETATM   19  C14 UNL     1      45.131  41.874 -55.229  1.00  0.00     0.141 A 
HETATM   20  N4  UNL     1      44.061  42.580 -54.815  1.00  0.00    -0.345 N 
HETATM   21  C16 UNL     1      42.867  42.001 -54.582  1.00  0.00     0.120 A 
ATOM     22  H4  UNL     1      44.159  43.585 -54.672  1.00  0.00     0.167 HD
BRANCH  19  23
HETATM   23  O2  UNL     1      46.348  42.497 -55.461  1.00  0.00    -0.341 OA
HETATM   24  C15 UNL     1      46.722  43.029 -56.696  1.00  0.00     0.211 C 
ENDBRANCH  19  23
ENDBRANCH   1  16
BRANCH   1  25
HETATM   25  S1  UNL     1      41.161  39.209 -53.027  1.00  0.00     0.266 S 
HETATM   26  O3  UNL     1      42.472  38.582 -52.578  1.00  0.00    -0.200 OA
HETATM   27  O4  UNL     1      40.709  40.226 -52.012  1.00  0.00    -0.200 OA
BRANCH  25  28
HETATM   28  C17 UNL     1      39.935  37.983 -53.109  1.00  0.00     0.086 A 
HETATM   29  C18 UNL     1      38.720  38.188 -52.503  1.00  0.00     0.026 A 
HETATM   30  C19 UNL     1      37.770  37.170 -52.631  1.00  0.00     0.002 A 
HETATM   31  C20 UNL     1      38.054  36.022 -53.335  1.00  0.00     0.001 A 
HETATM   32  C21 UNL     1      39.285  35.842 -53.936  1.00  0.00     0.008 A 
HETATM   33  C22 UNL     1      40.243  36.822 -53.830  1.00  0.00    -0.039 A 
HETATM   34  C23 UNL     1      41.592  36.674 -54.463  1.00  0.00     0.050 C 
ENDBRANCH  25  28
ENDBRANCH   1  25
TORSDOF 9
ENDMDL
