MODEL 8
REMARK VINA RESULT: -8.205339766      1.778      2.704
REMARK  9 active torsions:
REMARK  status: ('A' for Active; 'I' for Inactive)
REMARK    1  A    between atoms: C2_2  and  N1_3 
REMARK    2  A    between atoms: N1_3  and  C3_4 
REMARK       I    between atoms: N1_3  and  C9_12 
REMARK    3  A    between atoms: C3_4  and  C4_5 
REMARK    4  A    between atoms: C9_12  and  C10_14 
REMARK    5  A    between atoms: C10_14  and  N3_15 
REMARK    6  A    between atoms: N3_15  and  C11_16 
REMARK    7  A    between atoms: N3_15  and  S1_25 
REMARK    8  A    between atoms: C14_19  and  O2_20 
REMARK    9  A    between atoms: S1_25  and  C17_28 
ROOT
HETATM    1  N3  UNL     1      41.242  39.620 -55.159  1.00  0.00    -0.262 N 
ENDROOT
BRANCH   1   2
HETATM    2  C10 UNL     1      39.927  39.247 -55.604  1.00  0.00     0.245 C 
BRANCH   2   3
HETATM    3  C9  UNL     1      38.929  39.171 -54.502  1.00  0.00     0.239 C 
HETATM    4  N1  UNL     1      38.752  37.918 -53.857  1.00  0.00    -0.347 N 
HETATM    5  O1  UNL     1      38.238  40.119 -54.102  1.00  0.00    -0.271 OA
BRANCH   4   6
HETATM    6  C2  UNL     1      39.520  36.758 -54.266  1.00  0.00     0.121 C 
HETATM    7  C1  UNL     1      38.823  35.495 -53.786  1.00  0.00     0.026 C 
ENDBRANCH   4   6
BRANCH   4   8
HETATM    8  C3  UNL     1      37.802  37.742 -52.767  1.00  0.00     0.165 C 
BRANCH   8   9
HETATM    9  C4  UNL     1      38.363  38.223 -51.481  1.00  0.00    -0.025 A 
HETATM   10  C5  UNL     1      39.673  38.080 -51.118  1.00  0.00     0.011 A 
HETATM   11  C6  UNL     1      40.069  38.573 -49.891  1.00  0.00     0.018 A 
HETATM   12  C7  UNL     1      39.205  39.203 -49.019  1.00  0.00     0.087 A 
HETATM   13  N2  UNL     1      37.922  39.327 -49.409  1.00  0.00    -0.375 N 
HETATM   14  C8  UNL     1      37.513  38.853 -50.602  1.00  0.00     0.096 A 
ATOM     15  H2  UNL     1      37.252  39.787 -48.793  1.00  0.00     0.164 HD
ENDBRANCH   8   9
ENDBRANCH   4   8
ENDBRANCH   2   3
ENDBRANCH   1   2
BRANCH   1  16
HETATM   16  C11 UNL     1      41.488  40.742 -54.324  1.00  0.00     0.061 A 
HETATM   17  C12 UNL     1      41.553  40.640 -52.955  1.00  0.00     0.036 A 
HETATM   18  C13 UNL     1      41.801  41.766 -52.174  1.00  0.00     0.058 A 
HETATM   19  C14 UNL     1      41.989  43.006 -52.744  1.00  0.00     0.141 A 
HETATM   20  N4  UNL     1      41.923  43.089 -54.087  1.00  0.00    -0.345 N 
HETATM   21  C16 UNL     1      41.684  42.013 -54.861  1.00  0.00     0.120 A 
ATOM     22  H4  UNL     1      42.058  43.997 -54.532  1.00  0.00     0.167 HD
BRANCH  19  23
HETATM   23  O2  UNL     1      42.237  44.132 -51.973  1.00  0.00    -0.341 OA
HETATM   24  C15 UNL     1      42.162  44.146 -50.579  1.00  0.00     0.211 C 
ENDBRANCH  19  23
ENDBRANCH   1  16
BRANCH   1  25
HETATM   25  S1  UNL     1      42.585  38.687 -55.677  1.00  0.00     0.266 S 
HETATM   26  O3  UNL     1      43.285  38.072 -54.474  1.00  0.00    -0.200 OA
HETATM   27  O4  UNL     1      42.047  37.597 -56.566  1.00  0.00    -0.200 OA
BRANCH  25  28
HETATM   28  C17 UNL     1      43.736  39.592 -56.610  1.00  0.00     0.086 A 
HETATM   29  C18 UNL     1      43.612  39.653 -57.976  1.00  0.00     0.026 A 
HETATM   30  C19 UNL     1      44.559  40.420 -58.663  1.00  0.00     0.002 A 
HETATM   31  C20 UNL     1      45.560  41.079 -57.986  1.00  0.00     0.001 A 
HETATM   32  C21 UNL     1      45.661  41.001 -56.611  1.00  0.00     0.008 A 
HETATM   33  C22 UNL     1      44.748  40.254 -55.904  1.00  0.00    -0.039 A 
HETATM   34  C23 UNL     1      44.815  40.139 -54.412  1.00  0.00     0.050 C 
ENDBRANCH  25  28
ENDBRANCH   1  25
TORSDOF 9
ENDMDL
