MODEL 9
REMARK VINA RESULT: -8.196450835      2.450      7.799
REMARK  9 active torsions:
REMARK  status: ('A' for Active; 'I' for Inactive)
REMARK    1  A    between atoms: C2_2  and  N1_3 
REMARK    2  A    between atoms: N1_3  and  C3_4 
REMARK       I    between atoms: N1_3  and  C9_12 
REMARK    3  A    between atoms: C3_4  and  C4_5 
REMARK    4  A    between atoms: C9_12  and  C10_14 
REMARK    5  A    between atoms: C10_14  and  N3_15 
REMARK    6  A    between atoms: N3_15  and  C11_16 
REMARK    7  A    between atoms: N3_15  and  S1_25 
REMARK    8  A    between atoms: C14_19  and  O2_20 
REMARK    9  A    between atoms: S1_25  and  C17_28 
ROOT
HETATM    1  N3  UNL     1      39.760  39.439 -53.389  1.00  0.00    -0.262 N 
ENDROOT
BRANCH   1   2
HETATM    2  C10 UNL     1      40.872  40.026 -52.694  1.00  0.00     0.245 C 
BRANCH   2   3
HETATM    3  C9  UNL     1      42.195  39.591 -53.220  1.00  0.00     0.239 C 
HETATM    4  N1  UNL     1      43.023  40.577 -53.821  1.00  0.00    -0.347 N 
HETATM    5  O1  UNL     1      42.633  38.432 -53.174  1.00  0.00    -0.271 OA
BRANCH   4   6
HETATM    6  C2  UNL     1      42.585  41.956 -53.916  1.00  0.00     0.121 C 
HETATM    7  C1  UNL     1      43.328  42.794 -52.890  1.00  0.00     0.026 C 
ENDBRANCH   4   6
BRANCH   4   8
HETATM    8  C3  UNL     1      44.335  40.252 -54.363  1.00  0.00     0.165 C 
BRANCH   8   9
HETATM    9  C4  UNL     1      44.344  40.342 -55.844  1.00  0.00    -0.025 A 
HETATM   10  C5  UNL     1      45.166  41.172 -56.554  1.00  0.00     0.011 A 
HETATM   11  C6  UNL     1      45.076  41.160 -57.931  1.00  0.00     0.018 A 
HETATM   12  C7  UNL     1      44.198  40.350 -58.620  1.00  0.00     0.087 A 
HETATM   13  N2  UNL     1      43.404  39.544 -57.890  1.00  0.00    -0.375 N 
HETATM   14  C8  UNL     1      43.474  39.539 -56.544  1.00  0.00     0.096 A 
ATOM     15  H2  UNL     1      42.740  38.930 -58.361  1.00  0.00     0.164 HD
ENDBRANCH   8   9
ENDBRANCH   4   8
ENDBRANCH   2   3
ENDBRANCH   1   2
BRANCH   1  16
HETATM   16  C11 UNL     1      39.251  39.954 -54.611  1.00  0.00     0.061 A 
HETATM   17  C12 UNL     1      38.210  40.850 -54.655  1.00  0.00     0.036 A 
HETATM   18  C13 UNL     1      37.744  41.334 -55.876  1.00  0.00     0.058 A 
HETATM   19  C14 UNL     1      38.309  40.933 -57.067  1.00  0.00     0.141 A 
HETATM   20  N4  UNL     1      39.328  40.054 -57.007  1.00  0.00    -0.345 N 
HETATM   21  C16 UNL     1      39.793  39.574 -55.837  1.00  0.00     0.120 A 
ATOM     22  H4  UNL     1      39.761  39.742 -57.875  1.00  0.00     0.167 HD
BRANCH  19  23
HETATM   23  O2  UNL     1      37.851  41.410 -58.286  1.00  0.00    -0.341 OA
HETATM   24  C15 UNL     1      38.202  42.655 -58.810  1.00  0.00     0.211 C 
ENDBRANCH  19  23
ENDBRANCH   1  16
BRANCH   1  25
HETATM   25  S1  UNL     1      38.987  38.068 -52.706  1.00  0.00     0.266 S 
HETATM   26  O3  UNL     1      37.962  37.510 -53.681  1.00  0.00    -0.200 OA
HETATM   27  O4  UNL     1      40.059  37.042 -52.450  1.00  0.00    -0.200 OA
BRANCH  25  28
HETATM   28  C17 UNL     1      38.215  38.397 -51.186  1.00  0.00     0.086 A 
HETATM   29  C18 UNL     1      36.866  38.647 -51.144  1.00  0.00     0.026 A 
HETATM   30  C19 UNL     1      36.305  38.878 -49.884  1.00  0.00     0.002 A 
HETATM   31  C20 UNL     1      37.082  38.850 -48.748  1.00  0.00     0.001 A 
HETATM   32  C21 UNL     1      38.438  38.595 -48.820  1.00  0.00     0.008 A 
HETATM   33  C22 UNL     1      39.023  38.365 -50.042  1.00  0.00    -0.039 A 
HETATM   34  C23 UNL     1      40.488  38.084 -50.171  1.00  0.00     0.050 C 
ENDBRANCH  25  28
ENDBRANCH   1  25
TORSDOF 9
ENDMDL
