MODEL 2
REMARK VINA RESULT: -8.890581506      1.389      2.581
REMARK  5 active torsions:
REMARK  status: ('A' for Active; 'I' for Inactive)
REMARK    1  A    between atoms: S1_2  and  C2_5 
REMARK    2  A    between atoms: C5_8  and  C6_9 
REMARK    3  A    between atoms: C8_13  and  N2_14 
REMARK    4  A    between atoms: N2_14  and  C9_16 
REMARK    5  A    between atoms: C9_16  and  C10_17 
ROOT
HETATM    1  C6  UNL     1      18.497 -19.894 -21.532  1.00  0.00     0.037 A 
HETATM    2  C7  UNL     1      17.604 -18.966 -21.048  1.00  0.00     0.122 A 
HETATM    3  N1  UNL     1      18.015 -17.744 -20.699  1.00  0.00    -0.200 N 
ATOM      4  H1  UNL     1      17.324 -17.082 -20.346  1.00  0.00     0.183 HD
HETATM    5  C8  UNL     1      19.327 -17.334 -20.792  1.00  0.00     0.691 A 
HETATM    6  N3  UNL     1      20.191 -18.211 -21.253  1.00  0.00    -0.125 N 
HETATM    7  C14 UNL     1      21.503 -18.174 -21.496  1.00  0.00     0.225 A 
HETATM    8  N4  UNL     1      21.933 -19.362 -21.995  1.00  0.00    -0.293 N 
ATOM      9  H4  UNL     1      22.888 -19.597 -22.263  1.00  0.00     0.187 HD
HETATM   10  N5  UNL     1      20.885 -20.151 -22.068  1.00  0.00    -0.283 N 
ATOM     11  H5  UNL     1      20.885 -21.114 -22.404  1.00  0.00     0.188 HD
HETATM   12  C15 UNL     1      19.808 -19.470 -21.621  1.00  0.00     0.156 A 
ENDROOT
BRANCH   1  13
HETATM   13  C5  UNL     1      18.091 -21.229 -21.921  1.00  0.00    -0.021 A 
HETATM   14  C4  UNL     1      18.336 -21.770 -23.161  1.00  0.00     0.014 A 
HETATM   15  C3  UNL     1      17.928 -23.048 -23.483  1.00  0.00     0.024 A 
HETATM   16  C2  UNL     1      17.257 -23.818 -22.557  1.00  0.00     0.058 A 
HETATM   17  C17 UNL     1      17.015 -23.283 -21.328  1.00  0.00     0.024 A 
HETATM   18  C16 UNL     1      17.417 -22.005 -20.989  1.00  0.00     0.014 A 
BRANCH  16  19
HETATM   19  S1  UNL     1      16.714 -25.450 -22.907  1.00  0.00     0.171 S 
HETATM   20  C1  UNL     1      15.698 -26.017 -21.554  1.00  0.00     0.167 C 
HETATM   21  O1  UNL     1      15.846 -25.382 -24.142  1.00  0.00    -0.223 OA
HETATM   22  O2  UNL     1      17.847 -26.379 -23.166  1.00  0.00    -0.223 OA
ENDBRANCH  16  19
ENDBRANCH   1  13
BRANCH   5  23
HETATM   23  N2  UNL     1      19.610 -16.034 -20.409  1.00  0.00    -0.198 N 
ATOM     24  H2  UNL     1      20.555 -15.712 -20.616  1.00  0.00     0.183 HD
BRANCH  23  25
HETATM   25  C9  UNL     1      18.778 -15.092 -19.772  1.00  0.00     0.143 C 
BRANCH  25  26
HETATM   26  C10 UNL     1      18.885 -15.114 -18.268  1.00  0.00     0.090 A 
HETATM   27  C11 UNL     1      20.009 -14.684 -17.603  1.00  0.00     0.040 A 
HETATM   28  C12 UNL     1      19.738 -14.853 -16.269  1.00  0.00     0.027 A 
HETATM   29  C13 UNL     1      18.464 -15.376 -16.178  1.00  0.00     0.142 A 
HETATM   30  O3  UNL     1      18.004 -15.512 -17.384  1.00  0.00    -0.321 OA
ENDBRANCH  25  26
ENDBRANCH  23  25
ENDBRANCH   5  23
TORSDOF 5
ENDMDL
