MODEL 11
REMARK VINA RESULT: -7.761114177      1.726      2.992
REMARK  5 active torsions:
REMARK  status: ('A' for Active; 'I' for Inactive)
REMARK    1  A    between atoms: S1_2  and  C2_5 
REMARK    2  A    between atoms: C5_8  and  C6_9 
REMARK    3  A    between atoms: C8_13  and  N2_14 
REMARK    4  A    between atoms: N2_14  and  C9_16 
REMARK    5  A    between atoms: C9_16  and  C10_17 
ROOT
HETATM    1  C6  UNL     1      18.093 -20.963 -21.336  1.00  0.00     0.037 A 
HETATM    2  C7  UNL     1      17.103 -20.156 -20.824  1.00  0.00     0.122 A 
HETATM    3  N1  UNL     1      17.326 -18.856 -20.613  1.00  0.00    -0.200 N 
ATOM      4  H1  UNL     1      16.567 -18.289 -20.234  1.00  0.00     0.183 HD
HETATM    5  C8  UNL     1      18.530 -18.244 -20.883  1.00  0.00     0.691 A 
HETATM    6  N3  UNL     1      19.485 -19.003 -21.372  1.00  0.00    -0.125 N 
HETATM    7  C14 UNL     1      20.740 -18.771 -21.763  1.00  0.00     0.225 A 
HETATM    8  N4  UNL     1      21.320 -19.911 -22.219  1.00  0.00    -0.293 N 
ATOM      9  H4  UNL     1      22.271 -20.007 -22.574  1.00  0.00     0.187 HD
HETATM   10  N5  UNL     1      20.425 -20.866 -22.116  1.00  0.00    -0.283 N 
ATOM     11  H5  UNL     1      20.561 -21.842 -22.379  1.00  0.00     0.188 HD
HETATM   12  C15 UNL     1      19.295 -20.336 -21.602  1.00  0.00     0.156 A 
ENDROOT
BRANCH   1  13
HETATM   13  C5  UNL     1      17.891 -22.377 -21.578  1.00  0.00    -0.021 A 
HETATM   14  C4  UNL     1      17.626 -22.908 -22.818  1.00  0.00     0.014 A 
HETATM   15  C3  UNL     1      17.441 -24.264 -22.997  1.00  0.00     0.024 A 
HETATM   16  C2  UNL     1      17.519 -25.124 -21.923  1.00  0.00     0.058 A 
HETATM   17  C17 UNL     1      17.783 -24.599 -20.694  1.00  0.00     0.024 A 
HETATM   18  C16 UNL     1      17.971 -23.243 -20.498  1.00  0.00     0.014 A 
BRANCH  16  19
HETATM   19  S1  UNL     1      17.294 -26.857 -22.087  1.00  0.00     0.171 S 
HETATM   20  C1  UNL     1      17.291 -27.270 -23.824  1.00  0.00     0.167 C 
HETATM   21  O1  UNL     1      18.488 -27.530 -21.452  1.00  0.00    -0.223 OA
HETATM   22  O2  UNL     1      16.057 -27.333 -21.411  1.00  0.00    -0.223 OA
ENDBRANCH  16  19
ENDBRANCH   1  13
BRANCH   5  23
HETATM   23  N2  UNL     1      18.617 -16.885 -20.630  1.00  0.00    -0.198 N 
ATOM     24  H2  UNL     1      19.418 -16.412 -21.048  1.00  0.00     0.183 HD
BRANCH  23  25
HETATM   25  C9  UNL     1      17.757 -16.063 -19.876  1.00  0.00     0.143 C 
BRANCH  25  26
HETATM   26  C10 UNL     1      18.389 -15.526 -18.616  1.00  0.00     0.090 A 
HETATM   27  C11 UNL     1      19.606 -14.887 -18.618  1.00  0.00     0.040 A 
HETATM   28  C12 UNL     1      19.848 -14.546 -17.311  1.00  0.00     0.027 A 
HETATM   29  C13 UNL     1      18.771 -14.991 -16.571  1.00  0.00     0.142 A 
HETATM   30  O3  UNL     1      17.938 -15.561 -17.387  1.00  0.00    -0.321 OA
ENDBRANCH  25  26
ENDBRANCH  23  25
ENDBRANCH   5  23
TORSDOF 5
ENDMDL
