MODEL 4
REMARK VINA RESULT: -8.191680527      3.729      8.876
REMARK  5 active torsions:
REMARK  status: ('A' for Active; 'I' for Inactive)
REMARK    1  A    between atoms: S1_2  and  C2_5 
REMARK    2  A    between atoms: C5_8  and  C6_9 
REMARK    3  A    between atoms: C8_13  and  N2_14 
REMARK    4  A    between atoms: N2_14  and  C9_16 
REMARK    5  A    between atoms: C9_16  and  C10_17 
ROOT
HETATM    1  C6  UNL     1      18.625 -20.856 -22.313  1.00  0.00     0.037 A 
HETATM    2  C7  UNL     1      18.898 -20.995 -23.654  1.00  0.00     0.122 A 
HETATM    3  N1  UNL     1      18.842 -22.194 -24.238  1.00  0.00    -0.200 N 
ATOM      4  H1  UNL     1      19.049 -22.259 -25.235  1.00  0.00     0.183 HD
HETATM    5  C8  UNL     1      18.517 -23.349 -23.561  1.00  0.00     0.691 A 
HETATM    6  N3  UNL     1      18.254 -23.230 -22.278  1.00  0.00    -0.125 N 
HETATM    7  C14 UNL     1      17.894 -24.094 -21.326  1.00  0.00     0.225 A 
HETATM    8  N4  UNL     1      17.723 -23.456 -20.139  1.00  0.00    -0.293 N 
ATOM      9  H4  UNL     1      17.450 -23.884 -19.255  1.00  0.00     0.187 HD
HETATM   10  N5  UNL     1      17.975 -22.184 -20.346  1.00  0.00    -0.283 N 
ATOM     11  H5  UNL     1      17.932 -21.445 -19.644  1.00  0.00     0.188 HD
HETATM   12  C15 UNL     1      18.301 -22.021 -21.646  1.00  0.00     0.156 A 
ENDROOT
BRANCH   1  13
HETATM   13  C5  UNL     1      18.676 -19.572 -21.642  1.00  0.00    -0.021 A 
HETATM   14  C4  UNL     1      19.832 -18.849 -21.465  1.00  0.00     0.014 A 
HETATM   15  C3  UNL     1      19.827 -17.630 -20.819  1.00  0.00     0.024 A 
HETATM   16  C2  UNL     1      18.648 -17.106 -20.331  1.00  0.00     0.058 A 
HETATM   17  C17 UNL     1      17.503 -17.822 -20.506  1.00  0.00     0.024 A 
HETATM   18  C16 UNL     1      17.490 -19.044 -21.152  1.00  0.00     0.014 A 
BRANCH  16  19
HETATM   19  S1  UNL     1      18.579 -15.561 -19.501  1.00  0.00     0.171 S 
HETATM   20  C1  UNL     1      17.651 -15.765 -17.990  1.00  0.00     0.167 C 
HETATM   21  O1  UNL     1      19.994 -15.183 -19.129  1.00  0.00    -0.223 OA
HETATM   22  O2  UNL     1      18.003 -14.486 -20.354  1.00  0.00    -0.223 OA
ENDBRANCH  16  19
ENDBRANCH   1  13
BRANCH   5  23
HETATM   23  N2  UNL     1      18.482 -24.522 -24.296  1.00  0.00    -0.198 N 
ATOM     24  H2  UNL     1      19.317 -25.104 -24.231  1.00  0.00     0.183 HD
BRANCH  23  25
HETATM   25  C9  UNL     1      17.458 -25.027 -25.120  1.00  0.00     0.143 C 
BRANCH  25  26
HETATM   26  C10 UNL     1      16.916 -24.013 -26.097  1.00  0.00     0.090 A 
HETATM   27  C11 UNL     1      15.569 -23.845 -26.312  1.00  0.00     0.040 A 
HETATM   28  C12 UNL     1      15.464 -22.850 -27.251  1.00  0.00     0.027 A 
HETATM   29  C13 UNL     1      16.748 -22.455 -27.567  1.00  0.00     0.142 A 
HETATM   30  O3  UNL     1      17.568 -23.171 -26.859  1.00  0.00    -0.321 OA
ENDBRANCH  25  26
ENDBRANCH  23  25
ENDBRANCH   5  23
TORSDOF 5
ENDMDL
