MODEL 9
REMARK VINA RESULT: -7.788416827      3.829      8.945
REMARK  5 active torsions:
REMARK  status: ('A' for Active; 'I' for Inactive)
REMARK    1  A    between atoms: S1_2  and  C2_5 
REMARK    2  A    between atoms: C5_8  and  C6_9 
REMARK    3  A    between atoms: C8_13  and  N2_14 
REMARK    4  A    between atoms: N2_14  and  C9_16 
REMARK    5  A    between atoms: C9_16  and  C10_17 
ROOT
HETATM    1  C6  UNL     1      19.063 -20.776 -22.334  1.00  0.00     0.037 A 
HETATM    2  C7  UNL     1      18.013 -21.657 -22.455  1.00  0.00     0.122 A 
HETATM    3  N1  UNL     1      18.167 -22.813 -23.105  1.00  0.00    -0.200 N 
ATOM      4  H1  UNL     1      17.367 -23.442 -23.173  1.00  0.00     0.183 HD
HETATM    5  C8  UNL     1      19.354 -23.198 -23.689  1.00  0.00     0.691 A 
HETATM    6  N3  UNL     1      20.366 -22.366 -23.581  1.00  0.00    -0.125 N 
HETATM    7  C14 UNL     1      21.637 -22.400 -23.987  1.00  0.00     0.225 A 
HETATM    8  N4  UNL     1      22.294 -21.276 -23.604  1.00  0.00    -0.293 N 
ATOM      9  H4  UNL     1      23.272 -21.053 -23.787  1.00  0.00     0.187 HD
HETATM   10  N5  UNL     1      21.432 -20.529 -22.951  1.00  0.00    -0.283 N 
ATOM     11  H5  UNL     1      21.626 -19.618 -22.537  1.00  0.00     0.188 HD
HETATM   12  C15 UNL     1      20.247 -21.175 -22.923  1.00  0.00     0.156 A 
ENDROOT
BRANCH   1  13
HETATM   13  C5  UNL     1      18.937 -19.513 -21.636  1.00  0.00    -0.021 A 
HETATM   14  C4  UNL     1      19.987 -18.653 -21.418  1.00  0.00     0.014 A 
HETATM   15  C3  UNL     1      19.815 -17.460 -20.747  1.00  0.00     0.024 A 
HETATM   16  C2  UNL     1      18.569 -17.100 -20.276  1.00  0.00     0.058 A 
HETATM   17  C17 UNL     1      17.528 -17.951 -20.493  1.00  0.00     0.024 A 
HETATM   18  C16 UNL     1      17.684 -19.150 -21.163  1.00  0.00     0.014 A 
BRANCH  16  19
HETATM   19  S1  UNL     1      18.287 -15.596 -19.417  1.00  0.00     0.171 S 
HETATM   20  C1  UNL     1      19.776 -15.153 -18.538  1.00  0.00     0.167 C 
HETATM   21  O1  UNL     1      18.024 -14.527 -20.452  1.00  0.00    -0.223 OA
HETATM   22  O2  UNL     1      17.117 -15.679 -18.502  1.00  0.00    -0.223 OA
ENDBRANCH  16  19
ENDBRANCH   1  13
BRANCH   5  23
HETATM   23  N2  UNL     1      19.376 -24.431 -24.319  1.00  0.00    -0.198 N 
ATOM     24  H2  UNL     1      19.631 -25.221 -23.727  1.00  0.00     0.183 HD
BRANCH  23  25
HETATM   25  C9  UNL     1      19.095 -24.751 -25.662  1.00  0.00     0.143 C 
BRANCH  25  26
HETATM   26  C10 UNL     1      17.986 -23.921 -26.259  1.00  0.00     0.090 A 
HETATM   27  C11 UNL     1      18.204 -23.028 -27.282  1.00  0.00     0.040 A 
HETATM   28  C12 UNL     1      16.980 -22.472 -27.555  1.00  0.00     0.027 A 
HETATM   29  C13 UNL     1      16.072 -23.047 -26.690  1.00  0.00     0.142 A 
HETATM   30  O3  UNL     1      16.715 -23.895 -25.947  1.00  0.00    -0.321 OA
ENDBRANCH  25  26
ENDBRANCH  23  25
ENDBRANCH   5  23
TORSDOF 5
ENDMDL
