MODEL 8
REMARK VINA RESULT: -7.856727860      4.813      8.467
REMARK  5 active torsions:
REMARK  status: ('A' for Active; 'I' for Inactive)
REMARK    1  A    between atoms: S1_2  and  C2_5 
REMARK    2  A    between atoms: C5_8  and  C6_9 
REMARK    3  A    between atoms: C8_13  and  N2_14 
REMARK    4  A    between atoms: N2_14  and  C9_16 
REMARK    5  A    between atoms: C9_16  and  C10_17 
ROOT
HETATM    1  C6  UNL     1      20.393 -20.819 -22.463  1.00  0.00     0.037 A 
HETATM    2  C7  UNL     1      21.659 -21.186 -22.068  1.00  0.00     0.122 A 
HETATM    3  N1  UNL     1      22.296 -22.191 -22.675  1.00  0.00    -0.200 N 
ATOM      4  H1  UNL     1      23.234 -22.433 -22.356  1.00  0.00     0.183 HD
HETATM    5  C8  UNL     1      21.747 -22.917 -23.709  1.00  0.00     0.691 A 
HETATM    6  N3  UNL     1      20.537 -22.577 -24.096  1.00  0.00    -0.125 N 
HETATM    7  C14 UNL     1      19.714 -23.022 -25.047  1.00  0.00     0.225 A 
HETATM    8  N4  UNL     1      18.557 -22.311 -25.052  1.00  0.00    -0.293 N 
ATOM      9  H4  UNL     1      17.764 -22.449 -25.677  1.00  0.00     0.187 HD
HETATM   10  N5  UNL     1      18.653 -21.413 -24.098  1.00  0.00    -0.283 N 
ATOM     11  H5  UNL     1      17.941 -20.725 -23.852  1.00  0.00     0.188 HD
HETATM   12  C15 UNL     1      19.855 -21.555 -23.501  1.00  0.00     0.156 A 
ENDROOT
BRANCH   1  13
HETATM   13  C5  UNL     1      19.669 -19.735 -21.831  1.00  0.00    -0.021 A 
HETATM   14  C4  UNL     1      18.321 -19.772 -21.560  1.00  0.00     0.014 A 
HETATM   15  C3  UNL     1      17.678 -18.712 -20.956  1.00  0.00     0.024 A 
HETATM   16  C2  UNL     1      18.382 -17.579 -20.607  1.00  0.00     0.058 A 
HETATM   17  C17 UNL     1      19.717 -17.541 -20.874  1.00  0.00     0.024 A 
HETATM   18  C16 UNL     1      20.377 -18.595 -21.478  1.00  0.00     0.014 A 
BRANCH  16  19
HETATM   19  S1  UNL     1      17.619 -16.198 -19.836  1.00  0.00     0.171 S 
HETATM   20  C1  UNL     1      18.850 -14.929 -19.591  1.00  0.00     0.167 C 
HETATM   21  O1  UNL     1      16.583 -15.661 -20.794  1.00  0.00    -0.223 OA
HETATM   22  O2  UNL     1      16.950 -16.564 -18.558  1.00  0.00    -0.223 OA
ENDBRANCH  16  19
ENDBRANCH   1  13
BRANCH   5  23
HETATM   23  N2  UNL     1      22.526 -23.924 -24.255  1.00  0.00    -0.198 N 
ATOM     24  H2  UNL     1      22.173 -24.871 -24.120  1.00  0.00     0.183 HD
BRANCH  23  25
HETATM   25  C9  UNL     1      23.736 -23.826 -24.968  1.00  0.00     0.143 C 
BRANCH  25  26
HETATM   26  C10 UNL     1      23.966 -22.467 -25.581  1.00  0.00     0.090 A 
HETATM   27  C11 UNL     1      23.648 -22.187 -26.889  1.00  0.00     0.040 A 
HETATM   28  C12 UNL     1      23.993 -20.872 -27.081  1.00  0.00     0.027 A 
HETATM   29  C13 UNL     1      24.504 -20.410 -25.885  1.00  0.00     0.142 A 
HETATM   30  O3  UNL     1      24.466 -21.389 -25.033  1.00  0.00    -0.321 OA
ENDBRANCH  25  26
ENDBRANCH  23  25
ENDBRANCH   5  23
TORSDOF 5
ENDMDL
