MODEL 3
REMARK VINA RESULT: -8.300543336      1.176      2.414
REMARK  5 active torsions:
REMARK  status: ('A' for Active; 'I' for Inactive)
REMARK    1  A    between atoms: S1_2  and  C2_5 
REMARK    2  A    between atoms: C5_8  and  C6_9 
REMARK    3  A    between atoms: C8_13  and  N2_14 
REMARK    4  A    between atoms: N2_14  and  C9_16 
REMARK    5  A    between atoms: C9_16  and  C10_17 
ROOT
HETATM    1  C6  UNL     1      18.024 -19.564 -21.170  1.00  0.00     0.037 A 
HETATM    2  C7  UNL     1      16.869 -18.939 -20.762  1.00  0.00     0.122 A 
HETATM    3  N1  UNL     1      16.880 -17.648 -20.418  1.00  0.00    -0.200 N 
ATOM      4  H1  UNL     1      16.004 -17.218 -20.123  1.00  0.00     0.183 HD
HETATM    5  C8  UNL     1      18.017 -16.870 -20.444  1.00  0.00     0.691 A 
HETATM    6  N3  UNL     1      19.128 -17.456 -20.832  1.00  0.00    -0.125 N 
HETATM    7  C14 UNL     1      20.384 -17.035 -20.998  1.00  0.00     0.225 A 
HETATM    8  N4  UNL     1      21.174 -18.045 -21.442  1.00  0.00    -0.293 N 
ATOM      9  H4  UNL     1      22.171 -17.990 -21.647  1.00  0.00     0.187 HD
HETATM   10  N5  UNL     1      20.411 -19.109 -21.558  1.00  0.00    -0.283 N 
ATOM     11  H5  UNL     1      20.716 -20.030 -21.870  1.00  0.00     0.188 HD
HETATM   12  C15 UNL     1      19.156 -18.773 -21.191  1.00  0.00     0.156 A 
ENDROOT
BRANCH   1  13
HETATM   13  C5  UNL     1      18.054 -20.962 -21.551  1.00  0.00    -0.021 A 
HETATM   14  C4  UNL     1      18.445 -21.407 -22.792  1.00  0.00     0.014 A 
HETATM   15  C3  UNL     1      18.456 -22.750 -23.106  1.00  0.00     0.024 A 
HETATM   16  C2  UNL     1      18.070 -23.686 -22.169  1.00  0.00     0.058 A 
HETATM   17  C17 UNL     1      17.684 -23.247 -20.939  1.00  0.00     0.024 A 
HETATM   18  C16 UNL     1      17.668 -21.905 -20.609  1.00  0.00     0.014 A 
BRANCH  16  19
HETATM   19  S1  UNL     1      18.064 -25.408 -22.509  1.00  0.00     0.171 S 
HETATM   20  C1  UNL     1      18.550 -26.284 -21.032  1.00  0.00     0.167 C 
HETATM   21  O1  UNL     1      16.641 -25.800 -22.833  1.00  0.00    -0.223 OA
HETATM   22  O2  UNL     1      18.934 -25.760 -23.663  1.00  0.00    -0.223 OA
ENDBRANCH  16  19
ENDBRANCH   1  13
BRANCH   5  23
HETATM   23  N2  UNL     1      17.879 -15.542 -20.075  1.00  0.00    -0.198 N 
ATOM     24  H2  UNL     1      16.970 -15.125 -20.274  1.00  0.00     0.183 HD
BRANCH  23  25
HETATM   25  C9  UNL     1      18.816 -14.686 -19.466  1.00  0.00     0.143 C 
BRANCH  25  26
HETATM   26  C10 UNL     1      19.006 -14.951 -17.993  1.00  0.00     0.090 A 
HETATM   27  C11 UNL     1      20.217 -14.782 -17.365  1.00  0.00     0.040 A 
HETATM   28  C12 UNL     1      20.003 -15.114 -16.051  1.00  0.00     0.027 A 
HETATM   29  C13 UNL     1      18.675 -15.469 -15.935  1.00  0.00     0.142 A 
HETATM   30  O3  UNL     1      18.130 -15.356 -17.108  1.00  0.00    -0.321 OA
ENDBRANCH  25  26
ENDBRANCH  23  25
ENDBRANCH   5  23
TORSDOF 5
ENDMDL
