MODEL 3
REMARK VINA RESULT: -7.693433684      3.664      4.964
REMARK  6 active torsions:
REMARK  status: ('A' for Active; 'I' for Inactive)
REMARK    1  A    between atoms: N1_2  and  C2_3 
REMARK       I    between atoms: N1_2  and  C14_19 
REMARK    2  A    between atoms: C2_3  and  C3_4 
REMARK    3  A    between atoms: C3_4  and  C4_5 
REMARK    4  A    between atoms: C4_5  and  N2_6 
REMARK    5  A    between atoms: N2_6  and  C5_8 
REMARK    6  A    between atoms: C14_19  and  C15_21 
ROOT
HETATM    1  N2  UNL     1      -8.950  -5.029  -2.112  1.00  0.00    -0.389 N 
ATOM      2  H2  UNL     1      -8.208  -4.374  -1.869  1.00  0.00     0.159 HD
ENDROOT
BRANCH   1   3
HETATM    3  C4  UNL     1      -8.660  -6.453  -2.303  1.00  0.00     0.121 C 
BRANCH   3   4
HETATM    4  C3  UNL     1      -7.445  -6.827  -1.495  1.00  0.00     0.039 C 
BRANCH   4   5
HETATM    5  C2  UNL     1      -7.753  -6.521  -0.045  1.00  0.00     0.127 C 
BRANCH   5   6
HETATM    6  N1  UNL     1      -7.734  -7.744   0.746  1.00  0.00    -0.352 N 
HETATM    7  C1  UNL     1      -6.487  -8.277   1.248  1.00  0.00     0.152 C 
HETATM    8  C14 UNL     1      -8.942  -8.407   1.017  1.00  0.00     0.260 C 
HETATM    9  O3  UNL     1     -10.022  -7.939   0.578  1.00  0.00    -0.267 OA
BRANCH   8  10
HETATM   10  C15 UNL     1      -9.010  -9.654   1.811  1.00  0.00     0.072 A 
HETATM   11  C16 UNL     1      -8.964 -10.943   1.341  1.00  0.00     0.025 A 
HETATM   12  C17 UNL     1      -9.043 -11.921   2.245  1.00  0.00     0.009 A 
HETATM   13  C18 UNL     1      -9.162 -11.572   3.560  1.00  0.00     0.050 A 
HETATM   14  S1  UNL     1      -9.160  -9.869   3.496  1.00  0.00    -0.097 SA
ENDBRANCH   8  10
ENDBRANCH   5   6
ENDBRANCH   4   5
ENDBRANCH   3   4
ENDBRANCH   1   3
BRANCH   1  15
HETATM   15  C5  UNL     1     -10.282  -4.586  -2.271  1.00  0.00     0.046 A 
HETATM   16  C6  UNL     1     -11.318  -5.080  -1.486  1.00  0.00     0.112 A 
HETATM   17  C7  UNL     1     -12.607  -4.624  -1.720  1.00  0.00     0.290 A 
HETATM   18  O1  UNL     1     -13.546  -5.087  -0.990  1.00  0.00    -0.260 OA
HETATM   19  O2  UNL     1     -12.829  -3.750  -2.658  1.00  0.00    -0.275 OA
HETATM   20  C8  UNL     1     -11.888  -3.258  -3.419  1.00  0.00     0.091 A 
HETATM   21  C9  UNL     1     -12.172  -2.328  -4.408  1.00  0.00     0.038 A 
HETATM   22  C13 UNL     1     -10.550  -3.643  -3.276  1.00  0.00     0.024 A 
HETATM   23  C10 UNL     1     -11.202  -1.791  -5.225  1.00  0.00     0.003 A 
HETATM   24  C11 UNL     1      -9.891  -2.174  -5.079  1.00  0.00     0.001 A 
HETATM   25  C12 UNL     1      -9.590  -3.105  -4.093  1.00  0.00     0.016 A 
ENDBRANCH   1  15
TORSDOF 6
ENDMDL
