MODEL 1
REMARK VINA RESULT: -8.070832243      0.000      0.000
REMARK  6 active torsions:
REMARK  status: ('A' for Active; 'I' for Inactive)
REMARK    1  A    between atoms: N1_2  and  C2_3 
REMARK       I    between atoms: N1_2  and  C14_19 
REMARK    2  A    between atoms: C2_3  and  C3_4 
REMARK    3  A    between atoms: C3_4  and  C4_5 
REMARK    4  A    between atoms: C4_5  and  N2_6 
REMARK    5  A    between atoms: N2_6  and  C5_8 
REMARK    6  A    between atoms: C14_19  and  C15_21 
ROOT
HETATM    1  N2  UNL     1      -9.144  -5.164  -2.134  1.00  0.00    -0.389 N 
ATOM      2  H2  UNL     1      -8.348  -4.821  -2.672  1.00  0.00     0.159 HD
ENDROOT
BRANCH   1   3
HETATM    3  C4  UNL     1      -8.977  -6.242  -1.155  1.00  0.00     0.121 C 
BRANCH   3   4
HETATM    4  C3  UNL     1      -8.058  -7.293  -1.723  1.00  0.00     0.039 C 
BRANCH   4   5
HETATM    5  C2  UNL     1      -6.679  -6.678  -1.830  1.00  0.00     0.127 C 
BRANCH   5   6
HETATM    6  N1  UNL     1      -5.967  -7.227  -2.975  1.00  0.00    -0.352 N 
HETATM    7  C1  UNL     1      -6.481  -7.052  -4.315  1.00  0.00     0.152 C 
HETATM    8  C14 UNL     1      -4.772  -7.934  -2.769  1.00  0.00     0.260 C 
HETATM    9  O3  UNL     1      -4.329  -8.084  -1.603  1.00  0.00    -0.267 OA
BRANCH   8  10
HETATM   10  C15 UNL     1      -3.989  -8.524  -3.877  1.00  0.00     0.072 A 
HETATM   11  C16 UNL     1      -4.451  -9.337  -4.882  1.00  0.00     0.025 A 
HETATM   12  C17 UNL     1      -3.560  -9.755  -5.783  1.00  0.00     0.009 A 
HETATM   13  C18 UNL     1      -2.263  -9.347  -5.641  1.00  0.00     0.050 A 
HETATM   14  S1  UNL     1      -2.328  -8.381  -4.238  1.00  0.00    -0.097 SA
ENDBRANCH   8  10
ENDBRANCH   5   6
ENDBRANCH   4   5
ENDBRANCH   3   4
ENDBRANCH   1   3
BRANCH   1  15
HETATM   15  C5  UNL     1     -10.431  -4.611  -2.315  1.00  0.00     0.046 A 
HETATM   16  C6  UNL     1     -11.517  -5.016  -1.548  1.00  0.00     0.112 A 
HETATM   17  C7  UNL     1     -12.760  -4.454  -1.802  1.00  0.00     0.290 A 
HETATM   18  O1  UNL     1     -13.746  -4.837  -1.089  1.00  0.00    -0.260 OA
HETATM   19  O2  UNL     1     -12.892  -3.564  -2.742  1.00  0.00    -0.275 OA
HETATM   20  C8  UNL     1     -11.900  -3.153  -3.487  1.00  0.00     0.091 A 
HETATM   21  C9  UNL     1     -12.089  -2.203  -4.480  1.00  0.00     0.038 A 
HETATM   22  C13 UNL     1     -10.602  -3.649  -3.323  1.00  0.00     0.024 A 
HETATM   23  C10 UNL     1     -11.064  -1.749  -5.280  1.00  0.00     0.003 A 
HETATM   24  C11 UNL     1      -9.793  -2.240  -5.113  1.00  0.00     0.001 A 
HETATM   25  C12 UNL     1      -9.587  -3.193  -4.123  1.00  0.00     0.016 A 
ENDBRANCH   1  15
TORSDOF 6
ENDMDL
