MODEL 19
REMARK VINA RESULT: -6.953451422      5.137      7.463
REMARK  6 active torsions:
REMARK  status: ('A' for Active; 'I' for Inactive)
REMARK    1  A    between atoms: N1_2  and  C2_3 
REMARK       I    between atoms: N1_2  and  C14_19 
REMARK    2  A    between atoms: C2_3  and  C3_4 
REMARK    3  A    between atoms: C3_4  and  C4_5 
REMARK    4  A    between atoms: C4_5  and  N2_6 
REMARK    5  A    between atoms: N2_6  and  C5_8 
REMARK    6  A    between atoms: C14_19  and  C15_21 
ROOT
HETATM    1  N2  UNL     1     -10.785  -8.747   1.536  1.00  0.00    -0.389 N 
ATOM      2  H2  UNL     1      -9.880  -9.069   1.880  1.00  0.00     0.159 HD
ENDROOT
BRANCH   1   3
HETATM    3  C4  UNL     1     -12.031  -9.308   2.067  1.00  0.00     0.121 C 
BRANCH   3   4
HETATM    4  C3  UNL     1     -12.205  -8.869   3.498  1.00  0.00     0.039 C 
BRANCH   4   5
HETATM    5  C2  UNL     1     -10.984  -9.332   4.265  1.00  0.00     0.127 C 
BRANCH   5   6
HETATM    6  N1  UNL     1     -10.157  -8.192   4.637  1.00  0.00    -0.352 N 
HETATM    7  C1  UNL     1     -10.691  -7.133   5.465  1.00  0.00     0.152 C 
HETATM    8  C14 UNL     1      -8.831  -8.127   4.182  1.00  0.00     0.260 C 
HETATM    9  O3  UNL     1      -8.372  -9.049   3.463  1.00  0.00    -0.267 OA
BRANCH   8  10
HETATM   10  C15 UNL     1      -7.925  -7.004   4.513  1.00  0.00     0.072 A 
HETATM   11  C16 UNL     1      -7.622  -5.920   3.727  1.00  0.00     0.025 A 
HETATM   12  C17 UNL     1      -6.774  -5.023   4.233  1.00  0.00     0.009 A 
HETATM   13  C18 UNL     1      -6.273  -5.246   5.484  1.00  0.00     0.050 A 
HETATM   14  S1  UNL     1      -7.010  -6.719   5.923  1.00  0.00    -0.097 SA
ENDBRANCH   8  10
ENDBRANCH   5   6
ENDBRANCH   4   5
ENDBRANCH   3   4
ENDBRANCH   1   3
BRANCH   1  15
HETATM   15  C5  UNL     1     -10.866  -7.751   0.538  1.00  0.00     0.046 A 
HETATM   16  C6  UNL     1     -12.068  -7.132   0.215  1.00  0.00     0.112 A 
HETATM   17  C7  UNL     1     -12.080  -6.186  -0.799  1.00  0.00     0.290 A 
HETATM   18  O1  UNL     1     -13.191  -5.627  -1.082  1.00  0.00    -0.260 OA
HETATM   19  O2  UNL     1     -10.980  -5.892  -1.428  1.00  0.00    -0.275 OA
HETATM   20  C8  UNL     1      -9.828  -6.447  -1.160  1.00  0.00     0.091 A 
HETATM   21  C9  UNL     1      -8.680  -6.103  -1.859  1.00  0.00     0.038 A 
HETATM   22  C13 UNL     1      -9.693  -7.415  -0.158  1.00  0.00     0.024 A 
HETATM   23  C10 UNL     1      -7.452  -6.670  -1.598  1.00  0.00     0.003 A 
HETATM   24  C11 UNL     1      -7.328  -7.618  -0.613  1.00  0.00     0.001 A 
HETATM   25  C12 UNL     1      -8.468  -7.975   0.096  1.00  0.00     0.016 A 
ENDBRANCH   1  15
TORSDOF 6
ENDMDL
