MODEL 18
REMARK VINA RESULT: -6.966852378      5.640      7.994
REMARK  6 active torsions:
REMARK  status: ('A' for Active; 'I' for Inactive)
REMARK    1  A    between atoms: N1_2  and  C2_3 
REMARK       I    between atoms: N1_2  and  C14_19 
REMARK    2  A    between atoms: C2_3  and  C3_4 
REMARK    3  A    between atoms: C3_4  and  C4_5 
REMARK    4  A    between atoms: C4_5  and  N2_6 
REMARK    5  A    between atoms: N2_6  and  C5_8 
REMARK    6  A    between atoms: C14_19  and  C15_21 
ROOT
HETATM    1  N2  UNL     1     -10.827  -8.709   1.372  1.00  0.00    -0.389 N 
ATOM      2  H2  UNL     1     -10.030  -9.346   1.400  1.00  0.00     0.159 HD
ENDROOT
BRANCH   1   3
HETATM    3  C4  UNL     1     -11.920  -8.834   2.340  1.00  0.00     0.121 C 
BRANCH   3   4
HETATM    4  C3  UNL     1     -11.346  -9.083   3.711  1.00  0.00     0.039 C 
BRANCH   4   5
HETATM    5  C2  UNL     1     -11.213  -7.739   4.397  1.00  0.00     0.127 C 
BRANCH   5   6
HETATM    6  N1  UNL     1      -9.819  -7.473   4.723  1.00  0.00    -0.352 N 
HETATM    7  C1  UNL     1      -8.756  -8.196   4.060  1.00  0.00     0.152 C 
HETATM    8  C14 UNL     1      -9.512  -6.505   5.693  1.00  0.00     0.260 C 
HETATM    9  O3  UNL     1     -10.439  -5.880   6.265  1.00  0.00    -0.267 OA
BRANCH   8  10
HETATM   10  C15 UNL     1      -8.123  -6.175   6.083  1.00  0.00     0.072 A 
HETATM   11  C16 UNL     1      -7.330  -5.177   5.572  1.00  0.00     0.025 A 
HETATM   12  C17 UNL     1      -6.101  -5.061   6.077  1.00  0.00     0.009 A 
HETATM   13  C18 UNL     1      -5.724  -5.934   7.057  1.00  0.00     0.050 A 
HETATM   14  S1  UNL     1      -7.113  -6.904   7.247  1.00  0.00    -0.097 SA
ENDBRANCH   8  10
ENDBRANCH   5   6
ENDBRANCH   4   5
ENDBRANCH   3   4
ENDBRANCH   1   3
BRANCH   1  15
HETATM   15  C5  UNL     1     -10.902  -7.688   0.399  1.00  0.00     0.046 A 
HETATM   16  C6  UNL     1     -12.098  -7.044   0.103  1.00  0.00     0.112 A 
HETATM   17  C7  UNL     1     -12.105  -6.073  -0.887  1.00  0.00     0.290 A 
HETATM   18  O1  UNL     1     -13.211  -5.491  -1.146  1.00  0.00    -0.260 OA
HETATM   19  O2  UNL     1     -11.006  -5.779  -1.519  1.00  0.00    -0.275 OA
HETATM   20  C8  UNL     1      -9.860  -6.357  -1.275  1.00  0.00     0.091 A 
HETATM   21  C9  UNL     1      -8.714  -6.012  -1.975  1.00  0.00     0.038 A 
HETATM   22  C13 UNL     1      -9.731  -7.351  -0.299  1.00  0.00     0.024 A 
HETATM   23  C10 UNL     1      -7.492  -6.602  -1.740  1.00  0.00     0.003 A 
HETATM   24  C11 UNL     1      -7.373  -7.577  -0.780  1.00  0.00     0.001 A 
HETATM   25  C12 UNL     1      -8.512  -7.935  -0.070  1.00  0.00     0.016 A 
ENDBRANCH   1  15
TORSDOF 6
ENDMDL
