MODEL 2
REMARK VINA RESULT: -7.701641263      3.621      5.525
REMARK  6 active torsions:
REMARK  status: ('A' for Active; 'I' for Inactive)
REMARK    1  A    between atoms: N1_2  and  C2_3 
REMARK       I    between atoms: N1_2  and  C14_19 
REMARK    2  A    between atoms: C2_3  and  C3_4 
REMARK    3  A    between atoms: C3_4  and  C4_5 
REMARK    4  A    between atoms: C4_5  and  N2_6 
REMARK    5  A    between atoms: N2_6  and  C5_8 
REMARK    6  A    between atoms: C14_19  and  C15_21 
ROOT
HETATM    1  N2  UNL     1      -8.826  -5.276  -2.374  1.00  0.00    -0.389 N 
ATOM      2  H2  UNL     1      -8.136  -4.642  -2.779  1.00  0.00     0.159 HD
ENDROOT
BRANCH   1   3
HETATM    3  C4  UNL     1      -8.430  -6.597  -1.878  1.00  0.00     0.121 C 
BRANCH   3   4
HETATM    4  C3  UNL     1      -7.012  -6.534  -1.372  1.00  0.00     0.039 C 
BRANCH   4   5
HETATM    5  C2  UNL     1      -6.825  -7.686  -0.407  1.00  0.00     0.127 C 
BRANCH   5   6
HETATM    6  N1  UNL     1      -7.580  -7.451   0.816  1.00  0.00    -0.352 N 
HETATM    7  C1  UNL     1      -7.280  -6.316   1.660  1.00  0.00     0.152 C 
HETATM    8  C14 UNL     1      -8.607  -8.339   1.172  1.00  0.00     0.260 C 
HETATM    9  O3  UNL     1      -8.864  -9.324   0.434  1.00  0.00    -0.267 OA
BRANCH   8  10
HETATM   10  C15 UNL     1      -9.421  -8.173   2.396  1.00  0.00     0.072 A 
HETATM   11  C16 UNL     1     -10.657  -7.583   2.500  1.00  0.00     0.025 A 
HETATM   12  C17 UNL     1     -11.210  -7.543   3.713  1.00  0.00     0.009 A 
HETATM   13  C18 UNL     1     -10.513  -8.088   4.755  1.00  0.00     0.050 A 
HETATM   14  S1  UNL     1      -9.090  -8.645   4.001  1.00  0.00    -0.097 SA
ENDBRANCH   8  10
ENDBRANCH   5   6
ENDBRANCH   4   5
ENDBRANCH   3   4
ENDBRANCH   1   3
BRANCH   1  15
HETATM   15  C5  UNL     1     -10.184  -4.900  -2.279  1.00  0.00     0.046 A 
HETATM   16  C6  UNL     1     -11.066  -5.549  -1.422  1.00  0.00     0.112 A 
HETATM   17  C7  UNL     1     -12.395  -5.149  -1.404  1.00  0.00     0.290 A 
HETATM   18  O1  UNL     1     -13.190  -5.755  -0.612  1.00  0.00    -0.260 OA
HETATM   19  O2  UNL     1     -12.794  -4.183  -2.179  1.00  0.00    -0.275 OA
HETATM   20  C8  UNL     1     -12.002  -3.544  -2.999  1.00  0.00     0.091 A 
HETATM   21  C9  UNL     1     -12.473  -2.520  -3.807  1.00  0.00     0.038 A 
HETATM   22  C13 UNL     1     -10.643  -3.860  -3.104  1.00  0.00     0.024 A 
HETATM   23  C10 UNL     1     -11.663  -1.829  -4.680  1.00  0.00     0.003 A 
HETATM   24  C11 UNL     1     -10.330  -2.144  -4.777  1.00  0.00     0.001 A 
HETATM   25  C12 UNL     1      -9.842  -3.168  -3.975  1.00  0.00     0.016 A 
ENDBRANCH   1  15
TORSDOF 6
ENDMDL
