MODEL 1
REMARK VINA RESULT: -11.591879999      0.000      0.000
REMARK  2 active torsions:
REMARK  status: ('A' for Active; 'I' for Inactive)
REMARK    1  A    between atoms: C6_6  and  C7_7 
REMARK    2  A    between atoms: C11_13  and  C12_14 
ROOT
HETATM    1  C7  UNL     1      60.817 -29.579  34.028  1.00  0.00     0.070 A 
HETATM    2  C8  UNL     1      62.131 -29.881  33.663  1.00  0.00     0.049 A 
HETATM    3  C9  UNL     1      63.014 -30.521  34.499  1.00  0.00     0.092 A 
HETATM    4  N1  UNL     1      62.573 -30.860  35.715  1.00  0.00    -0.350 N 
ATOM      5  H1  UNL     1      63.207 -31.337  36.356  1.00  0.00     0.166 HD
HETATM    6  C10 UNL     1      61.320 -30.594  36.117  1.00  0.00     0.144 A 
HETATM    7  C11 UNL     1      60.685 -30.865  37.315  1.00  0.00     0.091 A 
HETATM    8  C13 UNL     1      59.412 -30.369  37.150  1.00  0.00     0.128 A 
HETATM    9  N3  UNL     1      59.320 -29.838  35.922  1.00  0.00    -0.302 N 
ATOM     10  H3  UNL     1      58.483 -29.398  35.539  1.00  0.00     0.186 HD
HETATM   11  N4  UNL     1      60.471 -29.964  35.275  1.00  0.00    -0.238 N 
ENDROOT
BRANCH   1  12
HETATM   12  C6  UNL     1      59.904 -28.919  33.094  1.00  0.00    -0.007 A 
HETATM   13  C5  UNL     1      59.113 -27.846  33.471  1.00  0.00     0.014 A 
HETATM   14  C4  UNL     1      58.223 -27.235  32.576  1.00  0.00     0.001 A 
HETATM   15  C3  UNL     1      58.150 -27.730  31.290  1.00  0.00     0.007 A 
HETATM   16  C2  UNL     1      58.913 -28.791  30.869  1.00  0.00    -0.061 A 
HETATM   17  C1  UNL     1      58.809 -29.296  29.480  1.00  0.00     0.048 C 
HETATM   18  C14 UNL     1      59.777 -29.363  31.789  1.00  0.00     0.020 A 
ENDBRANCH   1  12
BRANCH   7  19
HETATM   19  C12 UNL     1      61.272 -31.534  38.469  1.00  0.00     0.270 C 
HETATM   20  N2  UNL     1      60.491 -31.913  39.582  1.00  0.00    -0.057 NA
HETATM   21  O1  UNL     1      62.489 -31.783  38.489  1.00  0.00    -0.271 OA
ENDBRANCH   7  19
TORSDOF 2
ENDMDL
