MODEL 4
REMARK VINA RESULT: -8.747708899      3.488      6.329
REMARK  2 active torsions:
REMARK  status: ('A' for Active; 'I' for Inactive)
REMARK    1  A    between atoms: C6_6  and  C7_7 
REMARK    2  A    between atoms: C11_13  and  C12_14 
ROOT
HETATM    1  C7  UNL     1      60.377 -29.644  33.512  1.00  0.00     0.070 A 
HETATM    2  C8  UNL     1      61.185 -28.950  32.610  1.00  0.00     0.049 A 
HETATM    3  C9  UNL     1      60.715 -28.428  31.429  1.00  0.00     0.092 A 
HETATM    4  N1  UNL     1      59.419 -28.606  31.151  1.00  0.00    -0.350 N 
ATOM      5  H1  UNL     1      59.044 -28.228  30.281  1.00  0.00     0.166 HD
HETATM    6  C10 UNL     1      58.598 -29.266  31.983  1.00  0.00     0.144 A 
HETATM    7  C11 UNL     1      57.248 -29.545  31.877  1.00  0.00     0.091 A 
HETATM    8  C13 UNL     1      56.948 -30.240  33.026  1.00  0.00     0.128 A 
HETATM    9  N3  UNL     1      58.068 -30.355  33.755  1.00  0.00    -0.302 N 
ATOM     10  H3  UNL     1      58.129 -30.828  34.657  1.00  0.00     0.186 HD
HETATM   11  N4  UNL     1      59.085 -29.769  33.139  1.00  0.00    -0.238 N 
ENDROOT
BRANCH   1  12
HETATM   12  C6  UNL     1      60.916 -30.160  34.771  1.00  0.00    -0.007 A 
HETATM   13  C5  UNL     1      62.233 -30.568  34.896  1.00  0.00     0.014 A 
HETATM   14  C4  UNL     1      62.735 -31.085  36.101  1.00  0.00     0.001 A 
HETATM   15  C3  UNL     1      61.875 -31.178  37.177  1.00  0.00     0.007 A 
HETATM   16  C2  UNL     1      60.562 -30.787  37.102  1.00  0.00    -0.061 A 
HETATM   17  C1  UNL     1      59.668 -30.902  38.278  1.00  0.00     0.048 C 
HETATM   18  C14 UNL     1      60.112 -30.285  35.891  1.00  0.00     0.020 A 
ENDBRANCH   1  12
BRANCH   7  19
HETATM   19  C12 UNL     1      56.374 -29.166  30.773  1.00  0.00     0.270 C 
HETATM   20  N2  UNL     1      55.044 -29.630  30.689  1.00  0.00    -0.057 NA
HETATM   21  O1  UNL     1      56.796 -28.417  29.876  1.00  0.00    -0.271 OA
ENDBRANCH   7  19
TORSDOF 2
ENDMDL
