MODEL 3
REMARK VINA RESULT: -9.858195942      2.982      6.283
REMARK  2 active torsions:
REMARK  status: ('A' for Active; 'I' for Inactive)
REMARK    1  A    between atoms: C6_6  and  C7_7 
REMARK    2  A    between atoms: C11_13  and  C12_14 
ROOT
HETATM    1  C7  UNL     1      60.894 -30.242  34.902  1.00  0.00     0.070 A 
HETATM    2  C8  UNL     1      62.177 -30.053  34.386  1.00  0.00     0.049 A 
HETATM    3  C9  UNL     1      62.414 -29.620  33.103  1.00  0.00     0.092 A 
HETATM    4  N1  UNL     1      61.350 -29.377  32.331  1.00  0.00    -0.350 N 
ATOM      5  H1  UNL     1      61.496 -29.055  31.374  1.00  0.00     0.166 HD
HETATM    6  C10 UNL     1      60.094 -29.544  32.777  1.00  0.00     0.144 A 
HETATM    7  C11 UNL     1      58.882 -29.343  32.142  1.00  0.00     0.091 A 
HETATM    8  C13 UNL     1      57.939 -29.668  33.089  1.00  0.00     0.128 A 
HETATM    9  N3  UNL     1      58.576 -30.038  34.211  1.00  0.00    -0.302 N 
ATOM     10  H3  UNL     1      58.114 -30.331  35.072  1.00  0.00     0.186 HD
HETATM   11  N4  UNL     1      59.889 -29.970  34.043  1.00  0.00    -0.238 N 
ENDROOT
BRANCH   1  12
HETATM   12  C6  UNL     1      60.690 -30.680  36.284  1.00  0.00    -0.007 A 
HETATM   13  C5  UNL     1      59.431 -30.755  36.855  1.00  0.00     0.014 A 
HETATM   14  C4  UNL     1      59.247 -31.153  38.188  1.00  0.00     0.001 A 
HETATM   15  C3  UNL     1      60.364 -31.476  38.931  1.00  0.00     0.007 A 
HETATM   16  C2  UNL     1      61.633 -31.417  38.409  1.00  0.00    -0.061 A 
HETATM   17  C1  UNL     1      62.809 -31.772  39.237  1.00  0.00     0.048 C 
HETATM   18  C14 UNL     1      61.764 -31.018  37.089  1.00  0.00     0.020 A 
ENDBRANCH   1  12
BRANCH   7  19
HETATM   19  C12 UNL     1      58.693 -28.886  30.771  1.00  0.00     0.270 C 
HETATM   20  N2  UNL     1      59.405 -29.459  29.695  1.00  0.00    -0.057 NA
HETATM   21  O1  UNL     1      57.891 -27.970  30.527  1.00  0.00    -0.271 OA
ENDBRANCH   7  19
TORSDOF 2
ENDMDL
