MODEL 5
REMARK VINA RESULT: -8.381875873      3.745      6.364
REMARK  2 active torsions:
REMARK  status: ('A' for Active; 'I' for Inactive)
REMARK    1  A    between atoms: C6_6  and  C7_7 
REMARK    2  A    between atoms: C11_13  and  C12_14 
ROOT
HETATM    1  C7  UNL     1      60.048 -29.596  32.312  1.00  0.00     0.070 A 
HETATM    2  C8  UNL     1      60.466 -29.016  31.112  1.00  0.00     0.049 A 
HETATM    3  C9  UNL     1      59.598 -28.675  30.101  1.00  0.00     0.092 A 
HETATM    4  N1  UNL     1      58.299 -28.921  30.298  1.00  0.00    -0.350 N 
ATOM      5  H1  UNL     1      57.633 -28.678  29.565  1.00  0.00     0.166 HD
HETATM    6  C10 UNL     1      57.844 -29.478  31.432  1.00  0.00     0.144 A 
HETATM    7  C11 UNL     1      56.557 -29.801  31.820  1.00  0.00     0.091 A 
HETATM    8  C13 UNL     1      56.700 -30.335  33.080  1.00  0.00     0.128 A 
HETATM    9  N3  UNL     1      58.003 -30.321  33.401  1.00  0.00    -0.302 N 
ATOM     10  H3  UNL     1      58.390 -30.661  34.281  1.00  0.00     0.186 HD
HETATM   11  N4  UNL     1      58.718 -29.803  32.411  1.00  0.00    -0.238 N 
ENDROOT
BRANCH   1  12
HETATM   12  C6  UNL     1      61.005 -29.918  33.371  1.00  0.00    -0.007 A 
HETATM   13  C5  UNL     1      62.369 -29.982  33.138  1.00  0.00     0.014 A 
HETATM   14  C4  UNL     1      63.277 -30.315  34.154  1.00  0.00     0.001 A 
HETATM   15  C3  UNL     1      62.777 -30.581  35.412  1.00  0.00     0.007 A 
HETATM   16  C2  UNL     1      61.434 -30.531  35.693  1.00  0.00    -0.061 A 
HETATM   17  C1  UNL     1      60.933 -30.823  37.056  1.00  0.00     0.048 C 
HETATM   18  C14 UNL     1      60.576 -30.198  34.657  1.00  0.00     0.020 A 
ENDBRANCH   1  12
BRANCH   7  19
HETATM   19  C12 UNL     1      55.345 -29.601  31.035  1.00  0.00     0.270 C 
HETATM   20  N2  UNL     1      54.085 -30.041  31.495  1.00  0.00    -0.057 NA
HETATM   21  O1  UNL     1      55.407 -29.032  29.933  1.00  0.00    -0.271 OA
ENDBRANCH   7  19
TORSDOF 2
ENDMDL
