MODEL 2
REMARK VINA RESULT: -12.468114881      0.352      1.533
REMARK  3 active torsions:
REMARK  status: ('A' for Active; 'I' for Inactive)
REMARK    1  A    between atoms: C4_4  and  C5_5 
REMARK    2  A    between atoms: C10_12  and  O1_13 
REMARK    3  A    between atoms: C16_20  and  O2_21 
ROOT
HETATM    1  C5  UNL     1      61.289 -29.600  33.802  1.00  0.00    -0.012 A 
HETATM    2  C6  UNL     1      62.578 -29.803  33.290  1.00  0.00     0.030 A 
HETATM    3  C7  UNL     1      63.526 -30.465  34.034  1.00  0.00     0.089 A 
HETATM    4  N1  UNL     1      63.277 -30.941  35.261  1.00  0.00    -0.365 N 
ATOM      5  H1  UNL     1      64.002 -31.428  35.789  1.00  0.00     0.165 HD
HETATM    6  C8  UNL     1      62.050 -30.763  35.777  1.00  0.00     0.045 A 
HETATM    7  C9  UNL     1      61.753 -31.254  37.045  1.00  0.00     0.066 A 
HETATM    8  C10 UNL     1      60.496 -31.087  37.583  1.00  0.00     0.067 A 
HETATM    9  C11 UNL     1      59.507 -30.433  36.885  1.00  0.00     0.037 A 
HETATM   10  C12 UNL     1      59.810 -29.944  35.615  1.00  0.00     0.017 A 
HETATM   11  C13 UNL     1      61.047 -30.097  35.064  1.00  0.00     0.002 A 
ENDROOT
BRANCH   1  12
HETATM   12  C4  UNL     1      60.306 -28.867  33.019  1.00  0.00    -0.024 A 
HETATM   13  C3  UNL     1      59.644 -27.752  33.478  1.00  0.00     0.022 A 
HETATM   14  C2  UNL     1      58.701 -27.085  32.701  1.00  0.00    -0.028 A 
HETATM   15  C1  UNL     1      57.994 -25.887  33.206  1.00  0.00     0.051 C 
HETATM   16  C16 UNL     1      58.419 -27.552  31.436  1.00  0.00     0.071 A 
HETATM   17  C15 UNL     1      59.065 -28.667  30.945  1.00  0.00     0.038 A 
HETATM   18  C14 UNL     1      60.011 -29.328  31.735  1.00  0.00     0.015 A 
BRANCH  16  19
HETATM   19  O2  UNL     1      57.479 -26.884  30.666  1.00  0.00    -0.360 OA
ATOM     20  H2  UNL     1      56.619 -26.715  31.033  1.00  0.00     0.217 HD
ENDBRANCH  16  19
ENDBRANCH   1  12
BRANCH   8  21
HETATM   21  O1  UNL     1      60.287 -31.613  38.865  1.00  0.00    -0.361 OA
ATOM     22  H1  UNL     1      60.871 -31.309  39.550  1.00  0.00     0.217 HD
ENDBRANCH   8  21
TORSDOF 3
ENDMDL
