MODEL 7
REMARK VINA RESULT: -10.792026251      1.446      6.064
REMARK  3 active torsions:
REMARK  status: ('A' for Active; 'I' for Inactive)
REMARK    1  A    between atoms: C4_4  and  C5_5 
REMARK    2  A    between atoms: C10_12  and  O1_13 
REMARK    3  A    between atoms: C16_20  and  O2_21 
ROOT
HETATM    1  C5  UNL     1      61.806 -30.404  34.981  1.00  0.00    -0.012 A 
HETATM    2  C6  UNL     1      63.119 -30.613  34.537  1.00  0.00     0.030 A 
HETATM    3  C7  UNL     1      63.509 -30.181  33.292  1.00  0.00     0.089 A 
HETATM    4  N1  UNL     1      62.677 -29.552  32.452  1.00  0.00    -0.365 N 
ATOM      5  H1  UNL     1      62.995 -29.245  31.533  1.00  0.00     0.165 HD
HETATM    6  C8  UNL     1      61.412 -29.337  32.850  1.00  0.00     0.045 A 
HETATM    7  C9  UNL     1      60.522 -28.677  32.007  1.00  0.00     0.066 A 
HETATM    8  C10 UNL     1      59.225 -28.442  32.406  1.00  0.00     0.067 A 
HETATM    9  C11 UNL     1      58.778 -28.850  33.642  1.00  0.00     0.037 A 
HETATM   10  C12 UNL     1      59.674 -29.510  34.483  1.00  0.00     0.017 A 
HETATM   11  C13 UNL     1      60.961 -29.755  34.108  1.00  0.00     0.002 A 
ENDROOT
BRANCH   1  12
HETATM   12  C4  UNL     1      61.396 -30.898  36.287  1.00  0.00    -0.024 A 
HETATM   13  C3  UNL     1      62.236 -31.566  37.147  1.00  0.00     0.022 A 
HETATM   14  C2  UNL     1      61.801 -32.033  38.385  1.00  0.00    -0.028 A 
HETATM   15  C1  UNL     1      62.713 -32.752  39.301  1.00  0.00     0.051 C 
HETATM   16  C16 UNL     1      60.492 -31.822  38.762  1.00  0.00     0.071 A 
HETATM   17  C15 UNL     1      59.625 -31.156  37.923  1.00  0.00     0.038 A 
HETATM   18  C14 UNL     1      60.073 -30.691  36.683  1.00  0.00     0.015 A 
BRANCH  16  19
HETATM   19  O2  UNL     1      60.065 -32.290  39.995  1.00  0.00    -0.360 OA
ATOM     20  H2  UNL     1      59.317 -32.874  40.032  1.00  0.00     0.217 HD
ENDBRANCH  16  19
ENDBRANCH   1  12
BRANCH   8  21
HETATM   21  O1  UNL     1      58.399 -27.772  31.494  1.00  0.00    -0.361 OA
ATOM     22  H1  UNL     1      57.906 -27.033  31.829  1.00  0.00     0.217 HD
ENDBRANCH   8  21
TORSDOF 3
ENDMDL
