MODEL 3
REMARK VINA RESULT: -11.639045488      2.488      6.236
REMARK  3 active torsions:
REMARK  status: ('A' for Active; 'I' for Inactive)
REMARK    1  A    between atoms: C4_4  and  C5_5 
REMARK    2  A    between atoms: C10_12  and  O1_13 
REMARK    3  A    between atoms: C16_20  and  O2_21 
ROOT
HETATM    1  C5  UNL     1      59.588 -28.776  31.753  1.00  0.00    -0.012 A 
HETATM    2  C6  UNL     1      59.491 -29.395  30.499  1.00  0.00     0.030 A 
HETATM    3  C7  UNL     1      58.604 -28.926  29.559  1.00  0.00     0.089 A 
HETATM    4  N1  UNL     1      57.801 -27.878  29.783  1.00  0.00    -0.365 N 
ATOM      5  H1  UNL     1      57.152 -27.554  29.066  1.00  0.00     0.165 HD
HETATM    6  C8  UNL     1      57.872 -27.264  30.976  1.00  0.00     0.045 A 
HETATM    7  C9  UNL     1      57.060 -26.165  31.240  1.00  0.00     0.066 A 
HETATM    8  C10 UNL     1      57.129 -25.521  32.455  1.00  0.00     0.067 A 
HETATM    9  C11 UNL     1      57.998 -25.943  33.434  1.00  0.00     0.037 A 
HETATM   10  C12 UNL     1      58.810 -27.045  33.164  1.00  0.00     0.017 A 
HETATM   11  C13 UNL     1      58.757 -27.699  31.969  1.00  0.00     0.002 A 
ENDROOT
BRANCH   1  12
HETATM   12  C4  UNL     1      60.505 -29.304  32.752  1.00  0.00    -0.024 A 
HETATM   13  C3  UNL     1      60.108 -29.756  33.989  1.00  0.00     0.022 A 
HETATM   14  C2  UNL     1      61.019 -30.243  34.921  1.00  0.00    -0.028 A 
HETATM   15  C1  UNL     1      60.580 -30.725  36.250  1.00  0.00     0.051 C 
HETATM   16  C16 UNL     1      62.359 -30.274  34.601  1.00  0.00     0.071 A 
HETATM   17  C15 UNL     1      62.791 -29.828  33.369  1.00  0.00     0.038 A 
HETATM   18  C14 UNL     1      61.866 -29.341  32.441  1.00  0.00     0.015 A 
BRANCH  16  19
HETATM   19  O2  UNL     1      63.262 -30.759  35.534  1.00  0.00    -0.360 OA
ATOM     20  H2  UNL     1      64.179 -30.829  35.294  1.00  0.00     0.217 HD
ENDBRANCH  16  19
ENDBRANCH   1  12
BRANCH   8  21
HETATM   21  O1  UNL     1      56.274 -24.425  32.634  1.00  0.00    -0.361 OA
ATOM     22  H1  UNL     1      56.535 -23.610  32.221  1.00  0.00     0.217 HD
ENDBRANCH   8  21
TORSDOF 3
ENDMDL
