MODEL 1
REMARK VINA RESULT: -12.608703322      0.000      0.000
REMARK  3 active torsions:
REMARK  status: ('A' for Active; 'I' for Inactive)
REMARK    1  A    between atoms: C4_4  and  C5_5 
REMARK    2  A    between atoms: C10_12  and  O1_13 
REMARK    3  A    between atoms: C16_20  and  O2_21 
ROOT
HETATM    1  C5  UNL     1      61.248 -29.597  33.794  1.00  0.00    -0.012 A 
HETATM    2  C6  UNL     1      62.529 -29.794  33.262  1.00  0.00     0.030 A 
HETATM    3  C7  UNL     1      63.492 -30.451  33.990  1.00  0.00     0.089 A 
HETATM    4  N1  UNL     1      63.265 -30.929  35.221  1.00  0.00    -0.365 N 
ATOM      5  H1  UNL     1      64.001 -31.412  35.737  1.00  0.00     0.165 HD
HETATM    6  C8  UNL     1      62.046 -30.756  35.757  1.00  0.00     0.045 A 
HETATM    7  C9  UNL     1      61.772 -31.248  37.030  1.00  0.00     0.066 A 
HETATM    8  C10 UNL     1      60.524 -31.086  37.589  1.00  0.00     0.067 A 
HETATM    9  C11 UNL     1      59.520 -30.438  36.907  1.00  0.00     0.037 A 
HETATM   10  C12 UNL     1      59.800 -29.947  35.631  1.00  0.00     0.017 A 
HETATM   11  C13 UNL     1      61.028 -30.094  35.060  1.00  0.00     0.002 A 
ENDROOT
BRANCH   1  12
HETATM   12  C4  UNL     1      60.249 -28.868  33.028  1.00  0.00    -0.024 A 
HETATM   13  C3  UNL     1      59.877 -29.204  31.746  1.00  0.00     0.022 A 
HETATM   14  C2  UNL     1      58.925 -28.473  31.042  1.00  0.00    -0.028 A 
HETATM   15  C1  UNL     1      58.534 -28.843  29.663  1.00  0.00     0.051 C 
HETATM   16  C16 UNL     1      58.336 -27.381  31.640  1.00  0.00     0.071 A 
HETATM   17  C15 UNL     1      58.686 -27.017  32.923  1.00  0.00     0.038 A 
HETATM   18  C14 UNL     1      59.644 -27.759  33.622  1.00  0.00     0.015 A 
BRANCH  16  19
HETATM   19  O2  UNL     1      57.389 -26.656  30.934  1.00  0.00    -0.360 OA
ATOM     20  H2  UNL     1      57.679 -26.053  30.259  1.00  0.00     0.217 HD
ENDBRANCH  16  19
ENDBRANCH   1  12
BRANCH   8  21
HETATM   21  O1  UNL     1      60.338 -31.613  38.874  1.00  0.00    -0.361 OA
ATOM     22  H1  UNL     1      59.969 -31.028  39.525  1.00  0.00     0.217 HD
ENDBRANCH   8  21
TORSDOF 3
ENDMDL
