MODEL 5
REMARK VINA RESULT: -11.306374738      2.567      6.227
REMARK  3 active torsions:
REMARK  status: ('A' for Active; 'I' for Inactive)
REMARK    1  A    between atoms: C4_4  and  C5_5 
REMARK    2  A    between atoms: C10_12  and  O1_13 
REMARK    3  A    between atoms: C16_20  and  O2_21 
ROOT
HETATM    1  C5  UNL     1      59.379 -28.691  31.730  1.00  0.00    -0.012 A 
HETATM    2  C6  UNL     1      59.282 -29.328  30.484  1.00  0.00     0.030 A 
HETATM    3  C7  UNL     1      58.411 -28.859  29.529  1.00  0.00     0.089 A 
HETATM    4  N1  UNL     1      57.625 -27.794  29.731  1.00  0.00    -0.365 N 
ATOM      5  H1  UNL     1      56.987 -27.470  29.003  1.00  0.00     0.165 HD
HETATM    6  C8  UNL     1      57.696 -27.162  30.914  1.00  0.00     0.045 A 
HETATM    7  C9  UNL     1      56.900 -26.046  31.155  1.00  0.00     0.066 A 
HETATM    8  C10 UNL     1      56.970 -25.384  32.360  1.00  0.00     0.067 A 
HETATM    9  C11 UNL     1      57.824 -25.806  33.353  1.00  0.00     0.037 A 
HETATM   10  C12 UNL     1      58.619 -26.925  33.107  1.00  0.00     0.017 A 
HETATM   11  C13 UNL     1      58.565 -27.596  31.922  1.00  0.00     0.002 A 
ENDROOT
BRANCH   1  12
HETATM   12  C4  UNL     1      60.278 -29.219  32.744  1.00  0.00    -0.024 A 
HETATM   13  C3  UNL     1      61.627 -29.407  32.544  1.00  0.00     0.022 A 
HETATM   14  C2  UNL     1      62.452 -29.926  33.538  1.00  0.00    -0.028 A 
HETATM   15  C1  UNL     1      63.901 -30.124  33.312  1.00  0.00     0.051 C 
HETATM   16  C16 UNL     1      61.907 -30.263  34.758  1.00  0.00     0.071 A 
HETATM   17  C15 UNL     1      60.559 -30.088  34.991  1.00  0.00     0.038 A 
HETATM   18  C14 UNL     1      59.740 -29.565  33.985  1.00  0.00     0.015 A 
BRANCH  16  19
HETATM   19  O2  UNL     1      62.733 -30.780  35.744  1.00  0.00    -0.360 OA
ATOM     20  H2  UNL     1      62.342 -31.143  36.529  1.00  0.00     0.217 HD
ENDBRANCH  16  19
ENDBRANCH   1  12
BRANCH   8  21
HETATM   21  O1  UNL     1      56.133 -24.271  32.514  1.00  0.00    -0.361 OA
ATOM     22  H1  UNL     1      56.501 -23.426  32.281  1.00  0.00     0.217 HD
ENDBRANCH   8  21
TORSDOF 3
ENDMDL
