MODEL 4
REMARK VINA RESULT: -8.272100148      0.931      1.881
REMARK  10 active torsions:
REMARK  status: ('A' for Active; 'I' for Inactive)
REMARK    1  A    between atoms: N5_13  and  C6_14 
REMARK    2  A    between atoms: C7_16  and  C8_17 
REMARK    3  A    between atoms: C8_17  and  S1_18 
REMARK    4  A    between atoms: S1_18  and  C9_19 
REMARK    5  A    between atoms: C9_19  and  C10_20 
REMARK    6  A    between atoms: C10_20  and  C11_21 
REMARK    7  A    between atoms: C11_21  and  N6_22 
REMARK    8  A    between atoms: C11_21  and  C12_26 
REMARK    9  A    between atoms: C13_29  and  O4_30 
REMARK   10  A    between atoms: C14_32  and  O5_33 
ROOT
HETATM    1  C6  UNL     1      15.274  42.371 203.201  1.00  0.00     0.262 C 
HETATM    2  O1  UNL     1      14.921  42.306 201.842  1.00  0.00    -0.355 OA
HETATM    3  C7  UNL     1      15.256  40.991 201.472  1.00  0.00     0.165 C 
HETATM    4  C13 UNL     1      14.874  40.141 202.659  1.00  0.00     0.180 C 
HETATM    5  C14 UNL     1      14.527  41.174 203.709  1.00  0.00     0.198 C 
ENDROOT
BRANCH   1   6
HETATM    6  N5  UNL     1      14.887  43.624 203.765  1.00  0.00    -0.297 N 
HETATM    7  C3  UNL     1      13.624  44.049 203.932  1.00  0.00     0.142 A 
HETATM    8  N3  UNL     1      12.426  43.509 203.656  1.00  0.00    -0.336 N 
HETATM    9  C4  UNL     1      13.710  45.312 204.518  1.00  0.00     0.119 A 
HETATM   10  C2  UNL     1      11.325  44.213 203.956  1.00  0.00     0.183 A 
ATOM     11  H3  UNL     1      12.354  42.585 203.230  1.00  0.00     0.168 HD
HETATM   12  N2  UNL     1      11.386  45.427 204.517  1.00  0.00    -0.339 N 
HETATM   13  C1  UNL     1      12.568  45.992 204.805  1.00  0.00     0.148 A 
ATOM     14  H2  UNL     1      10.523  45.929 204.729  1.00  0.00     0.167 HD
HETATM   15  N1  UNL     1      12.630  47.288 205.406  1.00  0.00    -0.080 NA
HETATM   16  N4  UNL     1      15.033  45.571 204.668  1.00  0.00    -0.346 N 
HETATM   17  C5  UNL     1      15.754  44.553 204.214  1.00  0.00     0.188 A 
ATOM     18  H4  UNL     1      15.418  46.425 205.070  1.00  0.00     0.167 HD
ENDBRANCH   1   6
BRANCH   5  19
HETATM   19  O5  UNL     1      14.906  40.767 204.979  1.00  0.00    -0.388 OA
ATOM     20  H5  UNL     1      14.694  39.863 205.176  1.00  0.00     0.210 HD
ENDBRANCH   5  19
BRANCH   3  21
HETATM   21  C8  UNL     1      14.399  40.592 200.308  1.00  0.00     0.108 C 
BRANCH  21  22
HETATM   22  S1  UNL     1      14.883  39.170 199.387  1.00  0.00    -0.166 SA
BRANCH  22  23
HETATM   23  C9  UNL     1      16.620  38.929 199.158  1.00  0.00     0.076 C 
BRANCH  23  24
HETATM   24  C10 UNL     1      17.088  39.142 197.747  1.00  0.00     0.054 C 
BRANCH  24  25
HETATM   25  C11 UNL     1      18.566  39.305 197.684  1.00  0.00     0.284 C 
BRANCH  25  26
HETATM   26  N6  UNL     1      18.971  40.615 197.283  1.00  0.00    -0.065 N 
ATOM     27  H63 UNL     1      18.916  40.718 196.269  1.00  0.00     0.275 HD
ATOM     28  H62 UNL     1      18.277  41.310 197.559  1.00  0.00     0.275 HD
ATOM     29  H61 UNL     1      19.897  40.872 197.625  1.00  0.00     0.275 HD
ENDBRANCH  25  26
BRANCH  25  30
HETATM   30  C12 UNL     1      19.233  38.296 196.850  1.00  0.00     0.204 C 
HETATM   31  O2  UNL     1      18.951  37.091 196.990  1.00  0.00    -0.646 OA
HETATM   32  O3  UNL     1      20.170  38.673 195.913  1.00  0.00    -0.646 OA
ENDBRANCH  25  30
ENDBRANCH  24  25
ENDBRANCH  23  24
ENDBRANCH  22  23
ENDBRANCH  21  22
ENDBRANCH   3  21
BRANCH   4  33
HETATM   33  O4  UNL     1      15.995  39.426 203.127  1.00  0.00    -0.390 OA
ATOM     34  H4  UNL     1      15.717  38.625 203.553  1.00  0.00     0.210 HD
ENDBRANCH   4  33
TORSDOF 10
ENDMDL
