MODEL 7
REMARK VINA RESULT: -7.938463724      4.244      8.485
REMARK  10 active torsions:
REMARK  status: ('A' for Active; 'I' for Inactive)
REMARK    1  A    between atoms: N5_13  and  C6_14 
REMARK    2  A    between atoms: C7_16  and  C8_17 
REMARK    3  A    between atoms: C8_17  and  S1_18 
REMARK    4  A    between atoms: S1_18  and  C9_19 
REMARK    5  A    between atoms: C9_19  and  C10_20 
REMARK    6  A    between atoms: C10_20  and  C11_21 
REMARK    7  A    between atoms: C11_21  and  N6_22 
REMARK    8  A    between atoms: C11_21  and  C12_26 
REMARK    9  A    between atoms: C13_29  and  O4_30 
REMARK   10  A    between atoms: C14_32  and  O5_33 
ROOT
HETATM    1  C6  UNL     1      14.516  38.830 200.587  1.00  0.00     0.262 C 
HETATM    2  O1  UNL     1      14.032  39.064 201.885  1.00  0.00    -0.355 OA
HETATM    3  C7  UNL     1      15.135  39.617 202.560  1.00  0.00     0.165 C 
HETATM    4  C13 UNL     1      15.800  40.519 201.549  1.00  0.00     0.180 C 
HETATM    5  C14 UNL     1      15.055  40.194 200.273  1.00  0.00     0.198 C 
ENDROOT
BRANCH   1   6
HETATM    6  N5  UNL     1      13.471  38.367 199.731  1.00  0.00    -0.297 N 
HETATM    7  C3  UNL     1      12.158  38.403 200.013  1.00  0.00     0.142 A 
HETATM    8  N3  UNL     1      11.454  38.833 201.072  1.00  0.00    -0.336 N 
HETATM    9  C4  UNL     1      11.506  37.860 198.906  1.00  0.00     0.119 A 
HETATM   10  C2  UNL     1      10.118  38.723 201.036  1.00  0.00     0.183 A 
ATOM     11  H3  UNL     1      11.923  39.233 201.885  1.00  0.00     0.168 HD
HETATM   12  N2  UNL     1       9.473  38.205 199.984  1.00  0.00    -0.339 N 
HETATM   13  C1  UNL     1      10.149  37.768 198.911  1.00  0.00     0.148 A 
ATOM     14  H2  UNL     1       8.454  38.141 199.999  1.00  0.00     0.167 HD
HETATM   15  N1  UNL     1       9.458  37.215 197.788  1.00  0.00    -0.080 NA
HETATM   16  N4  UNL     1      12.477  37.527 198.019  1.00  0.00    -0.346 N 
HETATM   17  C5  UNL     1      13.671  37.832 198.511  1.00  0.00     0.188 A 
ATOM     18  H4  UNL     1      12.313  37.104 197.106  1.00  0.00     0.167 HD
ENDBRANCH   1   6
BRANCH   5  19
HETATM   19  O5  UNL     1      15.886  40.233 199.164  1.00  0.00    -0.388 OA
ATOM     20  H5  UNL     1      15.759  40.995 198.611  1.00  0.00     0.210 HD
ENDBRANCH   5  19
BRANCH   3  21
HETATM   21  C8  UNL     1      14.627  40.463 203.688  1.00  0.00     0.108 C 
BRANCH  21  22
HETATM   22  S1  UNL     1      13.222  41.480 203.378  1.00  0.00    -0.166 SA
BRANCH  22  23
HETATM   23  C9  UNL     1      13.542  43.112 202.778  1.00  0.00     0.076 C 
BRANCH  23  24
HETATM   24  C10 UNL     1      14.234  44.005 203.769  1.00  0.00     0.054 C 
BRANCH  24  25
HETATM   25  C11 UNL     1      13.274  44.939 204.418  1.00  0.00     0.284 C 
BRANCH  25  26
HETATM   26  N6  UNL     1      11.998  44.970 203.776  1.00  0.00    -0.065 N 
ATOM     27  H63 UNL     1      12.086  44.760 202.781  1.00  0.00     0.275 HD
ATOM     28  H62 UNL     1      11.427  44.176 204.065  1.00  0.00     0.275 HD
ATOM     29  H61 UNL     1      11.498  45.847 203.919  1.00  0.00     0.275 HD
ENDBRANCH  25  26
BRANCH  25  30
HETATM   30  C12 UNL     1      13.794  46.306 204.566  1.00  0.00     0.204 C 
HETATM   31  O2  UNL     1      13.071  47.279 204.283  1.00  0.00    -0.646 OA
HETATM   32  O3  UNL     1      15.079  46.518 205.016  1.00  0.00    -0.646 OA
ENDBRANCH  25  30
ENDBRANCH  24  25
ENDBRANCH  23  24
ENDBRANCH  22  23
ENDBRANCH  21  22
ENDBRANCH   3  21
BRANCH   4  33
HETATM   33  O4  UNL     1      17.142  40.135 201.361  1.00  0.00    -0.390 OA
ATOM     34  H4  UNL     1      17.706  40.607 201.962  1.00  0.00     0.210 HD
ENDBRANCH   4  33
TORSDOF 10
ENDMDL
