MODEL 8
REMARK VINA RESULT: -7.913451390      3.050      4.900
REMARK  10 active torsions:
REMARK  status: ('A' for Active; 'I' for Inactive)
REMARK    1  A    between atoms: N5_13  and  C6_14 
REMARK    2  A    between atoms: C7_16  and  C8_17 
REMARK    3  A    between atoms: C8_17  and  S1_18 
REMARK    4  A    between atoms: S1_18  and  C9_19 
REMARK    5  A    between atoms: C9_19  and  C10_20 
REMARK    6  A    between atoms: C10_20  and  C11_21 
REMARK    7  A    between atoms: C11_21  and  N6_22 
REMARK    8  A    between atoms: C11_21  and  C12_26 
REMARK    9  A    between atoms: C13_29  and  O4_30 
REMARK   10  A    between atoms: C14_32  and  O5_33 
ROOT
HETATM    1  C6  UNL     1      15.012  41.855 202.839  1.00  0.00     0.262 C 
HETATM    2  O1  UNL     1      14.916  41.675 201.449  1.00  0.00    -0.355 OA
HETATM    3  C7  UNL     1      15.733  40.557 201.199  1.00  0.00     0.165 C 
HETATM    4  C13 UNL     1      15.487  39.626 202.360  1.00  0.00     0.180 C 
HETATM    5  C14 UNL     1      14.652  40.472 203.294  1.00  0.00     0.198 C 
ENDROOT
BRANCH   1   6
HETATM    6  N5  UNL     1      14.139  42.896 203.277  1.00  0.00    -0.297 N 
HETATM    7  C3  UNL     1      14.522  44.039 203.870  1.00  0.00     0.142 A 
HETATM    8  N3  UNL     1      15.718  44.541 204.218  1.00  0.00    -0.336 N 
HETATM    9  C4  UNL     1      13.355  44.760 204.121  1.00  0.00     0.119 A 
HETATM   10  C2  UNL     1      15.757  45.743 204.809  1.00  0.00     0.183 A 
ATOM     11  H3  UNL     1      16.576  44.020 204.036  1.00  0.00     0.168 HD
HETATM   12  N2  UNL     1      14.649  46.451 205.060  1.00  0.00    -0.339 N 
HETATM   13  C1  UNL     1      13.440  45.976 204.724  1.00  0.00     0.148 A 
ATOM     14  H2  UNL     1      14.724  47.363 205.512  1.00  0.00     0.167 HD
HETATM   15  N1  UNL     1      12.258  46.735 204.991  1.00  0.00    -0.080 NA
HETATM   16  N4  UNL     1      12.331  43.998 203.660  1.00  0.00    -0.346 N 
HETATM   17  C5  UNL     1      12.798  42.866 203.147  1.00  0.00     0.188 A 
ATOM     18  H4  UNL     1      11.346  44.257 203.702  1.00  0.00     0.167 HD
ENDBRANCH   1   6
BRANCH   5  19
HETATM   19  O5  UNL     1      14.947  40.219 204.625  1.00  0.00    -0.388 OA
ATOM     20  H5  UNL     1      14.198  39.952 205.145  1.00  0.00     0.210 HD
ENDBRANCH   5  19
BRANCH   3  21
HETATM   21  C8  UNL     1      15.253  39.889 199.945  1.00  0.00     0.108 C 
BRANCH  21  22
HETATM   22  S1  UNL     1      14.247  38.453 200.118  1.00  0.00    -0.166 SA
BRANCH  22  23
HETATM   23  C9  UNL     1      12.501  38.687 199.971  1.00  0.00     0.076 C 
BRANCH  23  24
HETATM   24  C10 UNL     1      11.701  38.040 201.065  1.00  0.00     0.054 C 
BRANCH  24  25
HETATM   25  C11 UNL     1      11.378  39.009 202.147  1.00  0.00     0.284 C 
BRANCH  25  26
HETATM   26  N6  UNL     1      11.685  38.516 203.453  1.00  0.00    -0.065 N 
ATOM     27  H63 UNL     1      12.541  37.962 203.440  1.00  0.00     0.275 HD
ATOM     28  H62 UNL     1      11.984  39.275 204.065  1.00  0.00     0.275 HD
ATOM     29  H61 UNL     1      10.918  37.991 203.873  1.00  0.00     0.275 HD
ENDBRANCH  25  26
BRANCH  25  30
HETATM   30  C12 UNL     1       9.992  39.495 202.106  1.00  0.00     0.204 C 
HETATM   31  O2  UNL     1       9.567  40.234 203.014  1.00  0.00    -0.646 OA
HETATM   32  O3  UNL     1       9.158  39.139 201.069  1.00  0.00    -0.646 OA
ENDBRANCH  25  30
ENDBRANCH  24  25
ENDBRANCH  23  24
ENDBRANCH  22  23
ENDBRANCH  21  22
ENDBRANCH   3  21
BRANCH   4  33
HETATM   33  O4  UNL     1      16.699  39.341 203.020  1.00  0.00    -0.390 OA
ATOM     34  H4  UNL     1      17.364  39.089 202.392  1.00  0.00     0.210 HD
ENDBRANCH   4  33
TORSDOF 10
ENDMDL
