MODEL 1
REMARK VINA RESULT: -9.377392982      0.000      0.000
REMARK  10 active torsions:
REMARK  status: ('A' for Active; 'I' for Inactive)
REMARK    1  A    between atoms: N5_13  and  C6_14 
REMARK    2  A    between atoms: C7_16  and  C8_17 
REMARK    3  A    between atoms: C8_17  and  S1_18 
REMARK    4  A    between atoms: S1_18  and  C9_19 
REMARK    5  A    between atoms: C9_19  and  C10_20 
REMARK    6  A    between atoms: C10_20  and  C11_21 
REMARK    7  A    between atoms: C11_21  and  N6_22 
REMARK    8  A    between atoms: C11_21  and  C12_26 
REMARK    9  A    between atoms: C13_29  and  O4_30 
REMARK   10  A    between atoms: C14_32  and  O5_33 
ROOT
HETATM    1  C6  UNL     1      14.820  42.023 202.902  1.00  0.00     0.262 C 
HETATM    2  O1  UNL     1      14.464  41.764 201.567  1.00  0.00    -0.355 OA
HETATM    3  C7  UNL     1      15.110  40.549 201.278  1.00  0.00     0.165 C 
HETATM    4  C13 UNL     1      14.982  39.728 202.537  1.00  0.00     0.180 C 
HETATM    5  C14 UNL     1      14.411  40.722 203.525  1.00  0.00     0.198 C 
ENDROOT
BRANCH   1   6
HETATM    6  N5  UNL     1      14.143  43.181 203.392  1.00  0.00    -0.297 N 
HETATM    7  C3  UNL     1      14.730  44.237 203.981  1.00  0.00     0.142 A 
HETATM    8  N3  UNL     1      16.004  44.535 204.281  1.00  0.00    -0.336 N 
HETATM    9  C4  UNL     1      13.704  45.129 204.294  1.00  0.00     0.119 A 
HETATM   10  C2  UNL     1      16.260  45.704 204.885  1.00  0.00     0.183 A 
ATOM     11  H3  UNL     1      16.759  43.888 204.054  1.00  0.00     0.168 HD
HETATM   12  N2  UNL     1      15.290  46.574 205.194  1.00  0.00    -0.339 N 
HETATM   13  C1  UNL     1      14.008  46.305 204.907  1.00  0.00     0.148 A 
ATOM     14  H2  UNL     1      15.530  47.453 205.654  1.00  0.00     0.167 HD
HETATM   15  N1  UNL     1      12.975  47.236 205.237  1.00  0.00    -0.080 NA
HETATM   16  N4  UNL     1      12.553  44.549 203.870  1.00  0.00    -0.346 N 
HETATM   17  C5  UNL     1      12.811  43.367 203.322  1.00  0.00     0.188 A 
ATOM     18  H4  UNL     1      11.625  44.961 203.959  1.00  0.00     0.167 HD
ENDBRANCH   1   6
BRANCH   5  19
HETATM   19  O5  UNL     1      14.909  40.525 204.804  1.00  0.00    -0.388 OA
ATOM     20  H5  UNL     1      15.577  39.852 204.861  1.00  0.00     0.210 HD
ENDBRANCH   5  19
BRANCH   3  21
HETATM   21  C8  UNL     1      14.354  39.858 200.183  1.00  0.00     0.108 C 
BRANCH  21  22
HETATM   22  S1  UNL     1      15.227  38.679 199.206  1.00  0.00    -0.166 SA
BRANCH  22  23
HETATM   23  C9  UNL     1      16.585  39.291 198.253  1.00  0.00     0.076 C 
BRANCH  23  24
HETATM   24  C10 UNL     1      17.934  38.935 198.809  1.00  0.00     0.054 C 
BRANCH  24  25
HETATM   25  C11 UNL     1      19.017  39.223 197.830  1.00  0.00     0.284 C 
BRANCH  25  26
HETATM   26  N6  UNL     1      18.968  40.555 197.314  1.00  0.00    -0.065 N 
ATOM     27  H63 UNL     1      19.271  40.579 196.340  1.00  0.00     0.275 HD
ATOM     28  H62 UNL     1      18.003  40.863 197.197  1.00  0.00     0.275 HD
ATOM     29  H61 UNL     1      19.496  41.222 197.876  1.00  0.00     0.275 HD
ENDBRANCH  25  26
BRANCH  25  30
HETATM   30  C12 UNL     1      19.081  38.258 196.724  1.00  0.00     0.204 C 
HETATM   31  O2  UNL     1      19.765  37.224 196.841  1.00  0.00    -0.646 OA
HETATM   32  O3  UNL     1      18.388  38.489 195.555  1.00  0.00    -0.646 OA
ENDBRANCH  25  30
ENDBRANCH  24  25
ENDBRANCH  23  24
ENDBRANCH  22  23
ENDBRANCH  21  22
ENDBRANCH   3  21
BRANCH   4  33
HETATM   33  O4  UNL     1      16.257  39.355 203.007  1.00  0.00    -0.390 OA
ATOM     34  H4  UNL     1      16.253  38.445 203.278  1.00  0.00     0.210 HD
ENDBRANCH   4  33
TORSDOF 10
ENDMDL
