MODEL 3
REMARK VINA RESULT: -8.370334707      3.163      4.734
REMARK  10 active torsions:
REMARK  status: ('A' for Active; 'I' for Inactive)
REMARK    1  A    between atoms: N5_13  and  C6_14 
REMARK    2  A    between atoms: C7_16  and  C8_17 
REMARK    3  A    between atoms: C8_17  and  S1_18 
REMARK    4  A    between atoms: S1_18  and  C9_19 
REMARK    5  A    between atoms: C9_19  and  C10_20 
REMARK    6  A    between atoms: C10_20  and  C11_21 
REMARK    7  A    between atoms: C11_21  and  N6_22 
REMARK    8  A    between atoms: C11_21  and  C12_26 
REMARK    9  A    between atoms: C13_29  and  O4_30 
REMARK   10  A    between atoms: C14_32  and  O5_33 
ROOT
HETATM    1  C6  UNL     1      14.989  42.008 202.884  1.00  0.00     0.262 C 
HETATM    2  O1  UNL     1      14.734  41.811 201.516  1.00  0.00    -0.355 OA
HETATM    3  C7  UNL     1      15.411  40.615 201.219  1.00  0.00     0.165 C 
HETATM    4  C13 UNL     1      15.198  39.734 202.425  1.00  0.00     0.180 C 
HETATM    5  C14 UNL     1      14.547  40.677 203.414  1.00  0.00     0.198 C 
ENDROOT
BRANCH   1   6
HETATM    6  N5  UNL     1      14.268  43.138 203.377  1.00  0.00    -0.297 N 
HETATM    7  C3  UNL     1      14.813  44.213 203.970  1.00  0.00     0.142 A 
HETATM    8  N3  UNL     1      16.074  44.559 204.273  1.00  0.00    -0.336 N 
HETATM    9  C4  UNL     1      13.753  45.065 204.284  1.00  0.00     0.119 A 
HETATM   10  C2  UNL     1      16.284  45.735 204.882  1.00  0.00     0.183 A 
ATOM     11  H3  UNL     1      16.854  43.942 204.045  1.00  0.00     0.168 HD
HETATM   12  N2  UNL     1      15.282  46.567 205.192  1.00  0.00    -0.339 N 
HETATM   13  C1  UNL     1      14.011  46.249 204.902  1.00  0.00     0.148 A 
ATOM     14  H2  UNL     1      15.487  47.453 205.655  1.00  0.00     0.167 HD
HETATM   15  N1  UNL     1      12.943  47.139 205.233  1.00  0.00    -0.080 NA
HETATM   16  N4  UNL     1      12.626  44.442 203.857  1.00  0.00    -0.346 N 
HETATM   17  C5  UNL     1      12.929  43.273 203.306  1.00  0.00     0.188 A 
ATOM     18  H4  UNL     1      11.683  44.818 203.946  1.00  0.00     0.167 HD
ENDBRANCH   1   6
BRANCH   5  19
HETATM   19  O5  UNL     1      14.951  40.421 204.715  1.00  0.00    -0.388 OA
ATOM     20  H5  UNL     1      15.706  39.850 204.782  1.00  0.00     0.210 HD
ENDBRANCH   5  19
BRANCH   3  21
HETATM   21  C8  UNL     1      14.744  39.972 200.039  1.00  0.00     0.108 C 
BRANCH  21  22
HETATM   22  S1  UNL     1      13.292  39.020 200.340  1.00  0.00    -0.166 SA
BRANCH  22  23
HETATM   23  C9  UNL     1      12.528  38.274 198.931  1.00  0.00     0.076 C 
BRANCH  23  24
HETATM   24  C10 UNL     1      11.135  37.773 199.182  1.00  0.00     0.054 C 
BRANCH  24  25
HETATM   25  C11 UNL     1      10.136  38.521 198.372  1.00  0.00     0.284 C 
BRANCH  25  26
HETATM   26  N6  UNL     1      10.728  39.476 197.490  1.00  0.00    -0.065 N 
ATOM     27  H63 UNL     1      10.161  40.322 197.435  1.00  0.00     0.275 HD
ATOM     28  H62 UNL     1      11.576  39.870 197.898  1.00  0.00     0.275 HD
ATOM     29  H61 UNL     1      10.914  39.102 196.559  1.00  0.00     0.275 HD
ENDBRANCH  25  26
BRANCH  25  30
HETATM   30  C12 UNL     1       9.089  39.165 199.179  1.00  0.00     0.204 C 
HETATM   31  O2  UNL     1       8.439  40.116 198.706  1.00  0.00    -0.646 OA
HETATM   32  O3  UNL     1       8.822  38.723 200.456  1.00  0.00    -0.646 OA
ENDBRANCH  25  30
ENDBRANCH  24  25
ENDBRANCH  23  24
ENDBRANCH  22  23
ENDBRANCH  21  22
ENDBRANCH   3  21
BRANCH   4  33
HETATM   33  O4  UNL     1      16.438  39.346 202.970  1.00  0.00    -0.390 OA
ATOM     34  H4  UNL     1      16.486  39.591 203.886  1.00  0.00     0.210 HD
ENDBRANCH   4  33
TORSDOF 10
ENDMDL
