MODEL 8
REMARK VINA RESULT: -10.613535525      1.470     10.164
REMARK  6 active torsions:
REMARK  status: ('A' for Active; 'I' for Inactive)
REMARK    1  A    between atoms: C8_11  and  C9_12 
REMARK    2  A    between atoms: N2_19  and  C15_20 
REMARK    3  A    between atoms: C15_20  and  C16_21 
REMARK    4  A    between atoms: C16_21  and  N3_22 
REMARK    5  A    between atoms: C19_25  and  N4_26 
REMARK    6  A    between atoms: C27_37  and  C28_38 
ROOT
HETATM    1  N3  UNL     1      14.384 -16.233  12.476  1.00  0.00     0.090 N 
HETATM    2  C17 UNL     1      14.836 -17.248  11.566  1.00  0.00     0.274 C 
HETATM    3  C18 UNL     1      16.348 -17.345  11.547  1.00  0.00     0.055 C 
HETATM    4  C19 UNL     1      16.887 -17.045  12.906  1.00  0.00     0.093 C 
HETATM    5  C34 UNL     1      16.629 -15.546  13.112  1.00  0.00     0.055 C 
HETATM    6  C35 UNL     1      15.332 -15.151  12.438  1.00  0.00     0.274 C 
ENDROOT
BRANCH   1   7
HETATM    7  C16 UNL     1      13.032 -15.841  12.293  1.00  0.00     0.292 C 
BRANCH   7   8
HETATM    8  C15 UNL     1      12.556 -14.684  13.095  1.00  0.00     0.159 C 
BRANCH   8   9
HETATM    9  N2  UNL     1      11.582 -15.185  14.057  1.00  0.00    -0.321 N 
HETATM   10  C1  UNL     1      12.013 -16.151  15.008  1.00  0.00     0.258 C 
HETATM   11  O1  UNL     1      13.017 -16.875  14.845  1.00  0.00    -0.267 OA
HETATM   12  C2  UNL     1      11.251 -16.316  16.252  1.00  0.00     0.058 A 
HETATM   13  C3  UNL     1      11.603 -17.224  17.217  1.00  0.00     0.019 A 
HETATM   14  C7  UNL     1      10.123 -15.537  16.492  1.00  0.00     0.045 A 
HETATM   15  C4  UNL     1      10.876 -17.368  18.381  1.00  0.00     0.001 A 
HETATM   16  C5  UNL     1       9.763 -16.582  18.590  1.00  0.00     0.002 A 
HETATM   17  C6  UNL     1       9.386 -15.666  17.646  1.00  0.00     0.030 A 
HETATM   18  N1  UNL     1       9.773 -14.599  15.479  1.00  0.00    -0.364 N 
HETATM   19  C8  UNL     1      10.208 -14.763  14.104  1.00  0.00     0.224 C 
ATOM     20  H1  UNL     1       9.201 -13.791  15.726  1.00  0.00     0.162 HD
BRANCH  19  21
HETATM   21  C9  UNL     1       9.959 -13.514  13.363  1.00  0.00     0.022 A 
HETATM   22  C10 UNL     1       9.912 -12.304  14.023  1.00  0.00     0.014 A 
HETATM   23  C11 UNL     1       9.682 -11.110  13.365  1.00  0.00     0.001 A 
HETATM   24  C12 UNL     1       9.492 -11.119  12.002  1.00  0.00     0.003 A 
HETATM   25  C13 UNL     1       9.531 -12.302  11.311  1.00  0.00     0.043 A 
HETATM   26  C14 UNL     1       9.766 -13.498  11.998  1.00  0.00     0.126 A 
HETATM   27  F1  UNL     1       9.805 -14.665  11.319  1.00  0.00    -0.205 F 
ENDBRANCH  19  21
ENDBRANCH   8   9
ENDBRANCH   7   8
ENDBRANCH   1   7
BRANCH   4  28
HETATM   28  N4  UNL     1      18.252 -17.376  13.131  1.00  0.00    -0.317 N 
HETATM   29  C20 UNL     1      19.162 -17.449  12.031  1.00  0.00     0.258 C 
HETATM   30  O2  UNL     1      19.017 -16.743  10.998  1.00  0.00    -0.267 OA
HETATM   31  C21 UNL     1      20.311 -18.374  12.091  1.00  0.00     0.058 A 
HETATM   32  C22 UNL     1      21.210 -18.490  11.073  1.00  0.00     0.019 A 
HETATM   33  C26 UNL     1      20.441 -19.132  13.234  1.00  0.00     0.045 A 
HETATM   34  C23 UNL     1      22.256 -19.378  11.201  1.00  0.00     0.001 A 
HETATM   35  C24 UNL     1      22.414 -20.151  12.332  1.00  0.00     0.002 A 
HETATM   36  C25 UNL     1      21.504 -20.030  13.355  1.00  0.00     0.030 A 
HETATM   37  N5  UNL     1      19.484 -18.979  14.262  1.00  0.00    -0.364 N 
HETATM   38  C27 UNL     1      18.853 -17.674  14.420  1.00  0.00     0.225 C 
ATOM     39  H5  UNL     1      19.242 -19.757  14.876  1.00  0.00     0.162 HD
BRANCH  38  40
HETATM   40  C28 UNL     1      19.916 -16.691  14.749  1.00  0.00     0.022 A 
HETATM   41  C29 UNL     1      20.446 -15.831  13.819  1.00  0.00     0.014 A 
HETATM   42  C30 UNL     1      21.448 -14.921  14.136  1.00  0.00     0.001 A 
HETATM   43  C31 UNL     1      21.950 -14.852  15.415  1.00  0.00     0.003 A 
HETATM   44  C32 UNL     1      21.430 -15.707  16.358  1.00  0.00     0.043 A 
HETATM   45  C33 UNL     1      20.436 -16.608  16.038  1.00  0.00     0.126 A 
HETATM   46  F2  UNL     1      19.923 -17.450  16.966  1.00  0.00    -0.205 F 
ENDBRANCH  38  40
ENDBRANCH   4  28
TORSDOF 6
ENDMDL
