MODEL 3
REMARK VINA RESULT: -11.915820126      0.707      1.010
REMARK  6 active torsions:
REMARK  status: ('A' for Active; 'I' for Inactive)
REMARK    1  A    between atoms: C8_11  and  C9_12 
REMARK    2  A    between atoms: N2_19  and  C15_20 
REMARK    3  A    between atoms: C15_20  and  C16_21 
REMARK    4  A    between atoms: C16_21  and  N3_22 
REMARK    5  A    between atoms: C19_25  and  N4_26 
REMARK    6  A    between atoms: C27_37  and  C28_38 
ROOT
HETATM    1  N3  UNL     1      16.534 -15.908  11.661  1.00  0.00     0.090 N 
HETATM    2  C17 UNL     1      16.088 -17.100  12.325  1.00  0.00     0.274 C 
HETATM    3  C18 UNL     1      15.027 -16.795  13.363  1.00  0.00     0.055 C 
HETATM    4  C19 UNL     1      14.189 -15.649  12.903  1.00  0.00     0.093 C 
HETATM    5  C34 UNL     1      15.116 -14.428  12.970  1.00  0.00     0.055 C 
HETATM    6  C35 UNL     1      16.532 -14.838  12.623  1.00  0.00     0.274 C 
ENDROOT
BRANCH   1   7
HETATM    7  C16 UNL     1      17.751 -16.056  10.944  1.00  0.00     0.292 C 
BRANCH   7   8
HETATM    8  C15 UNL     1      19.007 -15.815  11.701  1.00  0.00     0.159 C 
BRANCH   8   9
HETATM    9  N2  UNL     1      19.540 -17.115  12.094  1.00  0.00    -0.321 N 
HETATM   10  C1  UNL     1      20.057 -17.963  11.076  1.00  0.00     0.258 C 
HETATM   11  O1  UNL     1      19.744 -17.861   9.872  1.00  0.00    -0.267 OA
HETATM   12  C2  UNL     1      21.011 -19.018  11.444  1.00  0.00     0.058 A 
HETATM   13  C3  UNL     1      21.553 -19.876  10.521  1.00  0.00     0.019 A 
HETATM   14  C7  UNL     1      21.399 -19.181  12.770  1.00  0.00     0.045 A 
HETATM   15  C4  UNL     1      22.448 -20.862  10.882  1.00  0.00     0.001 A 
HETATM   16  C5  UNL     1      22.813 -20.999  12.204  1.00  0.00     0.002 A 
HETATM   17  C6  UNL     1      22.289 -20.159  13.149  1.00  0.00     0.030 A 
HETATM   18  N1  UNL     1      20.825 -18.282  13.714  1.00  0.00    -0.364 N 
HETATM   19  C8  UNL     1      19.575 -17.593  13.450  1.00  0.00     0.224 C 
ATOM     20  H1  UNL     1      21.306 -18.117  14.599  1.00  0.00     0.162 HD
BRANCH  19  21
HETATM   21  C9  UNL     1      19.388 -16.525  14.447  1.00  0.00     0.022 A 
HETATM   22  C10 UNL     1      18.217 -16.438  15.170  1.00  0.00     0.014 A 
HETATM   23  C11 UNL     1      18.002 -15.452  16.115  1.00  0.00     0.001 A 
HETATM   24  C12 UNL     1      18.986 -14.518  16.350  1.00  0.00     0.003 A 
HETATM   25  C13 UNL     1      20.164 -14.573  15.651  1.00  0.00     0.043 A 
HETATM   26  C14 UNL     1      20.360 -15.579  14.699  1.00  0.00     0.126 A 
HETATM   27  F1  UNL     1      21.519 -15.634  14.009  1.00  0.00    -0.205 F 
ENDBRANCH  19  21
ENDBRANCH   8   9
ENDBRANCH   7   8
ENDBRANCH   1   7
BRANCH   4  28
HETATM   28  N4  UNL     1      12.978 -15.426  13.615  1.00  0.00    -0.317 N 
HETATM   29  C20 UNL     1      13.009 -15.198  15.025  1.00  0.00     0.258 C 
HETATM   30  O2  UNL     1      13.990 -14.648  15.591  1.00  0.00    -0.267 OA
HETATM   31  C21 UNL     1      11.863 -15.614  15.859  1.00  0.00     0.058 A 
HETATM   32  C22 UNL     1      11.836 -15.425  17.209  1.00  0.00     0.019 A 
HETATM   33  C26 UNL     1      10.806 -16.212  15.210  1.00  0.00     0.045 A 
HETATM   34  C23 UNL     1      10.733 -15.843  17.921  1.00  0.00     0.001 A 
HETATM   35  C24 UNL     1       9.658 -16.446  17.302  1.00  0.00     0.002 A 
HETATM   36  C25 UNL     1       9.691 -16.633  15.941  1.00  0.00     0.030 A 
HETATM   37  N5  UNL     1      10.879 -16.388  13.811  1.00  0.00    -0.364 N 
HETATM   38  C27 UNL     1      11.644 -15.415  13.040  1.00  0.00     0.225 C 
ATOM     39  H5  UNL     1      10.412 -17.171  13.354  1.00  0.00     0.162 HD
BRANCH  38  40
HETATM   40  C28 UNL     1      11.001 -14.088  13.217  1.00  0.00     0.022 A 
HETATM   41  C29 UNL     1      11.677 -12.995  13.703  1.00  0.00     0.014 A 
HETATM   42  C30 UNL     1      11.063 -11.759  13.874  1.00  0.00     0.001 A 
HETATM   43  C31 UNL     1       9.736 -11.589  13.556  1.00  0.00     0.003 A 
HETATM   44  C32 UNL     1       9.045 -12.674  13.068  1.00  0.00     0.043 A 
HETATM   45  C33 UNL     1       9.659 -13.897  12.901  1.00  0.00     0.126 A 
HETATM   46  F2  UNL     1       8.980 -14.965  12.420  1.00  0.00    -0.205 F 
ENDBRANCH  38  40
ENDBRANCH   4  28
TORSDOF 6
ENDMDL
