MODEL 2
REMARK VINA RESULT: -11.997270309      1.397      2.987
REMARK  6 active torsions:
REMARK  status: ('A' for Active; 'I' for Inactive)
REMARK    1  A    between atoms: C8_11  and  C9_12 
REMARK    2  A    between atoms: N2_19  and  C15_20 
REMARK    3  A    between atoms: C15_20  and  C16_21 
REMARK    4  A    between atoms: C16_21  and  N3_22 
REMARK    5  A    between atoms: C19_25  and  N4_26 
REMARK    6  A    between atoms: C27_37  and  C28_38 
ROOT
HETATM    1  N3  UNL     1      16.659 -15.615  11.858  1.00  0.00     0.090 N 
HETATM    2  C17 UNL     1      15.904 -16.773  12.247  1.00  0.00     0.274 C 
HETATM    3  C18 UNL     1      14.874 -16.435  13.305  1.00  0.00     0.055 C 
HETATM    4  C19 UNL     1      14.358 -15.053  13.081  1.00  0.00     0.093 C 
HETATM    5  C34 UNL     1      15.536 -14.130  13.422  1.00  0.00     0.055 C 
HETATM    6  C35 UNL     1      16.839 -14.792  13.024  1.00  0.00     0.274 C 
ENDROOT
BRANCH   1   7
HETATM    7  C16 UNL     1      17.856 -15.906  11.150  1.00  0.00     0.292 C 
BRANCH   7   8
HETATM    8  C15 UNL     1      19.134 -15.668  11.870  1.00  0.00     0.159 C 
BRANCH   8   9
HETATM    9  N2  UNL     1      19.698 -16.970  12.209  1.00  0.00    -0.321 N 
HETATM   10  C1  UNL     1      20.051 -17.845  11.145  1.00  0.00     0.258 C 
HETATM   11  O1  UNL     1      19.570 -17.759   9.996  1.00  0.00    -0.267 OA
HETATM   12  C2  UNL     1      21.031 -18.910  11.395  1.00  0.00     0.058 A 
HETATM   13  C3  UNL     1      21.423 -19.794  10.422  1.00  0.00     0.019 A 
HETATM   14  C7  UNL     1      21.602 -19.056  12.655  1.00  0.00     0.045 A 
HETATM   15  C4  UNL     1      22.345 -20.789  10.672  1.00  0.00     0.001 A 
HETATM   16  C5  UNL     1      22.893 -20.909  11.931  1.00  0.00     0.002 A 
HETATM   17  C6  UNL     1      22.523 -20.043  12.924  1.00  0.00     0.030 A 
HETATM   18  N1  UNL     1      21.183 -18.129  13.653  1.00  0.00    -0.364 N 
HETATM   19  C8  UNL     1      19.919 -17.424  13.555  1.00  0.00     0.224 C 
ATOM     20  H1  UNL     1      21.788 -17.958  14.457  1.00  0.00     0.162 HD
BRANCH  19  21
HETATM   21  C9  UNL     1      19.893 -16.334  14.547  1.00  0.00     0.022 A 
HETATM   22  C10 UNL     1      20.957 -15.464  14.662  1.00  0.00     0.014 A 
HETATM   23  C11 UNL     1      20.972 -14.429  15.578  1.00  0.00     0.001 A 
HETATM   24  C12 UNL     1      19.889 -14.252  16.410  1.00  0.00     0.003 A 
HETATM   25  C13 UNL     1      18.813 -15.095  16.325  1.00  0.00     0.043 A 
HETATM   26  C14 UNL     1      18.819 -16.137  15.390  1.00  0.00     0.126 A 
HETATM   27  F1  UNL     1      17.760 -16.969  15.305  1.00  0.00    -0.205 F 
ENDBRANCH  19  21
ENDBRANCH   8   9
ENDBRANCH   7   8
ENDBRANCH   1   7
BRANCH   4  28
HETATM   28  N4  UNL     1      13.186 -14.692  13.800  1.00  0.00    -0.317 N 
HETATM   29  C20 UNL     1      11.907 -14.757  13.165  1.00  0.00     0.258 C 
HETATM   30  O2  UNL     1      11.657 -15.590  12.253  1.00  0.00    -0.267 OA
HETATM   31  C21 UNL     1      10.836 -13.828  13.577  1.00  0.00     0.058 A 
HETATM   32  C22 UNL     1       9.598 -13.841  13.006  1.00  0.00     0.019 A 
HETATM   33  C26 UNL     1      11.141 -12.930  14.576  1.00  0.00     0.045 A 
HETATM   34  C23 UNL     1       8.650 -12.941  13.442  1.00  0.00     0.001 A 
HETATM   35  C24 UNL     1       8.923 -12.029  14.440  1.00  0.00     0.002 A 
HETATM   36  C25 UNL     1      10.173 -12.020  15.011  1.00  0.00     0.030 A 
HETATM   37  N5  UNL     1      12.437 -12.953  15.137  1.00  0.00    -0.364 N 
HETATM   38  C27 UNL     1      13.141 -14.229  15.177  1.00  0.00     0.225 C 
ATOM     39  H5  UNL     1      12.867 -12.103  15.502  1.00  0.00     0.162 HD
BRANCH  38  40
HETATM   40  C28 UNL     1      12.351 -15.158  16.024  1.00  0.00     0.022 A 
HETATM   41  C29 UNL     1      11.091 -14.858  16.478  1.00  0.00     0.014 A 
HETATM   42  C30 UNL     1      10.363 -15.733  17.278  1.00  0.00     0.001 A 
HETATM   43  C31 UNL     1      10.893 -16.946  17.647  1.00  0.00     0.003 A 
HETATM   44  C32 UNL     1      12.155 -17.261  17.201  1.00  0.00     0.043 A 
HETATM   45  C33 UNL     1      12.872 -16.392  16.407  1.00  0.00     0.126 A 
HETATM   46  F2  UNL     1      14.114 -16.701  15.966  1.00  0.00    -0.205 F 
ENDBRANCH  38  40
ENDBRANCH   4  28
TORSDOF 6
ENDMDL
