MODEL 1
REMARK VINA RESULT: -12.416215453      0.000      0.000
REMARK  6 active torsions:
REMARK  status: ('A' for Active; 'I' for Inactive)
REMARK    1  A    between atoms: C8_11  and  C9_12 
REMARK    2  A    between atoms: N2_19  and  C15_20 
REMARK    3  A    between atoms: C15_20  and  C16_21 
REMARK    4  A    between atoms: C16_21  and  N3_22 
REMARK    5  A    between atoms: C19_25  and  N4_26 
REMARK    6  A    between atoms: C27_37  and  C28_38 
ROOT
HETATM    1  N3  UNL     1      16.598 -15.808  11.810  1.00  0.00     0.090 N 
HETATM    2  C17 UNL     1      16.153 -17.010  12.456  1.00  0.00     0.274 C 
HETATM    3  C18 UNL     1      15.065 -16.726  13.471  1.00  0.00     0.055 C 
HETATM    4  C19 UNL     1      14.222 -15.589  12.998  1.00  0.00     0.093 C 
HETATM    5  C34 UNL     1      15.131 -14.356  13.095  1.00  0.00     0.055 C 
HETATM    6  C35 UNL     1      16.560 -14.745  12.778  1.00  0.00     0.274 C 
ENDROOT
BRANCH   1   7
HETATM    7  C16 UNL     1      17.834 -15.935  11.121  1.00  0.00     0.292 C 
BRANCH   7   8
HETATM    8  C15 UNL     1      19.068 -15.670  11.905  1.00  0.00     0.159 C 
BRANCH   8   9
HETATM    9  N2  UNL     1      19.659 -16.959  12.245  1.00  0.00    -0.321 N 
HETATM   10  C1  UNL     1      19.999 -17.842  11.184  1.00  0.00     0.258 C 
HETATM   11  O1  UNL     1      19.489 -17.778  10.046  1.00  0.00    -0.267 OA
HETATM   12  C2  UNL     1      21.001 -18.890  11.422  1.00  0.00     0.058 A 
HETATM   13  C3  UNL     1      21.381 -19.780  10.450  1.00  0.00     0.019 A 
HETATM   14  C7  UNL     1      21.605 -19.012  12.669  1.00  0.00     0.045 A 
HETATM   15  C4  UNL     1      22.324 -20.758  10.689  1.00  0.00     0.001 A 
HETATM   16  C5  UNL     1      22.905 -20.854  11.935  1.00  0.00     0.002 A 
HETATM   17  C6  UNL     1      22.547 -19.981  12.926  1.00  0.00     0.030 A 
HETATM   18  N1  UNL     1      21.197 -18.079  13.665  1.00  0.00    -0.364 N 
HETATM   19  C8  UNL     1      19.921 -17.393  13.591  1.00  0.00     0.224 C 
ATOM     20  H1  UNL     1      21.819 -17.888  14.452  1.00  0.00     0.162 HD
BRANCH  19  21
HETATM   21  C9  UNL     1      19.903 -16.291  14.570  1.00  0.00     0.022 A 
HETATM   22  C10 UNL     1      20.979 -15.436  14.683  1.00  0.00     0.014 A 
HETATM   23  C11 UNL     1      21.002 -14.390  15.587  1.00  0.00     0.001 A 
HETATM   24  C12 UNL     1      19.915 -14.188  16.409  1.00  0.00     0.003 A 
HETATM   25  C13 UNL     1      18.828 -15.017  16.325  1.00  0.00     0.043 A 
HETATM   26  C14 UNL     1      18.826 -16.069  15.403  1.00  0.00     0.126 A 
HETATM   27  F1  UNL     1      17.756 -16.887  15.319  1.00  0.00    -0.205 F 
ENDBRANCH  19  21
ENDBRANCH   8   9
ENDBRANCH   7   8
ENDBRANCH   1   7
BRANCH   4  28
HETATM   28  N4  UNL     1      12.992 -15.386  13.684  1.00  0.00    -0.317 N 
HETATM   29  C20 UNL     1      12.987 -15.170  15.096  1.00  0.00     0.258 C 
HETATM   30  O2  UNL     1      13.948 -14.613  15.689  1.00  0.00    -0.267 OA
HETATM   31  C21 UNL     1      11.828 -15.607  15.900  1.00  0.00     0.058 A 
HETATM   32  C22 UNL     1      11.766 -15.430  17.250  1.00  0.00     0.019 A 
HETATM   33  C26 UNL     1      10.793 -16.212  15.221  1.00  0.00     0.045 A 
HETATM   34  C23 UNL     1      10.652 -15.867  17.932  1.00  0.00     0.001 A 
HETATM   35  C24 UNL     1       9.599 -16.477  17.284  1.00  0.00     0.002 A 
HETATM   36  C25 UNL     1       9.667 -16.653  15.922  1.00  0.00     0.030 A 
HETATM   37  N5  UNL     1      10.901 -16.375  13.823  1.00  0.00    -0.364 N 
HETATM   38  C27 UNL     1      11.672 -15.386  13.078  1.00  0.00     0.225 C 
ATOM     39  H5  UNL     1      10.454 -17.160  13.348  1.00  0.00     0.162 HD
BRANCH  38  40
HETATM   40  C28 UNL     1      11.009 -14.069  13.251  1.00  0.00     0.022 A 
HETATM   41  C29 UNL     1      11.664 -12.968  13.747  1.00  0.00     0.014 A 
HETATM   42  C30 UNL     1      11.031 -11.741  13.913  1.00  0.00     0.001 A 
HETATM   43  C31 UNL     1       9.706 -11.588  13.581  1.00  0.00     0.003 A 
HETATM   44  C32 UNL     1       9.036 -12.681  13.083  1.00  0.00     0.043 A 
HETATM   45  C33 UNL     1       9.668 -13.895  12.919  1.00  0.00     0.126 A 
HETATM   46  F2  UNL     1       9.009 -14.972  12.428  1.00  0.00    -0.205 F 
ENDBRANCH  38  40
ENDBRANCH   4  28
TORSDOF 6
ENDMDL
