MODEL 9
REMARK VINA RESULT: -10.308595525      1.833     10.187
REMARK  6 active torsions:
REMARK  status: ('A' for Active; 'I' for Inactive)
REMARK    1  A    between atoms: C8_11  and  C9_12 
REMARK    2  A    between atoms: N2_19  and  C15_20 
REMARK    3  A    between atoms: C15_20  and  C16_21 
REMARK    4  A    between atoms: C16_21  and  N3_22 
REMARK    5  A    between atoms: C19_25  and  N4_26 
REMARK    6  A    between atoms: C27_37  and  C28_38 
ROOT
HETATM    1  N3  UNL     1      13.828 -14.179  14.373  1.00  0.00     0.090 N 
HETATM    2  C17 UNL     1      14.439 -14.207  15.671  1.00  0.00     0.274 C 
HETATM    3  C18 UNL     1      15.561 -15.223  15.736  1.00  0.00     0.055 C 
HETATM    4  C19 UNL     1      16.246 -15.300  14.412  1.00  0.00     0.093 C 
HETATM    5  C34 UNL     1      15.224 -15.956  13.475  1.00  0.00     0.055 C 
HETATM    6  C35 UNL     1      13.824 -15.522  13.856  1.00  0.00     0.274 C 
ENDROOT
BRANCH   1   7
HETATM    7  C16 UNL     1      12.566 -13.527  14.332  1.00  0.00     0.292 C 
BRANCH   7   8
HETATM    8  C15 UNL     1      11.766 -13.539  15.584  1.00  0.00     0.159 C 
BRANCH   8   9
HETATM    9  N2  UNL     1      10.945 -14.744  15.570  1.00  0.00    -0.321 N 
HETATM   10  C1  UNL     1      10.933 -15.562  16.733  1.00  0.00     0.258 C 
HETATM   11  O1  UNL     1      11.840 -15.549  17.591  1.00  0.00    -0.267 OA
HETATM   12  C2  UNL     1       9.802 -16.473  16.953  1.00  0.00     0.058 A 
HETATM   13  C3  UNL     1       9.718 -17.292  18.049  1.00  0.00     0.019 A 
HETATM   14  C7  UNL     1       8.760 -16.532  16.033  1.00  0.00     0.045 A 
HETATM   15  C4  UNL     1       8.649 -18.143  18.242  1.00  0.00     0.001 A 
HETATM   16  C5  UNL     1       7.632 -18.179  17.312  1.00  0.00     0.002 A 
HETATM   17  C6  UNL     1       7.687 -17.374  16.207  1.00  0.00     0.030 A 
HETATM   18  N1  UNL     1       8.865 -15.673  14.901  1.00  0.00    -0.364 N 
HETATM   19  C8  UNL     1      10.145 -15.159  14.449  1.00  0.00     0.224 C 
ATOM     20  H1  UNL     1       8.018 -15.414  14.394  1.00  0.00     0.162 HD
BRANCH  19  21
HETATM   21  C9  UNL     1       9.917 -14.082  13.469  1.00  0.00     0.022 A 
HETATM   22  C10 UNL     1       9.137 -12.992  13.792  1.00  0.00     0.014 A 
HETATM   23  C11 UNL     1       8.900 -11.961  12.902  1.00  0.00     0.001 A 
HETATM   24  C12 UNL     1       9.458 -12.016  11.645  1.00  0.00     0.003 A 
HETATM   25  C13 UNL     1      10.239 -13.083  11.287  1.00  0.00     0.043 A 
HETATM   26  C14 UNL     1      10.466 -14.116  12.204  1.00  0.00     0.126 A 
HETATM   27  F1  UNL     1      11.235 -15.168  11.853  1.00  0.00    -0.205 F 
ENDBRANCH  19  21
ENDBRANCH   8   9
ENDBRANCH   7   8
ENDBRANCH   1   7
BRANCH   4  28
HETATM   28  N4  UNL     1      17.493 -15.983  14.385  1.00  0.00    -0.317 N 
HETATM   29  C20 UNL     1      18.252 -16.040  13.175  1.00  0.00     0.258 C 
HETATM   30  O2  UNL     1      18.203 -15.123  12.313  1.00  0.00    -0.267 OA
HETATM   31  C21 UNL     1      19.124 -17.203  12.912  1.00  0.00     0.058 A 
HETATM   32  C22 UNL     1      19.868 -17.315  11.776  1.00  0.00     0.019 A 
HETATM   33  C26 UNL     1      19.155 -18.188  13.874  1.00  0.00     0.045 A 
HETATM   34  C23 UNL     1      20.656 -18.431  11.599  1.00  0.00     0.001 A 
HETATM   35  C24 UNL     1      20.710 -19.436  12.542  1.00  0.00     0.002 A 
HETATM   36  C25 UNL     1      19.957 -19.317  13.686  1.00  0.00     0.030 A 
HETATM   37  N5  UNL     1      18.366 -18.029  15.034  1.00  0.00    -0.364 N 
HETATM   38  C27 UNL     1      18.109 -16.673  15.505  1.00  0.00     0.225 C 
ATOM     39  H5  UNL     1      17.986 -18.837  15.528  1.00  0.00     0.162 HD
BRANCH  38  40
HETATM   40  C28 UNL     1      19.415 -16.058  15.854  1.00  0.00     0.022 A 
HETATM   41  C29 UNL     1      20.579 -16.783  15.932  1.00  0.00     0.014 A 
HETATM   42  C30 UNL     1      21.796 -16.198  16.268  1.00  0.00     0.001 A 
HETATM   43  C31 UNL     1      21.872 -14.853  16.540  1.00  0.00     0.003 A 
HETATM   44  C32 UNL     1      20.714 -14.114  16.468  1.00  0.00     0.043 A 
HETATM   45  C33 UNL     1      19.512 -14.698  16.134  1.00  0.00     0.126 A 
HETATM   46  F2  UNL     1      18.371 -13.971  16.061  1.00  0.00    -0.205 F 
ENDBRANCH  38  40
ENDBRANCH   4  28
TORSDOF 6
ENDMDL
