MODEL 16
REMARK VINA RESULT: -5.444862299      2.931      4.561
REMARK  2 active torsions:
REMARK  status: ('A' for Active; 'I' for Inactive)
REMARK    1  A    between atoms: C1_2  and  C2_4 
REMARK    2  A    between atoms: C7_9  and  O3_10 
ROOT
HETATM    1  C2  UNL     1      16.535  -8.990 101.094  1.00  0.00     0.073 A 
HETATM    2  C3  UNL     1      16.949 -10.176 100.479  1.00  0.00     0.021 A 
HETATM    3  C4  UNL     1      18.131 -10.199  99.779  1.00  0.00     0.001 A 
HETATM    4  C5  UNL     1      18.935  -9.088  99.655  1.00  0.00     0.003 A 
HETATM    5  C6  UNL     1      18.510  -7.936 100.266  1.00  0.00     0.037 A 
HETATM    6  C7  UNL     1      17.301  -7.874 100.994  1.00  0.00     0.082 A 
ENDROOT
BRANCH   1   7
HETATM    7  C1  UNL     1      15.288  -8.991 101.826  1.00  0.00     0.212 C 
HETATM    8  O1  UNL     1      14.991  -9.810 102.711  1.00  0.00    -0.644 OA
HETATM    9  O2  UNL     1      14.299  -8.009 101.554  1.00  0.00    -0.644 OA
ENDBRANCH   1   7
BRANCH   6  10
HETATM   10  O3  UNL     1      16.960  -6.684 101.568  1.00  0.00    -0.360 OA
ATOM     11  H3  UNL     1      17.389  -6.340 102.343  1.00  0.00     0.217 HD
ENDBRANCH   6  10
TORSDOF 2
ENDMDL
