MODEL 6
REMARK VINA RESULT: -6.215854681      1.173      2.086
REMARK  2 active torsions:
REMARK  status: ('A' for Active; 'I' for Inactive)
REMARK    1  A    between atoms: C1_2  and  C2_4 
REMARK    2  A    between atoms: C7_9  and  O3_10 
ROOT
HETATM    1  C2  UNL     1      19.042  -8.192  98.169  1.00  0.00     0.073 A 
HETATM    2  C3  UNL     1      18.953  -8.137  99.564  1.00  0.00     0.021 A 
HETATM    3  C4  UNL     1      18.391  -9.189 100.247  1.00  0.00     0.001 A 
HETATM    4  C5  UNL     1      17.906 -10.307  99.608  1.00  0.00     0.003 A 
HETATM    5  C6  UNL     1      18.003 -10.339  98.241  1.00  0.00     0.037 A 
HETATM    6  C7  UNL     1      18.575  -9.278  97.503  1.00  0.00     0.082 A 
ENDROOT
BRANCH   1   7
HETATM    7  C1  UNL     1      19.638  -7.073  97.471  1.00  0.00     0.212 C 
HETATM    8  O1  UNL     1      20.836  -6.754  97.546  1.00  0.00    -0.644 OA
HETATM    9  O2  UNL     1      18.844  -6.252  96.629  1.00  0.00    -0.644 OA
ENDBRANCH   1   7
BRANCH   6  10
HETATM   10  O3  UNL     1      18.629  -9.399  96.145  1.00  0.00    -0.360 OA
ATOM     11  H3  UNL     1      18.814 -10.220  95.704  1.00  0.00     0.217 HD
ENDBRANCH   6  10
TORSDOF 2
ENDMDL
