MODEL 5
REMARK VINA RESULT: -6.294141572      1.227      2.285
REMARK  2 active torsions:
REMARK  status: ('A' for Active; 'I' for Inactive)
REMARK    1  A    between atoms: C1_2  and  C2_4 
REMARK    2  A    between atoms: C7_9  and  O3_10 
ROOT
HETATM    1  C2  UNL     1      18.835  -8.170  98.565  1.00  0.00     0.073 A 
HETATM    2  C3  UNL     1      18.546  -8.394  99.915  1.00  0.00     0.021 A 
HETATM    3  C4  UNL     1      18.043  -9.612 100.305  1.00  0.00     0.001 A 
HETATM    4  C5  UNL     1      17.808 -10.632  99.412  1.00  0.00     0.003 A 
HETATM    5  C6  UNL     1      18.098 -10.390  98.094  1.00  0.00     0.037 A 
HETATM    6  C7  UNL     1      18.617  -9.152  97.654  1.00  0.00     0.082 A 
ENDROOT
BRANCH   1   7
HETATM    7  C1  UNL     1      19.364  -6.880  98.177  1.00  0.00     0.212 C 
HETATM    8  O1  UNL     1      18.874  -5.788  98.511  1.00  0.00    -0.644 OA
HETATM    9  O2  UNL     1      20.522  -6.800  97.359  1.00  0.00    -0.644 OA
ENDBRANCH   1   7
BRANCH   6  10
HETATM   10  O3  UNL     1      18.875  -9.003  96.322  1.00  0.00    -0.360 OA
ATOM     11  H3  UNL     1      18.895  -9.732  95.713  1.00  0.00     0.217 HD
ENDBRANCH   6  10
TORSDOF 2
ENDMDL
