MODEL 9
REMARK VINA RESULT: -5.904046533      1.199      2.430
REMARK  2 active torsions:
REMARK  status: ('A' for Active; 'I' for Inactive)
REMARK    1  A    between atoms: C1_2  and  C2_4 
REMARK    2  A    between atoms: C7_9  and  O3_10 
ROOT
HETATM    1  C2  UNL     1      18.590  -8.187  98.984  1.00  0.00     0.073 A 
HETATM    2  C3  UNL     1      18.170  -8.768 100.185  1.00  0.00     0.021 A 
HETATM    3  C4  UNL     1      17.830 -10.099 100.210  1.00  0.00     0.001 A 
HETATM    4  C5  UNL     1      17.885 -10.894  99.088  1.00  0.00     0.003 A 
HETATM    5  C6  UNL     1      18.299 -10.305  97.922  1.00  0.00     0.037 A 
HETATM    6  C7  UNL     1      18.657  -8.940  97.856  1.00  0.00     0.082 A 
ENDROOT
BRANCH   1   7
HETATM    7  C1  UNL     1      18.944  -6.784  98.981  1.00  0.00     0.212 C 
HETATM    8  O1  UNL     1      18.908  -6.051  97.979  1.00  0.00    -0.644 OA
HETATM    9  O2  UNL     1      19.367  -6.153 100.180  1.00  0.00    -0.644 OA
ENDBRANCH   1   7
BRANCH   6  10
HETATM   10  O3  UNL     1      19.057  -8.441  96.651  1.00  0.00    -0.360 OA
ATOM     11  H3  UNL     1      19.582  -7.653  96.564  1.00  0.00     0.217 HD
ENDBRANCH   6  10
TORSDOF 2
ENDMDL
