MODEL 1
REMARK VINA RESULT: -11.835052995      0.000      0.000
REMARK  3 active torsions:
REMARK  status: ('A' for Active; 'I' for Inactive)
REMARK    1  A    between atoms: C2_2  and  C3_3 
REMARK    2  A    between atoms: C2_2  and  N1_10 
REMARK    3  A    between atoms: C14_22  and  C15_23 
ROOT
HETATM    1  N1  UNL     1     -19.399  15.610 -17.827  1.00  0.00    -0.243 N 
HETATM    2  N2  UNL     1     -18.744  14.650 -17.098  1.00  0.00    -0.235 N 
ATOM      3  H2  UNL     1     -19.191  14.082 -16.377  1.00  0.00     0.209 HD
HETATM    4  N3  UNL     1     -17.501  14.543 -17.424  1.00  0.00    -0.282 N 
ATOM      5  H3  UNL     1     -16.826  13.897 -17.015  1.00  0.00     0.188 HD
HETATM    6  C9  UNL     1     -17.256  15.433 -18.395  1.00  0.00     0.094 A 
HETATM    7  C10 UNL     1     -16.149  15.785 -19.119  1.00  0.00     0.121 A 
HETATM    8  N4  UNL     1     -16.195  16.740 -20.043  1.00  0.00    -0.363 N 
ATOM      9  H4  UNL     1     -15.357  16.988 -20.569  1.00  0.00     0.165 HD
HETATM   10  C11 UNL     1     -17.361  17.380 -20.281  1.00  0.00     0.044 A 
HETATM   11  C12 UNL     1     -17.380  18.354 -21.248  1.00  0.00     0.031 A 
HETATM   12  C13 UNL     1     -18.529  19.014 -21.525  1.00  0.00     0.014 A 
HETATM   13  C14 UNL     1     -19.691  18.716 -20.842  1.00  0.00    -0.025 A 
HETATM   14  C22 UNL     1     -19.707  17.736 -19.856  1.00  0.00     0.028 A 
HETATM   15  C23 UNL     1     -18.528  17.092 -19.602  1.00  0.00     0.023 A 
HETATM   16  C24 UNL     1     -18.468  16.088 -18.630  1.00  0.00     0.100 A 
ENDROOT
BRANCH  13  17
HETATM   17  C15 UNL     1     -20.882  19.468 -21.200  1.00  0.00    -0.024 A 
HETATM   18  C16 UNL     1     -20.939  20.260 -22.348  1.00  0.00     0.015 A 
HETATM   19  C17 UNL     1     -22.070  20.965 -22.679  1.00  0.00     0.040 A 
HETATM   20  C18 UNL     1     -23.191  20.919 -21.894  1.00  0.00     0.103 A 
HETATM   21  O1  UNL     1     -24.395  21.482 -21.966  1.00  0.00    -0.304 OA
HETATM   22  C20 UNL     1     -23.168  20.141 -20.744  1.00  0.00     0.068 A 
HETATM   23  C19 UNL     1     -25.112  21.111 -20.953  1.00  0.00     0.234 A 
HETATM   24  N5  UNL     1     -24.380  20.287 -20.187  1.00  0.00    -0.345 N 
ATOM     25  H5  UNL     1     -24.694  19.845 -19.324  1.00  0.00     0.167 HD
HETATM   26  C21 UNL     1     -22.015  19.433 -20.422  1.00  0.00     0.044 A 
ENDBRANCH  13  17
BRANCH   1  27
HETATM   27  C2  UNL     1     -20.765  15.915 -17.622  1.00  0.00     0.042 C 
HETATM   28  C1  UNL     1     -21.818  15.326 -18.505  1.00  0.00     0.071 C 
BRANCH  27  29
HETATM   29  C3  UNL     1     -21.172  16.310 -16.257  1.00  0.00    -0.012 A 
HETATM   30  C4  UNL     1     -22.254  15.723 -15.661  1.00  0.00     0.016 A 
HETATM   31  C5  UNL     1     -22.662  16.072 -14.373  1.00  0.00     0.043 A 
HETATM   32  C6  UNL     1     -21.979  17.030 -13.657  1.00  0.00     0.116 A 
HETATM   33  F1  UNL     1     -22.388  17.370 -12.389  1.00  0.00    -0.206 F 
HETATM   34  C7  UNL     1     -20.892  17.627 -14.243  1.00  0.00     0.043 A 
HETATM   35  C8  UNL     1     -20.518  17.260 -15.513  1.00  0.00     0.016 A 
ENDBRANCH  27  29
ENDBRANCH   1  27
TORSDOF 3
ENDMDL
