MODEL 8
REMARK VINA RESULT: -11.089181630      2.748      6.461
REMARK  3 active torsions:
REMARK  status: ('A' for Active; 'I' for Inactive)
REMARK    1  A    between atoms: C2_2  and  C3_3 
REMARK    2  A    between atoms: C2_2  and  N1_10 
REMARK    3  A    between atoms: C14_22  and  C15_23 
ROOT
HETATM    1  N1  UNL     1     -23.871  20.016 -18.070  1.00  0.00    -0.243 N 
HETATM    2  N2  UNL     1     -25.108  20.383 -17.604  1.00  0.00    -0.235 N 
ATOM      3  H2  UNL     1     -25.408  20.259 -16.636  1.00  0.00     0.209 HD
HETATM    4  N3  UNL     1     -25.849  20.902 -18.521  1.00  0.00    -0.282 N 
ATOM      5  H3  UNL     1     -26.802  21.246 -18.402  1.00  0.00     0.188 HD
HETATM    6  C9  UNL     1     -25.143  20.911 -19.660  1.00  0.00     0.094 A 
HETATM    7  C10 UNL     1     -25.391  21.319 -20.943  1.00  0.00     0.121 A 
HETATM    8  N4  UNL     1     -24.480  21.194 -21.903  1.00  0.00    -0.363 N 
ATOM      9  H4  UNL     1     -24.688  21.504 -22.853  1.00  0.00     0.165 HD
HETATM   10  C11 UNL     1     -23.276  20.654 -21.613  1.00  0.00     0.044 A 
HETATM   11  C12 UNL     1     -22.353  20.548 -22.622  1.00  0.00     0.031 A 
HETATM   12  C13 UNL     1     -21.131  20.022 -22.373  1.00  0.00     0.014 A 
HETATM   13  C14 UNL     1     -20.800  19.588 -21.104  1.00  0.00    -0.025 A 
HETATM   14  C22 UNL     1     -21.712  19.681 -20.059  1.00  0.00     0.028 A 
HETATM   15  C23 UNL     1     -22.936  20.216 -20.349  1.00  0.00     0.023 A 
HETATM   16  C24 UNL     1     -23.902  20.349 -19.346  1.00  0.00     0.100 A 
ENDROOT
BRANCH  13  17
HETATM   17  C15 UNL     1     -19.467  19.038 -20.919  1.00  0.00    -0.024 A 
HETATM   18  C16 UNL     1     -18.325  19.703 -21.365  1.00  0.00     0.015 A 
HETATM   19  C17 UNL     1     -17.069  19.175 -21.184  1.00  0.00     0.040 A 
HETATM   20  C18 UNL     1     -16.889  17.973 -20.555  1.00  0.00     0.103 A 
HETATM   21  O1  UNL     1     -15.821  17.240 -20.248  1.00  0.00    -0.304 OA
HETATM   22  C20 UNL     1     -18.006  17.284 -20.098  1.00  0.00     0.068 A 
HETATM   23  C19 UNL     1     -16.192  16.158 -19.640  1.00  0.00     0.234 A 
HETATM   24  N5  UNL     1     -17.531  16.162 -19.536  1.00  0.00    -0.345 N 
ATOM     25  H5  UNL     1     -18.095  15.432 -19.102  1.00  0.00     0.167 HD
HETATM   26  C21 UNL     1     -19.270  17.832 -20.290  1.00  0.00     0.044 A 
ENDBRANCH  13  17
BRANCH   1  27
HETATM   27  C2  UNL     1     -22.901  19.404 -17.242  1.00  0.00     0.042 C 
HETATM   28  C1  UNL     1     -22.753  19.811 -15.812  1.00  0.00     0.071 C 
BRANCH  27  29
HETATM   29  C3  UNL     1     -22.472  18.035 -17.602  1.00  0.00    -0.012 A 
HETATM   30  C4  UNL     1     -21.201  17.613 -17.323  1.00  0.00     0.016 A 
HETATM   31  C5  UNL     1     -20.767  16.327 -17.648  1.00  0.00     0.043 A 
HETATM   32  C6  UNL     1     -21.615  15.436 -18.266  1.00  0.00     0.116 A 
HETATM   33  F1  UNL     1     -21.180  14.171 -18.584  1.00  0.00    -0.206 F 
HETATM   34  C7  UNL     1     -22.893  15.846 -18.551  1.00  0.00     0.043 A 
HETATM   35  C8  UNL     1     -23.288  17.119 -18.218  1.00  0.00     0.016 A 
ENDBRANCH  27  29
ENDBRANCH   1  27
TORSDOF 3
ENDMDL
