MODEL 4
REMARK VINA RESULT: -11.502952019      1.305      1.728
REMARK  3 active torsions:
REMARK  status: ('A' for Active; 'I' for Inactive)
REMARK    1  A    between atoms: C2_2  and  C3_3 
REMARK    2  A    between atoms: C2_2  and  N1_10 
REMARK    3  A    between atoms: C14_22  and  C15_23 
ROOT
HETATM    1  N1  UNL     1     -18.999  16.052 -18.830  1.00  0.00    -0.243 N 
HETATM    2  N2  UNL     1     -17.982  15.183 -18.528  1.00  0.00    -0.235 N 
ATOM      3  H2  UNL     1     -18.101  14.350 -17.950  1.00  0.00     0.209 HD
HETATM    4  N3  UNL     1     -16.859  15.533 -19.054  1.00  0.00    -0.282 N 
ATOM      5  H3  UNL     1     -15.972  15.038 -18.963  1.00  0.00     0.188 HD
HETATM    6  C9  UNL     1     -17.065  16.664 -19.742  1.00  0.00     0.094 A 
HETATM    7  C10 UNL     1     -16.273  17.496 -20.487  1.00  0.00     0.121 A 
HETATM    8  N4  UNL     1     -16.760  18.588 -21.066  1.00  0.00    -0.363 N 
ATOM      9  H4  UNL     1     -16.150  19.195 -21.615  1.00  0.00     0.165 HD
HETATM   10  C11 UNL     1     -18.069  18.891 -20.924  1.00  0.00     0.044 A 
HETATM   11  C12 UNL     1     -18.545  20.020 -21.543  1.00  0.00     0.031 A 
HETATM   12  C13 UNL     1     -19.851  20.354 -21.434  1.00  0.00     0.014 A 
HETATM   13  C14 UNL     1     -20.718  19.567 -20.704  1.00  0.00    -0.025 A 
HETATM   14  C22 UNL     1     -20.270  18.417 -20.063  1.00  0.00     0.028 A 
HETATM   15  C23 UNL     1     -18.943  18.111 -20.194  1.00  0.00     0.023 A 
HETATM   16  C24 UNL     1     -18.422  16.965 -19.586  1.00  0.00     0.100 A 
ENDROOT
BRANCH  13  17
HETATM   17  C15 UNL     1     -22.106  19.994 -20.638  1.00  0.00    -0.024 A 
HETATM   18  C16 UNL     1     -22.884  20.158 -21.784  1.00  0.00     0.015 A 
HETATM   19  C17 UNL     1     -24.196  20.560 -21.712  1.00  0.00     0.040 A 
HETATM   20  C18 UNL     1     -24.794  20.817 -20.508  1.00  0.00     0.103 A 
HETATM   21  O1  UNL     1     -26.013  21.210 -20.145  1.00  0.00    -0.304 OA
HETATM   22  C20 UNL     1     -24.047  20.665 -19.346  1.00  0.00     0.068 A 
HETATM   23  C19 UNL     1     -26.074  21.310 -18.855  1.00  0.00     0.234 A 
HETATM   24  N5  UNL     1     -24.878  20.981 -18.341  1.00  0.00    -0.345 N 
ATOM     25  H5  UNL     1     -24.640  20.972 -17.350  1.00  0.00     0.167 HD
HETATM   26  C21 UNL     1     -22.720  20.257 -19.436  1.00  0.00     0.044 A 
ENDBRANCH  13  17
BRANCH   1  27
HETATM   27  C2  UNL     1     -20.315  15.877 -18.340  1.00  0.00     0.042 C 
HETATM   28  C1  UNL     1     -21.155  14.732 -18.805  1.00  0.00     0.071 C 
BRANCH  27  29
HETATM   29  C3  UNL     1     -20.621  16.442 -17.009  1.00  0.00    -0.012 A 
HETATM   30  C4  UNL     1     -21.746  17.196 -16.820  1.00  0.00     0.016 A 
HETATM   31  C5  UNL     1     -22.064  17.741 -15.574  1.00  0.00     0.043 A 
HETATM   32  C6  UNL     1     -21.243  17.533 -14.488  1.00  0.00     0.116 A 
HETATM   33  F1  UNL     1     -21.562  18.074 -13.265  1.00  0.00    -0.206 F 
HETATM   34  C7  UNL     1     -20.111  16.778 -14.664  1.00  0.00     0.043 A 
HETATM   35  C8  UNL     1     -19.829  16.257 -15.903  1.00  0.00     0.016 A 
ENDBRANCH  27  29
ENDBRANCH   1  27
TORSDOF 3
ENDMDL
