MODEL 2
REMARK VINA RESULT: -11.814491144      1.534      2.436
REMARK  3 active torsions:
REMARK  status: ('A' for Active; 'I' for Inactive)
REMARK    1  A    between atoms: C2_2  and  C3_3 
REMARK    2  A    between atoms: C2_2  and  N1_10 
REMARK    3  A    between atoms: C14_22  and  C15_23 
ROOT
HETATM    1  N1  UNL     1     -20.009  15.100 -16.460  1.00  0.00    -0.243 N 
HETATM    2  N2  UNL     1     -20.023  14.160 -15.461  1.00  0.00    -0.235 N 
ATOM      3  H2  UNL     1     -20.830  13.981 -14.863  1.00  0.00     0.209 HD
HETATM    4  N3  UNL     1     -18.904  13.528 -15.362  1.00  0.00    -0.282 N 
ATOM      5  H3  UNL     1     -18.688  12.789 -14.693  1.00  0.00     0.188 HD
HETATM    6  C9  UNL     1     -18.075  14.015 -16.295  1.00  0.00     0.094 A 
HETATM    7  C10 UNL     1     -16.783  13.755 -16.664  1.00  0.00     0.121 A 
HETATM    8  N4  UNL     1     -16.193  14.420 -17.653  1.00  0.00    -0.363 N 
ATOM      9  H4  UNL     1     -15.227  14.211 -17.909  1.00  0.00     0.165 HD
HETATM   10  C11 UNL     1     -16.880  15.375 -18.316  1.00  0.00     0.044 A 
HETATM   11  C12 UNL     1     -16.248  16.037 -19.339  1.00  0.00     0.031 A 
HETATM   12  C13 UNL     1     -16.903  16.994 -20.036  1.00  0.00     0.014 A 
HETATM   13  C14 UNL     1     -18.211  17.314 -19.729  1.00  0.00    -0.025 A 
HETATM   14  C22 UNL     1     -18.881  16.664 -18.699  1.00  0.00     0.028 A 
HETATM   15  C23 UNL     1     -18.187  15.704 -18.016  1.00  0.00     0.023 A 
HETATM   16  C24 UNL     1     -18.799  15.001 -16.973  1.00  0.00     0.100 A 
ENDROOT
BRANCH  13  17
HETATM   17  C15 UNL     1     -18.844  18.351 -20.527  1.00  0.00    -0.024 A 
HETATM   18  C16 UNL     1     -18.102  19.246 -21.299  1.00  0.00     0.015 A 
HETATM   19  C17 UNL     1     -18.710  20.222 -22.051  1.00  0.00     0.040 A 
HETATM   20  C18 UNL     1     -20.072  20.355 -22.073  1.00  0.00     0.103 A 
HETATM   21  O1  UNL     1     -20.911  21.183 -22.692  1.00  0.00    -0.304 OA
HETATM   22  C20 UNL     1     -20.841  19.481 -21.315  1.00  0.00     0.068 A 
HETATM   23  C19 UNL     1     -22.132  20.887 -22.375  1.00  0.00     0.234 A 
HETATM   24  N5  UNL     1     -22.115  19.845 -21.529  1.00  0.00    -0.345 N 
ATOM     25  H5  UNL     1     -22.935  19.401 -21.117  1.00  0.00     0.167 HD
HETATM   26  C21 UNL     1     -20.210  18.499 -20.559  1.00  0.00     0.044 A 
ENDBRANCH  13  17
BRANCH   1  27
HETATM   27  C2  UNL     1     -21.123  15.930 -16.735  1.00  0.00     0.042 C 
HETATM   28  C1  UNL     1     -21.768  15.918 -18.083  1.00  0.00     0.071 C 
BRANCH  27  29
HETATM   29  C3  UNL     1     -21.963  16.334 -15.588  1.00  0.00    -0.012 A 
HETATM   30  C4  UNL     1     -23.266  15.925 -15.507  1.00  0.00     0.016 A 
HETATM   31  C5  UNL     1     -24.085  16.288 -14.436  1.00  0.00     0.043 A 
HETATM   32  C6  UNL     1     -23.598  17.078 -13.418  1.00  0.00     0.116 A 
HETATM   33  F1  UNL     1     -24.410  17.432 -12.367  1.00  0.00    -0.206 F 
HETATM   34  C7  UNL     1     -22.293  17.495 -13.486  1.00  0.00     0.043 A 
HETATM   35  C8  UNL     1     -21.515  17.120 -14.555  1.00  0.00     0.016 A 
ENDBRANCH  27  29
ENDBRANCH   1  27
TORSDOF 3
ENDMDL
