MODEL 3
REMARK VINA RESULT: -11.513012237      2.574      6.204
REMARK  3 active torsions:
REMARK  status: ('A' for Active; 'I' for Inactive)
REMARK    1  A    between atoms: C2_2  and  C3_3 
REMARK    2  A    between atoms: C2_2  and  N1_10 
REMARK    3  A    between atoms: C14_22  and  C15_23 
ROOT
HETATM    1  N1  UNL     1     -23.787  19.662 -18.132  1.00  0.00    -0.243 N 
HETATM    2  N2  UNL     1     -25.029  20.027 -17.678  1.00  0.00    -0.235 N 
ATOM      3  H2  UNL     1     -25.371  19.822 -16.738  1.00  0.00     0.209 HD
HETATM    4  N3  UNL     1     -25.716  20.657 -18.567  1.00  0.00    -0.282 N 
ATOM      5  H3  UNL     1     -26.662  21.020 -18.451  1.00  0.00     0.188 HD
HETATM    6  C9  UNL     1     -24.966  20.748 -19.674  1.00  0.00     0.094 A 
HETATM    7  C10 UNL     1     -25.150  21.285 -20.920  1.00  0.00     0.121 A 
HETATM    8  N4  UNL     1     -24.206  21.219 -21.854  1.00  0.00    -0.363 N 
ATOM      9  H4  UNL     1     -24.367  21.624 -22.776  1.00  0.00     0.165 HD
HETATM   10  C11 UNL     1     -23.033  20.612 -21.573  1.00  0.00     0.044 A 
HETATM   11  C12 UNL     1     -22.074  20.569 -22.554  1.00  0.00     0.031 A 
HETATM   12  C13 UNL     1     -20.880  19.979 -22.312  1.00  0.00     0.014 A 
HETATM   13  C14 UNL     1     -20.613  19.416 -21.080  1.00  0.00    -0.025 A 
HETATM   14  C22 UNL     1     -21.562  19.441 -20.064  1.00  0.00     0.028 A 
HETATM   15  C23 UNL     1     -22.757  20.044 -20.345  1.00  0.00     0.023 A 
HETATM   16  C24 UNL     1     -23.756  20.116 -19.370  1.00  0.00     0.100 A 
ENDROOT
BRANCH  13  17
HETATM   17  C15 UNL     1     -19.307  18.804 -20.900  1.00  0.00    -0.024 A 
HETATM   18  C16 UNL     1     -18.152  19.347 -21.464  1.00  0.00     0.015 A 
HETATM   19  C17 UNL     1     -16.922  18.762 -21.286  1.00  0.00     0.040 A 
HETATM   20  C18 UNL     1     -16.780  17.620 -20.546  1.00  0.00     0.103 A 
HETATM   21  O1  UNL     1     -15.742  16.855 -20.214  1.00  0.00    -0.304 OA
HETATM   22  C20 UNL     1     -17.909  17.052 -19.970  1.00  0.00     0.068 A 
HETATM   23  C19 UNL     1     -16.143  15.865 -19.482  1.00  0.00     0.234 A 
HETATM   24  N5  UNL     1     -17.472  15.964 -19.318  1.00  0.00    -0.345 N 
ATOM     25  H5  UNL     1     -18.054  15.319 -18.785  1.00  0.00     0.167 HD
HETATM   26  C21 UNL     1     -19.148  17.656 -20.160  1.00  0.00     0.044 A 
ENDBRANCH  13  17
BRANCH   1  27
HETATM   27  C2  UNL     1     -22.870  18.940 -17.332  1.00  0.00     0.042 C 
HETATM   28  C1  UNL     1     -21.520  19.503 -17.024  1.00  0.00     0.071 C 
BRANCH  27  29
HETATM   29  C3  UNL     1     -23.431  17.968 -16.370  1.00  0.00    -0.012 A 
HETATM   30  C4  UNL     1     -23.317  18.183 -15.024  1.00  0.00     0.016 A 
HETATM   31  C5  UNL     1     -23.838  17.285 -14.091  1.00  0.00     0.043 A 
HETATM   32  C6  UNL     1     -24.490  16.144 -14.503  1.00  0.00     0.116 A 
HETATM   33  F1  UNL     1     -24.999  15.264 -13.578  1.00  0.00    -0.206 F 
HETATM   34  C7  UNL     1     -24.612  15.917 -15.851  1.00  0.00     0.043 A 
HETATM   35  C8  UNL     1     -24.087  16.821 -16.742  1.00  0.00     0.016 A 
ENDBRANCH  27  29
ENDBRANCH   1  27
TORSDOF 3
ENDMDL
