MODEL 18
REMARK VINA RESULT: -9.139208533      1.661      1.997
REMARK  10 active torsions:
REMARK  status: ('A' for Active; 'I' for Inactive)
REMARK    1  A    between atoms: N4_17  and  C9_18 
REMARK    2  A    between atoms: C9_18  and  C10_19 
REMARK    3  A    between atoms: C10_19  and  O3_20 
REMARK    4  A    between atoms: C10_19  and  C11_22 
REMARK    5  A    between atoms: C11_22  and  O4_23 
REMARK    6  A    between atoms: C11_22  and  C12_25 
REMARK    7  A    between atoms: C12_25  and  O5_26 
REMARK    8  A    between atoms: C12_25  and  C13_28 
REMARK    9  A    between atoms: C13_28  and  O6_29 
REMARK   10  A    between atoms: O6_29  and  P1_30 
ROOT
HETATM    1  C1  UNL     1     142.135  10.234 -78.849  1.00  0.00     0.049 C 
HETATM    2  C2  UNL     1     142.515  11.402 -79.679  1.00  0.00    -0.054 A 
HETATM    3  C3  UNL     1     142.845  11.248 -81.008  1.00  0.00     0.039 A 
HETATM    4  C4  UNL     1     143.204  12.324 -81.807  1.00  0.00     0.060 A 
HETATM    5  N1  UNL     1     143.511  12.114 -83.099  1.00  0.00    -0.347 N 
ATOM      6  H1  UNL     1     143.481  11.167 -83.477  1.00  0.00     0.166 HD
HETATM    7  C5  UNL     1     143.856  13.134 -83.895  1.00  0.00     0.146 A 
HETATM    8  C6  UNL     1     144.184  12.969 -85.246  1.00  0.00     0.280 A 
HETATM    9  O1  UNL     1     144.149  11.816 -85.714  1.00  0.00    -0.265 OA
HETATM   10  N2  UNL     1     144.524  14.049 -85.993  1.00  0.00    -0.273 N 
ATOM     11  H2  UNL     1     144.764  13.933 -86.977  1.00  0.00     0.173 HD
HETATM   12  C7  UNL     1     144.545  15.273 -85.435  1.00  0.00     0.328 A 
HETATM   13  O2  UNL     1     144.868  16.232 -86.184  1.00  0.00    -0.247 OA
HETATM   14  N3  UNL     1     144.232  15.479 -84.122  1.00  0.00    -0.292 N 
ATOM     15  H3  UNL     1     144.262  16.426 -83.744  1.00  0.00     0.172 HD
HETATM   16  C8  UNL     1     143.886  14.462 -83.319  1.00  0.00     0.145 A 
HETATM   17  N4  UNL     1     143.566  14.627 -81.999  1.00  0.00    -0.327 N 
HETATM   18  C14 UNL     1     143.221  13.592 -81.215  1.00  0.00     0.063 A 
HETATM   19  C15 UNL     1     142.891  13.755 -79.884  1.00  0.00     0.039 A 
HETATM   20  C16 UNL     1     142.538  12.663 -79.115  1.00  0.00    -0.054 A 
HETATM   21  C17 UNL     1     142.180  12.819 -77.683  1.00  0.00     0.049 C 
ENDROOT
BRANCH  17  22
HETATM   22  C9  UNL     1     143.610  15.974 -81.474  1.00  0.00     0.165 C 
BRANCH  22  23
HETATM   23  C10 UNL     1     145.084  16.346 -81.262  1.00  0.00     0.167 C 
BRANCH  23  24
HETATM   24  O3  UNL     1     145.943  15.286 -81.351  1.00  0.00    -0.391 OA
ATOM     25  H3  UNL     1     146.302  15.151 -82.220  1.00  0.00     0.210 HD
ENDBRANCH  23  24
BRANCH  23  26
HETATM   26  C11 UNL     1     145.326  17.180 -80.087  1.00  0.00     0.179 C 
BRANCH  26  27
HETATM   27  O4  UNL     1     145.166  16.432 -78.917  1.00  0.00    -0.390 OA
ATOM     28  H4  UNL     1     145.087  17.008 -78.165  1.00  0.00     0.210 HD
ENDBRANCH  26  27
BRANCH  26  29
HETATM   29  C12 UNL     1     144.737  18.510 -79.923  1.00  0.00     0.173 C 
BRANCH  29  30
HETATM   30  O5  UNL     1     145.360  19.307 -80.955  1.00  0.00    -0.391 OA
ATOM     31  H5  UNL     1     145.560  20.131 -80.527  1.00  0.00     0.210 HD
ENDBRANCH  29  30
BRANCH  29  32
HETATM   32  C13 UNL     1     145.138  19.272 -78.664  1.00  0.00     0.217 C 
BRANCH  32  33
HETATM   33  O6  UNL     1     144.026  20.058 -78.235  1.00  0.00    -0.280 OA
BRANCH  33  34
HETATM   34  P1  UNL     1     143.412  19.444 -76.795  1.00  0.00     0.422 P 
HETATM   35  O7  UNL     1     143.435  17.953 -76.861  1.00  0.00    -0.617 OA
HETATM   36  O8  UNL     1     141.827  19.954 -76.515  1.00  0.00    -0.617 OA
HETATM   37  O9  UNL     1     144.353  19.923 -75.464  1.00  0.00    -0.617 OA
ENDBRANCH  33  34
ENDBRANCH  32  33
ENDBRANCH  29  32
ENDBRANCH  26  29
ENDBRANCH  23  26
ENDBRANCH  22  23
ENDBRANCH  17  22
TORSDOF 10
ENDMDL
