MODEL 1
REMARK VINA RESULT: -10.642886572      0.000      0.000
REMARK  10 active torsions:
REMARK  status: ('A' for Active; 'I' for Inactive)
REMARK    1  A    between atoms: N4_17  and  C9_18 
REMARK    2  A    between atoms: C9_18  and  C10_19 
REMARK    3  A    between atoms: C10_19  and  O3_20 
REMARK    4  A    between atoms: C10_19  and  C11_22 
REMARK    5  A    between atoms: C11_22  and  O4_23 
REMARK    6  A    between atoms: C11_22  and  C12_25 
REMARK    7  A    between atoms: C12_25  and  O5_26 
REMARK    8  A    between atoms: C12_25  and  C13_28 
REMARK    9  A    between atoms: C13_28  and  O6_29 
REMARK   10  A    between atoms: O6_29  and  P1_30 
ROOT
HETATM    1  C1  UNL     1     141.503  10.650 -78.598  1.00  0.00     0.049 C 
HETATM    2  C2  UNL     1     142.389  11.479 -79.450  1.00  0.00    -0.054 A 
HETATM    3  C3  UNL     1     142.873  10.998 -80.647  1.00  0.00     0.039 A 
HETATM    4  C4  UNL     1     143.703  11.752 -81.463  1.00  0.00     0.060 A 
HETATM    5  N1  UNL     1     144.140  11.232 -82.624  1.00  0.00    -0.347 N 
ATOM      6  H1  UNL     1     143.860  10.288 -82.890  1.00  0.00     0.166 HD
HETATM    7  C5  UNL     1     144.937  11.939 -83.433  1.00  0.00     0.146 A 
HETATM    8  C6  UNL     1     145.419  11.444 -84.651  1.00  0.00     0.280 A 
HETATM    9  O1  UNL     1     145.082  10.293 -84.982  1.00  0.00    -0.265 OA
HETATM   10  N2  UNL     1     146.224  12.218 -85.421  1.00  0.00    -0.273 N 
ATOM     11  H2  UNL     1     146.578  11.861 -86.309  1.00  0.00     0.173 HD
HETATM   12  C7  UNL     1     146.558  13.456 -85.014  1.00  0.00     0.328 A 
HETATM   13  O2  UNL     1     147.308  14.121 -85.775  1.00  0.00    -0.247 OA
HETATM   14  N3  UNL     1     146.111  13.978 -83.834  1.00  0.00    -0.292 N 
ATOM     15  H3  UNL     1     146.390  14.922 -83.567  1.00  0.00     0.172 HD
HETATM   16  C8  UNL     1     145.311  13.275 -83.018  1.00  0.00     0.145 A 
HETATM   17  N4  UNL     1     144.843  13.763 -81.828  1.00  0.00    -0.327 N 
HETATM   18  C14 UNL     1     144.042  13.039 -81.028  1.00  0.00     0.063 A 
HETATM   19  C15 UNL     1     143.562  13.529 -79.830  1.00  0.00     0.039 A 
HETATM   20  C16 UNL     1     142.736  12.752 -79.040  1.00  0.00    -0.054 A 
HETATM   21  C17 UNL     1     142.210  13.263 -77.749  1.00  0.00     0.049 C 
ENDROOT
BRANCH  17  22
HETATM   22  C9  UNL     1     145.245  15.103 -81.461  1.00  0.00     0.165 C 
BRANCH  22  23
HETATM   23  C10 UNL     1     144.154  16.068 -81.945  1.00  0.00     0.167 C 
BRANCH  23  24
HETATM   24  O3  UNL     1     144.263  16.414 -83.263  1.00  0.00    -0.391 OA
ATOM     25  H3  UNL     1     143.765  15.859 -83.852  1.00  0.00     0.210 HD
ENDBRANCH  23  24
BRANCH  23  26
HETATM   26  C11 UNL     1     143.942  17.217 -81.068  1.00  0.00     0.179 C 
BRANCH  26  27
HETATM   27  O4  UNL     1     144.904  18.201 -81.313  1.00  0.00    -0.390 OA
ATOM     28  H4  UNL     1     145.436  18.344 -80.539  1.00  0.00     0.210 HD
ENDBRANCH  26  27
BRANCH  26  29
HETATM   29  C12 UNL     1     143.707  17.085 -79.629  1.00  0.00     0.173 C 
BRANCH  29  30
HETATM   30  O5  UNL     1     142.393  16.492 -79.535  1.00  0.00    -0.391 OA
ATOM     31  H5  UNL     1     142.453  15.907 -78.788  1.00  0.00     0.210 HD
ENDBRANCH  29  30
BRANCH  29  32
HETATM   32  C13 UNL     1     143.512  18.387 -78.859  1.00  0.00     0.217 C 
BRANCH  32  33
HETATM   33  O6  UNL     1     143.148  18.069 -77.516  1.00  0.00    -0.280 OA
BRANCH  33  34
HETATM   34  P1  UNL     1     143.157  19.463 -76.574  1.00  0.00     0.422 P 
HETATM   35  O7  UNL     1     144.573  19.882 -76.356  1.00  0.00    -0.617 OA
HETATM   36  O8  UNL     1     142.422  19.217 -75.075  1.00  0.00    -0.617 OA
HETATM   37  O9  UNL     1     142.346  20.740 -77.347  1.00  0.00    -0.617 OA
ENDBRANCH  33  34
ENDBRANCH  32  33
ENDBRANCH  29  32
ENDBRANCH  26  29
ENDBRANCH  23  26
ENDBRANCH  22  23
ENDBRANCH  17  22
TORSDOF 10
ENDMDL
