MODEL 7
REMARK VINA RESULT: -9.890108773      3.206      7.321
REMARK  10 active torsions:
REMARK  status: ('A' for Active; 'I' for Inactive)
REMARK    1  A    between atoms: N4_17  and  C9_18 
REMARK    2  A    between atoms: C9_18  and  C10_19 
REMARK    3  A    between atoms: C10_19  and  O3_20 
REMARK    4  A    between atoms: C10_19  and  C11_22 
REMARK    5  A    between atoms: C11_22  and  O4_23 
REMARK    6  A    between atoms: C11_22  and  C12_25 
REMARK    7  A    between atoms: C12_25  and  O5_26 
REMARK    8  A    between atoms: C12_25  and  C13_28 
REMARK    9  A    between atoms: C13_28  and  O6_29 
REMARK   10  A    between atoms: O6_29  and  P1_30 
ROOT
HETATM    1  C1  UNL     1     141.504  11.701 -78.128  1.00  0.00     0.049 C 
HETATM    2  C2  UNL     1     142.338  12.843 -78.575  1.00  0.00    -0.054 A 
HETATM    3  C3  UNL     1     142.398  14.006 -77.839  1.00  0.00     0.039 A 
HETATM    4  C4  UNL     1     143.169  15.089 -78.234  1.00  0.00     0.060 A 
HETATM    5  N1  UNL     1     143.193  16.197 -77.472  1.00  0.00    -0.347 N 
ATOM      6  H1  UNL     1     142.641  16.231 -76.614  1.00  0.00     0.166 HD
HETATM    7  C5  UNL     1     143.933  17.255 -77.825  1.00  0.00     0.146 A 
HETATM    8  C6  UNL     1     143.992  18.431 -77.068  1.00  0.00     0.280 A 
HETATM    9  O1  UNL     1     143.322  18.479 -76.020  1.00  0.00    -0.265 OA
HETATM   10  N2  UNL     1     144.764  19.464 -77.488  1.00  0.00    -0.273 N 
ATOM     11  H2  UNL     1     144.810  20.323 -76.939  1.00  0.00     0.173 HD
HETATM   12  C7  UNL     1     145.468  19.357 -78.628  1.00  0.00     0.328 A 
HETATM   13  O2  UNL     1     146.164  20.352 -78.961  1.00  0.00    -0.247 OA
HETATM   14  N3  UNL     1     145.439  18.229 -79.398  1.00  0.00    -0.292 N 
ATOM     15  H3  UNL     1     145.991  18.195 -80.255  1.00  0.00     0.172 HD
HETATM   16  C8  UNL     1     144.701  17.165 -79.049  1.00  0.00     0.145 A 
HETATM   17  N4  UNL     1     144.645  16.018 -79.793  1.00  0.00    -0.327 N 
HETATM   18  C14 UNL     1     143.898  14.965 -79.423  1.00  0.00     0.063 A 
HETATM   19  C15 UNL     1     143.844  13.803 -80.167  1.00  0.00     0.039 A 
HETATM   20  C16 UNL     1     143.066  12.741 -79.745  1.00  0.00    -0.054 A 
HETATM   21  C17 UNL     1     142.996  11.485 -80.532  1.00  0.00     0.049 C 
ENDROOT
BRANCH  17  22
HETATM   22  C9  UNL     1     145.432  15.980 -81.006  1.00  0.00     0.165 C 
BRANCH  22  23
HETATM   23  C10 UNL     1     144.523  16.404 -82.168  1.00  0.00     0.167 C 
BRANCH  23  24
HETATM   24  O3  UNL     1     143.195  16.445 -81.848  1.00  0.00    -0.391 OA
ATOM     25  H3  UNL     1     142.660  15.830 -82.336  1.00  0.00     0.210 HD
ENDBRANCH  23  24
BRANCH  23  26
HETATM   26  C11 UNL     1     144.788  15.699 -83.420  1.00  0.00     0.179 C 
BRANCH  26  27
HETATM   27  O4  UNL     1     143.818  16.019 -84.374  1.00  0.00    -0.390 OA
ATOM     28  H4  UNL     1     143.005  15.562 -84.185  1.00  0.00     0.210 HD
ENDBRANCH  26  27
BRANCH  26  29
HETATM   29  C12 UNL     1     145.101  14.270 -83.475  1.00  0.00     0.173 C 
BRANCH  29  30
HETATM   30  O5  UNL     1     146.341  14.204 -84.215  1.00  0.00    -0.391 OA
ATOM     31  H5  UNL     1     146.435  15.070 -84.594  1.00  0.00     0.210 HD
ENDBRANCH  29  30
BRANCH  29  32
HETATM   32  C13 UNL     1     144.182  13.414 -84.341  1.00  0.00     0.217 C 
BRANCH  32  33
HETATM   33  O6  UNL     1     144.263  12.062 -83.890  1.00  0.00    -0.280 OA
BRANCH  33  34
HETATM   34  P1  UNL     1     145.554  11.285 -84.638  1.00  0.00     0.422 P 
HETATM   35  O7  UNL     1     145.850  11.980 -85.925  1.00  0.00    -0.617 OA
HETATM   36  O8  UNL     1     145.216   9.663 -84.958  1.00  0.00    -0.617 OA
HETATM   37  O9  UNL     1     146.955  11.343 -83.678  1.00  0.00    -0.617 OA
ENDBRANCH  33  34
ENDBRANCH  32  33
ENDBRANCH  29  32
ENDBRANCH  26  29
ENDBRANCH  23  26
ENDBRANCH  22  23
ENDBRANCH  17  22
TORSDOF 10
ENDMDL
