MODEL 5
REMARK VINA RESULT: -10.011603203      2.267      4.654
REMARK  10 active torsions:
REMARK  status: ('A' for Active; 'I' for Inactive)
REMARK    1  A    between atoms: N4_17  and  C9_18 
REMARK    2  A    between atoms: C9_18  and  C10_19 
REMARK    3  A    between atoms: C10_19  and  O3_20 
REMARK    4  A    between atoms: C10_19  and  C11_22 
REMARK    5  A    between atoms: C11_22  and  O4_23 
REMARK    6  A    between atoms: C11_22  and  C12_25 
REMARK    7  A    between atoms: C12_25  and  O5_26 
REMARK    8  A    between atoms: C12_25  and  C13_28 
REMARK    9  A    between atoms: C13_28  and  O6_29 
REMARK   10  A    between atoms: O6_29  and  P1_30 
ROOT
HETATM    1  C1  UNL     1     145.755  10.775 -85.041  1.00  0.00     0.049 C 
HETATM    2  C2  UNL     1     145.401  11.648 -83.895  1.00  0.00    -0.054 A 
HETATM    3  C3  UNL     1     144.566  11.199 -82.895  1.00  0.00     0.039 A 
HETATM    4  C4  UNL     1     144.220  11.995 -81.813  1.00  0.00     0.060 A 
HETATM    5  N1  UNL     1     143.405  11.501 -80.863  1.00  0.00    -0.347 N 
ATOM      6  H1  UNL     1     143.047  10.550 -80.950  1.00  0.00     0.166 HD
HETATM    7  C5  UNL     1     143.059  12.244 -79.805  1.00  0.00     0.146 A 
HETATM    8  C6  UNL     1     142.215  11.778 -78.790  1.00  0.00     0.280 A 
HETATM    9  O1  UNL     1     141.775  10.619 -78.890  1.00  0.00    -0.265 OA
HETATM   10  N2  UNL     1     141.907  12.588 -77.746  1.00  0.00    -0.273 N 
ATOM     11  H2  UNL     1     141.291  12.252 -77.005  1.00  0.00     0.173 HD
HETATM   12  C7  UNL     1     142.411  13.833 -77.688  1.00  0.00     0.328 A 
HETATM   13  O2  UNL     1     142.086  14.532 -76.693  1.00  0.00    -0.247 OA
HETATM   14  N3  UNL     1     143.238  14.328 -78.656  1.00  0.00    -0.292 N 
ATOM     15  H3  UNL     1     143.596  15.279 -78.569  1.00  0.00     0.172 HD
HETATM   16  C8  UNL     1     143.589  13.589 -79.719  1.00  0.00     0.145 A 
HETATM   17  N4  UNL     1     144.415  14.049 -80.709  1.00  0.00    -0.327 N 
HETATM   18  C14 UNL     1     144.752  13.289 -81.764  1.00  0.00     0.063 A 
HETATM   19  C15 UNL     1     145.590  13.746 -82.762  1.00  0.00     0.039 A 
HETATM   20  C16 UNL     1     145.916  12.928 -83.827  1.00  0.00    -0.054 A 
HETATM   21  C17 UNL     1     146.815  13.403 -84.909  1.00  0.00     0.049 C 
ENDROOT
BRANCH  17  22
HETATM   22  C9  UNL     1     144.917  15.399 -80.574  1.00  0.00     0.165 C 
BRANCH  22  23
HETATM   23  C10 UNL     1     143.709  16.340 -80.471  1.00  0.00     0.167 C 
BRANCH  23  24
HETATM   24  O3  UNL     1     142.688  16.031 -81.326  1.00  0.00    -0.391 OA
ATOM     25  H3  UNL     1     142.472  16.725 -81.938  1.00  0.00     0.210 HD
ENDBRANCH  23  24
BRANCH  23  26
HETATM   26  C11 UNL     1     144.056  17.759 -80.485  1.00  0.00     0.179 C 
BRANCH  26  27
HETATM   27  O4  UNL     1     144.856  18.054 -81.593  1.00  0.00    -0.390 OA
ATOM     28  H4  UNL     1     145.582  18.612 -81.338  1.00  0.00     0.210 HD
ENDBRANCH  26  27
BRANCH  26  29
HETATM   29  C12 UNL     1     144.548  18.468 -79.302  1.00  0.00     0.173 C 
BRANCH  29  30
HETATM   30  O5  UNL     1     145.981  18.510 -79.480  1.00  0.00    -0.391 OA
ATOM     31  H5  UNL     1     146.314  18.800 -78.639  1.00  0.00     0.210 HD
ENDBRANCH  29  30
BRANCH  29  32
HETATM   32  C13 UNL     1     144.425  17.725 -77.975  1.00  0.00     0.217 C 
BRANCH  32  33
HETATM   33  O6  UNL     1     143.125  17.966 -77.439  1.00  0.00    -0.280 OA
BRANCH  33  34
HETATM   34  P1  UNL     1     143.097  19.450 -76.648  1.00  0.00     0.422 P 
HETATM   35  O7  UNL     1     144.495  19.824 -76.284  1.00  0.00    -0.617 OA
HETATM   36  O8  UNL     1     142.161  19.400 -75.244  1.00  0.00    -0.617 OA
HETATM   37  O9  UNL     1     142.470  20.674 -77.646  1.00  0.00    -0.617 OA
ENDBRANCH  33  34
ENDBRANCH  32  33
ENDBRANCH  29  32
ENDBRANCH  26  29
ENDBRANCH  23  26
ENDBRANCH  22  23
ENDBRANCH  17  22
TORSDOF 10
ENDMDL
