MODEL 3
REMARK VINA RESULT: -10.409873395      1.712      1.849
REMARK  10 active torsions:
REMARK  status: ('A' for Active; 'I' for Inactive)
REMARK    1  A    between atoms: N4_17  and  C9_18 
REMARK    2  A    between atoms: C9_18  and  C10_19 
REMARK    3  A    between atoms: C10_19  and  O3_20 
REMARK    4  A    between atoms: C10_19  and  C11_22 
REMARK    5  A    between atoms: C11_22  and  O4_23 
REMARK    6  A    between atoms: C11_22  and  C12_25 
REMARK    7  A    between atoms: C12_25  and  O5_26 
REMARK    8  A    between atoms: C12_25  and  C13_28 
REMARK    9  A    between atoms: C13_28  and  O6_29 
REMARK   10  A    between atoms: O6_29  and  P1_30 
ROOT
HETATM    1  C1  UNL     1     142.543  10.660 -78.512  1.00  0.00     0.049 C 
HETATM    2  C2  UNL     1     142.824  11.792 -79.427  1.00  0.00    -0.054 A 
HETATM    3  C3  UNL     1     143.169  11.571 -80.743  1.00  0.00     0.039 A 
HETATM    4  C4  UNL     1     143.438  12.611 -81.619  1.00  0.00     0.060 A 
HETATM    5  N1  UNL     1     143.763  12.335 -82.895  1.00  0.00    -0.347 N 
ATOM      6  H1  UNL     1     143.814  11.364 -83.203  1.00  0.00     0.166 HD
HETATM    7  C5  UNL     1     144.022  13.319 -83.764  1.00  0.00     0.146 A 
HETATM    8  C6  UNL     1     144.365  13.085 -85.101  1.00  0.00     0.280 A 
HETATM    9  O1  UNL     1     144.429  11.902 -85.484  1.00  0.00    -0.265 OA
HETATM   10  N2  UNL     1     144.614  14.132 -85.925  1.00  0.00    -0.273 N 
ATOM     11  H2  UNL     1     144.865  13.966 -86.900  1.00  0.00     0.173 HD
HETATM   12  C7  UNL     1     144.531  15.391 -85.459  1.00  0.00     0.328 A 
HETATM   13  O2  UNL     1     144.774  16.317 -86.276  1.00  0.00    -0.247 OA
HETATM   14  N3  UNL     1     144.200  15.665 -84.162  1.00  0.00    -0.292 N 
ATOM     15  H3  UNL     1     144.149  16.636 -83.854  1.00  0.00     0.172 HD
HETATM   16  C8  UNL     1     143.939  14.683 -83.286  1.00  0.00     0.145 A 
HETATM   17  N4  UNL     1     143.604  14.917 -81.980  1.00  0.00    -0.327 N 
HETATM   18  C14 UNL     1     143.347  13.917 -81.122  1.00  0.00     0.063 A 
HETATM   19  C15 UNL     1     143.002  14.148 -79.804  1.00  0.00     0.039 A 
HETATM   20  C16 UNL     1     142.740  13.089 -78.956  1.00  0.00    -0.054 A 
HETATM   21  C17 UNL     1     142.368  13.318 -77.538  1.00  0.00     0.049 C 
ENDROOT
BRANCH  17  22
HETATM   22  C9  UNL     1     143.534  16.298 -81.554  1.00  0.00     0.165 C 
BRANCH  22  23
HETATM   23  C10 UNL     1     144.972  16.813 -81.398  1.00  0.00     0.167 C 
BRANCH  23  24
HETATM   24  O3  UNL     1     145.910  15.823 -81.301  1.00  0.00    -0.391 OA
ATOM     25  H3  UNL     1     146.807  16.135 -81.339  1.00  0.00     0.210 HD
ENDBRANCH  23  24
BRANCH  23  26
HETATM   26  C11 UNL     1     145.127  17.849 -80.380  1.00  0.00     0.179 C 
BRANCH  26  27
HETATM   27  O4  UNL     1     145.384  19.085 -80.979  1.00  0.00    -0.390 OA
ATOM     28  H4  UNL     1     144.581  19.462 -81.319  1.00  0.00     0.210 HD
ENDBRANCH  26  27
BRANCH  26  29
HETATM   29  C12 UNL     1     145.965  17.676 -79.192  1.00  0.00     0.173 C 
BRANCH  29  30
HETATM   30  O5  UNL     1     145.388  16.542 -78.509  1.00  0.00    -0.391 OA
ATOM     31  H5  UNL     1     144.696  16.245 -79.089  1.00  0.00     0.210 HD
ENDBRANCH  29  30
BRANCH  29  32
HETATM   32  C13 UNL     1     145.855  18.764 -78.129  1.00  0.00     0.217 C 
BRANCH  32  33
HETATM   33  O6  UNL     1     144.672  19.523 -78.377  1.00  0.00    -0.280 OA
BRANCH  33  34
HETATM   34  P1  UNL     1     143.601  19.350 -77.092  1.00  0.00     0.422 P 
HETATM   35  O7  UNL     1     144.261  19.848 -75.849  1.00  0.00    -0.617 OA
HETATM   36  O8  UNL     1     143.144  17.742 -76.861  1.00  0.00    -0.617 OA
HETATM   37  O9  UNL     1     142.187  20.261 -77.334  1.00  0.00    -0.617 OA
ENDBRANCH  33  34
ENDBRANCH  32  33
ENDBRANCH  29  32
ENDBRANCH  26  29
ENDBRANCH  23  26
ENDBRANCH  22  23
ENDBRANCH  17  22
TORSDOF 10
ENDMDL
