MODEL 2
REMARK VINA RESULT: -10.417896421      0.642      1.201
REMARK  10 active torsions:
REMARK  status: ('A' for Active; 'I' for Inactive)
REMARK    1  A    between atoms: N4_17  and  C9_18 
REMARK    2  A    between atoms: C9_18  and  C10_19 
REMARK    3  A    between atoms: C10_19  and  O3_20 
REMARK    4  A    between atoms: C10_19  and  C11_22 
REMARK    5  A    between atoms: C11_22  and  O4_23 
REMARK    6  A    between atoms: C11_22  and  C12_25 
REMARK    7  A    between atoms: C12_25  and  O5_26 
REMARK    8  A    between atoms: C12_25  and  C13_28 
REMARK    9  A    between atoms: C13_28  and  O6_29 
REMARK   10  A    between atoms: O6_29  and  P1_30 
ROOT
HETATM    1  C1  UNL     1     141.413  10.504 -78.752  1.00  0.00     0.049 C 
HETATM    2  C2  UNL     1     142.330  11.345 -79.559  1.00  0.00    -0.054 A 
HETATM    3  C3  UNL     1     142.819  10.900 -80.768  1.00  0.00     0.039 A 
HETATM    4  C4  UNL     1     143.678  11.666 -81.542  1.00  0.00     0.060 A 
HETATM    5  N1  UNL     1     144.118  11.183 -82.718  1.00  0.00    -0.347 N 
ATOM      6  H1  UNL     1     143.820  10.257 -83.025  1.00  0.00     0.166 HD
HETATM    7  C5  UNL     1     144.943  11.903 -83.488  1.00  0.00     0.146 A 
HETATM    8  C6  UNL     1     145.429  11.446 -84.718  1.00  0.00     0.280 A 
HETATM    9  O1  UNL     1     145.070  10.317 -85.100  1.00  0.00    -0.265 OA
HETATM   10  N2  UNL     1     146.263  12.230 -85.446  1.00  0.00    -0.273 N 
ATOM     11  H2  UNL     1     146.620  11.900 -86.343  1.00  0.00     0.173 HD
HETATM   12  C7  UNL     1     146.619  13.442 -84.985  1.00  0.00     0.328 A 
HETATM   13  O2  UNL     1     147.394  14.119 -85.710  1.00  0.00    -0.247 OA
HETATM   14  N3  UNL     1     146.168  13.928 -83.791  1.00  0.00    -0.292 N 
ATOM     15  H3  UNL     1     146.466  14.853 -83.483  1.00  0.00     0.172 HD
HETATM   16  C8  UNL     1     145.341  13.212 -83.014  1.00  0.00     0.145 A 
HETATM   17  N4  UNL     1     144.868  13.662 -81.812  1.00  0.00    -0.327 N 
HETATM   18  C14 UNL     1     144.040  12.927 -81.052  1.00  0.00     0.063 A 
HETATM   19  C15 UNL     1     143.555  13.380 -79.841  1.00  0.00     0.039 A 
HETATM   20  C16 UNL     1     142.700  12.592 -79.094  1.00  0.00    -0.054 A 
HETATM   21  C17 UNL     1     142.169  13.063 -77.790  1.00  0.00     0.049 C 
ENDROOT
BRANCH  17  22
HETATM   22  C9  UNL     1     145.296  14.977 -81.386  1.00  0.00     0.165 C 
BRANCH  22  23
HETATM   23  C10 UNL     1     144.073  15.903 -81.426  1.00  0.00     0.167 C 
BRANCH  23  24
HETATM   24  O3  UNL     1     143.933  16.591 -82.599  1.00  0.00    -0.391 OA
ATOM     25  H3  UNL     1     143.101  17.041 -82.687  1.00  0.00     0.210 HD
ENDBRANCH  23  24
BRANCH  23  26
HETATM   26  C11 UNL     1     143.929  16.752 -80.245  1.00  0.00     0.179 C 
BRANCH  26  27
HETATM   27  O4  UNL     1     142.606  16.739 -79.794  1.00  0.00    -0.390 OA
ATOM     28  H4  UNL     1     142.404  17.548 -79.338  1.00  0.00     0.210 HD
ENDBRANCH  26  27
BRANCH  26  29
HETATM   29  C12 UNL     1     144.477  18.108 -80.171  1.00  0.00     0.173 C 
BRANCH  29  30
HETATM   30  O5  UNL     1     145.589  18.095 -81.094  1.00  0.00    -0.391 OA
ATOM     31  H5  UNL     1     145.197  17.871 -81.930  1.00  0.00     0.210 HD
ENDBRANCH  29  30
BRANCH  29  32
HETATM   32  C13 UNL     1     145.169  18.481 -78.863  1.00  0.00     0.217 C 
BRANCH  32  33
HETATM   33  O6  UNL     1     144.609  19.704 -78.387  1.00  0.00    -0.280 OA
BRANCH  33  34
HETATM   34  P1  UNL     1     143.585  19.399 -77.088  1.00  0.00     0.422 P 
HETATM   35  O7  UNL     1     144.262  19.837 -75.832  1.00  0.00    -0.617 OA
HETATM   36  O8  UNL     1     143.199  17.761 -76.958  1.00  0.00    -0.617 OA
HETATM   37  O9  UNL     1     142.129  20.264 -77.227  1.00  0.00    -0.617 OA
ENDBRANCH  33  34
ENDBRANCH  32  33
ENDBRANCH  29  32
ENDBRANCH  26  29
ENDBRANCH  23  26
ENDBRANCH  22  23
ENDBRANCH  17  22
TORSDOF 10
ENDMDL
