MODEL 19
REMARK VINA RESULT: -9.065309156      1.975      2.278
REMARK  10 active torsions:
REMARK  status: ('A' for Active; 'I' for Inactive)
REMARK    1  A    between atoms: N4_17  and  C9_18 
REMARK    2  A    between atoms: C9_18  and  C10_19 
REMARK    3  A    between atoms: C10_19  and  O3_20 
REMARK    4  A    between atoms: C10_19  and  C11_22 
REMARK    5  A    between atoms: C11_22  and  O4_23 
REMARK    6  A    between atoms: C11_22  and  C12_25 
REMARK    7  A    between atoms: C12_25  and  O5_26 
REMARK    8  A    between atoms: C12_25  and  C13_28 
REMARK    9  A    between atoms: C13_28  and  O6_29 
REMARK   10  A    between atoms: O6_29  and  P1_30 
ROOT
HETATM    1  C1  UNL     1     141.832  10.265 -79.035  1.00  0.00     0.049 C 
HETATM    2  C2  UNL     1     142.429  11.397 -79.784  1.00  0.00    -0.054 A 
HETATM    3  C3  UNL     1     142.432  11.409 -81.162  1.00  0.00     0.039 A 
HETATM    4  C4  UNL     1     142.984  12.455 -81.887  1.00  0.00     0.060 A 
HETATM    5  N1  UNL     1     142.954  12.416 -83.231  1.00  0.00    -0.347 N 
ATOM      6  H1  UNL     1     142.531  11.617 -83.703  1.00  0.00     0.166 HD
HETATM    7  C5  UNL     1     143.473  13.414 -83.957  1.00  0.00     0.146 A 
HETATM    8  C6  UNL     1     143.467  13.421 -85.357  1.00  0.00     0.280 A 
HETATM    9  O1  UNL     1     142.952  12.449 -85.939  1.00  0.00    -0.265 OA
HETATM   10  N2  UNL     1     144.012  14.467 -86.027  1.00  0.00    -0.273 N 
ATOM     11  H2  UNL     1     144.010  14.476 -87.047  1.00  0.00     0.173 HD
HETATM   12  C7  UNL     1     144.556  15.492 -85.347  1.00  0.00     0.328 A 
HETATM   13  O2  UNL     1     145.044  16.431 -86.029  1.00  0.00    -0.247 OA
HETATM   14  N3  UNL     1     144.583  15.526 -83.982  1.00  0.00    -0.292 N 
ATOM     15  H3  UNL     1     145.006  16.325 -83.510  1.00  0.00     0.172 HD
HETATM   16  C8  UNL     1     144.064  14.530 -83.248  1.00  0.00     0.145 A 
HETATM   17  N4  UNL     1     144.072  14.526 -81.880  1.00  0.00    -0.327 N 
HETATM   18  C14 UNL     1     143.546  13.517 -81.168  1.00  0.00     0.063 A 
HETATM   19  C15 UNL     1     143.546  13.512 -79.787  1.00  0.00     0.039 A 
HETATM   20  C16 UNL     1     142.988  12.455 -79.093  1.00  0.00    -0.054 A 
HETATM   21  C17 UNL     1     142.979  12.433 -77.609  1.00  0.00     0.049 C 
ENDROOT
BRANCH  17  22
HETATM   22  C9  UNL     1     144.674  15.665 -81.222  1.00  0.00     0.165 C 
BRANCH  22  23
HETATM   23  C10 UNL     1     143.584  16.731 -81.040  1.00  0.00     0.167 C 
BRANCH  23  24
HETATM   24  O3  UNL     1     143.837  17.903 -81.695  1.00  0.00    -0.391 OA
ATOM     25  H3  UNL     1     144.759  18.064 -81.858  1.00  0.00     0.210 HD
ENDBRANCH  23  24
BRANCH  23  26
HETATM   26  C11 UNL     1     143.169  16.928 -79.653  1.00  0.00     0.179 C 
BRANCH  26  27
HETATM   27  O4  UNL     1     143.149  18.290 -79.340  1.00  0.00    -0.390 OA
ATOM     28  H4  UNL     1     142.323  18.679 -79.605  1.00  0.00     0.210 HD
ENDBRANCH  26  27
BRANCH  26  29
HETATM   29  C12 UNL     1     143.729  16.160 -78.540  1.00  0.00     0.173 C 
BRANCH  29  30
HETATM   30  O5  UNL     1     142.588  15.857 -77.705  1.00  0.00    -0.391 OA
ATOM     31  H5  UNL     1     142.936  15.284 -77.032  1.00  0.00     0.210 HD
ENDBRANCH  29  30
BRANCH  29  32
HETATM   32  C13 UNL     1     144.620  16.933 -77.573  1.00  0.00     0.217 C 
BRANCH  32  33
HETATM   33  O6  UNL     1     145.858  17.215 -78.224  1.00  0.00    -0.280 OA
BRANCH  33  34
HETATM   34  P1  UNL     1     146.072  18.878 -78.353  1.00  0.00     0.422 P 
HETATM   35  O7  UNL     1     147.488  19.206 -78.017  1.00  0.00    -0.617 OA
HETATM   36  O8  UNL     1     145.052  19.729 -77.311  1.00  0.00    -0.617 OA
HETATM   37  O9  UNL     1     145.770  19.423 -79.934  1.00  0.00    -0.617 OA
ENDBRANCH  33  34
ENDBRANCH  32  33
ENDBRANCH  29  32
ENDBRANCH  26  29
ENDBRANCH  23  26
ENDBRANCH  22  23
ENDBRANCH  17  22
TORSDOF 10
ENDMDL
