MODEL 6
REMARK VINA RESULT: -4.785730227      2.911      3.783
REMARK  6 active torsions:
REMARK  status: ('A' for Active; 'I' for Inactive)
REMARK       I    between atoms: C2_2  and  N1_4 
REMARK    1  A    between atoms: N1_4  and  C3_6 
REMARK    2  A    between atoms: C4_7  and  O2_8 
REMARK    3  A    between atoms: C5_11  and  C6_12 
REMARK    4  A    between atoms: C6_12  and  O4_13 
REMARK    5  A    between atoms: C7_15  and  O5_16 
REMARK    6  A    between atoms: C8_18  and  O6_19 
ROOT
HETATM    1  C3  UNL     1      23.746  -1.329  -0.595  1.00  0.00     0.170 C 
HETATM    2  C4  UNL     1      23.518  -1.171  -2.101  1.00  0.00     0.282 C 
HETATM    3  O3  UNL     1      22.248  -0.605  -2.222  1.00  0.00    -0.349 OA
HETATM    4  C5  UNL     1      21.328  -1.577  -1.931  1.00  0.00     0.179 C 
HETATM    5  C7  UNL     1      21.473  -2.194  -0.578  1.00  0.00     0.180 C 
HETATM    6  C8  UNL     1      22.903  -2.523  -0.215  1.00  0.00     0.177 C 
ENDROOT
BRANCH   1   7
HETATM    7  N1  UNL     1      25.136  -1.496  -0.321  1.00  0.00    -0.349 N 
HETATM    8  C2  UNL     1      26.009  -0.402  -0.078  1.00  0.00     0.214 C 
HETATM    9  C1  UNL     1      27.466  -0.583   0.209  1.00  0.00     0.117 C 
HETATM   10  O1  UNL     1      25.481   0.751  -0.117  1.00  0.00    -0.274 OA
ATOM     11  H1  UNL     1      25.519  -2.441  -0.299  1.00  0.00     0.163 HD
ENDBRANCH   1   7
BRANCH   2  12
HETATM   12  O2  UNL     1      23.444  -2.437  -2.688  1.00  0.00    -0.369 OA
ATOM     13  H2  UNL     1      22.928  -2.381  -3.483  1.00  0.00     0.212 HD
ENDBRANCH   2  12
BRANCH   6  14
HETATM   14  O6  UNL     1      22.943  -2.814   1.132  1.00  0.00    -0.391 OA
ATOM     15  H6  UNL     1      22.228  -3.369   1.418  1.00  0.00     0.210 HD
ENDBRANCH   6  14
BRANCH   5  16
HETATM   16  O5  UNL     1      20.876  -1.430   0.428  1.00  0.00    -0.390 OA
ATOM     17  H5  UNL     1      20.642  -1.947   1.190  1.00  0.00     0.210 HD
ENDBRANCH   5  16
BRANCH   4  18
HETATM   18  C6  UNL     1      19.903  -1.041  -2.039  1.00  0.00     0.198 C 
BRANCH  18  19
HETATM   19  O4  UNL     1      19.864  -0.190  -3.137  1.00  0.00    -0.398 OA
ATOM     20  H4  UNL     1      19.165   0.436  -2.984  1.00  0.00     0.209 HD
ENDBRANCH  18  19
ENDBRANCH   4  18
TORSDOF 6
ENDMDL
