MODEL 20
REMARK VINA RESULT: -3.974569903      1.805      2.645
REMARK  6 active torsions:
REMARK  status: ('A' for Active; 'I' for Inactive)
REMARK       I    between atoms: C2_2  and  N1_4 
REMARK    1  A    between atoms: N1_4  and  C3_6 
REMARK    2  A    between atoms: C4_7  and  O2_8 
REMARK    3  A    between atoms: C5_11  and  C6_12 
REMARK    4  A    between atoms: C6_12  and  O4_13 
REMARK    5  A    between atoms: C7_15  and  O5_16 
REMARK    6  A    between atoms: C8_18  and  O6_19 
ROOT
HETATM    1  C3  UNL     1      21.971  -2.095  -4.227  1.00  0.00     0.170 C 
HETATM    2  C4  UNL     1      21.721  -3.294  -3.309  1.00  0.00     0.282 C 
HETATM    3  O3  UNL     1      20.629  -2.930  -2.519  1.00  0.00    -0.349 OA
HETATM    4  C5  UNL     1      21.063  -2.004  -1.608  1.00  0.00     0.179 C 
HETATM    5  C7  UNL     1      21.679  -0.780  -2.202  1.00  0.00     0.180 C 
HETATM    6  C8  UNL     1      22.637  -1.075  -3.334  1.00  0.00     0.177 C 
ENDROOT
BRANCH   1   7
HETATM    7  N1  UNL     1      22.765  -2.486  -5.345  1.00  0.00    -0.349 N 
HETATM    8  C2  UNL     1      22.660  -1.866  -6.619  1.00  0.00     0.214 C 
HETATM    9  C1  UNL     1      23.496  -2.281  -7.788  1.00  0.00     0.117 C 
HETATM   10  O1  UNL     1      21.809  -0.930  -6.714  1.00  0.00    -0.274 OA
ATOM     11  H1  UNL     1      23.438  -3.244  -5.224  1.00  0.00     0.163 HD
ENDBRANCH   1   7
BRANCH   2  12
HETATM   12  O2  UNL     1      22.807  -3.439  -2.440  1.00  0.00    -0.369 OA
ATOM     13  H2  UNL     1      23.136  -4.327  -2.499  1.00  0.00     0.212 HD
ENDBRANCH   2  12
BRANCH   6  14
HETATM   14  O6  UNL     1      22.916   0.113  -3.975  1.00  0.00    -0.391 OA
ATOM     15  H6  UNL     1      23.477   0.690  -3.471  1.00  0.00     0.210 HD
ENDBRANCH   6  14
BRANCH   5  16
HETATM   16  O5  UNL     1      20.728   0.163  -2.599  1.00  0.00    -0.390 OA
ATOM     17  H5  UNL     1      20.173  -0.151  -3.303  1.00  0.00     0.210 HD
ENDBRANCH   5  16
BRANCH   4  18
HETATM   18  C6  UNL     1      19.926  -1.548  -0.698  1.00  0.00     0.198 C 
BRANCH  18  19
HETATM   19  O4  UNL     1      19.981  -2.323   0.454  1.00  0.00    -0.398 OA
ATOM     20  H4  UNL     1      20.528  -1.861   1.079  1.00  0.00     0.209 HD
ENDBRANCH  18  19
ENDBRANCH   4  18
TORSDOF 6
ENDMDL
