MODEL 5
REMARK VINA RESULT: -4.791195645      1.878      3.202
REMARK  6 active torsions:
REMARK  status: ('A' for Active; 'I' for Inactive)
REMARK       I    between atoms: C2_2  and  N1_4 
REMARK    1  A    between atoms: N1_4  and  C3_6 
REMARK    2  A    between atoms: C4_7  and  O2_8 
REMARK    3  A    between atoms: C5_11  and  C6_12 
REMARK    4  A    between atoms: C6_12  and  O4_13 
REMARK    5  A    between atoms: C7_15  and  O5_16 
REMARK    6  A    between atoms: C8_18  and  O6_19 
ROOT
HETATM    1  C3  UNL     1      21.669  -1.411  -3.775  1.00  0.00     0.170 C 
HETATM    2  C4  UNL     1      23.159  -1.348  -3.428  1.00  0.00     0.282 C 
HETATM    3  O3  UNL     1      23.334  -2.272  -2.396  1.00  0.00    -0.349 OA
HETATM    4  C5  UNL     1      22.791  -1.736  -1.259  1.00  0.00     0.179 C 
HETATM    5  C7  UNL     1      21.345  -1.374  -1.364  1.00  0.00     0.180 C 
HETATM    6  C8  UNL     1      20.994  -0.662  -2.650  1.00  0.00     0.177 C 
ENDROOT
BRANCH   1   7
HETATM    7  N1  UNL     1      21.438  -0.846  -5.063  1.00  0.00    -0.349 N 
HETATM    8  C2  UNL     1      20.458  -1.349  -5.961  1.00  0.00     0.214 C 
HETATM    9  C1  UNL     1      20.221  -0.752  -7.312  1.00  0.00     0.117 C 
HETATM   10  O1  UNL     1      19.788  -2.345  -5.551  1.00  0.00    -0.274 OA
ATOM     11  H1  UNL     1      22.001  -0.045  -5.352  1.00  0.00     0.163 HD
ENDBRANCH   1   7
BRANCH   2  12
HETATM   12  O2  UNL     1      23.451  -0.093  -2.888  1.00  0.00    -0.369 OA
ATOM     13  H2  UNL     1      23.755   0.480  -3.581  1.00  0.00     0.212 HD
ENDBRANCH   2  12
BRANCH   6  14
HETATM   14  O6  UNL     1      19.620  -0.635  -2.760  1.00  0.00    -0.391 OA
ATOM     15  H6  UNL     1      19.285   0.190  -3.093  1.00  0.00     0.210 HD
ENDBRANCH   6  14
BRANCH   5  16
HETATM   16  O5  UNL     1      20.501  -2.469  -1.165  1.00  0.00    -0.390 OA
ATOM     17  H5  UNL     1      19.589  -2.264  -1.335  1.00  0.00     0.210 HD
ENDBRANCH   5  16
BRANCH   4  18
HETATM   18  C6  UNL     1      22.939  -2.686  -0.073  1.00  0.00     0.198 C 
BRANCH  18  19
HETATM   19  O4  UNL     1      22.143  -2.192   0.954  1.00  0.00    -0.398 OA
ATOM     20  H4  UNL     1      22.622  -2.314   1.766  1.00  0.00     0.209 HD
ENDBRANCH  18  19
ENDBRANCH   4  18
TORSDOF 6
ENDMDL
