MODEL 3
REMARK VINA RESULT: -4.983969309      1.724      2.924
REMARK  6 active torsions:
REMARK  status: ('A' for Active; 'I' for Inactive)
REMARK       I    between atoms: C2_2  and  N1_4 
REMARK    1  A    between atoms: N1_4  and  C3_6 
REMARK    2  A    between atoms: C4_7  and  O2_8 
REMARK    3  A    between atoms: C5_11  and  C6_12 
REMARK    4  A    between atoms: C6_12  and  O4_13 
REMARK    5  A    between atoms: C7_15  and  O5_16 
REMARK    6  A    between atoms: C8_18  and  O6_19 
ROOT
HETATM    1  C3  UNL     1      21.414  -1.865  -3.265  1.00  0.00     0.170 C 
HETATM    2  C4  UNL     1      22.604  -2.113  -2.333  1.00  0.00     0.282 C 
HETATM    3  O3  UNL     1      22.048  -2.624  -1.158  1.00  0.00    -0.349 OA
HETATM    4  C5  UNL     1      21.430  -1.591  -0.505  1.00  0.00     0.179 C 
HETATM    5  C7  UNL     1      20.372  -0.893  -1.295  1.00  0.00     0.180 C 
HETATM    6  C8  UNL     1      20.773  -0.609  -2.724  1.00  0.00     0.177 C 
ENDROOT
BRANCH   1   7
HETATM    7  N1  UNL     1      21.861  -1.748  -4.614  1.00  0.00    -0.349 N 
HETATM    8  C2  UNL     1      21.040  -2.069  -5.728  1.00  0.00     0.214 C 
HETATM    9  C1  UNL     1      21.515  -1.944  -7.142  1.00  0.00     0.117 C 
HETATM   10  O1  UNL     1      19.868  -2.473  -5.457  1.00  0.00    -0.274 OA
ATOM     11  H1  UNL     1      22.812  -1.419  -4.787  1.00  0.00     0.163 HD
ENDBRANCH   1   7
BRANCH   2  12
HETATM   12  O2  UNL     1      23.184  -0.887  -1.995  1.00  0.00    -0.369 OA
ATOM     13  H2  UNL     1      24.093  -0.888  -2.268  1.00  0.00     0.212 HD
ENDBRANCH   2  12
BRANCH   6  14
HETATM   14  O6  UNL     1      19.643  -0.231  -3.417  1.00  0.00    -0.391 OA
ATOM     15  H6  UNL     1      19.445   0.695  -3.337  1.00  0.00     0.210 HD
ENDBRANCH   6  14
BRANCH   5  16
HETATM   16  O5  UNL     1      19.144  -1.557  -1.255  1.00  0.00    -0.390 OA
ATOM     17  H5  UNL     1      19.070  -2.231  -1.920  1.00  0.00     0.210 HD
ENDBRANCH   5  16
BRANCH   4  18
HETATM   18  C6  UNL     1      20.791  -2.063   0.798  1.00  0.00     0.198 C 
BRANCH  18  19
HETATM   19  O4  UNL     1      20.047  -1.003   1.302  1.00  0.00    -0.398 OA
ATOM     20  H4  UNL     1      19.474  -1.354   1.974  1.00  0.00     0.209 HD
ENDBRANCH  18  19
ENDBRANCH   4  18
TORSDOF 6
ENDMDL
