MODEL 2
REMARK VINA RESULT: -5.147506641      1.754      2.866
REMARK  6 active torsions:
REMARK  status: ('A' for Active; 'I' for Inactive)
REMARK       I    between atoms: C2_2  and  N1_4 
REMARK    1  A    between atoms: N1_4  and  C3_6 
REMARK    2  A    between atoms: C4_7  and  O2_8 
REMARK    3  A    between atoms: C5_11  and  C6_12 
REMARK    4  A    between atoms: C6_12  and  O4_13 
REMARK    5  A    between atoms: C7_15  and  O5_16 
REMARK    6  A    between atoms: C8_18  and  O6_19 
ROOT
HETATM    1  C3  UNL     1      21.794  -2.230  -3.084  1.00  0.00     0.170 C 
HETATM    2  C4  UNL     1      22.610  -2.229  -1.788  1.00  0.00     0.282 C 
HETATM    3  O3  UNL     1      21.681  -2.450  -0.770  1.00  0.00    -0.349 OA
HETATM    4  C5  UNL     1      20.956  -1.299  -0.609  1.00  0.00     0.179 C 
HETATM    5  C7  UNL     1      20.248  -0.826  -1.836  1.00  0.00     0.180 C 
HETATM    6  C8  UNL     1      21.098  -0.889  -3.085  1.00  0.00     0.177 C 
ENDROOT
BRANCH   1   7
HETATM    7  N1  UNL     1      22.650  -2.434  -4.206  1.00  0.00    -0.349 N 
HETATM    8  C2  UNL     1      22.225  -3.098  -5.388  1.00  0.00     0.214 C 
HETATM    9  C1  UNL     1      23.128  -3.310  -6.562  1.00  0.00     0.117 C 
HETATM   10  O1  UNL     1      21.024  -3.507  -5.395  1.00  0.00    -0.274 OA
ATOM     11  H1  UNL     1      23.609  -2.089  -4.157  1.00  0.00     0.163 HD
ENDBRANCH   1   7
BRANCH   2  12
HETATM   12  O2  UNL     1      23.132  -0.950  -1.576  1.00  0.00    -0.369 OA
ATOM     13  H2  UNL     1      22.425  -0.361  -1.341  1.00  0.00     0.212 HD
ENDBRANCH   2  12
BRANCH   6  14
HETATM   14  O6  UNL     1      20.271  -0.705  -4.172  1.00  0.00    -0.391 OA
ATOM     15  H6  UNL     1      19.504  -0.179  -3.976  1.00  0.00     0.210 HD
ENDBRANCH   6  14
BRANCH   5  16
HETATM   16  O5  UNL     1      19.030  -1.479  -2.040  1.00  0.00    -0.390 OA
ATOM     17  H5  UNL     1      18.282  -0.928  -1.842  1.00  0.00     0.210 HD
ENDBRANCH   5  16
BRANCH   4  18
HETATM   18  C6  UNL     1      19.910  -1.453   0.491  1.00  0.00     0.198 C 
BRANCH  18  19
HETATM   19  O4  UNL     1      20.500  -2.169   1.526  1.00  0.00    -0.398 OA
ATOM     20  H4  UNL     1      19.807  -2.637   1.978  1.00  0.00     0.209 HD
ENDBRANCH  18  19
ENDBRANCH   4  18
TORSDOF 6
ENDMDL
