MODEL 8
REMARK VINA RESULT: -4.504530796      2.367      5.394
REMARK  6 active torsions:
REMARK  status: ('A' for Active; 'I' for Inactive)
REMARK       I    between atoms: C2_2  and  N1_4 
REMARK    1  A    between atoms: N1_4  and  C3_6 
REMARK    2  A    between atoms: C4_7  and  O2_8 
REMARK    3  A    between atoms: C5_11  and  C6_12 
REMARK    4  A    between atoms: C6_12  and  O4_13 
REMARK    5  A    between atoms: C7_15  and  O5_16 
REMARK    6  A    between atoms: C8_18  and  O6_19 
ROOT
HETATM    1  C3  UNL     1      21.005  -1.936  -3.311  1.00  0.00     0.170 C 
HETATM    2  C4  UNL     1      22.481  -1.708  -3.650  1.00  0.00     0.282 C 
HETATM    3  O3  UNL     1      22.477  -1.073  -4.893  1.00  0.00    -0.349 OA
HETATM    4  C5  UNL     1      22.145  -2.007  -5.838  1.00  0.00     0.179 C 
HETATM    5  C7  UNL     1      20.831  -2.683  -5.619  1.00  0.00     0.180 C 
HETATM    6  C8  UNL     1      20.599  -3.099  -4.185  1.00  0.00     0.177 C 
ENDROOT
BRANCH   1   7
HETATM    7  N1  UNL     1      20.852  -2.185  -1.915  1.00  0.00    -0.349 N 
HETATM    8  C2  UNL     1      20.244  -1.255  -1.029  1.00  0.00     0.214 C 
HETATM    9  C1  UNL     1      20.087  -1.521   0.435  1.00  0.00     0.117 C 
HETATM   10  O1  UNL     1      19.837  -0.173  -1.552  1.00  0.00    -0.274 OA
ATOM     11  H1  UNL     1      21.195  -3.068  -1.536  1.00  0.00     0.163 HD
ENDBRANCH   1   7
BRANCH   2  12
HETATM   12  O2  UNL     1      23.104  -2.944  -3.839  1.00  0.00    -0.369 OA
ATOM     13  H2  UNL     1      24.009  -2.801  -4.087  1.00  0.00     0.212 HD
ENDBRANCH   2  12
BRANCH   6  14
HETATM   14  O6  UNL     1      19.271  -3.444  -4.052  1.00  0.00    -0.391 OA
ATOM     15  H6  UNL     1      18.864  -3.080  -3.275  1.00  0.00     0.210 HD
ENDBRANCH   6  14
BRANCH   5  16
HETATM   16  O5  UNL     1      19.754  -1.929  -6.091  1.00  0.00    -0.390 OA
ATOM     17  H5  UNL     1      19.082  -2.465  -6.495  1.00  0.00     0.210 HD
ENDBRANCH   5  16
BRANCH   4  18
HETATM   18  C6  UNL     1      22.117  -1.395  -7.236  1.00  0.00     0.198 C 
BRANCH  18  19
HETATM   19  O4  UNL     1      21.772  -0.056  -7.094  1.00  0.00    -0.398 OA
ATOM     20  H4  UNL     1      22.134   0.410  -7.839  1.00  0.00     0.209 HD
ENDBRANCH  18  19
ENDBRANCH   4  18
TORSDOF 6
ENDMDL
