MODEL 9
REMARK VINA RESULT: -4.437742534      2.373      5.011
REMARK  6 active torsions:
REMARK  status: ('A' for Active; 'I' for Inactive)
REMARK       I    between atoms: C2_2  and  N1_4 
REMARK    1  A    between atoms: N1_4  and  C3_6 
REMARK    2  A    between atoms: C4_7  and  O2_8 
REMARK    3  A    between atoms: C5_11  and  C6_12 
REMARK    4  A    between atoms: C6_12  and  O4_13 
REMARK    5  A    between atoms: C7_15  and  O5_16 
REMARK    6  A    between atoms: C8_18  and  O6_19 
ROOT
HETATM    1  C3  UNL     1      21.075  -2.229  -2.600  1.00  0.00     0.170 C 
HETATM    2  C4  UNL     1      20.896  -0.930  -3.392  1.00  0.00     0.282 C 
HETATM    3  O3  UNL     1      20.368  -1.321  -4.624  1.00  0.00    -0.349 OA
HETATM    4  C5  UNL     1      21.375  -1.912  -5.339  1.00  0.00     0.179 C 
HETATM    5  C7  UNL     1      22.012  -3.088  -4.674  1.00  0.00     0.180 C 
HETATM    6  C8  UNL     1      22.303  -2.866  -3.207  1.00  0.00     0.177 C 
ENDROOT
BRANCH   1   7
HETATM    7  N1  UNL     1      21.203  -1.945  -1.209  1.00  0.00    -0.349 N 
HETATM    8  C2  UNL     1      20.082  -1.763  -0.354  1.00  0.00     0.214 C 
HETATM    9  C1  UNL     1      20.222  -1.465   1.105  1.00  0.00     0.117 C 
HETATM   10  O1  UNL     1      18.943  -1.868  -0.902  1.00  0.00    -0.274 OA
ATOM     11  H1  UNL     1      22.139  -1.869  -0.810  1.00  0.00     0.163 HD
ENDBRANCH   1   7
BRANCH   2  12
HETATM   12  O2  UNL     1      22.152  -0.378  -3.657  1.00  0.00    -0.369 OA
ATOM     13  H2  UNL     1      22.178  -0.083  -4.559  1.00  0.00     0.212 HD
ENDBRANCH   2  12
BRANCH   6  14
HETATM   14  O6  UNL     1      22.617  -4.086  -2.647  1.00  0.00    -0.391 OA
ATOM     15  H6  UNL     1      23.370  -4.051  -2.069  1.00  0.00     0.210 HD
ENDBRANCH   6  14
BRANCH   5  16
HETATM   16  O5  UNL     1      21.287  -4.268  -4.856  1.00  0.00    -0.390 OA
ATOM     17  H5  UNL     1      20.526  -4.321  -4.290  1.00  0.00     0.210 HD
ENDBRANCH   5  16
BRANCH   4  18
HETATM   18  C6  UNL     1      20.883  -2.374  -6.709  1.00  0.00     0.198 C 
BRANCH  18  19
HETATM   19  O4  UNL     1      19.508  -2.557  -6.614  1.00  0.00    -0.398 OA
ATOM     20  H4  UNL     1      19.095  -1.875  -7.130  1.00  0.00     0.209 HD
ENDBRANCH  18  19
ENDBRANCH   4  18
TORSDOF 6
ENDMDL
