MODEL 2
REMARK VINA RESULT: -8.553314230      6.231      7.902
REMARK  6 active torsions:
REMARK  status: ('A' for Active; 'I' for Inactive)
REMARK    1  A    between atoms: N2_12  and  C9_13 
REMARK    2  A    between atoms: C9_13  and  C10_14 
REMARK    3  A    between atoms: C10_14  and  O2_15 
REMARK    4  A    between atoms: C10_14  and  C11_17 
REMARK    5  A    between atoms: C11_17  and  C12_18 
REMARK    6  A    between atoms: C16_25  and  O3_26 
ROOT
HETATM    1  C10 UNL     1      12.559  -8.520 -27.454  1.00  0.00     0.138 C 
ENDROOT
BRANCH   1   2
HETATM    2  C9  UNL     1      11.335  -8.473 -28.288  1.00  0.00     0.164 C 
BRANCH   2   3
HETATM    3  N2  UNL     1      10.134  -8.901 -27.657  1.00  0.00    -0.307 N 
HETATM    4  C1  UNL     1       9.291  -8.093 -27.025  1.00  0.00     0.261 A 
HETATM    5  O1  UNL     1       9.528  -6.881 -26.962  1.00  0.00    -0.267 OA
HETATM    6  C2  UNL     1       8.127  -8.528 -26.412  1.00  0.00     0.059 A 
HETATM    7  C3  UNL     1       7.257  -7.679 -25.757  1.00  0.00     0.019 A 
HETATM    8  C7  UNL     1       7.850  -9.877 -26.475  1.00  0.00     0.048 A 
HETATM    9  C4  UNL     1       6.106  -8.129 -25.154  1.00  0.00     0.001 A 
HETATM   10  C5  UNL     1       5.835  -9.477 -25.220  1.00  0.00     0.002 A 
HETATM   11  C6  UNL     1       6.692 -10.338 -25.870  1.00  0.00     0.030 A 
HETATM   12  N1  UNL     1       8.697 -10.699 -27.112  1.00  0.00    -0.351 N 
HETATM   13  C8  UNL     1       9.808 -10.218 -27.686  1.00  0.00     0.186 A 
ATOM     14  H1  UNL     1       8.494 -11.698 -27.160  1.00  0.00     0.166 HD
ENDBRANCH   2   3
ENDBRANCH   1   2
BRANCH   1  15
HETATM   15  O2  UNL     1      12.360  -7.967 -26.196  1.00  0.00    -0.394 OA
ATOM     16  H2  UNL     1      13.082  -8.146 -25.606  1.00  0.00     0.210 HD
ENDBRANCH   1  15
BRANCH   1  17
HETATM   17  C11 UNL     1      13.788  -7.983 -28.060  1.00  0.00     0.069 C 
BRANCH  17  18
HETATM   18  C12 UNL     1      14.598  -7.013 -27.282  1.00  0.00     0.216 C 
HETATM   19  N3  UNL     1      15.351  -7.640 -26.256  1.00  0.00    -0.068 N 
HETATM   20  C13 UNL     1      16.671  -7.959 -26.737  1.00  0.00     0.233 C 
ATOM     21  H32 UNL     1      15.380  -7.077 -25.405  1.00  0.00     0.277 HD
ATOM     22  H31 UNL     1      14.874  -8.458 -25.877  1.00  0.00     0.277 HD
HETATM   23  C14 UNL     1      17.415  -6.618 -26.783  1.00  0.00     0.030 C 
HETATM   24  C15 UNL     1      16.694  -5.650 -27.659  1.00  0.00     0.035 C 
HETATM   25  C16 UNL     1      15.387  -6.125 -28.197  1.00  0.00     0.149 C 
BRANCH  25  26
HETATM   26  O3  UNL     1      15.605  -6.833 -29.382  1.00  0.00    -0.393 OA
ATOM     27  H3  UNL     1      16.487  -6.635 -29.673  1.00  0.00     0.210 HD
ENDBRANCH  25  26
ENDBRANCH  17  18
ENDBRANCH   1  17
TORSDOF 6
ENDMDL
