MODEL 1
REMARK VINA RESULT: -8.734393612      0.000      0.000
REMARK  6 active torsions:
REMARK  status: ('A' for Active; 'I' for Inactive)
REMARK    1  A    between atoms: N2_12  and  C9_13 
REMARK    2  A    between atoms: C9_13  and  C10_14 
REMARK    3  A    between atoms: C10_14  and  O2_15 
REMARK    4  A    between atoms: C10_14  and  C11_17 
REMARK    5  A    between atoms: C11_17  and  C12_18 
REMARK    6  A    between atoms: C16_25  and  O3_26 
ROOT
HETATM    1  C10 UNL     1      16.962  -4.775 -24.887  1.00  0.00     0.138 C 
ENDROOT
BRANCH   1   2
HETATM    2  C9  UNL     1      16.270  -3.594 -25.457  1.00  0.00     0.164 C 
BRANCH   2   3
HETATM    3  N2  UNL     1      15.263  -3.008 -24.639  1.00  0.00    -0.307 N 
HETATM    4  C1  UNL     1      15.508  -2.271 -23.563  1.00  0.00     0.261 A 
HETATM    5  O1  UNL     1      16.675  -2.052 -23.216  1.00  0.00    -0.267 OA
HETATM    6  C2  UNL     1      14.515  -1.710 -22.776  1.00  0.00     0.059 A 
HETATM    7  C3  UNL     1      14.780  -0.945 -21.659  1.00  0.00     0.019 A 
HETATM    8  C7  UNL     1      13.209  -1.945 -23.152  1.00  0.00     0.048 A 
HETATM    9  C4  UNL     1      13.780  -0.397 -20.888  1.00  0.00     0.001 A 
HETATM   10  C5  UNL     1      12.479  -0.635 -21.269  1.00  0.00     0.002 A 
HETATM   11  C6  UNL     1      12.196  -1.396 -22.382  1.00  0.00     0.030 A 
HETATM   12  N1  UNL     1      12.955  -2.689 -24.238  1.00  0.00    -0.351 N 
HETATM   13  C8  UNL     1      13.960  -3.204 -24.959  1.00  0.00     0.186 A 
ATOM     14  H1  UNL     1      11.989  -2.864 -24.517  1.00  0.00     0.166 HD
ENDBRANCH   2   3
ENDBRANCH   1   2
BRANCH   1  15
HETATM   15  O2  UNL     1      18.159  -4.436 -24.271  1.00  0.00    -0.394 OA
ATOM     16  H2  UNL     1      18.401  -5.053 -23.590  1.00  0.00     0.210 HD
ENDBRANCH   1  15
BRANCH   1  17
HETATM   17  C11 UNL     1      17.157  -5.920 -25.791  1.00  0.00     0.069 C 
BRANCH  17  18
HETATM   18  C12 UNL     1      16.606  -7.239 -25.393  1.00  0.00     0.216 C 
HETATM   19  N3  UNL     1      15.489  -7.619 -26.182  1.00  0.00    -0.068 N 
HETATM   20  C13 UNL     1      15.922  -8.427 -27.294  1.00  0.00     0.233 C 
ATOM     21  H32 UNL     1      14.771  -8.084 -25.628  1.00  0.00     0.277 HD
ATOM     22  H31 UNL     1      14.945  -6.811 -26.485  1.00  0.00     0.277 HD
HETATM   23  C14 UNL     1      16.252  -9.797 -26.688  1.00  0.00     0.030 C 
HETATM   24  C15 UNL     1      17.291  -9.662 -25.626  1.00  0.00     0.035 C 
HETATM   25  C16 UNL     1      17.697  -8.265 -25.302  1.00  0.00     0.149 C 
BRANCH  25  26
HETATM   26  O3  UNL     1      18.719  -7.867 -26.169  1.00  0.00    -0.393 OA
ATOM     27  H3  UNL     1      19.541  -7.973 -25.706  1.00  0.00     0.210 HD
ENDBRANCH  25  26
ENDBRANCH  17  18
ENDBRANCH   1  17
TORSDOF 6
ENDMDL
