MODEL 14
REMARK VINA RESULT: -8.084125963      1.177      1.474
REMARK  6 active torsions:
REMARK  status: ('A' for Active; 'I' for Inactive)
REMARK    1  A    between atoms: N2_12  and  C9_13 
REMARK    2  A    between atoms: C9_13  and  C10_14 
REMARK    3  A    between atoms: C10_14  and  O2_15 
REMARK    4  A    between atoms: C10_14  and  C11_17 
REMARK    5  A    between atoms: C11_17  and  C12_18 
REMARK    6  A    between atoms: C16_25  and  O3_26 
ROOT
HETATM    1  C10 UNL     1      16.417  -5.093 -25.000  1.00  0.00     0.138 C 
ENDROOT
BRANCH   1   2
HETATM    2  C9  UNL     1      15.769  -3.860 -25.505  1.00  0.00     0.164 C 
BRANCH   2   3
HETATM    3  N2  UNL     1      15.050  -3.095 -24.544  1.00  0.00    -0.307 N 
HETATM    4  C1  UNL     1      15.617  -2.374 -23.584  1.00  0.00     0.261 A 
HETATM    5  O1  UNL     1      16.850  -2.335 -23.488  1.00  0.00    -0.267 OA
HETATM    6  C2  UNL     1      14.901  -1.638 -22.654  1.00  0.00     0.059 A 
HETATM    7  C3  UNL     1      15.501  -0.892 -21.660  1.00  0.00     0.019 A 
HETATM    8  C7  UNL     1      13.526  -1.672 -22.751  1.00  0.00     0.048 A 
HETATM    9  C4  UNL     1      14.773  -0.167 -20.744  1.00  0.00     0.001 A 
HETATM   10  C5  UNL     1      13.401  -0.205 -20.846  1.00  0.00     0.002 A 
HETATM   11  C6  UNL     1      12.786  -0.945 -21.832  1.00  0.00     0.030 A 
HETATM   12  N1  UNL     1      12.947  -2.398 -23.717  1.00  0.00    -0.351 N 
HETATM   13  C8  UNL     1      13.694  -3.089 -24.589  1.00  0.00     0.186 A 
ATOM     14  H1  UNL     1      11.930  -2.424 -23.790  1.00  0.00     0.166 HD
ENDBRANCH   2   3
ENDBRANCH   1   2
BRANCH   1  15
HETATM   15  O2  UNL     1      17.795  -4.958 -24.897  1.00  0.00    -0.394 OA
ATOM     16  H2  UNL     1      18.199  -5.708 -24.475  1.00  0.00     0.210 HD
ENDBRANCH   1  15
BRANCH   1  17
HETATM   17  C11 UNL     1      16.075  -6.345 -25.693  1.00  0.00     0.069 C 
BRANCH  17  18
HETATM   18  C12 UNL     1      17.177  -7.240 -26.127  1.00  0.00     0.216 C 
HETATM   19  N3  UNL     1      17.913  -7.760 -25.031  1.00  0.00    -0.068 N 
HETATM   20  C13 UNL     1      17.378  -9.039 -24.639  1.00  0.00     0.233 C 
ATOM     21  H32 UNL     1      18.912  -7.809 -25.230  1.00  0.00     0.277 HD
ATOM     22  H31 UNL     1      17.949  -7.104 -24.250  1.00  0.00     0.277 HD
HETATM   23  C14 UNL     1      17.852 -10.019 -25.720  1.00  0.00     0.030 C 
HETATM   24  C15 UNL     1      17.383  -9.578 -27.066  1.00  0.00     0.035 C 
HETATM   25  C16 UNL     1      16.677  -8.266 -27.100  1.00  0.00     0.149 C 
BRANCH  25  26
HETATM   26  O3  UNL     1      15.319  -8.465 -26.837  1.00  0.00    -0.393 OA
ATOM     27  H3  UNL     1      14.838  -8.205 -27.613  1.00  0.00     0.210 HD
ENDBRANCH  25  26
ENDBRANCH  17  18
ENDBRANCH   1  17
TORSDOF 6
ENDMDL
