MODEL 5
REMARK VINA RESULT: -8.410351961      6.237      9.058
REMARK  6 active torsions:
REMARK  status: ('A' for Active; 'I' for Inactive)
REMARK    1  A    between atoms: N2_12  and  C9_13 
REMARK    2  A    between atoms: C9_13  and  C10_14 
REMARK    3  A    between atoms: C10_14  and  O2_15 
REMARK    4  A    between atoms: C10_14  and  C11_17 
REMARK    5  A    between atoms: C11_17  and  C12_18 
REMARK    6  A    between atoms: C16_25  and  O3_26 
ROOT
HETATM    1  C10 UNL     1      10.355  -9.882 -28.379  1.00  0.00     0.138 C 
ENDROOT
BRANCH   1   2
HETATM    2  C9  UNL     1      11.291  -8.734 -28.412  1.00  0.00     0.164 C 
BRANCH   2   3
HETATM    3  N2  UNL     1      12.588  -8.971 -27.876  1.00  0.00    -0.307 N 
HETATM    4  C1  UNL     1      13.327  -8.050 -27.269  1.00  0.00     0.261 A 
HETATM    5  O1  UNL     1      12.893  -6.899 -27.137  1.00  0.00    -0.267 OA
HETATM    6  C2  UNL     1      14.591  -8.297 -26.757  1.00  0.00     0.059 A 
HETATM    7  C3  UNL     1      15.351  -7.332 -26.128  1.00  0.00     0.019 A 
HETATM    8  C7  UNL     1      15.086  -9.576 -26.897  1.00  0.00     0.048 A 
HETATM    9  C4  UNL     1      16.604  -7.595 -25.625  1.00  0.00     0.001 A 
HETATM   10  C5  UNL     1      17.093  -8.874 -25.768  1.00  0.00     0.002 A 
HETATM   11  C6  UNL     1      16.347  -9.850 -26.393  1.00  0.00     0.030 A 
HETATM   12  N1  UNL     1      14.345 -10.511 -27.508  1.00  0.00    -0.351 N 
HETATM   13  C8  UNL     1      13.128 -10.210 -27.983  1.00  0.00     0.186 A 
ATOM     14  H1  UNL     1      14.709 -11.458 -27.613  1.00  0.00     0.166 HD
ENDBRANCH   2   3
ENDBRANCH   1   2
BRANCH   1  15
HETATM   15  O2  UNL     1       9.580  -9.962 -29.527  1.00  0.00    -0.394 OA
ATOM     16  H2  UNL     1       8.731 -10.357 -29.362  1.00  0.00     0.210 HD
ENDBRANCH   1  15
BRANCH   1  17
HETATM   17  C11 UNL     1       9.510 -10.006 -27.180  1.00  0.00     0.069 C 
BRANCH  17  18
HETATM   18  C12 UNL     1       8.082  -9.612 -27.276  1.00  0.00     0.216 C 
HETATM   19  N3  UNL     1       7.212 -10.608 -26.763  1.00  0.00    -0.068 N 
HETATM   20  C13 UNL     1       6.922 -10.346 -25.377  1.00  0.00     0.233 C 
ATOM     21  H32 UNL     1       6.362 -10.697 -27.321  1.00  0.00     0.277 HD
ATOM     22  H31 UNL     1       7.583 -11.548 -26.905  1.00  0.00     0.277 HD
HETATM   23  C14 UNL     1       5.940  -9.167 -25.390  1.00  0.00     0.030 C 
HETATM   24  C15 UNL     1       6.540  -7.996 -26.092  1.00  0.00     0.035 C 
HETATM   25  C16 UNL     1       7.872  -8.236 -26.716  1.00  0.00     0.149 C 
BRANCH  25  26
HETATM   26  O3  UNL     1       8.874  -8.013 -25.767  1.00  0.00    -0.393 OA
ATOM     27  H3  UNL     1       8.454  -7.963 -24.917  1.00  0.00     0.210 HD
ENDBRANCH  25  26
ENDBRANCH  17  18
ENDBRANCH   1  17
TORSDOF 6
ENDMDL
