MODEL 7
REMARK VINA RESULT: -8.315807261      6.454      9.228
REMARK  6 active torsions:
REMARK  status: ('A' for Active; 'I' for Inactive)
REMARK    1  A    between atoms: N2_12  and  C9_13 
REMARK    2  A    between atoms: C9_13  and  C10_14 
REMARK    3  A    between atoms: C10_14  and  O2_15 
REMARK    4  A    between atoms: C10_14  and  C11_17 
REMARK    5  A    between atoms: C11_17  and  C12_18 
REMARK    6  A    between atoms: C16_25  and  O3_26 
ROOT
HETATM    1  C10 UNL     1      10.233 -10.149 -27.686  1.00  0.00     0.138 C 
ENDROOT
BRANCH   1   2
HETATM    2  C9  UNL     1      11.184  -9.155 -28.236  1.00  0.00     0.164 C 
BRANCH   2   3
HETATM    3  N2  UNL     1      12.520  -9.236 -27.752  1.00  0.00    -0.307 N 
HETATM    4  C1  UNL     1      13.181  -8.223 -27.204  1.00  0.00     0.261 A 
HETATM    5  O1  UNL     1      12.631  -7.121 -27.084  1.00  0.00    -0.267 OA
HETATM    6  C2  UNL     1      14.483  -8.318 -26.741  1.00  0.00     0.059 A 
HETATM    7  C3  UNL     1      15.161  -7.259 -26.173  1.00  0.00     0.019 A 
HETATM    8  C7  UNL     1      15.107  -9.541 -26.868  1.00  0.00     0.048 A 
HETATM    9  C4  UNL     1      16.455  -7.372 -25.719  1.00  0.00     0.001 A 
HETATM   10  C5  UNL     1      17.071  -8.595 -25.849  1.00  0.00     0.002 A 
HETATM   11  C6  UNL     1      16.410  -9.664 -26.414  1.00  0.00     0.030 A 
HETATM   12  N1  UNL     1      14.446 -10.568 -27.421  1.00  0.00    -0.351 N 
HETATM   13  C8  UNL     1      13.186 -10.414 -27.850  1.00  0.00     0.186 A 
ATOM     14  H1  UNL     1      14.905 -11.474 -27.516  1.00  0.00     0.166 HD
ENDBRANCH   2   3
ENDBRANCH   1   2
BRANCH   1  15
HETATM   15  O2  UNL     1      10.306 -11.368 -28.346  1.00  0.00    -0.394 OA
ATOM     16  H2  UNL     1      10.822 -11.316 -29.142  1.00  0.00     0.210 HD
ENDBRANCH   1  15
BRANCH   1  17
HETATM   17  C11 UNL     1       8.832  -9.717 -27.560  1.00  0.00     0.069 C 
BRANCH  17  18
HETATM   18  C12 UNL     1       8.290  -9.453 -26.204  1.00  0.00     0.216 C 
HETATM   19  N3  UNL     1       8.051  -8.073 -25.978  1.00  0.00    -0.068 N 
HETATM   20  C13 UNL     1       6.686  -7.747 -26.303  1.00  0.00     0.233 C 
ATOM     21  H32 UNL     1       8.294  -7.794 -25.027  1.00  0.00     0.277 HD
ATOM     22  H31 UNL     1       8.715  -7.483 -26.480  1.00  0.00     0.277 HD
HETATM   23  C14 UNL     1       5.853  -8.317 -25.148  1.00  0.00     0.030 C 
HETATM   24  C15 UNL     1       6.085  -9.784 -25.011  1.00  0.00     0.035 C 
HETATM   25  C16 UNL     1       7.126 -10.355 -25.913  1.00  0.00     0.149 C 
BRANCH  25  26
HETATM   26  O3  UNL     1       6.543 -10.694 -27.136  1.00  0.00    -0.393 OA
ATOM     27  H3  UNL     1       5.668 -10.327 -27.145  1.00  0.00     0.210 HD
ENDBRANCH  25  26
ENDBRANCH  17  18
ENDBRANCH   1  17
TORSDOF 6
ENDMDL
