MODEL 2
REMARK VINA RESULT: -7.554501093      0.061      1.218
REMARK  3 active torsions:
REMARK  status: ('A' for Active; 'I' for Inactive)
REMARK    1  A    between atoms: C1_2  and  C2_4 
REMARK    2  A    between atoms: C2_4  and  C3_5 
REMARK    3  A    between atoms: C2_4  and  N1_11 
ROOT
HETATM    1  C2  UNL     1     -66.890 -33.654 -31.247  1.00  0.00     0.222 C 
ENDROOT
BRANCH   1   2
HETATM    2  C1  UNL     1     -67.909 -32.805 -30.652  1.00  0.00     0.202 C 
HETATM    3  O1  UNL     1     -68.924 -33.324 -30.130  1.00  0.00    -0.646 OA
HETATM    4  O2  UNL     1     -67.847 -31.409 -30.614  1.00  0.00    -0.646 OA
ENDBRANCH   1   2
BRANCH   1   5
HETATM    5  C3  UNL     1     -65.885 -34.038 -30.250  1.00  0.00    -0.025 A 
HETATM    6  C4  UNL     1     -64.952 -35.024 -30.498  1.00  0.00     0.010 A 
HETATM    7  C5  UNL     1     -64.008 -35.365 -29.535  1.00  0.00     0.001 A 
HETATM    8  C6  UNL     1     -63.994 -34.717 -28.318  1.00  0.00     0.000 A 
HETATM    9  C7  UNL     1     -64.931 -33.744 -28.099  1.00  0.00     0.001 A 
HETATM   10  C8  UNL     1     -65.857 -33.407 -29.040  1.00  0.00     0.010 A 
ENDBRANCH   1   5
BRANCH   1  11
HETATM   11  N1  UNL     1     -66.217 -33.103 -32.400  1.00  0.00    -0.347 N 
HETATM   12  C9  UNL     1     -66.617 -33.397 -33.650  1.00  0.00     0.092 A 
HETATM   13  C10 UNL     1     -65.805 -32.740 -34.525  1.00  0.00     0.019 A 
HETATM   14  C11 UNL     1     -64.873 -32.017 -33.808  1.00  0.00     0.019 A 
HETATM   15  C12 UNL     1     -65.168 -32.272 -32.484  1.00  0.00     0.092 A 
ENDBRANCH   1  11
TORSDOF 3
ENDMDL
