MODEL 1
REMARK VINA RESULT: -7.599122879      0.000      0.000
REMARK  3 active torsions:
REMARK  status: ('A' for Active; 'I' for Inactive)
REMARK    1  A    between atoms: C1_2  and  C2_4 
REMARK    2  A    between atoms: C2_4  and  C3_5 
REMARK    3  A    between atoms: C2_4  and  N1_11 
ROOT
HETATM    1  C2  UNL     1     -66.914 -33.685 -31.222  1.00  0.00     0.222 C 
ENDROOT
BRANCH   1   2
HETATM    2  C1  UNL     1     -67.960 -32.859 -30.642  1.00  0.00     0.202 C 
HETATM    3  O1  UNL     1     -68.972 -33.400 -30.137  1.00  0.00    -0.646 OA
HETATM    4  O2  UNL     1     -67.928 -31.462 -30.602  1.00  0.00    -0.646 OA
ENDBRANCH   1   2
BRANCH   1   5
HETATM    5  C3  UNL     1     -65.911 -34.040 -30.213  1.00  0.00    -0.025 A 
HETATM    6  C4  UNL     1     -65.848 -33.402 -28.991  1.00  0.00     0.010 A 
HETATM    7  C5  UNL     1     -64.888 -33.762 -28.052  1.00  0.00     0.001 A 
HETATM    8  C6  UNL     1     -63.986 -34.767 -28.333  1.00  0.00     0.000 A 
HETATM    9  C7  UNL     1     -64.070 -35.382 -29.552  1.00  0.00     0.001 A 
HETATM   10  C8  UNL     1     -65.009 -35.032 -30.475  1.00  0.00     0.010 A 
ENDBRANCH   1   5
BRANCH   1  11
HETATM   11  N1  UNL     1     -66.242 -33.122 -32.370  1.00  0.00    -0.347 N 
HETATM   12  C9  UNL     1     -66.632 -33.417 -33.623  1.00  0.00     0.092 A 
HETATM   13  C10 UNL     1     -65.824 -32.748 -34.492  1.00  0.00     0.019 A 
HETATM   14  C11 UNL     1     -64.905 -32.016 -33.768  1.00  0.00     0.019 A 
HETATM   15  C12 UNL     1     -65.203 -32.279 -32.447  1.00  0.00     0.092 A 
ENDBRANCH   1  11
TORSDOF 3
ENDMDL
