MODEL 4
REMARK VINA RESULT: -9.649959312      2.886      6.125
REMARK  12 active torsions:
REMARK  status: ('A' for Active; 'I' for Inactive)
REMARK    1  A    between atoms: C2_2  and  C24_29 
REMARK    2  A    between atoms: C3_3  and  C4_4 
REMARK    3  A    between atoms: C4_4  and  O1_5 
REMARK    4  A    between atoms: O1_5  and  C5_6 
REMARK    5  A    between atoms: C10_11  and  C11_12 
REMARK    6  A    between atoms: C11_12  and  N1_13 
REMARK    7  A    between atoms: N1_13  and  C13_15 
REMARK    8  A    between atoms: C13_15  and  O2_16 
REMARK    9  A    between atoms: C13_15  and  C14_18 
REMARK   10  A    between atoms: C17_21  and  C18_22 
REMARK   11  A    between atoms: C24_29  and  C25_30 
REMARK   12  A    between atoms: C25_30  and  C26_31 
ROOT
HETATM    1  C11 UNL     1       2.979  -3.358  50.723  1.00  0.00     0.166 C 
ENDROOT
BRANCH   1   2
HETATM    2  C10 UNL     1       2.902  -4.279  49.565  1.00  0.00    -0.007 A 
HETATM    3  C5  UNL     1       1.906  -4.045  48.586  1.00  0.00     0.077 A 
HETATM    4  C6  UNL     1       1.847  -4.911  47.517  1.00  0.00     0.037 A 
HETATM    5  C7  UNL     1       2.713  -5.981  47.370  1.00  0.00     0.003 A 
HETATM    6  C8  UNL     1       3.664  -6.167  48.348  1.00  0.00     0.001 A 
HETATM    7  C9  UNL     1       3.764  -5.328  49.437  1.00  0.00     0.011 A 
BRANCH   3   8
HETATM    8  O1  UNL     1       1.106  -2.976  48.816  1.00  0.00    -0.347 OA
BRANCH   8   9
HETATM    9  C4  UNL     1      -0.121  -2.653  48.324  1.00  0.00     0.203 C 
BRANCH   9  10
HETATM   10  C3  UNL     1      -0.336  -1.237  47.954  1.00  0.00     0.002 C 
HETATM   11  C2  UNL     1      -1.106  -0.413  48.625  1.00  0.00    -0.085 C 
HETATM   12  C1  UNL     1      -1.855  -0.774  49.830  1.00  0.00     0.043 C 
BRANCH  11  13
HETATM   13  C24 UNL     1      -1.233   1.013  48.122  1.00  0.00     0.044 C 
BRANCH  13  14
HETATM   14  C25 UNL     1       0.072   1.310  47.386  1.00  0.00     0.117 C 
BRANCH  14  15
HETATM   15  C26 UNL     1       0.135   2.739  46.991  1.00  0.00     0.172 C 
HETATM   16  O4  UNL     1       0.306   3.672  47.802  1.00  0.00    -0.648 OA
HETATM   17  O5  UNL     1      -0.004   3.077  45.643  1.00  0.00    -0.648 OA
ENDBRANCH  14  15
ENDBRANCH  13  14
ENDBRANCH  11  13
ENDBRANCH   9  10
ENDBRANCH   8   9
ENDBRANCH   3   8
ENDBRANCH   1   2
BRANCH   1  18
HETATM   18  N1  UNL     1       4.201  -2.518  50.624  1.00  0.00    -0.361 N 
HETATM   19  C12 UNL     1       5.136  -2.640  51.703  1.00  0.00     0.152 C 
BRANCH  18  20
HETATM   20  C13 UNL     1       4.309  -1.699  49.491  1.00  0.00     0.148 C 
BRANCH  20  21
HETATM   21  O2  UNL     1       3.266  -0.962  49.220  1.00  0.00    -0.346 OA
ATOM     22  H2  UNL     1       2.450  -1.431  49.095  1.00  0.00     0.219 HD
ENDBRANCH  20  21
BRANCH  20  23
HETATM   23  C14 UNL     1       5.404  -1.547  48.574  1.00  0.00     0.015 A 
HETATM   24  C15 UNL     1       5.334  -1.374  47.215  1.00  0.00     0.017 A 
HETATM   25  C16 UNL     1       6.481  -1.236  46.419  1.00  0.00     0.015 A 
HETATM   26  C17 UNL     1       7.736  -1.264  46.949  1.00  0.00    -0.002 A 
HETATM   27  C22 UNL     1       7.828  -1.436  48.310  1.00  0.00     0.015 A 
HETATM   28  C23 UNL     1       6.718  -1.571  49.095  1.00  0.00     0.017 A 
BRANCH  26  29
HETATM   29  C18 UNL     1       8.932  -1.120  46.127  1.00  0.00     0.085 A 
HETATM   30  C19 UNL     1       9.116  -0.240  45.088  1.00  0.00     0.040 A 
HETATM   31  C20 UNL     1      10.390  -0.443  44.592  1.00  0.00     0.027 A 
HETATM   32  C21 UNL     1      10.928  -1.447  45.359  1.00  0.00     0.142 A 
HETATM   33  O3  UNL     1      10.024  -1.819  46.260  1.00  0.00    -0.322 OA
ENDBRANCH  26  29
ENDBRANCH  20  23
ENDBRANCH  18  20
ENDBRANCH   1  18
TORSDOF 12
ENDMDL
