MODEL 2
REMARK VINA RESULT: -9.671448374      2.361      8.107
REMARK  12 active torsions:
REMARK  status: ('A' for Active; 'I' for Inactive)
REMARK    1  A    between atoms: C2_2  and  C24_29 
REMARK    2  A    between atoms: C3_3  and  C4_4 
REMARK    3  A    between atoms: C4_4  and  O1_5 
REMARK    4  A    between atoms: O1_5  and  C5_6 
REMARK    5  A    between atoms: C10_11  and  C11_12 
REMARK    6  A    between atoms: C11_12  and  N1_13 
REMARK    7  A    between atoms: N1_13  and  C13_15 
REMARK    8  A    between atoms: C13_15  and  O2_16 
REMARK    9  A    between atoms: C13_15  and  C14_18 
REMARK   10  A    between atoms: C17_21  and  C18_22 
REMARK   11  A    between atoms: C24_29  and  C25_30 
REMARK   12  A    between atoms: C25_30  and  C26_31 
ROOT
HETATM    1  C11 UNL     1       1.166  -2.578  48.868  1.00  0.00     0.166 C 
ENDROOT
BRANCH   1   2
HETATM    2  C10 UNL     1       2.015  -3.759  48.583  1.00  0.00    -0.007 A 
HETATM    3  C5  UNL     1       3.242  -3.887  49.278  1.00  0.00     0.077 A 
HETATM    4  C6  UNL     1       4.019  -4.990  49.001  1.00  0.00     0.037 A 
HETATM    5  C7  UNL     1       3.648  -5.957  48.083  1.00  0.00     0.003 A 
HETATM    6  C8  UNL     1       2.447  -5.788  47.432  1.00  0.00     0.001 A 
HETATM    7  C9  UNL     1       1.633  -4.701  47.675  1.00  0.00     0.011 A 
BRANCH   3   8
HETATM    8  O1  UNL     1       3.519  -2.892  50.156  1.00  0.00    -0.347 OA
BRANCH   8   9
HETATM    9  C4  UNL     1       4.491  -2.776  51.100  1.00  0.00     0.203 C 
BRANCH   9  10
HETATM   10  C3  UNL     1       4.272  -3.500  52.371  1.00  0.00     0.002 C 
HETATM   11  C2  UNL     1       4.299  -2.932  53.553  1.00  0.00    -0.085 C 
HETATM   12  C1  UNL     1       4.546  -1.507  53.781  1.00  0.00     0.043 C 
BRANCH  11  13
HETATM   13  C24 UNL     1       4.058  -3.805  54.771  1.00  0.00     0.044 C 
BRANCH  13  14
HETATM   14  C25 UNL     1       4.456  -2.954  55.975  1.00  0.00     0.117 C 
BRANCH  14  15
HETATM   15  C26 UNL     1       3.416  -3.026  57.030  1.00  0.00     0.172 C 
HETATM   16  O4  UNL     1       2.998  -2.030  57.655  1.00  0.00    -0.648 OA
HETATM   17  O5  UNL     1       2.863  -4.267  57.357  1.00  0.00    -0.648 OA
ENDBRANCH  14  15
ENDBRANCH  13  14
ENDBRANCH  11  13
ENDBRANCH   9  10
ENDBRANCH   8   9
ENDBRANCH   3   8
ENDBRANCH   1   2
BRANCH   1  18
HETATM   18  N1  UNL     1       1.207  -1.635  47.721  1.00  0.00    -0.361 N 
HETATM   19  C12 UNL     1       0.214  -1.835  46.708  1.00  0.00     0.152 C 
BRANCH  18  20
HETATM   20  C13 UNL     1       2.206  -0.652  47.752  1.00  0.00     0.148 C 
BRANCH  20  21
HETATM   21  O2  UNL     1       1.822   0.539  48.124  1.00  0.00    -0.346 OA
ATOM     22  H2  UNL     1       2.349   0.953  48.796  1.00  0.00     0.219 HD
ENDBRANCH  20  21
BRANCH  20  23
HETATM   23  C14 UNL     1       3.604  -0.758  47.435  1.00  0.00     0.015 A 
HETATM   24  C15 UNL     1       4.172  -1.449  46.395  1.00  0.00     0.017 A 
HETATM   25  C16 UNL     1       5.558  -1.480  46.187  1.00  0.00     0.015 A 
HETATM   26  C17 UNL     1       6.427  -0.821  47.005  1.00  0.00    -0.002 A 
HETATM   27  C22 UNL     1       5.877  -0.121  48.054  1.00  0.00     0.015 A 
HETATM   28  C23 UNL     1       4.529  -0.085  48.266  1.00  0.00     0.017 A 
BRANCH  26  29
HETATM   29  C18 UNL     1       7.869  -0.848  46.794  1.00  0.00     0.085 A 
HETATM   30  C19 UNL     1       8.522  -1.032  45.599  1.00  0.00     0.040 A 
HETATM   31  C20 UNL     1       9.880  -0.985  45.856  1.00  0.00     0.027 A 
HETATM   32  C21 UNL     1       9.991  -0.773  47.208  1.00  0.00     0.142 A 
HETATM   33  O3  UNL     1       8.769  -0.698  47.725  1.00  0.00    -0.322 OA
ENDBRANCH  26  29
ENDBRANCH  20  23
ENDBRANCH  18  20
ENDBRANCH   1  18
TORSDOF 12
ENDMDL
