MODEL 1
REMARK VINA RESULT: -10.461775580      0.000      0.000
REMARK  12 active torsions:
REMARK  status: ('A' for Active; 'I' for Inactive)
REMARK    1  A    between atoms: C2_2  and  C24_29 
REMARK    2  A    between atoms: C3_3  and  C4_4 
REMARK    3  A    between atoms: C4_4  and  O1_5 
REMARK    4  A    between atoms: O1_5  and  C5_6 
REMARK    5  A    between atoms: C10_11  and  C11_12 
REMARK    6  A    between atoms: C11_12  and  N1_13 
REMARK    7  A    between atoms: N1_13  and  C13_15 
REMARK    8  A    between atoms: C13_15  and  O2_16 
REMARK    9  A    between atoms: C13_15  and  C14_18 
REMARK   10  A    between atoms: C17_21  and  C18_22 
REMARK   11  A    between atoms: C24_29  and  C25_30 
REMARK   12  A    between atoms: C25_30  and  C26_31 
ROOT
HETATM    1  C11 UNL     1       3.694  -1.859  49.569  1.00  0.00     0.166 C 
ENDROOT
BRANCH   1   2
HETATM    2  C10 UNL     1       3.207  -3.091  48.905  1.00  0.00    -0.007 A 
HETATM    3  C5  UNL     1       2.105  -2.987  48.022  1.00  0.00     0.077 A 
HETATM    4  C6  UNL     1       1.665  -4.142  47.414  1.00  0.00     0.037 A 
HETATM    5  C7  UNL     1       2.251  -5.376  47.635  1.00  0.00     0.003 A 
HETATM    6  C8  UNL     1       3.318  -5.426  48.503  1.00  0.00     0.001 A 
HETATM    7  C9  UNL     1       3.797  -4.298  49.136  1.00  0.00     0.011 A 
BRANCH   3   8
HETATM    8  O1  UNL     1       1.599  -1.739  47.869  1.00  0.00    -0.347 OA
BRANCH   8   9
HETATM    9  C4  UNL     1       0.331  -1.265  48.005  1.00  0.00     0.203 C 
BRANCH   9  10
HETATM   10  C3  UNL     1       0.180   0.202  48.121  1.00  0.00     0.002 C 
HETATM   11  C2  UNL     1      -0.963   0.806  48.342  1.00  0.00    -0.085 C 
HETATM   12  C1  UNL     1      -2.245   0.118  48.508  1.00  0.00     0.043 C 
BRANCH  11  13
HETATM   13  C24 UNL     1      -0.964   2.321  48.434  1.00  0.00     0.044 C 
BRANCH  13  14
HETATM   14  C25 UNL     1       0.360   2.773  47.822  1.00  0.00     0.117 C 
BRANCH  14  15
HETATM   15  C26 UNL     1       0.213   2.989  46.362  1.00  0.00     0.172 C 
HETATM   16  O4  UNL     1      -0.670   3.712  45.857  1.00  0.00    -0.648 OA
HETATM   17  O5  UNL     1       1.101   2.356  45.488  1.00  0.00    -0.648 OA
ENDBRANCH  14  15
ENDBRANCH  13  14
ENDBRANCH  11  13
ENDBRANCH   9  10
ENDBRANCH   8   9
ENDBRANCH   3   8
ENDBRANCH   1   2
BRANCH   1  18
HETATM   18  N1  UNL     1       5.170  -1.758  49.433  1.00  0.00    -0.361 N 
HETATM   19  C12 UNL     1       5.665  -1.552  48.104  1.00  0.00     0.152 C 
BRANCH  18  20
HETATM   20  C13 UNL     1       5.918  -1.873  50.613  1.00  0.00     0.148 C 
BRANCH  20  21
HETATM   21  O2  UNL     1       7.205  -1.695  50.490  1.00  0.00    -0.346 OA
ATOM     22  H2  UNL     1       7.724  -2.485  50.390  1.00  0.00     0.219 HD
ENDBRANCH  20  21
BRANCH  20  23
HETATM   23  C14 UNL     1       5.479  -2.159  51.951  1.00  0.00     0.015 A 
HETATM   24  C15 UNL     1       5.013  -3.354  52.436  1.00  0.00     0.017 A 
HETATM   25  C16 UNL     1       4.609  -3.512  53.770  1.00  0.00     0.015 A 
HETATM   26  C17 UNL     1       4.658  -2.486  54.667  1.00  0.00    -0.002 A 
HETATM   27  C22 UNL     1       5.122  -1.279  54.199  1.00  0.00     0.015 A 
HETATM   28  C23 UNL     1       5.518  -1.114  52.903  1.00  0.00     0.017 A 
BRANCH  26  29
HETATM   29  C18 UNL     1       4.241  -2.644  56.055  1.00  0.00     0.085 A 
HETATM   30  C19 UNL     1       3.472  -3.659  56.573  1.00  0.00     0.040 A 
HETATM   31  C20 UNL     1       3.321  -3.416  57.926  1.00  0.00     0.027 A 
HETATM   32  C21 UNL     1       4.011  -2.255  58.170  1.00  0.00     0.142 A 
HETATM   33  O3  UNL     1       4.542  -1.831  57.028  1.00  0.00    -0.322 OA
ENDBRANCH  26  29
ENDBRANCH  20  23
ENDBRANCH  18  20
ENDBRANCH   1  18
TORSDOF 12
ENDMDL
