MODEL 3
REMARK VINA RESULT: -9.653564097      3.833      6.585
REMARK  12 active torsions:
REMARK  status: ('A' for Active; 'I' for Inactive)
REMARK    1  A    between atoms: C2_2  and  C24_29 
REMARK    2  A    between atoms: C3_3  and  C4_4 
REMARK    3  A    between atoms: C4_4  and  O1_5 
REMARK    4  A    between atoms: O1_5  and  C5_6 
REMARK    5  A    between atoms: C10_11  and  C11_12 
REMARK    6  A    between atoms: C11_12  and  N1_13 
REMARK    7  A    between atoms: N1_13  and  C13_15 
REMARK    8  A    between atoms: C13_15  and  O2_16 
REMARK    9  A    between atoms: C13_15  and  C14_18 
REMARK   10  A    between atoms: C17_21  and  C18_22 
REMARK   11  A    between atoms: C24_29  and  C25_30 
REMARK   12  A    between atoms: C25_30  and  C26_31 
ROOT
HETATM    1  C11 UNL     1       2.909  -1.347  48.814  1.00  0.00     0.166 C 
ENDROOT
BRANCH   1   2
HETATM    2  C10 UNL     1       2.907  -2.806  48.559  1.00  0.00    -0.007 A 
HETATM    3  C5  UNL     1       1.899  -3.340  47.720  1.00  0.00     0.077 A 
HETATM    4  C6  UNL     1       1.910  -4.698  47.494  1.00  0.00     0.037 A 
HETATM    5  C7  UNL     1       2.856  -5.542  48.051  1.00  0.00     0.003 A 
HETATM    6  C8  UNL     1       3.815  -4.977  48.860  1.00  0.00     0.001 A 
HETATM    7  C9  UNL     1       3.846  -3.622  49.116  1.00  0.00     0.011 A 
BRANCH   3   8
HETATM    8  O1  UNL     1       1.019  -2.437  47.222  1.00  0.00    -0.347 OA
BRANCH   8   9
HETATM    9  C4  UNL     1      -0.214  -2.056  47.653  1.00  0.00     0.203 C 
BRANCH   9  10
HETATM   10  C3  UNL     1      -0.539  -0.618  47.547  1.00  0.00     0.002 C 
HETATM   11  C2  UNL     1      -1.254   0.040  48.430  1.00  0.00    -0.085 C 
HETATM   12  C1  UNL     1      -1.825  -0.554  49.640  1.00  0.00     0.043 C 
BRANCH  11  13
HETATM   13  C24 UNL     1      -1.509   1.515  48.186  1.00  0.00     0.044 C 
BRANCH  13  14
HETATM   14  C25 UNL     1      -0.137   2.137  47.937  1.00  0.00     0.117 C 
BRANCH  14  15
HETATM   15  C26 UNL     1      -0.091   2.781  46.602  1.00  0.00     0.172 C 
HETATM   16  O4  UNL     1      -0.968   3.562  46.182  1.00  0.00    -0.648 OA
HETATM   17  O5  UNL     1       0.986   2.511  45.753  1.00  0.00    -0.648 OA
ENDBRANCH  14  15
ENDBRANCH  13  14
ENDBRANCH  11  13
ENDBRANCH   9  10
ENDBRANCH   8   9
ENDBRANCH   3   8
ENDBRANCH   1   2
BRANCH   1  18
HETATM   18  N1  UNL     1       4.304  -0.838  48.845  1.00  0.00    -0.361 N 
HETATM   19  C12 UNL     1       4.905  -0.730  50.141  1.00  0.00     0.152 C 
BRANCH  18  20
HETATM   20  C13 UNL     1       4.883  -0.519  47.608  1.00  0.00     0.148 C 
BRANCH  20  21
HETATM   21  O2  UNL     1       4.059  -0.107  46.684  1.00  0.00    -0.346 OA
ATOM     22  H2  UNL     1       4.439   0.036  45.825  1.00  0.00     0.219 HD
ENDBRANCH  20  21
BRANCH  20  23
HETATM   23  C14 UNL     1       6.260  -0.578  47.200  1.00  0.00     0.015 A 
HETATM   24  C15 UNL     1       7.039  -1.698  47.059  1.00  0.00     0.017 A 
HETATM   25  C16 UNL     1       8.379  -1.629  46.652  1.00  0.00     0.015 A 
HETATM   26  C17 UNL     1       8.989  -0.443  46.369  1.00  0.00    -0.002 A 
HETATM   27  C22 UNL     1       8.224   0.692  46.504  1.00  0.00     0.015 A 
HETATM   28  C23 UNL     1       6.918   0.636  46.900  1.00  0.00     0.017 A 
BRANCH  26  29
HETATM   29  C18 UNL     1      10.381  -0.364  45.944  1.00  0.00     0.085 A 
HETATM   30  C19 UNL     1      11.159  -1.397  45.478  1.00  0.00     0.040 A 
HETATM   31  C20 UNL     1      12.409  -0.879  45.192  1.00  0.00     0.027 A 
HETATM   32  C21 UNL     1      12.333   0.456  45.500  1.00  0.00     0.142 A 
HETATM   33  O3  UNL     1      11.108   0.718  45.944  1.00  0.00    -0.322 OA
ENDBRANCH  26  29
ENDBRANCH  20  23
ENDBRANCH  18  20
ENDBRANCH   1  18
TORSDOF 12
ENDMDL
