MODEL 2
REMARK VINA RESULT: -7.423507375      2.327      3.349
REMARK  4 active torsions:
REMARK  status: ('A' for Active; 'I' for Inactive)
REMARK    1  A    between atoms: C6_6  and  O1_7 
REMARK    2  A    between atoms: C14_16  and  O2_17 
REMARK    3  A    between atoms: C16_20  and  O3_21 
REMARK    4  A    between atoms: C18_24  and  O4_25 
ROOT
HETATM    1  C1  UNL     1      -8.743  -4.232  -2.950  1.00  0.00     0.040 C 
HETATM    2  C2  UNL     1      -9.196  -3.181  -3.914  1.00  0.00     0.127 C 
HETATM    3  C3  UNL     1      -9.282  -3.857  -5.299  1.00  0.00     0.032 C 
HETATM    4  C4  UNL     1      -8.376  -3.100  -6.273  1.00  0.00     0.005 C 
HETATM    5  C5  UNL     1      -8.627  -1.595  -6.169  1.00  0.00     0.032 C 
HETATM    6  C6  UNL     1      -7.374  -0.852  -5.890  1.00  0.00     0.118 C 
HETATM    7  C7  UNL     1      -7.392   0.092  -4.739  1.00  0.00     0.032 C 
HETATM    8  C8  UNL     1      -8.711   0.647  -4.357  1.00  0.00     0.006 C 
HETATM    9  C9  UNL     1      -9.137   0.366  -2.933  1.00  0.00     0.027 C 
HETATM   10  C10 UNL     1     -10.540   0.817  -2.780  1.00  0.00    -0.026 C 
HETATM   11  C11 UNL     1     -11.477   0.323  -2.009  1.00  0.00     0.008 C 
HETATM   12  C12 UNL     1     -11.501  -0.787  -1.078  1.00  0.00    -0.016 A 
HETATM   13  C13 UNL     1     -11.657  -0.403   0.276  1.00  0.00     0.049 A 
HETATM   14  C14 UNL     1     -11.751  -1.352   1.264  1.00  0.00     0.069 A 
HETATM   15  C15 UNL     1     -11.699  -2.698   0.974  1.00  0.00     0.074 A 
HETATM   16  C16 UNL     1     -11.550  -3.106  -0.334  1.00  0.00     0.084 A 
HETATM   17  C17 UNL     1     -11.450  -2.144  -1.363  1.00  0.00     0.065 A 
HETATM   18  C18 UNL     1     -11.353  -2.741  -2.697  1.00  0.00     0.192 C 
HETATM   19  O5  UNL     1     -10.414  -2.571  -3.662  1.00  0.00    -0.325 OA
ENDROOT
BRANCH   6  20
HETATM   20  O1  UNL     1      -6.328  -1.778  -5.658  1.00  0.00    -0.396 OA
ATOM     21  H1  UNL     1      -5.783  -1.460  -4.948  1.00  0.00     0.210 HD
ENDBRANCH   6  20
BRANCH  18  22
HETATM   22  O4  UNL     1     -12.351  -3.563  -2.966  1.00  0.00    -0.340 OA
ATOM     23  H4  UNL     1     -12.104  -4.262  -3.560  1.00  0.00     0.220 HD
ENDBRANCH  18  22
BRANCH  16  24
HETATM   24  O3  UNL     1     -11.511  -4.470  -0.559  1.00  0.00    -0.360 OA
ATOM     25  H3  UNL     1     -10.959  -4.770  -1.272  1.00  0.00     0.217 HD
ENDBRANCH  16  24
BRANCH  14  26
HETATM   26  O2  UNL     1     -11.904  -0.949   2.606  1.00  0.00    -0.361 OA
ATOM     27  H2  UNL     1     -11.894  -1.601   3.297  1.00  0.00     0.217 HD
ENDBRANCH  14  26
TORSDOF 4
ENDMDL
