MODEL 4
REMARK VINA RESULT: -5.641208949      1.588      6.027
REMARK  4 active torsions:
REMARK  status: ('A' for Active; 'I' for Inactive)
REMARK    1  A    between atoms: C6_6  and  O1_7 
REMARK    2  A    between atoms: C14_16  and  O2_17 
REMARK    3  A    between atoms: C16_20  and  O3_21 
REMARK    4  A    between atoms: C18_24  and  O4_25 
ROOT
HETATM    1  C1  UNL     1     -10.902  -1.001  -1.274  1.00  0.00     0.040 C 
HETATM    2  C2  UNL     1      -9.839   0.038  -1.453  1.00  0.00     0.127 C 
HETATM    3  C3  UNL     1      -9.454   0.526  -0.041  1.00  0.00     0.032 C 
HETATM    4  C4  UNL     1      -9.675   2.039   0.034  1.00  0.00     0.005 C 
HETATM    5  C5  UNL     1      -9.049   2.726  -1.181  1.00  0.00     0.032 C 
HETATM    6  C6  UNL     1     -10.040   3.559  -1.905  1.00  0.00     0.118 C 
HETATM    7  C7  UNL     1     -10.168   3.333  -3.371  1.00  0.00     0.032 C 
HETATM    8  C8  UNL     1      -8.981   2.782  -4.063  1.00  0.00     0.006 C 
HETATM    9  C9  UNL     1      -9.209   1.471  -4.784  1.00  0.00     0.027 C 
HETATM   10  C10 UNL     1      -7.894   0.973  -5.250  1.00  0.00    -0.026 C 
HETATM   11  C11 UNL     1      -7.494  -0.266  -5.393  1.00  0.00     0.008 C 
HETATM   12  C12 UNL     1      -8.140  -1.541  -5.155  1.00  0.00    -0.016 A 
HETATM   13  C13 UNL     1      -8.386  -2.293  -6.330  1.00  0.00     0.049 A 
HETATM   14  C14 UNL     1      -8.944  -3.545  -6.254  1.00  0.00     0.069 A 
HETATM   15  C15 UNL     1      -9.279  -4.109  -5.042  1.00  0.00     0.074 A 
HETATM   16  C16 UNL     1      -9.051  -3.405  -3.878  1.00  0.00     0.084 A 
HETATM   17  C17 UNL     1      -8.480  -2.115  -3.938  1.00  0.00     0.065 A 
HETATM   18  C18 UNL     1      -8.252  -1.530  -2.616  1.00  0.00     0.192 C 
HETATM   19  O5  UNL     1      -8.677  -0.348  -2.101  1.00  0.00    -0.325 OA
ENDROOT
BRANCH   6  20
HETATM   20  O1  UNL     1     -11.320   3.359  -1.334  1.00  0.00    -0.396 OA
ATOM     21  H1  UNL     1     -11.723   4.204  -1.171  1.00  0.00     0.210 HD
ENDBRANCH   6  20
BRANCH  18  22
HETATM   22  O4  UNL     1      -7.514  -2.296  -1.834  1.00  0.00    -0.340 OA
ATOM     23  H4  UNL     1      -7.760  -2.236  -0.918  1.00  0.00     0.220 HD
ENDBRANCH  18  22
BRANCH  16  24
HETATM   24  O3  UNL     1      -9.404  -4.030  -2.696  1.00  0.00    -0.360 OA
ATOM     25  H3  UNL     1      -9.418  -4.980  -2.703  1.00  0.00     0.217 HD
ENDBRANCH  16  24
BRANCH  14  26
HETATM   26  O2  UNL     1      -9.183  -4.276  -7.435  1.00  0.00    -0.361 OA
ATOM     27  H2  UNL     1      -9.973  -4.797  -7.514  1.00  0.00     0.217 HD
ENDBRANCH  14  26
TORSDOF 4
ENDMDL
