MODEL 3
REMARK VINA RESULT: -6.499818492      2.228      4.736
REMARK  4 active torsions:
REMARK  status: ('A' for Active; 'I' for Inactive)
REMARK    1  A    between atoms: C6_6  and  O1_7 
REMARK    2  A    between atoms: C14_16  and  O2_17 
REMARK    3  A    between atoms: C16_20  and  O3_21 
REMARK    4  A    between atoms: C18_24  and  O4_25 
ROOT
HETATM    1  C1  UNL     1     -10.777   0.904  -3.568  1.00  0.00     0.040 C 
HETATM    2  C2  UNL     1      -9.446   0.279  -3.851  1.00  0.00     0.127 C 
HETATM    3  C3  UNL     1      -8.476   1.434  -4.177  1.00  0.00     0.032 C 
HETATM    4  C4  UNL     1      -7.886   1.203  -5.570  1.00  0.00     0.005 C 
HETATM    5  C5  UNL     1      -7.391  -0.238  -5.703  1.00  0.00     0.032 C 
HETATM    6  C6  UNL     1      -8.002  -0.917  -6.872  1.00  0.00     0.118 C 
HETATM    7  C7  UNL     1      -8.649  -2.235  -6.623  1.00  0.00     0.032 C 
HETATM    8  C8  UNL     1      -8.153  -3.009  -5.462  1.00  0.00     0.006 C 
HETATM    9  C9  UNL     1      -9.199  -3.348  -4.423  1.00  0.00     0.027 C 
HETATM   10  C10 UNL     1      -8.507  -3.945  -3.257  1.00  0.00    -0.026 C 
HETATM   11  C11 UNL     1      -8.834  -3.877  -1.990  1.00  0.00     0.008 C 
HETATM   12  C12 UNL     1      -9.924  -3.228  -1.290  1.00  0.00    -0.016 A 
HETATM   13  C13 UNL     1     -10.842  -4.124  -0.690  1.00  0.00     0.049 A 
HETATM   14  C14 UNL     1     -11.895  -3.652   0.053  1.00  0.00     0.069 A 
HETATM   15  C15 UNL     1     -12.093  -2.300   0.240  1.00  0.00     0.074 A 
HETATM   16  C16 UNL     1     -11.217  -1.400  -0.329  1.00  0.00     0.084 A 
HETATM   17  C17 UNL     1     -10.129  -1.868  -1.098  1.00  0.00     0.065 A 
HETATM   18  C18 UNL     1      -9.265  -0.790  -1.581  1.00  0.00     0.192 C 
HETATM   19  O5  UNL     1      -8.877  -0.485  -2.846  1.00  0.00    -0.325 OA
ENDROOT
BRANCH   6  20
HETATM   20  O1  UNL     1      -8.980  -0.069  -7.442  1.00  0.00    -0.396 OA
ATOM     21  H1  UNL     1      -9.361   0.470  -6.758  1.00  0.00     0.210 HD
ENDBRANCH   6  20
BRANCH  18  22
HETATM   22  O4  UNL     1      -8.810  -0.019  -0.610  1.00  0.00    -0.340 OA
ATOM     23  H4  UNL     1      -7.922  -0.235  -0.351  1.00  0.00     0.220 HD
ENDBRANCH  18  22
BRANCH  16  24
HETATM   24  O3  UNL     1     -11.468  -0.060  -0.099  1.00  0.00    -0.360 OA
ATOM     25  H3  UNL     1     -10.874   0.561  -0.504  1.00  0.00     0.217 HD
ENDBRANCH  16  24
BRANCH  14  26
HETATM   26  O2  UNL     1     -12.799  -4.560   0.640  1.00  0.00    -0.361 OA
ATOM     27  H2  UNL     1     -13.636  -4.248   0.963  1.00  0.00     0.217 HD
ENDBRANCH  14  26
TORSDOF 4
ENDMDL
