MODEL 2
REMARK VINA RESULT: -5.654449408      0.378      1.350
REMARK  8 active torsions:
REMARK  status: ('A' for Active; 'I' for Inactive)
REMARK    1  A    between atoms: C2_2  and  N1_3 
REMARK    2  A    between atoms: N1_3  and  C3_4 
REMARK    3  A    between atoms: N1_3  and  C5_6 
REMARK    4  A    between atoms: C5_6  and  C6_7 
REMARK    5  A    between atoms: C6_7  and  C7_8 
REMARK    6  A    between atoms: C7_8  and  N2_9 
REMARK       I    between atoms: N2_9  and  C8_11 
REMARK    7  A    between atoms: C8_11  and  C9_13 
REMARK    8  A    between atoms: C9_13  and  N3_14 
ROOT
HETATM    1  N3  UNL     1     -33.654  -4.839  10.503  1.00  0.00    -0.245 N 
HETATM    2  N4  UNL     1     -33.887  -6.102  10.815  1.00  0.00    -0.283 N 
ATOM      3  H4  UNL     1     -34.853  -6.400  10.950  1.00  0.00     0.188 HD
HETATM    4  C10 UNL     1     -32.908  -7.010  10.961  1.00  0.00     0.099 A 
HETATM    5  C11 UNL     1     -33.212  -8.425  11.324  1.00  0.00     0.091 C 
HETATM    6  N5  UNL     1     -31.598  -6.693  10.795  1.00  0.00    -0.294 N 
HETATM    7  C12 UNL     1     -31.331  -5.415  10.476  1.00  0.00     0.112 A 
HETATM    8  C13 UNL     1     -29.963  -5.254  10.343  1.00  0.00     0.057 A 
HETATM    9  C14 UNL     1     -29.445  -6.514  10.604  1.00  0.00     0.034 A 
HETATM   10  S1  UNL     1     -28.021  -7.444  10.728  1.00  0.00    -0.100 SA
HETATM   11  C15 UNL     1     -28.704  -8.952  11.130  1.00  0.00     0.053 A 
HETATM   12  C16 UNL     1     -30.039  -8.688  11.158  1.00  0.00     0.038 A 
HETATM   13  C17 UNL     1     -30.430  -7.417  10.885  1.00  0.00     0.059 A 
HETATM   14  C18 UNL     1     -32.370  -4.492  10.331  1.00  0.00     0.289 A 
HETATM   15  O2  UNL     1     -32.128  -3.299  10.034  1.00  0.00    -0.264 OA
ENDROOT
BRANCH   1  16
HETATM   16  C9  UNL     1     -34.740  -3.883  10.384  1.00  0.00     0.255 C 
BRANCH  16  17
HETATM   17  C8  UNL     1     -35.894  -4.431   9.586  1.00  0.00     0.237 C 
HETATM   18  N2  UNL     1     -36.243  -3.870   8.338  1.00  0.00    -0.360 N 
ATOM     19  H2  UNL     1     -35.691  -3.068   8.035  1.00  0.00     0.162 HD
HETATM   20  O1  UNL     1     -36.533  -5.400  10.070  1.00  0.00    -0.272 OA
BRANCH  18  21
HETATM   21  C7  UNL     1     -37.272  -4.294   7.458  1.00  0.00     0.124 C 
BRANCH  21  22
HETATM   22  C6  UNL     1     -36.973  -4.221   6.015  1.00  0.00     0.050 C 
BRANCH  22  23
HETATM   23  C5  UNL     1     -37.475  -3.057   5.268  1.00  0.00     0.274 C 
BRANCH  23  24
HETATM   24  N1  UNL     1     -36.546  -2.772   4.125  1.00  0.00     0.087 N 
BRANCH  24  25
HETATM   25  C2  UNL     1     -35.205  -3.119   4.490  1.00  0.00     0.268 C 
HETATM   26  C1  UNL     1     -34.329  -1.961   4.843  1.00  0.00     0.037 C 
ENDBRANCH  24  25
BRANCH  24  27
HETATM   27  C3  UNL     1     -37.019  -3.490   2.983  1.00  0.00     0.268 C 
HETATM   28  C4  UNL     1     -36.261  -3.160   1.724  1.00  0.00     0.037 C 
ENDBRANCH  24  27
ENDBRANCH  23  24
ENDBRANCH  22  23
ENDBRANCH  21  22
ENDBRANCH  18  21
ENDBRANCH  16  17
ENDBRANCH   1  16
TORSDOF 8
ENDMDL
