MODEL 1
REMARK VINA RESULT: -5.711481956      0.000      0.000
REMARK  8 active torsions:
REMARK  status: ('A' for Active; 'I' for Inactive)
REMARK    1  A    between atoms: C2_2  and  N1_3 
REMARK    2  A    between atoms: N1_3  and  C3_4 
REMARK    3  A    between atoms: N1_3  and  C5_6 
REMARK    4  A    between atoms: C5_6  and  C6_7 
REMARK    5  A    between atoms: C6_7  and  C7_8 
REMARK    6  A    between atoms: C7_8  and  N2_9 
REMARK       I    between atoms: N2_9  and  C8_11 
REMARK    7  A    between atoms: C8_11  and  C9_13 
REMARK    8  A    between atoms: C9_13  and  N3_14 
ROOT
HETATM    1  N3  UNL     1     -33.615  -4.921  10.612  1.00  0.00    -0.245 N 
HETATM    2  N4  UNL     1     -33.812  -6.191  10.915  1.00  0.00    -0.283 N 
ATOM      3  H4  UNL     1     -34.767  -6.510  11.081  1.00  0.00     0.188 HD
HETATM    4  C10 UNL     1     -32.811  -7.082  11.014  1.00  0.00     0.099 A 
HETATM    5  C11 UNL     1     -33.074  -8.506  11.370  1.00  0.00     0.091 C 
HETATM    6  N5  UNL     1     -31.515  -6.737  10.806  1.00  0.00    -0.294 N 
HETATM    7  C12 UNL     1     -31.284  -5.450  10.493  1.00  0.00     0.112 A 
HETATM    8  C13 UNL     1     -29.925  -5.260  10.314  1.00  0.00     0.057 A 
HETATM    9  C14 UNL     1     -29.374  -6.513  10.540  1.00  0.00     0.034 A 
HETATM   10  S1  UNL     1     -27.928  -7.416  10.600  1.00  0.00    -0.100 SA
HETATM   11  C15 UNL     1     -28.566  -8.942  11.008  1.00  0.00     0.053 A 
HETATM   12  C16 UNL     1     -29.905  -8.705  11.087  1.00  0.00     0.038 A 
HETATM   13  C17 UNL     1     -30.330  -7.438  10.844  1.00  0.00     0.059 A 
HETATM   14  C18 UNL     1     -32.346  -4.546  10.398  1.00  0.00     0.289 A 
HETATM   15  O2  UNL     1     -32.137  -3.345  10.108  1.00  0.00    -0.264 OA
ENDROOT
BRANCH   1  16
HETATM   16  C9  UNL     1     -34.723  -3.985  10.543  1.00  0.00     0.255 C 
BRANCH  16  17
HETATM   17  C8  UNL     1     -35.879  -4.531   9.747  1.00  0.00     0.237 C 
HETATM   18  N2  UNL     1     -36.279  -3.919   8.539  1.00  0.00    -0.360 N 
ATOM     19  H2  UNL     1     -35.762  -3.083   8.264  1.00  0.00     0.162 HD
HETATM   20  O1  UNL     1     -36.473  -5.545  10.195  1.00  0.00    -0.272 OA
BRANCH  18  21
HETATM   21  C7  UNL     1     -37.317  -4.332   7.663  1.00  0.00     0.124 C 
BRANCH  21  22
HETATM   22  C6  UNL     1     -36.992  -4.350   6.224  1.00  0.00     0.050 C 
BRANCH  22  23
HETATM   23  C5  UNL     1     -36.421  -3.130   5.634  1.00  0.00     0.274 C 
BRANCH  23  24
HETATM   24  N1  UNL     1     -35.920  -3.443   4.255  1.00  0.00     0.087 N 
BRANCH  24  25
HETATM   25  C2  UNL     1     -36.966  -3.236   3.298  1.00  0.00     0.268 C 
HETATM   26  C1  UNL     1     -36.546  -3.360   1.869  1.00  0.00     0.037 C 
ENDBRANCH  24  25
BRANCH  24  27
HETATM   27  C3  UNL     1     -34.768  -2.632   4.009  1.00  0.00     0.268 C 
HETATM   28  C4  UNL     1     -34.323  -1.859   5.221  1.00  0.00     0.037 C 
ENDBRANCH  24  27
ENDBRANCH  23  24
ENDBRANCH  22  23
ENDBRANCH  21  22
ENDBRANCH  18  21
ENDBRANCH  16  17
ENDBRANCH   1  16
TORSDOF 8
ENDMDL
