MODEL 3
REMARK VINA RESULT: -5.523398338      1.442      2.408
REMARK  8 active torsions:
REMARK  status: ('A' for Active; 'I' for Inactive)
REMARK    1  A    between atoms: C2_2  and  N1_3 
REMARK    2  A    between atoms: N1_3  and  C3_4 
REMARK    3  A    between atoms: N1_3  and  C5_6 
REMARK    4  A    between atoms: C5_6  and  C6_7 
REMARK    5  A    between atoms: C6_7  and  C7_8 
REMARK    6  A    between atoms: C7_8  and  N2_9 
REMARK       I    between atoms: N2_9  and  C8_11 
REMARK    7  A    between atoms: C8_11  and  C9_13 
REMARK    8  A    between atoms: C9_13  and  N3_14 
ROOT
HETATM    1  N3  UNL     1     -35.119  -6.135  10.983  1.00  0.00    -0.245 N 
HETATM    2  N4  UNL     1     -34.153  -5.289  10.676  1.00  0.00    -0.283 N 
ATOM      3  H4  UNL     1     -34.402  -4.325  10.454  1.00  0.00     0.188 HD
HETATM    4  C10 UNL     1     -32.857  -5.641  10.644  1.00  0.00     0.099 A 
HETATM    5  C11 UNL     1     -31.795  -4.657  10.282  1.00  0.00     0.091 C 
HETATM    6  N5  UNL     1     -32.444  -6.902  10.929  1.00  0.00    -0.294 N 
HETATM    7  C12 UNL     1     -33.407  -7.786  11.247  1.00  0.00     0.112 A 
HETATM    8  C13 UNL     1     -32.829  -9.016  11.508  1.00  0.00     0.057 A 
HETATM    9  C14 UNL     1     -31.471  -8.800  11.324  1.00  0.00     0.034 A 
HETATM   10  S1  UNL     1     -29.923  -9.516  11.358  1.00  0.00    -0.100 SA
HETATM   11  C15 UNL     1     -28.980  -8.165  10.922  1.00  0.00     0.053 A 
HETATM   12  C16 UNL     1     -29.907  -7.182  10.760  1.00  0.00     0.038 A 
HETATM   13  C17 UNL     1     -31.208  -7.509  10.968  1.00  0.00     0.059 A 
HETATM   14  C18 UNL     1     -34.747  -7.390  11.272  1.00  0.00     0.289 A 
HETATM   15  O2  UNL     1     -35.649  -8.209  11.567  1.00  0.00    -0.264 OA
ENDROOT
BRANCH   1  16
HETATM   16  C9  UNL     1     -36.510  -5.719  10.978  1.00  0.00     0.255 C 
BRANCH  16  17
HETATM   17  C8  UNL     1     -36.744  -4.531  10.082  1.00  0.00     0.237 C 
HETATM   18  N2  UNL     1     -37.061  -4.704   8.717  1.00  0.00    -0.360 N 
ATOM     19  H2  UNL     1     -37.091  -5.667   8.380  1.00  0.00     0.162 HD
HETATM   20  O1  UNL     1     -36.645  -3.385  10.591  1.00  0.00    -0.272 OA
BRANCH  18  21
HETATM   21  C7  UNL     1     -37.343  -3.695   7.761  1.00  0.00     0.124 C 
BRANCH  21  22
HETATM   22  C6  UNL     1     -37.083  -4.037   6.349  1.00  0.00     0.050 C 
BRANCH  22  23
HETATM   23  C5  UNL     1     -36.659  -2.955   5.447  1.00  0.00     0.274 C 
BRANCH  23  24
HETATM   24  N1  UNL     1     -36.110  -3.557   4.187  1.00  0.00     0.087 N 
BRANCH  24  25
HETATM   25  C2  UNL     1     -37.033  -3.355   3.109  1.00  0.00     0.268 C 
HETATM   26  C1  UNL     1     -36.409  -3.270   1.754  1.00  0.00     0.037 C 
ENDBRANCH  24  25
BRANCH  24  27
HETATM   27  C3  UNL     1     -34.828  -2.976   3.942  1.00  0.00     0.268 C 
HETATM   28  C4  UNL     1     -34.600  -1.705   4.717  1.00  0.00     0.037 C 
ENDBRANCH  24  27
ENDBRANCH  23  24
ENDBRANCH  22  23
ENDBRANCH  21  22
ENDBRANCH  18  21
ENDBRANCH  16  17
ENDBRANCH   1  16
TORSDOF 8
ENDMDL
