MODEL 7
REMARK VINA RESULT: -7.009462042      1.277      1.989
REMARK  5 active torsions:
REMARK  status: ('A' for Active; 'I' for Inactive)
REMARK    1  A    between atoms: C2_2  and  P1_3 
REMARK    2  A    between atoms: P1_3  and  O3_6 
REMARK    3  A    between atoms: O3_6  and  C3_7 
REMARK    4  A    between atoms: C3_7  and  C4_8 
REMARK    5  A    between atoms: C7_11  and  N1_12 
ROOT
HETATM    1  C4  UNL     1       2.570 -10.002  26.896  1.00  0.00    -0.034 A 
HETATM    2  C5  UNL     1       3.301 -10.137  25.753  1.00  0.00     0.012 A 
HETATM    3  C6  UNL     1       4.489 -10.835  25.745  1.00  0.00     0.037 A 
HETATM    4  C7  UNL     1       4.926 -11.402  26.945  1.00  0.00     0.102 A 
HETATM    5  C8  UNL     1       4.186 -11.263  28.094  1.00  0.00     0.037 A 
HETATM    6  C9  UNL     1       3.002 -10.558  28.066  1.00  0.00     0.012 A 
ENDROOT
BRANCH   1   7
HETATM    7  C3  UNL     1       1.302  -9.250  26.873  1.00  0.00     0.217 C 
BRANCH   7   8
HETATM    8  O3  UNL     1       1.555  -7.987  27.404  1.00  0.00    -0.307 OA
BRANCH   8   9
HETATM    9  P1  UNL     1       1.720  -6.830  26.214  1.00  0.00     0.249 P 
HETATM   10  O1  UNL     1       3.207  -6.621  25.975  1.00  0.00    -0.646 OA
HETATM   11  O2  UNL     1       1.133  -5.341  26.813  1.00  0.00    -0.646 OA
BRANCH   9  12
HETATM   12  C2  UNL     1       0.835  -7.218  24.706  1.00  0.00     0.131 C 
HETATM   13  C1  UNL     1       1.557  -6.550  23.552  1.00  0.00     0.018 C 
ENDBRANCH   9  12
ENDBRANCH   8   9
ENDBRANCH   7   8
ENDBRANCH   1   7
BRANCH   4  14
HETATM   14  N1  UNL     1       6.150 -12.127  26.960  1.00  0.00    -0.116 N 
HETATM   15  O4  UNL     1       7.023 -11.829  27.769  1.00  0.00    -0.532 OA
HETATM   16  O5  UNL     1       6.356 -13.152  26.078  1.00  0.00    -0.532 OA
ENDBRANCH   4  14
TORSDOF 5
ENDMDL
