MODEL 10
REMARK VINA RESULT: -6.983250477      3.452      6.873
REMARK  5 active torsions:
REMARK  status: ('A' for Active; 'I' for Inactive)
REMARK    1  A    between atoms: C2_2  and  P1_3 
REMARK    2  A    between atoms: P1_3  and  O3_6 
REMARK    3  A    between atoms: O3_6  and  C3_7 
REMARK    4  A    between atoms: C3_7  and  C4_8 
REMARK    5  A    between atoms: C7_11  and  N1_12 
ROOT
HETATM    1  C4  UNL     1       3.571 -10.413  27.184  1.00  0.00    -0.034 A 
HETATM    2  C5  UNL     1       3.505  -9.917  25.916  1.00  0.00     0.012 A 
HETATM    3  C6  UNL     1       2.659  -8.876  25.600  1.00  0.00     0.037 A 
HETATM    4  C7  UNL     1       1.869  -8.340  26.620  1.00  0.00     0.102 A 
HETATM    5  C8  UNL     1       1.939  -8.843  27.896  1.00  0.00     0.037 A 
HETATM    6  C9  UNL     1       2.796  -9.885  28.177  1.00  0.00     0.012 A 
ENDROOT
BRANCH   1   7
HETATM    7  C3  UNL     1       4.486 -11.527  27.492  1.00  0.00     0.217 C 
BRANCH   7   8
HETATM    8  O3  UNL     1       3.911 -12.270  28.520  1.00  0.00    -0.307 OA
BRANCH   8   9
HETATM    9  P1  UNL     1       4.808 -13.625  28.890  1.00  0.00     0.249 P 
HETATM   10  O1  UNL     1       3.979 -14.845  28.519  1.00  0.00    -0.646 OA
HETATM   11  O2  UNL     1       5.012 -13.702  30.585  1.00  0.00    -0.646 OA
BRANCH   9  12
HETATM   12  C2  UNL     1       6.429 -13.646  28.128  1.00  0.00     0.131 C 
HETATM   13  C1  UNL     1       6.584 -14.959  27.386  1.00  0.00     0.018 C 
ENDBRANCH   9  12
ENDBRANCH   8   9
ENDBRANCH   7   8
ENDBRANCH   1   7
BRANCH   4  14
HETATM   14  N1  UNL     1       0.989  -7.265  26.317  1.00  0.00    -0.116 N 
HETATM   15  O4  UNL     1       0.568  -6.550  27.221  1.00  0.00    -0.532 OA
HETATM   16  O5  UNL     1       0.609  -7.026  25.024  1.00  0.00    -0.532 OA
ENDBRANCH   4  14
TORSDOF 5
ENDMDL
