MODEL 4
REMARK VINA RESULT: -7.591007749      3.163      6.395
REMARK  5 active torsions:
REMARK  status: ('A' for Active; 'I' for Inactive)
REMARK    1  A    between atoms: C2_2  and  P1_3 
REMARK    2  A    between atoms: P1_3  and  O3_6 
REMARK    3  A    between atoms: O3_6  and  C3_7 
REMARK    4  A    between atoms: C3_7  and  C4_8 
REMARK    5  A    between atoms: C7_11  and  N1_12 
ROOT
HETATM    1  C4  UNL     1       2.895  -9.779  26.729  1.00  0.00    -0.034 A 
HETATM    2  C5  UNL     1       2.185  -9.231  27.756  1.00  0.00     0.012 A 
HETATM    3  C6  UNL     1       1.497  -8.048  27.593  1.00  0.00     0.037 A 
HETATM    4  C7  UNL     1       1.547  -7.424  26.345  1.00  0.00     0.102 A 
HETATM    5  C8  UNL     1       2.264  -7.981  25.314  1.00  0.00     0.037 A 
HETATM    6  C9  UNL     1       2.941  -9.166  25.510  1.00  0.00     0.012 A 
ENDROOT
BRANCH   1   7
HETATM    7  C3  UNL     1       3.621 -11.046  26.932  1.00  0.00     0.217 C 
BRANCH   7   8
HETATM    8  O3  UNL     1       4.223 -11.383  25.722  1.00  0.00    -0.307 OA
BRANCH   8   9
HETATM    9  P1  UNL     1       5.818 -11.826  25.918  1.00  0.00     0.249 P 
HETATM   10  O1  UNL     1       6.679 -10.779  25.229  1.00  0.00    -0.646 OA
HETATM   11  O2  UNL     1       6.091 -13.283  25.067  1.00  0.00    -0.646 OA
BRANCH   9  12
HETATM   12  C2  UNL     1       6.290 -12.078  27.627  1.00  0.00     0.131 C 
HETATM   13  C1  UNL     1       6.281 -13.568  27.905  1.00  0.00     0.018 C 
ENDBRANCH   9  12
ENDBRANCH   8   9
ENDBRANCH   7   8
ENDBRANCH   1   7
BRANCH   4  14
HETATM   14  N1  UNL     1       0.844  -6.203  26.155  1.00  0.00    -0.116 N 
HETATM   15  O4  UNL     1       1.050  -5.533  25.148  1.00  0.00    -0.532 OA
HETATM   16  O5  UNL     1      -0.059  -5.773  27.089  1.00  0.00    -0.532 OA
ENDBRANCH   4  14
TORSDOF 5
ENDMDL
