MODEL 3
REMARK VINA RESULT: -7.602628432      3.162      6.501
REMARK  5 active torsions:
REMARK  status: ('A' for Active; 'I' for Inactive)
REMARK    1  A    between atoms: C2_2  and  P1_3 
REMARK    2  A    between atoms: P1_3  and  O3_6 
REMARK    3  A    between atoms: O3_6  and  C3_7 
REMARK    4  A    between atoms: C3_7  and  C4_8 
REMARK    5  A    between atoms: C7_11  and  N1_12 
ROOT
HETATM    1  C4  UNL     1       2.899  -9.780  26.741  1.00  0.00    -0.034 A 
HETATM    2  C5  UNL     1       2.936  -9.174  25.520  1.00  0.00     0.012 A 
HETATM    3  C6  UNL     1       2.273  -7.987  25.293  1.00  0.00     0.037 A 
HETATM    4  C7  UNL     1       1.560  -7.420  26.352  1.00  0.00     0.102 A 
HETATM    5  C8  UNL     1       1.526  -8.034  27.580  1.00  0.00     0.037 A 
HETATM    6  C9  UNL     1       2.200  -9.221  27.773  1.00  0.00     0.012 A 
ENDROOT
BRANCH   1   7
HETATM    7  C3  UNL     1       3.618 -11.049  26.954  1.00  0.00     0.217 C 
BRANCH   7   8
HETATM    8  O3  UNL     1       4.209 -11.404  25.743  1.00  0.00    -0.307 OA
BRANCH   8   9
HETATM    9  P1  UNL     1       5.808 -11.836  25.931  1.00  0.00     0.249 P 
HETATM   10  O1  UNL     1       6.658 -10.775  25.251  1.00  0.00    -0.646 OA
HETATM   11  O2  UNL     1       6.091 -13.282  25.065  1.00  0.00    -0.646 OA
BRANCH   9  12
HETATM   12  C2  UNL     1       6.286 -12.101  27.637  1.00  0.00     0.131 C 
HETATM   13  C1  UNL     1       6.274 -13.593  27.904  1.00  0.00     0.018 C 
ENDBRANCH   9  12
ENDBRANCH   8   9
ENDBRANCH   7   8
ENDBRANCH   1   7
BRANCH   4  14
HETATM   14  N1  UNL     1       0.870  -6.195  26.140  1.00  0.00    -0.116 N 
HETATM   15  O4  UNL     1       1.083  -5.545  25.121  1.00  0.00    -0.532 OA
HETATM   16  O5  UNL     1      -0.028  -5.739  27.066  1.00  0.00    -0.532 OA
ENDBRANCH   4  14
TORSDOF 5
ENDMDL
