MODEL 6
REMARK VINA RESULT: -7.442650694      3.078      6.666
REMARK  5 active torsions:
REMARK  status: ('A' for Active; 'I' for Inactive)
REMARK    1  A    between atoms: C2_2  and  P1_3 
REMARK    2  A    between atoms: P1_3  and  O3_6 
REMARK    3  A    between atoms: O3_6  and  C3_7 
REMARK    4  A    between atoms: C3_7  and  C4_8 
REMARK    5  A    between atoms: C7_11  and  N1_12 
ROOT
HETATM    1  C4  UNL     1       3.005 -10.159  27.272  1.00  0.00    -0.034 A 
HETATM    2  C5  UNL     1       3.153  -9.838  25.955  1.00  0.00     0.012 A 
HETATM    3  C6  UNL     1       2.484  -8.767  25.403  1.00  0.00     0.037 A 
HETATM    4  C7  UNL     1       1.648  -8.016  26.232  1.00  0.00     0.102 A 
HETATM    5  C8  UNL     1       1.502  -8.344  27.558  1.00  0.00     0.037 A 
HETATM    6  C9  UNL     1       2.186  -9.422  28.078  1.00  0.00     0.012 A 
ENDROOT
BRANCH   1   7
HETATM    7  C3  UNL     1       3.734 -11.311  27.834  1.00  0.00     0.217 C 
BRANCH   7   8
HETATM    8  O3  UNL     1       4.680 -11.707  26.892  1.00  0.00    -0.307 OA
BRANCH   8   9
HETATM    9  P1  UNL     1       5.940 -12.549  27.588  1.00  0.00     0.249 P 
HETATM   10  O1  UNL     1       7.101 -11.583  27.766  1.00  0.00    -0.646 OA
HETATM   11  O2  UNL     1       6.487 -13.732  26.483  1.00  0.00    -0.646 OA
BRANCH   9  12
HETATM   12  C2  UNL     1       5.499 -13.371  29.118  1.00  0.00     0.131 C 
HETATM   13  C1  UNL     1       4.950 -14.742  28.775  1.00  0.00     0.018 C 
ENDBRANCH   9  12
ENDBRANCH   8   9
ENDBRANCH   7   8
ENDBRANCH   1   7
BRANCH   4  14
HETATM   14  N1  UNL     1       0.948  -6.906  25.683  1.00  0.00    -0.116 N 
HETATM   15  O4  UNL     1       0.989  -6.700  24.475  1.00  0.00    -0.532 OA
HETATM   16  O5  UNL     1       0.233  -6.070  26.496  1.00  0.00    -0.532 OA
ENDBRANCH   4  14
TORSDOF 5
ENDMDL
