MODEL 2
REMARK VINA RESULT: -7.722841088      0.013      1.194
REMARK  5 active torsions:
REMARK  status: ('A' for Active; 'I' for Inactive)
REMARK    1  A    between atoms: C2_2  and  P1_3 
REMARK    2  A    between atoms: P1_3  and  O3_6 
REMARK    3  A    between atoms: O3_6  and  C3_7 
REMARK    4  A    between atoms: C3_7  and  C4_8 
REMARK    5  A    between atoms: C7_11  and  N1_12 
ROOT
HETATM    1  C4  UNL     1       2.538  -9.989  26.818  1.00  0.00    -0.034 A 
HETATM    2  C5  UNL     1       3.323 -10.122  25.711  1.00  0.00     0.012 A 
HETATM    3  C6  UNL     1       4.514 -10.813  25.761  1.00  0.00     0.037 A 
HETATM    4  C7  UNL     1       4.897 -11.375  26.981  1.00  0.00     0.102 A 
HETATM    5  C8  UNL     1       4.102 -11.238  28.094  1.00  0.00     0.037 A 
HETATM    6  C9  UNL     1       2.917 -10.540  28.008  1.00  0.00     0.012 A 
ENDROOT
BRANCH   1   7
HETATM    7  C3  UNL     1       1.268  -9.244  26.733  1.00  0.00     0.217 C 
BRANCH   7   8
HETATM    8  O3  UNL     1       1.528  -7.929  27.112  1.00  0.00    -0.307 OA
BRANCH   8   9
HETATM    9  P1  UNL     1       1.550  -6.895  25.805  1.00  0.00     0.249 P 
HETATM   10  O1  UNL     1       0.992  -7.648  24.608  1.00  0.00    -0.646 OA
HETATM   11  O2  UNL     1       3.176  -6.541  25.412  1.00  0.00    -0.646 OA
BRANCH   9  12
HETATM   12  C2  UNL     1       0.694  -5.348  26.096  1.00  0.00     0.131 C 
HETATM   13  C1  UNL     1       0.266  -5.313  27.549  1.00  0.00     0.018 C 
ENDBRANCH   9  12
ENDBRANCH   8   9
ENDBRANCH   7   8
ENDBRANCH   1   7
BRANCH   4  14
HETATM   14  N1  UNL     1       6.122 -12.093  27.056  1.00  0.00    -0.116 N 
HETATM   15  O4  UNL     1       7.015 -11.696  27.798  1.00  0.00    -0.532 OA
HETATM   16  O5  UNL     1       6.310 -13.221  26.304  1.00  0.00    -0.532 OA
ENDBRANCH   4  14
TORSDOF 5
ENDMDL
