MODEL 5
REMARK VINA RESULT: -7.448412372      3.072      6.560
REMARK  5 active torsions:
REMARK  status: ('A' for Active; 'I' for Inactive)
REMARK    1  A    between atoms: C2_2  and  P1_3 
REMARK    2  A    between atoms: P1_3  and  O3_6 
REMARK    3  A    between atoms: O3_6  and  C3_7 
REMARK    4  A    between atoms: C3_7  and  C4_8 
REMARK    5  A    between atoms: C7_11  and  N1_12 
ROOT
HETATM    1  C4  UNL     1       2.977 -10.198  27.240  1.00  0.00    -0.034 A 
HETATM    2  C5  UNL     1       2.151  -9.466  28.041  1.00  0.00     0.012 A 
HETATM    3  C6  UNL     1       1.475  -8.369  27.554  1.00  0.00     0.037 A 
HETATM    4  C7  UNL     1       1.659  -8.025  26.213  1.00  0.00     0.102 A 
HETATM    5  C8  UNL     1       2.492  -8.765  25.410  1.00  0.00     0.037 A 
HETATM    6  C9  UNL     1       3.154  -9.857  25.929  1.00  0.00     0.012 A 
ENDROOT
BRANCH   1   7
HETATM    7  C3  UNL     1       3.688 -11.367  27.789  1.00  0.00     0.217 C 
BRANCH   7   8
HETATM    8  O3  UNL     1       4.673 -11.727  26.872  1.00  0.00    -0.307 OA
BRANCH   8   9
HETATM    9  P1  UNL     1       5.926 -12.556  27.594  1.00  0.00     0.249 P 
HETATM   10  O1  UNL     1       7.085 -11.587  27.765  1.00  0.00    -0.646 OA
HETATM   11  O2  UNL     1       6.482 -13.758  26.514  1.00  0.00    -0.646 OA
BRANCH   9  12
HETATM   12  C2  UNL     1       5.471 -13.352  29.133  1.00  0.00     0.131 C 
HETATM   13  C1  UNL     1       4.905 -14.719  28.807  1.00  0.00     0.018 C 
ENDBRANCH   9  12
ENDBRANCH   8   9
ENDBRANCH   7   8
ENDBRANCH   1   7
BRANCH   4  14
HETATM   14  N1  UNL     1       0.970  -6.896  25.690  1.00  0.00    -0.116 N 
HETATM   15  O4  UNL     1       1.043  -6.641  24.492  1.00  0.00    -0.532 OA
HETATM   16  O5  UNL     1       0.229  -6.094  26.515  1.00  0.00    -0.532 OA
ENDBRANCH   4  14
TORSDOF 5
ENDMDL
