MODEL 8
REMARK VINA RESULT: -5.691780662      1.294      2.829
REMARK  4 active torsions:
REMARK  status: ('A' for Active; 'I' for Inactive)
REMARK    1  A    between atoms: O1_1  and  C1_3 
REMARK    2  A    between atoms: C2_4  and  O2_5 
REMARK    3  A    between atoms: C4_9  and  O4_10 
REMARK    4  A    between atoms: C5_12  and  O5_13 
ROOT
HETATM    1  C1  UNL     1     -34.664 -27.185  -7.279  1.00  0.00     0.182 C 
HETATM    2  C2  UNL     1     -35.721 -26.743  -6.341  1.00  0.00     0.173 C 
HETATM    3  C3  UNL     1     -36.168 -27.767  -5.349  1.00  0.00     0.205 C 
HETATM    4  O3  UNL     1     -35.108 -28.498  -4.823  1.00  0.00    -0.356 OA
HETATM    5  C4  UNL     1     -34.588 -29.258  -5.857  1.00  0.00     0.288 C 
HETATM    6  C5  UNL     1     -33.991 -28.463  -6.956  1.00  0.00     0.204 C 
ENDROOT
BRANCH   1   7
HETATM    7  O1  UNL     1     -35.167 -27.192  -8.601  1.00  0.00    -0.390 OA
ATOM      8  H1  UNL     1     -35.325 -26.301  -8.890  1.00  0.00     0.210 HD
ENDBRANCH   1   7
BRANCH   2   9
HETATM    9  O2  UNL     1     -35.349 -25.575  -5.636  1.00  0.00    -0.391 OA
ATOM     10  H2  UNL     1     -35.965 -24.864  -5.775  1.00  0.00     0.210 HD
ENDBRANCH   2   9
BRANCH   6  11
HETATM   11  O5  UNL     1     -32.619 -28.294  -6.661  1.00  0.00    -0.388 OA
ATOM     12  H5  UNL     1     -32.204 -27.647  -7.218  1.00  0.00     0.210 HD
ENDBRANCH   6  11
BRANCH   5  13
HETATM   13  O4  UNL     1     -35.540 -30.141  -6.397  1.00  0.00    -0.369 OA
ATOM     14  H4  UNL     1     -36.028 -30.598  -5.723  1.00  0.00     0.212 HD
ENDBRANCH   5  13
TORSDOF 4
ENDMDL
