MODEL 3
REMARK VINA RESULT: -6.251237746      0.777      3.017
REMARK  4 active torsions:
REMARK  status: ('A' for Active; 'I' for Inactive)
REMARK    1  A    between atoms: O1_1  and  C1_3 
REMARK    2  A    between atoms: C2_4  and  O2_5 
REMARK    3  A    between atoms: C4_9  and  O4_10 
REMARK    4  A    between atoms: C5_12  and  O5_13 
ROOT
HETATM    1  C1  UNL     1     -34.935 -29.081  -7.221  1.00  0.00     0.182 C 
HETATM    2  C2  UNL     1     -35.648 -27.855  -6.796  1.00  0.00     0.173 C 
HETATM    3  C3  UNL     1     -35.136 -27.215  -5.548  1.00  0.00     0.205 C 
HETATM    4  O3  UNL     1     -33.746 -27.203  -5.486  1.00  0.00    -0.356 OA
HETATM    5  C4  UNL     1     -33.336 -28.520  -5.363  1.00  0.00     0.288 C 
HETATM    6  C5  UNL     1     -33.655 -29.368  -6.536  1.00  0.00     0.204 C 
ENDROOT
BRANCH   1   7
HETATM    7  O1  UNL     1     -35.809 -30.192  -7.158  1.00  0.00    -0.390 OA
ATOM      8  H1  UNL     1     -35.557 -30.838  -7.807  1.00  0.00     0.210 HD
ENDBRANCH   1   7
BRANCH   2   9
HETATM    9  O2  UNL     1     -35.676 -26.878  -7.818  1.00  0.00    -0.391 OA
ATOM     10  H2  UNL     1     -35.265 -26.066  -7.545  1.00  0.00     0.210 HD
ENDBRANCH   2   9
BRANCH   6  11
HETATM   11  O5  UNL     1     -32.547 -29.317  -7.412  1.00  0.00    -0.388 OA
ATOM     12  H5  UNL     1     -31.789 -28.903  -7.016  1.00  0.00     0.210 HD
ENDBRANCH   6  11
BRANCH   5  13
HETATM   13  O4  UNL     1     -33.848 -29.130  -4.205  1.00  0.00    -0.369 OA
ATOM     14  H4  UNL     1     -33.483 -28.756  -3.412  1.00  0.00     0.212 HD
ENDBRANCH   5  13
TORSDOF 4
ENDMDL
