MODEL 2
REMARK VINA RESULT: -9.482552286      3.711      4.352
REMARK  2 active torsions:
REMARK  status: ('A' for Active; 'I' for Inactive)
REMARK    1  A    between atoms: C1_2  and  C2_4 
REMARK    2  A    between atoms: C7_12  and  C8_13 
ROOT
HETATM    1  C2  UNL     1      22.365 -14.584 -20.867  1.00  0.00     0.061 A 
HETATM    2  C3  UNL     1      20.984 -14.658 -20.950  1.00  0.00     0.061 A 
HETATM    3  C4  UNL     1      20.298 -14.459 -22.133  1.00  0.00     0.119 A 
HETATM    4  F1  UNL     1      18.933 -14.543 -22.156  1.00  0.00    -0.206 F 
HETATM    5  C5  UNL     1      21.031 -14.176 -23.260  1.00  0.00     0.074 A 
HETATM    6  C6  UNL     1      22.402 -14.101 -23.188  1.00  0.00     0.064 A 
HETATM    7  N2  UNL     1      23.360 -13.846 -24.114  1.00  0.00    -0.339 N 
ATOM      8  H2  UNL     1      23.186 -13.654 -25.101  1.00  0.00     0.167 HD
HETATM    9  C7  UNL     1      24.566 -13.885 -23.543  1.00  0.00     0.123 A 
HETATM   10  N4  UNL     1      24.428 -14.163 -22.244  1.00  0.00    -0.339 N 
ATOM     11  H4  UNL     1      25.179 -14.256 -21.561  1.00  0.00     0.167 HD
HETATM   12  C15 UNL     1      23.091 -14.301 -22.003  1.00  0.00     0.076 A 
ENDROOT
BRANCH   9  13
HETATM   13  C8  UNL     1      25.835 -13.659 -24.237  1.00  0.00     0.050 A 
HETATM   14  C9  UNL     1      26.098 -13.691 -25.581  1.00  0.00     0.031 A 
HETATM   15  C10 UNL     1      27.353 -13.447 -25.977  1.00  0.00    -0.040 A 
HETATM   16  C11 UNL     1      28.281 -13.184 -25.006  1.00  0.00     0.007 A 
HETATM   17  C14 UNL     1      27.933 -13.415 -27.377  1.00  0.00     0.059 C 
HETATM   18  S1  UNL     1      27.372 -13.283 -23.569  1.00  0.00    -0.089 SA
HETATM   19  C12 UNL     1      29.687 -12.909 -25.427  1.00  0.00     0.161 C 
HETATM   20  N3  UNL     1      29.782 -12.022 -26.533  1.00  0.00    -0.417 N 
HETATM   21  C13 UNL     1      28.792 -12.190 -27.545  1.00  0.00     0.118 C 
ATOM     22  H3  UNL     1      30.511 -11.312 -26.598  1.00  0.00     0.153 HD
ENDBRANCH   9  13
BRANCH   1  23
HETATM   23  C1  UNL     1      23.011 -14.807 -19.581  1.00  0.00     0.267 C 
HETATM   24  N1  UNL     1      24.378 -15.132 -19.432  1.00  0.00    -0.057 NA
HETATM   25  O1  UNL     1      22.343 -14.716 -18.513  1.00  0.00    -0.271 OA
ENDBRANCH   1  23
TORSDOF 2
ENDMDL
