MODEL 4
REMARK VINA RESULT: -9.286084464      3.619      7.708
REMARK  2 active torsions:
REMARK  status: ('A' for Active; 'I' for Inactive)
REMARK    1  A    between atoms: C1_2  and  C2_4 
REMARK    2  A    between atoms: C7_12  and  C8_13 
ROOT
HETATM    1  C2  UNL     1      29.954 -14.951 -20.491  1.00  0.00     0.061 A 
HETATM    2  C3  UNL     1      31.023 -14.071 -20.477  1.00  0.00     0.061 A 
HETATM    3  C4  UNL     1      30.868 -12.708 -20.649  1.00  0.00     0.119 A 
HETATM    4  F1  UNL     1      31.961 -11.886 -20.627  1.00  0.00    -0.206 F 
HETATM    5  C5  UNL     1      29.597 -12.227 -20.840  1.00  0.00     0.074 A 
HETATM    6  C6  UNL     1      28.527 -13.092 -20.854  1.00  0.00     0.064 A 
HETATM    7  N2  UNL     1      27.194 -12.906 -21.017  1.00  0.00    -0.339 N 
ATOM      8  H2  UNL     1      26.742 -12.003 -21.168  1.00  0.00     0.167 HD
HETATM    9  C7  UNL     1      26.560 -14.078 -20.951  1.00  0.00     0.123 A 
HETATM   10  N4  UNL     1      27.453 -15.049 -20.745  1.00  0.00    -0.339 N 
ATOM     11  H4  UNL     1      27.255 -16.045 -20.652  1.00  0.00     0.167 HD
HETATM   12  C15 UNL     1      28.682 -14.458 -20.682  1.00  0.00     0.076 A 
ENDROOT
BRANCH   9  13
HETATM   13  C8  UNL     1      25.114 -14.263 -21.083  1.00  0.00     0.050 A 
HETATM   14  C9  UNL     1      24.319 -14.066 -22.181  1.00  0.00     0.031 A 
HETATM   15  C10 UNL     1      23.008 -14.307 -22.054  1.00  0.00    -0.040 A 
HETATM   16  C11 UNL     1      22.561 -14.732 -20.832  1.00  0.00     0.007 A 
HETATM   17  C14 UNL     1      21.900 -14.179 -23.080  1.00  0.00     0.059 C 
HETATM   18  S1  UNL     1      23.985 -14.784 -19.899  1.00  0.00    -0.089 SA
HETATM   19  C12 UNL     1      21.102 -15.005 -20.669  1.00  0.00     0.161 C 
HETATM   20  N3  UNL     1      20.542 -15.744 -21.746  1.00  0.00    -0.417 N 
HETATM   21  C13 UNL     1      21.027 -15.406 -23.043  1.00  0.00     0.118 C 
ATOM     22  H3  UNL     1      19.840 -16.468 -21.600  1.00  0.00     0.153 HD
ENDBRANCH   9  13
BRANCH   1  23
HETATM   23  C1  UNL     1      30.204 -16.373 -20.302  1.00  0.00     0.267 C 
HETATM   24  N1  UNL     1      31.151 -16.893 -19.391  1.00  0.00    -0.057 NA
HETATM   25  O1  UNL     1      29.556 -17.224 -20.974  1.00  0.00    -0.271 OA
ENDBRANCH   1  23
TORSDOF 2
ENDMDL
