MODEL 3
REMARK VINA RESULT: -9.363195282      1.161      1.795
REMARK  2 active torsions:
REMARK  status: ('A' for Active; 'I' for Inactive)
REMARK    1  A    between atoms: C1_2  and  C2_4 
REMARK    2  A    between atoms: C7_12  and  C8_13 
ROOT
HETATM    1  C2  UNL     1      23.245 -14.535 -21.391  1.00  0.00     0.061 A 
HETATM    2  C3  UNL     1      22.459 -14.447 -22.528  1.00  0.00     0.061 A 
HETATM    3  C4  UNL     1      22.942 -13.972 -23.732  1.00  0.00     0.119 A 
HETATM    4  F1  UNL     1      22.119 -13.906 -24.823  1.00  0.00    -0.206 F 
HETATM    5  C5  UNL     1      24.255 -13.574 -23.785  1.00  0.00     0.074 A 
HETATM    6  C6  UNL     1      25.045 -13.658 -22.662  1.00  0.00     0.064 A 
HETATM    7  N2  UNL     1      26.343 -13.346 -22.424  1.00  0.00    -0.339 N 
ATOM      8  H2  UNL     1      26.991 -12.966 -23.114  1.00  0.00     0.167 HD
HETATM    9  C7  UNL     1      26.649 -13.612 -21.152  1.00  0.00     0.123 A 
HETATM   10  N4  UNL     1      25.569 -14.098 -20.534  1.00  0.00    -0.339 N 
ATOM     11  H4  UNL     1      25.509 -14.388 -19.558  1.00  0.00     0.167 HD
HETATM   12  C15 UNL     1      24.562 -14.134 -21.454  1.00  0.00     0.076 A 
ENDROOT
BRANCH   9  13
HETATM   13  C8  UNL     1      27.961 -13.402 -20.538  1.00  0.00     0.050 A 
HETATM   14  C9  UNL     1      28.459 -12.275 -19.938  1.00  0.00     0.031 A 
HETATM   15  C10 UNL     1      29.701 -12.328 -19.444  1.00  0.00    -0.040 A 
HETATM   16  C11 UNL     1      30.383 -13.508 -19.579  1.00  0.00     0.007 A 
HETATM   17  C14 UNL     1      30.505 -11.256 -18.736  1.00  0.00     0.059 C 
HETATM   18  S1  UNL     1      29.266 -14.507 -20.389  1.00  0.00    -0.089 SA
HETATM   19  C12 UNL     1      31.772 -13.588 -19.036  1.00  0.00     0.161 C 
HETATM   20  N3  UNL     1      31.905 -13.023 -17.740  1.00  0.00    -0.417 N 
HETATM   21  C13 UNL     1      31.153 -11.834 -17.506  1.00  0.00     0.118 C 
ATOM     22  H3  UNL     1      32.498 -13.440 -17.023  1.00  0.00     0.153 HD
ENDBRANCH   9  13
BRANCH   1  23
HETATM   23  C1  UNL     1      22.659 -15.048 -20.161  1.00  0.00     0.267 C 
HETATM   24  N1  UNL     1      23.358 -15.846 -19.227  1.00  0.00    -0.057 NA
HETATM   25  O1  UNL     1      21.456 -14.788 -19.877  1.00  0.00    -0.271 OA
ENDBRANCH   1  23
TORSDOF 2
ENDMDL
