MODEL 7
REMARK VINA RESULT: -9.110827356      1.921      2.718
REMARK  2 active torsions:
REMARK  status: ('A' for Active; 'I' for Inactive)
REMARK    1  A    between atoms: C1_2  and  C2_4 
REMARK    2  A    between atoms: C7_12  and  C8_13 
ROOT
HETATM    1  C2  UNL     1      23.383 -14.056 -22.819  1.00  0.00     0.061 A 
HETATM    2  C3  UNL     1      22.090 -14.292 -22.383  1.00  0.00     0.061 A 
HETATM    3  C4  UNL     1      21.801 -14.697 -21.094  1.00  0.00     0.119 A 
HETATM    4  F1  UNL     1      20.503 -14.916 -20.719  1.00  0.00    -0.206 F 
HETATM    5  C5  UNL     1      22.850 -14.868 -20.225  1.00  0.00     0.074 A 
HETATM    6  C6  UNL     1      24.138 -14.636 -20.647  1.00  0.00     0.064 A 
HETATM    7  N2  UNL     1      25.341 -14.721 -20.025  1.00  0.00    -0.339 N 
ATOM      8  H2  UNL     1      25.480 -14.997 -19.053  1.00  0.00     0.167 HD
HETATM    9  C7  UNL     1      26.316 -14.389 -20.874  1.00  0.00     0.123 A 
HETATM   10  N4  UNL     1      25.781 -14.083 -22.059  1.00  0.00    -0.339 N 
ATOM     11  H4  UNL     1      26.287 -13.793 -22.895  1.00  0.00     0.167 HD
HETATM   12  C15 UNL     1      24.429 -14.230 -21.939  1.00  0.00     0.076 A 
ENDROOT
BRANCH   9  13
HETATM   13  C8  UNL     1      27.743 -14.366 -20.551  1.00  0.00     0.050 A 
HETATM   14  C9  UNL     1      28.677 -15.356 -20.711  1.00  0.00     0.031 A 
HETATM   15  C10 UNL     1      29.935 -15.094 -20.338  1.00  0.00    -0.040 A 
HETATM   16  C11 UNL     1      30.193 -13.853 -19.821  1.00  0.00     0.007 A 
HETATM   17  C14 UNL     1      31.164 -15.980 -20.396  1.00  0.00     0.059 C 
HETATM   18  S1  UNL     1      28.671 -13.090 -19.875  1.00  0.00    -0.089 SA
HETATM   19  C12 UNL     1      31.591 -13.540 -19.398  1.00  0.00     0.161 C 
HETATM   20  N3  UNL     1      32.572 -13.959 -20.335  1.00  0.00    -0.417 N 
HETATM   21  C13 UNL     1      32.321 -15.209 -20.972  1.00  0.00     0.118 C 
ATOM     22  H3  UNL     1      33.401 -13.402 -20.538  1.00  0.00     0.153 HD
ENDBRANCH   9  13
BRANCH   1  23
HETATM   23  C1  UNL     1      23.602 -13.631 -24.194  1.00  0.00     0.267 C 
HETATM   24  N1  UNL     1      22.719 -13.922 -25.259  1.00  0.00    -0.057 NA
HETATM   25  O1  UNL     1      24.630 -12.962 -24.494  1.00  0.00    -0.271 OA
ENDBRANCH   1  23
TORSDOF 2
ENDMDL
