MODEL 6
REMARK VINA RESULT: -9.200712410      3.391      4.042
REMARK  2 active torsions:
REMARK  status: ('A' for Active; 'I' for Inactive)
REMARK    1  A    between atoms: C1_2  and  C2_4 
REMARK    2  A    between atoms: C7_12  and  C8_13 
ROOT
HETATM    1  C2  UNL     1      22.025 -14.819 -20.785  1.00  0.00     0.061 A 
HETATM    2  C3  UNL     1      20.657 -14.990 -20.915  1.00  0.00     0.061 A 
HETATM    3  C4  UNL     1      19.991 -14.780 -22.108  1.00  0.00     0.119 A 
HETATM    4  F1  UNL     1      18.637 -14.963 -22.178  1.00  0.00    -0.206 F 
HETATM    5  C5  UNL     1      20.731 -14.387 -23.195  1.00  0.00     0.074 A 
HETATM    6  C6  UNL     1      22.091 -14.215 -23.077  1.00  0.00     0.064 A 
HETATM    7  N2  UNL     1      23.052 -13.843 -23.958  1.00  0.00    -0.339 N 
ATOM      8  H2  UNL     1      22.891 -13.613 -24.939  1.00  0.00     0.167 HD
HETATM    9  C7  UNL     1      24.241 -13.823 -23.352  1.00  0.00     0.123 A 
HETATM   10  N4  UNL     1      24.088 -14.178 -22.074  1.00  0.00    -0.339 N 
ATOM     11  H4  UNL     1      24.825 -14.250 -21.373  1.00  0.00     0.167 HD
HETATM   12  C15 UNL     1      22.759 -14.425 -21.883  1.00  0.00     0.076 A 
ENDROOT
BRANCH   9  13
HETATM   13  C8  UNL     1      25.508 -13.468 -23.993  1.00  0.00     0.050 A 
HETATM   14  C9  UNL     1      26.711 -13.165 -23.411  1.00  0.00     0.031 A 
HETATM   15  C10 UNL     1      27.738 -12.870 -24.217  1.00  0.00    -0.040 A 
HETATM   16  C11 UNL     1      27.507 -12.893 -25.567  1.00  0.00     0.007 A 
HETATM   17  C14 UNL     1      29.166 -12.501 -23.866  1.00  0.00     0.059 C 
HETATM   18  S1  UNL     1      25.863 -13.327 -25.668  1.00  0.00    -0.089 SA
HETATM   19  C12 UNL     1      28.639 -12.566 -26.483  1.00  0.00     0.161 C 
HETATM   20  N3  UNL     1      29.858 -13.202 -26.125  1.00  0.00    -0.417 N 
HETATM   21  C13 UNL     1      30.121 -13.285 -24.726  1.00  0.00     0.118 C 
ATOM     22  H3  UNL     1      30.502 -13.574 -26.822  1.00  0.00     0.153 HD
ENDBRANCH   9  13
BRANCH   1  23
HETATM   23  C1  UNL     1      22.650 -15.062 -19.492  1.00  0.00     0.267 C 
HETATM   24  N1  UNL     1      23.822 -15.832 -19.315  1.00  0.00    -0.057 NA
HETATM   25  O1  UNL     1      22.145 -14.573 -18.443  1.00  0.00    -0.271 OA
ENDBRANCH   1  23
TORSDOF 2
ENDMDL
