MODEL 2
REMARK VINA RESULT: -8.869992908      3.529      7.714
REMARK  3 active torsions:
REMARK  status: ('A' for Active; 'I' for Inactive)
REMARK    1  A    between atoms: C4_4  and  N1_5 
REMARK    2  A    between atoms: N1_5  and  C5_7 
REMARK    3  A    between atoms: C6_10  and  C7_11 
REMARK       I    between atoms: C7_11  and  N3_13 
ROOT
HETATM    1  C5  UNL     1      -6.461  -9.385  16.619  1.00  0.00     0.121 A 
HETATM    2  N2  UNL     1      -6.477 -10.496  15.881  1.00  0.00    -0.323 N 
ATOM      3  H2  UNL     1      -6.482 -10.376  14.868  1.00  0.00     0.169 HD
HETATM    4  C6  UNL     1      -6.486 -11.757  16.338  1.00  0.00     0.176 A 
HETATM    5  N5  UNL     1      -6.481 -11.920  17.664  1.00  0.00    -0.337 N 
ATOM      6  H5  UNL     1      -6.487 -12.863  18.054  1.00  0.00     0.167 HD
HETATM    7  C13 UNL     1      -6.466 -10.861  18.493  1.00  0.00     0.048 A 
HETATM    8  C14 UNL     1      -6.462 -11.119  19.853  1.00  0.00     0.032 A 
HETATM    9  C15 UNL     1      -6.447 -10.017  20.678  1.00  0.00     0.026 A 
HETATM   10  C16 UNL     1      -6.437  -8.733  20.214  1.00  0.00     0.035 A 
HETATM   11 CL1  UNL     1      -6.418  -7.327  21.267  1.00  0.00    -0.084 Cl
HETATM   12  C17 UNL     1      -6.442  -8.495  18.844  1.00  0.00     0.041 A 
HETATM   13  C18 UNL     1      -6.457  -9.553  17.987  1.00  0.00     0.036 A 
ENDROOT
BRANCH   4  14
HETATM   14  C7  UNL     1      -6.501 -12.874  15.413  1.00  0.00     0.287 C 
HETATM   15  O1  UNL     1      -7.515 -13.609  15.350  1.00  0.00    -0.264 OA
HETATM   16  N3  UNL     1      -5.411 -13.168  14.575  1.00  0.00    -0.342 N 
HETATM   17  C8  UNL     1      -4.235 -12.333  14.632  1.00  0.00     0.154 C 
HETATM   18  C12 UNL     1      -5.420 -14.284  13.651  1.00  0.00     0.158 C 
HETATM   19  C9  UNL     1      -3.224 -12.938  13.647  1.00  0.00     0.252 C 
HETATM   20  N4  UNL     1      -3.016 -14.317  14.102  1.00  0.00    -0.068 N 
HETATM   21  C10 UNL     1      -4.159 -15.117  13.772  1.00  0.00     0.199 C 
ATOM     22  H42 UNL     1      -2.151 -14.715  13.736  1.00  0.00     0.277 HD
ATOM     23  H41 UNL     1      -2.790 -14.363  15.096  1.00  0.00     0.277 HD
HETATM   24  C11 UNL     1      -3.959 -15.917  12.504  1.00  0.00     0.041 C 
ENDBRANCH   4  14
BRANCH   1  25
HETATM   25  N1  UNL     1      -6.453  -8.117  16.013  1.00  0.00    -0.327 N 
ATOM     26  H1  UNL     1      -7.341  -7.629  15.906  1.00  0.00     0.169 HD
BRANCH  25  27
HETATM   27  C4  UNL     1      -5.272  -7.475  15.540  1.00  0.00     0.123 A 
HETATM   28  C3  UNL     1      -4.377  -6.670  16.197  1.00  0.00     0.075 A 
HETATM   29  C2  UNL     1      -3.373  -6.280  15.299  1.00  0.00     0.025 A 
HETATM   30  C1  UNL     1      -2.231  -5.397  15.675  1.00  0.00     0.070 C 
HETATM   31  N7  UNL     1      -3.682  -6.849  14.148  1.00  0.00    -0.304 N 
HETATM   32  N6  UNL     1      -4.789  -7.552  14.269  1.00  0.00    -0.285 N 
ATOM     33  H7  UNL     1      -3.142  -6.758  13.288  1.00  0.00     0.186 HD
ATOM     34  H6  UNL     1      -5.225  -8.082  13.515  1.00  0.00     0.188 HD
ENDBRANCH  25  27
ENDBRANCH   1  25
TORSDOF 3
ENDMDL
