MODEL 17
REMARK VINA RESULT: -7.777935507      3.513      5.433
REMARK  3 active torsions:
REMARK  status: ('A' for Active; 'I' for Inactive)
REMARK    1  A    between atoms: C4_4  and  N1_5 
REMARK    2  A    between atoms: N1_5  and  C5_7 
REMARK    3  A    between atoms: C6_10  and  C7_11 
REMARK       I    between atoms: C7_11  and  N3_13 
ROOT
HETATM    1  C5  UNL     1      -6.985 -12.353  18.754  1.00  0.00     0.121 A 
HETATM    2  N2  UNL     1      -6.236 -11.619  17.930  1.00  0.00    -0.323 N 
ATOM      3  H2  UNL     1      -6.270 -10.608  18.055  1.00  0.00     0.169 HD
HETATM    4  C6  UNL     1      -5.441 -12.079  16.953  1.00  0.00     0.176 A 
HETATM    5  N5  UNL     1      -5.393 -13.404  16.785  1.00  0.00    -0.337 N 
ATOM      6  H5  UNL     1      -4.801 -13.796  16.052  1.00  0.00     0.167 HD
HETATM    7  C13 UNL     1      -6.113 -14.229  17.566  1.00  0.00     0.048 A 
HETATM    8  C14 UNL     1      -6.006 -15.588  17.324  1.00  0.00     0.032 A 
HETATM    9  C15 UNL     1      -6.754 -16.408  18.139  1.00  0.00     0.026 A 
HETATM   10  C16 UNL     1      -7.563 -15.941  19.134  1.00  0.00     0.035 A 
HETATM   11 CL1  UNL     1      -8.517 -16.988  20.173  1.00  0.00    -0.084 Cl
HETATM   12  C17 UNL     1      -7.657 -14.572  19.360  1.00  0.00     0.041 A 
HETATM   13  C18 UNL     1      -6.936 -13.719  18.581  1.00  0.00     0.036 A 
ENDROOT
BRANCH   4  14
HETATM   14  C7  UNL     1      -4.679 -11.159  16.130  1.00  0.00     0.287 C 
HETATM   15  O1  UNL     1      -3.547 -11.499  15.710  1.00  0.00    -0.264 OA
HETATM   16  N3  UNL     1      -5.166  -9.886  15.782  1.00  0.00    -0.342 N 
HETATM   17  C8  UNL     1      -6.466  -9.477  16.256  1.00  0.00     0.154 C 
HETATM   18  C12 UNL     1      -4.408  -8.963  14.963  1.00  0.00     0.158 C 
HETATM   19  C9  UNL     1      -6.680  -8.042  15.752  1.00  0.00     0.252 C 
HETATM   20  N4  UNL     1      -5.560  -7.268  16.299  1.00  0.00    -0.068 N 
HETATM   21  C10 UNL     1      -4.357  -7.581  15.584  1.00  0.00     0.199 C 
ATOM     22  H42 UNL     1      -5.753  -6.266  16.305  1.00  0.00     0.277 HD
ATOM     23  H41 UNL     1      -5.455  -7.403  17.305  1.00  0.00     0.277 HD
HETATM   24  C11 UNL     1      -4.036  -6.558  14.517  1.00  0.00     0.041 C 
ENDBRANCH   4  14
BRANCH   1  25
HETATM   25  N1  UNL     1      -7.778 -11.744  19.742  1.00  0.00    -0.327 N 
ATOM     26  H1  UNL     1      -8.601 -12.246  20.075  1.00  0.00     0.169 HD
BRANCH  25  27
HETATM   27  C4  UNL     1      -7.497 -10.466  20.305  1.00  0.00     0.123 A 
HETATM   28  C3  UNL     1      -6.570  -9.523  19.942  1.00  0.00     0.075 A 
HETATM   29  C2  UNL     1      -6.679  -8.423  20.806  1.00  0.00     0.025 A 
HETATM   30  C1  UNL     1      -5.819  -7.208  20.702  1.00  0.00     0.070 C 
HETATM   31  N7  UNL     1      -7.649  -8.726  21.649  1.00  0.00    -0.304 N 
HETATM   32  N6  UNL     1      -8.140  -9.916  21.372  1.00  0.00    -0.285 N 
ATOM     33  H7  UNL     1      -7.972  -8.125  22.406  1.00  0.00     0.186 HD
ATOM     34  H6  UNL     1      -8.897 -10.365  21.886  1.00  0.00     0.188 HD
ENDBRANCH  25  27
ENDBRANCH   1  25
TORSDOF 3
ENDMDL
