MODEL 3
REMARK VINA RESULT: -8.560790953      3.397      7.185
REMARK  3 active torsions:
REMARK  status: ('A' for Active; 'I' for Inactive)
REMARK    1  A    between atoms: C4_4  and  N1_5 
REMARK    2  A    between atoms: N1_5  and  C5_7 
REMARK    3  A    between atoms: C6_10  and  C7_11 
REMARK       I    between atoms: C7_11  and  N3_13 
ROOT
HETATM    1  C5  UNL     1      -5.972  -9.220  15.299  1.00  0.00     0.121 A 
HETATM    2  N2  UNL     1      -5.803 -10.162  14.370  1.00  0.00    -0.323 N 
ATOM      3  H2  UNL     1      -5.713  -9.844  13.405  1.00  0.00     0.169 HD
HETATM    4  C6  UNL     1      -5.739 -11.485  14.578  1.00  0.00     0.176 A 
HETATM    5  N5  UNL     1      -5.857 -11.906  15.840  1.00  0.00    -0.337 N 
ATOM      6  H5  UNL     1      -5.814 -12.905  16.042  1.00  0.00     0.167 HD
HETATM    7  C13 UNL     1      -6.031 -11.034  16.849  1.00  0.00     0.048 A 
HETATM    8  C14 UNL     1      -6.145 -11.554  18.127  1.00  0.00     0.032 A 
HETATM    9  C15 UNL     1      -6.323 -10.639  19.139  1.00  0.00     0.026 A 
HETATM   10  C16 UNL     1      -6.387  -9.292  18.930  1.00  0.00     0.035 A 
HETATM   11 CL1  UNL     1      -6.614  -8.124  20.222  1.00  0.00    -0.084 Cl
HETATM   12  C17 UNL     1      -6.271  -8.789  17.639  1.00  0.00     0.041 A 
HETATM   13  C18 UNL     1      -6.094  -9.655  16.602  1.00  0.00     0.036 A 
ENDROOT
BRANCH   4  14
HETATM   14  C7  UNL     1      -5.550 -12.396  13.464  1.00  0.00     0.287 C 
HETATM   15  O1  UNL     1      -6.512 -13.099  13.072  1.00  0.00    -0.264 OA
HETATM   16  N3  UNL     1      -4.316 -12.522  12.801  1.00  0.00    -0.342 N 
HETATM   17  C8  UNL     1      -3.198 -11.722  13.237  1.00  0.00     0.154 C 
HETATM   18  C12 UNL     1      -4.122 -13.431  11.690  1.00  0.00     0.158 C 
HETATM   19  C9  UNL     1      -2.006 -12.123  12.356  1.00  0.00     0.252 C 
HETATM   20  N4  UNL     1      -1.840 -13.566  12.562  1.00  0.00    -0.068 N 
HETATM   21  C10 UNL     1      -2.878 -14.278  11.876  1.00  0.00     0.199 C 
ATOM     22  H42 UNL     1      -0.911 -13.888  12.291  1.00  0.00     0.277 HD
ATOM     23  H41 UNL     1      -1.798 -13.810  13.551  1.00  0.00     0.277 HD
HETATM   24  C11 UNL     1      -2.425 -14.811  10.534  1.00  0.00     0.041 C 
ENDBRANCH   4  14
BRANCH   1  25
HETATM   25  N1  UNL     1      -6.022  -7.860  14.949  1.00  0.00    -0.327 N 
ATOM     26  H1  UNL     1      -6.932  -7.448  14.748  1.00  0.00     0.169 HD
BRANCH  25  27
HETATM   27  C4  UNL     1      -4.870  -7.026  14.858  1.00  0.00     0.123 A 
HETATM   28  C3  UNL     1      -3.950  -6.678  15.813  1.00  0.00     0.075 A 
HETATM   29  C2  UNL     1      -2.995  -5.829  15.236  1.00  0.00     0.025 A 
HETATM   30  C1  UNL     1      -1.842  -5.255  15.990  1.00  0.00     0.070 C 
HETATM   31  N7  UNL     1      -3.357  -5.690  13.974  1.00  0.00    -0.304 N 
HETATM   32  N6  UNL     1      -4.451  -6.382  13.734  1.00  0.00    -0.285 N 
ATOM     33  H7  UNL     1      -2.861  -5.126  13.283  1.00  0.00     0.186 HD
ATOM     34  H6  UNL     1      -4.921  -6.429  12.830  1.00  0.00     0.188 HD
ENDBRANCH  25  27
ENDBRANCH   1  25
TORSDOF 3
ENDMDL
