MODEL 1
REMARK VINA RESULT: -9.394369507      0.000      0.000
REMARK  3 active torsions:
REMARK  status: ('A' for Active; 'I' for Inactive)
REMARK    1  A    between atoms: C4_4  and  N1_5 
REMARK    2  A    between atoms: N1_5  and  C5_7 
REMARK    3  A    between atoms: C6_10  and  C7_11 
REMARK       I    between atoms: C7_11  and  N3_13 
ROOT
HETATM    1  C5  UNL     1      -5.719  -8.240  16.067  1.00  0.00     0.121 A 
HETATM    2  N2  UNL     1      -5.025  -7.109  15.930  1.00  0.00    -0.323 N 
ATOM      3  H2  UNL     1      -5.319  -6.318  16.502  1.00  0.00     0.169 HD
HETATM    4  C6  UNL     1      -3.980  -6.909  15.115  1.00  0.00     0.176 A 
HETATM    5  N5  UNL     1      -3.592  -7.943  14.362  1.00  0.00    -0.337 N 
ATOM      6  H5  UNL     1      -2.801  -7.833  13.728  1.00  0.00     0.167 HD
HETATM    7  C13 UNL     1      -4.229  -9.126  14.427  1.00  0.00     0.048 A 
HETATM    8  C14 UNL     1      -3.763 -10.144  13.613  1.00  0.00     0.032 A 
HETATM    9  C15 UNL     1      -4.434 -11.343  13.701  1.00  0.00     0.026 A 
HETATM   10  C16 UNL     1      -5.497 -11.549  14.530  1.00  0.00     0.035 A 
HETATM   11 CL1  UNL     1      -6.352 -13.079  14.642  1.00  0.00    -0.084 Cl
HETATM   12  C17 UNL     1      -5.951 -10.513  15.340  1.00  0.00     0.041 A 
HETATM   13  C18 UNL     1      -5.320  -9.306  15.290  1.00  0.00     0.036 A 
ENDROOT
BRANCH   4  14
HETATM   14  C7  UNL     1      -3.318  -5.619  15.071  1.00  0.00     0.287 C 
HETATM   15  O1  UNL     1      -2.617  -5.252  16.045  1.00  0.00    -0.264 OA
HETATM   16  N3  UNL     1      -3.433  -4.755  13.968  1.00  0.00    -0.342 N 
HETATM   17  C8  UNL     1      -4.235  -5.159  12.838  1.00  0.00     0.154 C 
HETATM   18  C12 UNL     1      -2.776  -3.464  13.921  1.00  0.00     0.158 C 
HETATM   19  C9  UNL     1      -4.197  -3.994  11.839  1.00  0.00     0.252 C 
HETATM   20  N4  UNL     1      -4.720  -2.836  12.574  1.00  0.00    -0.068 N 
HETATM   21  C10 UNL     1      -3.736  -2.366  13.505  1.00  0.00     0.199 C 
ATOM     22  H42 UNL     1      -5.038  -2.097  11.948  1.00  0.00     0.277 HD
ATOM     23  H41 UNL     1      -5.610  -3.039  13.027  1.00  0.00     0.277 HD
HETATM   24  C11 UNL     1      -2.953  -1.186  12.974  1.00  0.00     0.041 C 
ENDBRANCH   4  14
BRANCH   1  25
HETATM   25  N1  UNL     1      -6.800  -8.320  16.961  1.00  0.00    -0.327 N 
ATOM     26  H1  UNL     1      -7.733  -8.107  16.609  1.00  0.00     0.169 HD
BRANCH  25  27
HETATM   27  C4  UNL     1      -6.665  -8.682  18.333  1.00  0.00     0.123 A 
HETATM   28  C3  UNL     1      -6.686  -9.916  18.931  1.00  0.00     0.075 A 
HETATM   29  C2  UNL     1      -6.511  -9.754  20.313  1.00  0.00     0.025 A 
HETATM   30  C1  UNL     1      -6.482 -10.893  21.277  1.00  0.00     0.070 C 
HETATM   31  N7  UNL     1      -6.392  -8.454  20.508  1.00  0.00    -0.304 N 
HETATM   32  N6  UNL     1      -6.479  -7.810  19.363  1.00  0.00    -0.285 N 
ATOM     33  H7  UNL     1      -6.253  -8.011  21.416  1.00  0.00     0.186 HD
ATOM     34  H6  UNL     1      -6.416  -6.797  19.260  1.00  0.00     0.188 HD
ENDBRANCH  25  27
ENDBRANCH   1  25
TORSDOF 3
ENDMDL
