MODEL 5
REMARK VINA RESULT: -8.591630423      3.187      5.941
REMARK  4 active torsions:
REMARK  status: ('A' for Active; 'I' for Inactive)
REMARK    1  A    between atoms: C2_2  and  C4_4 
REMARK    2  A    between atoms: C6_6  and  N1_7 
REMARK    3  A    between atoms: N1_7  and  C7_9 
REMARK    4  A    between atoms: C8_12  and  C9_13 
REMARK       I    between atoms: C9_13  and  N3_15 
ROOT
HETATM    1  C7  UNL     1      -6.859 -12.348  18.715  1.00  0.00     0.121 A 
HETATM    2  N2  UNL     1      -6.111 -11.568  17.931  1.00  0.00    -0.323 N 
ATOM      3  H2  UNL     1      -6.065 -10.573  18.151  1.00  0.00     0.169 HD
HETATM    4  C8  UNL     1      -5.401 -12.019  16.847  1.00  0.00     0.176 A 
HETATM    5  N5  UNL     1      -5.477 -13.327  16.577  1.00  0.00    -0.337 N 
ATOM      6  H5  UNL     1      -4.955 -13.678  15.774  1.00  0.00     0.167 HD
HETATM    7  C15 UNL     1      -6.191 -14.204  17.288  1.00  0.00     0.048 A 
HETATM    8  C16 UNL     1      -6.227 -15.552  16.954  1.00  0.00     0.032 A 
HETATM    9  C17 UNL     1      -6.969 -16.436  17.699  1.00  0.00     0.026 A 
HETATM   10  C18 UNL     1      -7.661 -15.932  18.773  1.00  0.00     0.035 A 
HETATM   11 CL1  UNL     1      -8.619 -17.037  19.748  1.00  0.00    -0.084 Cl
HETATM   12  C19 UNL     1      -7.644 -14.582  19.135  1.00  0.00     0.041 A 
HETATM   13  C20 UNL     1      -6.900 -13.707  18.385  1.00  0.00     0.036 A 
ENDROOT
BRANCH   1  14
HETATM   14  N1  UNL     1      -7.570 -11.829  19.819  1.00  0.00    -0.327 N 
ATOM     15  H1  UNL     1      -8.252 -12.429  20.282  1.00  0.00     0.169 HD
BRANCH  14  16
HETATM   16  C6  UNL     1      -7.382 -10.510  20.316  1.00  0.00     0.123 A 
HETATM   17  C5  UNL     1      -6.342  -9.669  19.935  1.00  0.00     0.076 A 
HETATM   18  C4  UNL     1      -6.473  -8.483  20.609  1.00  0.00     0.033 A 
HETATM   19  N7  UNL     1      -7.559  -8.621  21.365  1.00  0.00    -0.303 N 
HETATM   20  N6  UNL     1      -8.104  -9.836  21.190  1.00  0.00    -0.285 N 
ATOM     21  H7  UNL     1      -7.927  -7.904  21.991  1.00  0.00     0.186 HD
ATOM     22  H6  UNL     1      -8.942 -10.181  21.658  1.00  0.00     0.188 HD
BRANCH  18  23
HETATM   23  C2  UNL     1      -5.560  -7.295  20.493  1.00  0.00     0.029 C 
HETATM   24  C1  UNL     1      -5.106  -6.832  21.860  1.00  0.00     0.016 C 
HETATM   25  C3  UNL     1      -6.303  -6.147  19.848  1.00  0.00     0.016 C 
ENDBRANCH  18  23
ENDBRANCH  14  16
ENDBRANCH   1  14
BRANCH   4  26
HETATM   26  C9  UNL     1      -4.633 -11.068  16.086  1.00  0.00     0.287 C 
HETATM   27  O1  UNL     1      -3.764 -11.539  15.260  1.00  0.00    -0.264 OA
HETATM   28  N3  UNL     1      -4.746  -9.687  16.159  1.00  0.00    -0.342 N 
HETATM   29  C10 UNL     1      -5.620  -8.891  16.981  1.00  0.00     0.154 C 
HETATM   30  C14 UNL     1      -3.863  -8.847  15.284  1.00  0.00     0.158 C 
HETATM   31  C11 UNL     1      -6.573  -8.063  16.126  1.00  0.00     0.252 C 
HETATM   32  N4  UNL     1      -5.913  -7.670  14.889  1.00  0.00    -0.068 N 
HETATM   33  C12 UNL     1      -4.509  -7.490  15.224  1.00  0.00     0.199 C 
ATOM     34  H42 UNL     1      -6.066  -8.323  14.120  1.00  0.00     0.277 HD
ATOM     35  H41 UNL     1      -6.333  -6.855  14.443  1.00  0.00     0.277 HD
HETATM   36  C13 UNL     1      -3.820  -6.599  14.198  1.00  0.00     0.041 C 
ENDBRANCH   4  26
TORSDOF 4
ENDMDL
