MODEL 2
REMARK VINA RESULT: -8.779683014      2.853      6.122
REMARK  4 active torsions:
REMARK  status: ('A' for Active; 'I' for Inactive)
REMARK    1  A    between atoms: C2_2  and  C4_4 
REMARK    2  A    between atoms: C6_6  and  N1_7 
REMARK    3  A    between atoms: N1_7  and  C7_9 
REMARK    4  A    between atoms: C8_12  and  C9_13 
REMARK       I    between atoms: C9_13  and  N3_15 
ROOT
HETATM    1  C7  UNL     1      -4.134  -9.855  15.524  1.00  0.00     0.121 A 
HETATM    2  N2  UNL     1      -4.680  -9.640  16.723  1.00  0.00    -0.323 N 
ATOM      3  H2  UNL     1      -4.359  -8.831  17.255  1.00  0.00     0.169 HD
HETATM    4  C8  UNL     1      -5.644 -10.438  17.286  1.00  0.00     0.176 A 
HETATM    5  N5  UNL     1      -6.048 -11.493  16.570  1.00  0.00    -0.337 N 
ATOM      6  H5  UNL     1      -6.764 -12.096  16.975  1.00  0.00     0.167 HD
HETATM    7  C15 UNL     1      -5.577 -11.809  15.361  1.00  0.00     0.048 A 
HETATM    8  C16 UNL     1      -6.041 -12.921  14.668  1.00  0.00     0.032 A 
HETATM    9  C17 UNL     1      -5.541 -13.228  13.426  1.00  0.00     0.026 A 
HETATM   10  C18 UNL     1      -4.578 -12.397  12.909  1.00  0.00     0.035 A 
HETATM   11 CL1  UNL     1      -3.919 -12.760  11.321  1.00  0.00    -0.084 Cl
HETATM   12  C19 UNL     1      -4.091 -11.271  13.580  1.00  0.00     0.041 A 
HETATM   13  C20 UNL     1      -4.596 -10.973  14.821  1.00  0.00     0.036 A 
ENDROOT
BRANCH   1  14
HETATM   14  N1  UNL     1      -3.144  -9.000  14.993  1.00  0.00    -0.327 N 
ATOM     15  H1  UNL     1      -2.254  -9.407  14.707  1.00  0.00     0.169 HD
BRANCH  14  16
HETATM   16  C6  UNL     1      -3.327  -7.598  14.837  1.00  0.00     0.123 A 
HETATM   17  C5  UNL     1      -2.575  -6.631  15.496  1.00  0.00     0.076 A 
HETATM   18  C4  UNL     1      -3.022  -5.394  15.108  1.00  0.00     0.033 A 
HETATM   19  N7  UNL     1      -4.009  -5.627  14.246  1.00  0.00    -0.303 N 
HETATM   20  N6  UNL     1      -4.192  -6.947  14.083  1.00  0.00    -0.285 N 
ATOM     21  H7  UNL     1      -4.551  -4.903  13.774  1.00  0.00     0.186 HD
ATOM     22  H6  UNL     1      -4.888  -7.378  13.474  1.00  0.00     0.188 HD
BRANCH  18  23
HETATM   23  C2  UNL     1      -2.485  -4.072  15.580  1.00  0.00     0.029 C 
HETATM   24  C1  UNL     1      -2.466  -3.067  14.449  1.00  0.00     0.016 C 
HETATM   25  C3  UNL     1      -1.061  -4.246  16.057  1.00  0.00     0.016 C 
ENDBRANCH  18  23
ENDBRANCH  14  16
ENDBRANCH   1  14
BRANCH   4  26
HETATM   26  C9  UNL     1      -6.147 -10.090  18.590  1.00  0.00     0.287 C 
HETATM   27  O1  UNL     1      -6.274 -11.044  19.445  1.00  0.00    -0.264 OA
HETATM   28  N3  UNL     1      -6.506  -8.817  19.010  1.00  0.00    -0.342 N 
HETATM   29  C10 UNL     1      -6.470  -7.577  18.279  1.00  0.00     0.154 C 
HETATM   30  C14 UNL     1      -7.010  -8.640  20.411  1.00  0.00     0.158 C 
HETATM   31  C11 UNL     1      -5.511  -6.586  18.928  1.00  0.00     0.252 C 
HETATM   32  N4  UNL     1      -5.514  -6.768  20.373  1.00  0.00    -0.068 N 
HETATM   33  C12 UNL     1      -6.866  -7.174  20.721  1.00  0.00     0.199 C 
ATOM     34  H42 UNL     1      -4.797  -7.414  20.704  1.00  0.00     0.277 HD
ATOM     35  H41 UNL     1      -5.189  -5.950  20.887  1.00  0.00     0.277 HD
HETATM   36  C13 UNL     1      -7.151  -6.894  22.191  1.00  0.00     0.041 C 
ENDBRANCH   4  26
TORSDOF 4
ENDMDL
