MODEL 3
REMARK VINA RESULT: -8.755423815      2.770      4.326
REMARK  4 active torsions:
REMARK  status: ('A' for Active; 'I' for Inactive)
REMARK    1  A    between atoms: C2_2  and  C4_4 
REMARK    2  A    between atoms: C6_6  and  N1_7 
REMARK    3  A    between atoms: N1_7  and  C7_9 
REMARK    4  A    between atoms: C8_12  and  C9_13 
REMARK       I    between atoms: C9_13  and  N3_15 
ROOT
HETATM    1  C7  UNL     1      -6.329 -10.380  16.868  1.00  0.00     0.121 A 
HETATM    2  N2  UNL     1      -6.551 -11.694  16.958  1.00  0.00    -0.323 N 
ATOM      3  H2  UNL     1      -6.609 -12.228  16.091  1.00  0.00     0.169 HD
HETATM    4  C8  UNL     1      -6.707 -12.370  18.141  1.00  0.00     0.176 A 
HETATM    5  N5  UNL     1      -6.628 -11.648  19.264  1.00  0.00    -0.337 N 
ATOM      6  H5  UNL     1      -6.742 -12.137  20.153  1.00  0.00     0.167 HD
HETATM    7  C15 UNL     1      -6.410 -10.331  19.301  1.00  0.00     0.048 A 
HETATM    8  C16 UNL     1      -6.338  -9.639  20.504  1.00  0.00     0.032 A 
HETATM    9  C17 UNL     1      -6.114  -8.284  20.518  1.00  0.00     0.026 A 
HETATM   10  C18 UNL     1      -5.965  -7.656  19.306  1.00  0.00     0.035 A 
HETATM   11 CL1  UNL     1      -5.675  -5.923  19.288  1.00  0.00    -0.084 Cl
HETATM   12  C19 UNL     1      -6.031  -8.323  18.079  1.00  0.00     0.041 A 
HETATM   13  C20 UNL     1      -6.256  -9.677  18.076  1.00  0.00     0.036 A 
ENDROOT
BRANCH   1  14
HETATM   14  N1  UNL     1      -6.177  -9.735  15.622  1.00  0.00    -0.327 N 
ATOM     15  H1  UNL     1      -6.803  -8.963  15.395  1.00  0.00     0.169 HD
BRANCH  14  16
HETATM   16  C6  UNL     1      -5.192 -10.109  14.667  1.00  0.00     0.123 A 
HETATM   17  C5  UNL     1      -4.883 -11.423  14.332  1.00  0.00     0.076 A 
HETATM   18  C4  UNL     1      -3.894 -11.409  13.383  1.00  0.00     0.033 A 
HETATM   19  N7  UNL     1      -3.628 -10.123  13.165  1.00  0.00    -0.303 N 
HETATM   20  N6  UNL     1      -4.406  -9.344  13.934  1.00  0.00    -0.285 N 
ATOM     21  H7  UNL     1      -2.930  -9.777  12.506  1.00  0.00     0.186 HD
ATOM     22  H6  UNL     1      -4.391  -8.324  13.949  1.00  0.00     0.188 HD
BRANCH  18  23
HETATM   23  C2  UNL     1      -3.264 -12.615  12.744  1.00  0.00     0.029 C 
HETATM   24  C1  UNL     1      -1.973 -12.241  12.050  1.00  0.00     0.016 C 
HETATM   25  C3  UNL     1      -4.197 -13.177  11.696  1.00  0.00     0.016 C 
ENDBRANCH  18  23
ENDBRANCH  14  16
ENDBRANCH   1  14
BRANCH   4  26
HETATM   26  C9  UNL     1      -6.941 -13.790  18.094  1.00  0.00     0.287 C 
HETATM   27  O1  UNL     1      -7.943 -14.244  18.764  1.00  0.00    -0.264 OA
HETATM   28  N3  UNL     1      -6.186 -14.716  17.389  1.00  0.00    -0.342 N 
HETATM   29  C10 UNL     1      -5.026 -14.500  16.564  1.00  0.00     0.154 C 
HETATM   30  C14 UNL     1      -6.581 -16.161  17.452  1.00  0.00     0.158 C 
HETATM   31  C11 UNL     1      -5.297 -14.905  15.120  1.00  0.00     0.252 C 
HETATM   32  N4  UNL     1      -6.214 -16.036  15.087  1.00  0.00    -0.068 N 
HETATM   33  C12 UNL     1      -5.919 -16.824  16.274  1.00  0.00     0.199 C 
ATOM     34  H42 UNL     1      -7.194 -15.763  15.013  1.00  0.00     0.277 HD
ATOM     35  H41 UNL     1      -6.170 -16.572  14.220  1.00  0.00     0.277 HD
HETATM   36  C13 UNL     1      -6.408 -18.257  16.104  1.00  0.00     0.041 C 
ENDBRANCH   4  26
TORSDOF 4
ENDMDL
