MODEL 1
REMARK VINA RESULT: -9.179628150      0.000      0.000
REMARK  4 active torsions:
REMARK  status: ('A' for Active; 'I' for Inactive)
REMARK    1  A    between atoms: C2_2  and  C4_4 
REMARK    2  A    between atoms: C6_6  and  N1_7 
REMARK    3  A    between atoms: N1_7  and  C7_9 
REMARK    4  A    between atoms: C8_12  and  C9_13 
REMARK       I    between atoms: C9_13  and  N3_15 
ROOT
HETATM    1  C7  UNL     1      -6.169  -8.946  16.961  1.00  0.00     0.121 A 
HETATM    2  N2  UNL     1      -6.145 -10.016  16.162  1.00  0.00    -0.323 N 
ATOM      3  H2  UNL     1      -6.047  -9.860  15.159  1.00  0.00     0.169 HD
HETATM    4  C8  UNL     1      -6.246 -11.310  16.604  1.00  0.00     0.176 A 
HETATM    5  N5  UNL     1      -6.376 -11.490  17.923  1.00  0.00    -0.337 N 
ATOM      6  H5  UNL     1      -6.453 -12.447  18.268  1.00  0.00     0.167 HD
HETATM    7  C15 UNL     1      -6.412 -10.500  18.819  1.00  0.00     0.048 A 
HETATM    8  C16 UNL     1      -6.549 -10.754  20.179  1.00  0.00     0.032 A 
HETATM    9  C17 UNL     1      -6.584  -9.720  21.082  1.00  0.00     0.026 A 
HETATM   10  C18 UNL     1      -6.480  -8.444  20.587  1.00  0.00     0.035 A 
HETATM   11 CL1  UNL     1      -6.520  -7.098  21.716  1.00  0.00    -0.084 Cl
HETATM   12  C19 UNL     1      -6.341  -8.155  19.226  1.00  0.00     0.041 A 
HETATM   13  C20 UNL     1      -6.306  -9.195  18.331  1.00  0.00     0.036 A 
ENDROOT
BRANCH   1  14
HETATM   14  N1  UNL     1      -6.061  -7.634  16.450  1.00  0.00    -0.327 N 
ATOM     15  H1  UNL     1      -6.835  -6.988  16.606  1.00  0.00     0.169 HD
BRANCH  14  16
HETATM   16  C6  UNL     1      -4.927  -7.169  15.730  1.00  0.00     0.123 A 
HETATM   17  C5  UNL     1      -4.016  -6.237  16.216  1.00  0.00     0.076 A 
HETATM   18  C4  UNL     1      -3.057  -6.027  15.260  1.00  0.00     0.033 A 
HETATM   19  N7  UNL     1      -3.393  -6.813  14.240  1.00  0.00    -0.303 N 
HETATM   20  N6  UNL     1      -4.513  -7.497  14.521  1.00  0.00    -0.285 N 
ATOM     21  H7  UNL     1      -2.871  -6.885  13.366  1.00  0.00     0.186 HD
ATOM     22  H6  UNL     1      -4.971  -8.164  13.899  1.00  0.00     0.188 HD
BRANCH  18  23
HETATM   23  C2  UNL     1      -1.883  -5.095  15.376  1.00  0.00     0.029 C 
HETATM   24  C1  UNL     1      -1.306  -5.131  16.774  1.00  0.00     0.016 C 
HETATM   25  C3  UNL     1      -2.336  -3.678  15.108  1.00  0.00     0.016 C 
ENDBRANCH  18  23
ENDBRANCH  14  16
ENDBRANCH   1  14
BRANCH   4  26
HETATM   26  C9  UNL     1      -6.206 -12.372  15.632  1.00  0.00     0.287 C 
HETATM   27  O1  UNL     1      -7.218 -13.167  15.587  1.00  0.00    -0.264 OA
HETATM   28  N3  UNL     1      -5.175 -12.617  14.737  1.00  0.00    -0.342 N 
HETATM   29  C10 UNL     1      -3.937 -11.903  14.564  1.00  0.00     0.154 C 
HETATM   30  C14 UNL     1      -5.306 -13.772  13.790  1.00  0.00     0.158 C 
HETATM   31  C11 UNL     1      -3.848 -11.291  13.171  1.00  0.00     0.252 C 
HETATM   32  N4  UNL     1      -4.522 -12.152  12.208  1.00  0.00    -0.068 N 
HETATM   33  C12 UNL     1      -4.322 -13.512  12.681  1.00  0.00     0.199 C 
ATOM     34  H42 UNL     1      -5.502 -11.911  12.063  1.00  0.00     0.277 HD
ATOM     35  H41 UNL     1      -4.215 -12.005  11.246  1.00  0.00     0.277 HD
HETATM   36  C13 UNL     1      -4.502 -14.510  11.543  1.00  0.00     0.041 C 
ENDBRANCH   4  26
TORSDOF 4
ENDMDL
