MODEL 3
REMARK VINA RESULT: -7.381575607      4.270      6.844
REMARK  4 active torsions:
REMARK  status: ('A' for Active; 'I' for Inactive)
REMARK    1  A    between atoms: C2_2  and  C3_4 
REMARK    2  A    between atoms: N1_6  and  C5_7 
REMARK    3  A    between atoms: C5_7  and  C6_8 
REMARK       I    between atoms: C6_8  and  N2_10 
REMARK    4  A    between atoms: C10_14  and  C11_15 
ROOT
HETATM    1  C3  UNL     1      20.411  -4.050  -1.081  1.00  0.00     0.037 A 
HETATM    2  C4  UNL     1      19.051  -4.105  -1.447  1.00  0.00     0.107 A 
HETATM    3  N1  UNL     1      18.805  -5.252  -2.065  1.00  0.00    -0.346 N 
HETATM    4  C13 UNL     1      19.951  -5.980  -2.134  1.00  0.00     0.045 A 
HETATM    5  C14 UNL     1      20.234  -7.219  -2.665  1.00  0.00     0.030 A 
HETATM    6  C15 UNL     1      21.510  -7.703  -2.583  1.00  0.00     0.002 A 
HETATM    7  C16 UNL     1      22.497  -6.972  -1.982  1.00  0.00     0.001 A 
HETATM    8  C17 UNL     1      22.247  -5.717  -1.435  1.00  0.00     0.014 A 
HETATM    9  C18 UNL     1      20.957  -5.233  -1.519  1.00  0.00     0.006 A 
ENDROOT
BRANCH   3  10
HETATM   10  C5  UNL     1      17.539  -5.725  -2.611  1.00  0.00     0.231 C 
BRANCH  10  11
HETATM   11  C6  UNL     1      16.565  -5.975  -1.540  1.00  0.00     0.238 C 
HETATM   12  O2  UNL     1      15.864  -5.042  -1.106  1.00  0.00    -0.272 OA
HETATM   13  N2  UNL     1      16.424  -7.270  -0.999  1.00  0.00    -0.350 N 
HETATM   14  C7  UNL     1      17.222  -8.359  -1.484  1.00  0.00     0.126 C 
HETATM   15  C12 UNL     1      15.449  -7.519   0.071  1.00  0.00     0.141 C 
HETATM   16  C8  UNL     1      17.684  -9.305  -0.426  1.00  0.00     0.021 C 
HETATM   17  C9  UNL     1      16.647  -9.551   0.644  1.00  0.00     0.019 C 
HETATM   18  C10 UNL     1      16.224  -8.201   1.178  1.00  0.00     0.105 C 
BRANCH  18  19
HETATM   19  C11 UNL     1      15.455  -8.394   2.400  1.00  0.00     0.178 C 
HETATM   20  O3  UNL     1      14.728  -7.464   2.823  1.00  0.00    -0.648 OA
HETATM   21  O4  UNL     1      15.456  -9.557   3.160  1.00  0.00    -0.648 OA
ENDBRANCH  18  19
ENDBRANCH  10  11
ENDBRANCH   3  10
BRANCH   1  22
HETATM   22  C2  UNL     1      21.014  -2.942  -0.393  1.00  0.00     0.158 C 
HETATM   23  C1  UNL     1      21.218  -1.616  -0.973  1.00  0.00     0.097 C 
HETATM   24  O1  UNL     1      21.406  -3.113   0.815  1.00  0.00    -0.293 OA
ENDBRANCH   1  22
TORSDOF 4
ENDMDL
