MODEL 5
REMARK VINA RESULT: -7.180885212      2.991      3.935
REMARK  4 active torsions:
REMARK  status: ('A' for Active; 'I' for Inactive)
REMARK    1  A    between atoms: C2_2  and  C3_4 
REMARK    2  A    between atoms: N1_6  and  C5_7 
REMARK    3  A    between atoms: C5_7  and  C6_8 
REMARK       I    between atoms: C6_8  and  N2_10 
REMARK    4  A    between atoms: C10_14  and  C11_15 
ROOT
HETATM    1  C3  UNL     1      16.137  -8.113   0.526  1.00  0.00     0.037 A 
HETATM    2  C4  UNL     1      14.963  -7.389   0.240  1.00  0.00     0.107 A 
HETATM    3  N1  UNL     1      15.117  -6.728  -0.899  1.00  0.00    -0.346 N 
HETATM    4  C13 UNL     1      16.358  -6.976  -1.398  1.00  0.00     0.045 A 
HETATM    5  C14 UNL     1      17.005  -6.543  -2.534  1.00  0.00     0.030 A 
HETATM    6  C15 UNL     1      18.280  -6.972  -2.777  1.00  0.00     0.002 A 
HETATM    7  C16 UNL     1      18.910  -7.821  -1.909  1.00  0.00     0.001 A 
HETATM    8  C17 UNL     1      18.286  -8.277  -0.753  1.00  0.00     0.014 A 
HETATM    9  C18 UNL     1      16.998  -7.842  -0.511  1.00  0.00     0.006 A 
ENDROOT
BRANCH   3  10
HETATM   10  C5  UNL     1      14.160  -5.856  -1.569  1.00  0.00     0.231 C 
BRANCH  10  11
HETATM   11  C6  UNL     1      14.446  -4.444  -1.282  1.00  0.00     0.238 C 
HETATM   12  O2  UNL     1      15.435  -4.137  -0.590  1.00  0.00    -0.272 OA
HETATM   13  N2  UNL     1      13.601  -3.433  -1.787  1.00  0.00    -0.350 N 
HETATM   14  C7  UNL     1      12.456  -3.765  -2.586  1.00  0.00     0.126 C 
HETATM   15  C12 UNL     1      13.888  -2.022  -1.500  1.00  0.00     0.141 C 
HETATM   16  C8  UNL     1      11.253  -2.924  -2.318  1.00  0.00     0.021 C 
HETATM   17  C9  UNL     1      11.588  -1.476  -2.049  1.00  0.00     0.019 C 
HETATM   18  C10 UNL     1      12.607  -1.452  -0.932  1.00  0.00     0.105 C 
BRANCH  18  19
HETATM   19  C11 UNL     1      12.739  -0.087  -0.440  1.00  0.00     0.178 C 
HETATM   20  O3  UNL     1      13.500   0.147   0.528  1.00  0.00    -0.648 OA
HETATM   21  O4  UNL     1      12.073   1.012  -0.969  1.00  0.00    -0.648 OA
ENDBRANCH  18  19
ENDBRANCH  10  11
ENDBRANCH   3  10
BRANCH   1  22
HETATM   22  C2  UNL     1      16.309  -8.941   1.689  1.00  0.00     0.158 C 
HETATM   23  C1  UNL     1      15.483  -8.861   2.893  1.00  0.00     0.097 C 
HETATM   24  O1  UNL     1      17.247  -9.813   1.686  1.00  0.00    -0.293 OA
ENDBRANCH   1  22
TORSDOF 4
ENDMDL
