MODEL 6
REMARK VINA RESULT: -7.177304547      1.468      3.041
REMARK  4 active torsions:
REMARK  status: ('A' for Active; 'I' for Inactive)
REMARK    1  A    between atoms: C2_2  and  C3_4 
REMARK    2  A    between atoms: N1_6  and  C5_7 
REMARK    3  A    between atoms: C5_7  and  C6_8 
REMARK       I    between atoms: C6_8  and  N2_10 
REMARK    4  A    between atoms: C10_14  and  C11_15 
ROOT
HETATM    1  C3  UNL     1      17.275  -6.694  -2.396  1.00  0.00     0.037 A 
HETATM    2  C4  UNL     1      16.188  -5.798  -2.424  1.00  0.00     0.107 A 
HETATM    3  N1  UNL     1      15.412  -6.011  -1.370  1.00  0.00    -0.346 N 
HETATM    4  C13 UNL     1      15.933  -7.023  -0.625  1.00  0.00     0.045 A 
HETATM    5  C14 UNL     1      15.521  -7.622   0.544  1.00  0.00     0.030 A 
HETATM    6  C15 UNL     1      16.267  -8.641   1.069  1.00  0.00     0.002 A 
HETATM    7  C16 UNL     1      17.409  -9.063   0.446  1.00  0.00     0.001 A 
HETATM    8  C17 UNL     1      17.854  -8.480  -0.737  1.00  0.00     0.014 A 
HETATM    9  C18 UNL     1      17.098  -7.452  -1.263  1.00  0.00     0.006 A 
ENDROOT
BRANCH   3  10
HETATM   10  C5  UNL     1      14.184  -5.317  -1.003  1.00  0.00     0.231 C 
BRANCH  10  11
HETATM   11  C6  UNL     1      13.012  -5.968  -1.603  1.00  0.00     0.238 C 
HETATM   12  O2  UNL     1      12.805  -7.181  -1.405  1.00  0.00    -0.272 OA
HETATM   13  N2  UNL     1      12.121  -5.225  -2.404  1.00  0.00    -0.350 N 
HETATM   14  C7  UNL     1      12.341  -3.828  -2.646  1.00  0.00     0.126 C 
HETATM   15  C12 UNL     1      10.949  -5.878  -3.003  1.00  0.00     0.141 C 
HETATM   16  C8  UNL     1      12.018  -3.383  -4.033  1.00  0.00     0.021 C 
HETATM   17  C9  UNL     1      10.795  -4.061  -4.605  1.00  0.00     0.019 C 
HETATM   18  C10 UNL     1      11.011  -5.552  -4.479  1.00  0.00     0.105 C 
BRANCH  18  19
HETATM   19  C11 UNL     1      10.005  -6.244  -5.275  1.00  0.00     0.178 C 
HETATM   20  O3  UNL     1       9.918  -7.493  -5.206  1.00  0.00    -0.648 OA
HETATM   21  O4  UNL     1       9.106  -5.620  -6.130  1.00  0.00    -0.648 OA
ENDBRANCH  18  19
ENDBRANCH  10  11
ENDBRANCH   3  10
BRANCH   1  22
HETATM   22  C2  UNL     1      18.310  -6.734  -3.392  1.00  0.00     0.158 C 
HETATM   23  C1  UNL     1      19.743  -6.748  -3.101  1.00  0.00     0.097 C 
HETATM   24  O1  UNL     1      17.970  -6.760  -4.627  1.00  0.00    -0.293 OA
ENDBRANCH   1  22
TORSDOF 4
ENDMDL
