MODEL 4
REMARK VINA RESULT: -7.322398127      4.840      7.002
REMARK  4 active torsions:
REMARK  status: ('A' for Active; 'I' for Inactive)
REMARK    1  A    between atoms: C2_2  and  C3_4 
REMARK    2  A    between atoms: N1_6  and  C5_7 
REMARK    3  A    between atoms: C5_7  and  C6_8 
REMARK       I    between atoms: C6_8  and  N2_10 
REMARK    4  A    between atoms: C10_14  and  C11_15 
ROOT
HETATM    1  C3  UNL     1      20.114  -6.394  -2.010  1.00  0.00     0.037 A 
HETATM    2  C4  UNL     1      19.267  -7.516  -1.914  1.00  0.00     0.107 A 
HETATM    3  N1  UNL     1      18.009  -7.111  -1.799  1.00  0.00    -0.346 N 
HETATM    4  C13 UNL     1      17.971  -5.752  -1.810  1.00  0.00     0.045 A 
HETATM    5  C14 UNL     1      16.934  -4.851  -1.722  1.00  0.00     0.030 A 
HETATM    6  C15 UNL     1      17.209  -3.512  -1.763  1.00  0.00     0.002 A 
HETATM    7  C16 UNL     1      18.496  -3.067  -1.893  1.00  0.00     0.001 A 
HETATM    8  C17 UNL     1      19.568  -3.949  -1.985  1.00  0.00     0.014 A 
HETATM    9  C18 UNL     1      19.285  -5.300  -1.943  1.00  0.00     0.006 A 
ENDROOT
BRANCH   3  10
HETATM   10  C5  UNL     1      16.810  -7.930  -1.673  1.00  0.00     0.231 C 
BRANCH  10  11
HETATM   11  C6  UNL     1      16.947  -8.898  -0.576  1.00  0.00     0.238 C 
HETATM   12  O2  UNL     1      17.461 -10.012  -0.790  1.00  0.00    -0.272 OA
HETATM   13  N2  UNL     1      16.498  -8.569   0.720  1.00  0.00    -0.350 N 
HETATM   14  C7  UNL     1      15.903  -7.291   0.988  1.00  0.00     0.126 C 
HETATM   15  C12 UNL     1      16.636  -9.537   1.816  1.00  0.00     0.141 C 
HETATM   16  C8  UNL     1      14.750  -7.333   1.935  1.00  0.00     0.021 C 
HETATM   17  C9  UNL     1      14.940  -8.325   3.058  1.00  0.00     0.019 C 
HETATM   18  C10 UNL     1      15.258  -9.661   2.427  1.00  0.00     0.105 C 
BRANCH  18  19
HETATM   19  C11 UNL     1      15.159 -10.701   3.443  1.00  0.00     0.178 C 
HETATM   20  O3  UNL     1      16.001 -11.630   3.457  1.00  0.00    -0.648 OA
HETATM   21  O4  UNL     1      14.180 -10.752   4.428  1.00  0.00    -0.648 OA
ENDBRANCH  18  19
ENDBRANCH  10  11
ENDBRANCH   3  10
BRANCH   1  22
HETATM   22  C2  UNL     1      21.543  -6.476  -2.146  1.00  0.00     0.158 C 
HETATM   23  C1  UNL     1      22.235  -7.081  -3.283  1.00  0.00     0.097 C 
HETATM   24  O1  UNL     1      22.275  -5.988  -1.214  1.00  0.00    -0.293 OA
ENDBRANCH   1  22
TORSDOF 4
ENDMDL
