MODEL 3
REMARK VINA RESULT: -7.673534534      2.384      4.140
REMARK  8 active torsions:
REMARK  status: ('A' for Active; 'I' for Inactive)
REMARK    1  A    between atoms: O1_2  and  C2_3 
REMARK    2  A    between atoms: C5_6  and  S1_7 
REMARK    3  A    between atoms: S1_7  and  N1_10 
REMARK    4  A    between atoms: N1_10  and  C6_12 
REMARK    5  A    between atoms: C6_12  and  C7_13 
REMARK    6  A    between atoms: C7_13  and  C8_14 
REMARK    7  A    between atoms: C8_14  and  C9_15 
REMARK    8  A    between atoms: C9_15  and  C10_16 
ROOT
HETATM    1  C2  UNL     1      -3.846   6.358 -20.721  1.00  0.00     0.079 A 
HETATM    2  C3  UNL     1      -3.989   6.801 -19.430  1.00  0.00     0.039 A 
HETATM    3  C4  UNL     1      -5.070   7.572 -19.098  1.00  0.00     0.029 A 
HETATM    4  C5  UNL     1      -6.032   7.925 -20.014  1.00  0.00     0.090 A 
HETATM    5  C11 UNL     1      -5.883   7.476 -21.306  1.00  0.00     0.000 A 
HETATM    6  C12 UNL     1      -6.848   7.821 -22.224  1.00  0.00     0.014 A 
HETATM    7  C13 UNL     1      -6.734   7.382 -23.529  1.00  0.00     0.001 A 
HETATM    8  C14 UNL     1      -5.654   6.606 -23.890  1.00  0.00     0.001 A 
HETATM    9  C15 UNL     1      -4.680   6.252 -22.986  1.00  0.00     0.015 A 
HETATM   10  C16 UNL     1      -4.786   6.685 -21.676  1.00  0.00     0.009 A 
ENDROOT
BRANCH   4  11
HETATM   11  S1  UNL     1      -7.325   8.900 -19.556  1.00  0.00     0.259 S 
HETATM   12  O2  UNL     1      -7.546  10.205 -20.155  1.00  0.00    -0.201 OA
HETATM   13  O3  UNL     1      -8.613   8.127 -19.718  1.00  0.00    -0.201 OA
BRANCH  11  14
HETATM   14  N1  UNL     1      -7.167   9.177 -17.836  1.00  0.00    -0.315 N 
ATOM     15  H1  UNL     1      -6.501   9.824 -17.413  1.00  0.00     0.172 HD
BRANCH  14  16
HETATM   16  C6  UNL     1      -8.113   8.362 -17.088  1.00  0.00     0.132 C 
BRANCH  16  17
HETATM   17  C7  UNL     1      -7.626   8.014 -15.729  1.00  0.00     0.021 C 
BRANCH  17  18
HETATM   18  C8  UNL     1      -6.626   6.893 -15.812  1.00  0.00     0.012 C 
BRANCH  18  19
HETATM   19  C9  UNL     1      -5.239   7.303 -15.378  1.00  0.00     0.113 C 
BRANCH  19  20
HETATM   20  C10 UNL     1      -4.304   6.149 -15.581  1.00  0.00     0.172 C 
HETATM   21  O4  UNL     1      -4.805   5.104 -16.079  1.00  0.00    -0.648 OA
HETATM   22  O5  UNL     1      -2.987   6.262 -15.231  1.00  0.00    -0.648 OA
ENDBRANCH  19  20
ENDBRANCH  18  19
ENDBRANCH  17  18
ENDBRANCH  16  17
ENDBRANCH  14  16
ENDBRANCH  11  14
ENDBRANCH   4  11
BRANCH   1  23
HETATM   23  O1  UNL     1      -2.758   5.583 -21.057  1.00  0.00    -0.355 OA
HETATM   24  C1  UNL     1      -2.369   4.533 -20.198  1.00  0.00     0.210 C 
ENDBRANCH   1  23
TORSDOF 8
ENDMDL
