MODEL 4
REMARK VINA RESULT: -7.672756644      2.479      4.182
REMARK  8 active torsions:
REMARK  status: ('A' for Active; 'I' for Inactive)
REMARK    1  A    between atoms: O1_2  and  C2_3 
REMARK    2  A    between atoms: C5_6  and  S1_7 
REMARK    3  A    between atoms: S1_7  and  N1_10 
REMARK    4  A    between atoms: N1_10  and  C6_12 
REMARK    5  A    between atoms: C6_12  and  C7_13 
REMARK    6  A    between atoms: C7_13  and  C8_14 
REMARK    7  A    between atoms: C8_14  and  C9_15 
REMARK    8  A    between atoms: C9_15  and  C10_16 
ROOT
HETATM    1  C2  UNL     1      -3.728   6.342 -20.613  1.00  0.00     0.079 A 
HETATM    2  C3  UNL     1      -3.960   6.851 -19.360  1.00  0.00     0.039 A 
HETATM    3  C4  UNL     1      -5.057   7.642 -19.146  1.00  0.00     0.029 A 
HETATM    4  C5  UNL     1      -5.948   7.951 -20.145  1.00  0.00     0.090 A 
HETATM    5  C11 UNL     1      -5.709   7.436 -21.398  1.00  0.00     0.000 A 
HETATM    6  C12 UNL     1      -6.604   7.737 -22.401  1.00  0.00     0.014 A 
HETATM    7  C13 UNL     1      -6.399   7.233 -23.670  1.00  0.00     0.001 A 
HETATM    8  C14 UNL     1      -5.301   6.435 -23.913  1.00  0.00     0.001 A 
HETATM    9  C15 UNL     1      -4.398   6.124 -22.923  1.00  0.00     0.015 A 
HETATM   10  C16 UNL     1      -4.594   6.624 -21.648  1.00  0.00     0.009 A 
ENDROOT
BRANCH   4  11
HETATM   11  S1  UNL     1      -7.263   8.953 -19.832  1.00  0.00     0.259 S 
HETATM   12  O2  UNL     1      -7.415  10.240 -20.487  1.00  0.00    -0.201 OA
HETATM   13  O3  UNL     1      -8.542   8.187 -20.082  1.00  0.00    -0.201 OA
BRANCH  11  14
HETATM   14  N1  UNL     1      -7.252   9.282 -18.114  1.00  0.00    -0.315 N 
ATOM     15  H1  UNL     1      -6.708  10.022 -17.670  1.00  0.00     0.172 HD
BRANCH  14  16
HETATM   16  C6  UNL     1      -8.122   8.358 -17.401  1.00  0.00     0.132 C 
BRANCH  16  17
HETATM   17  C7  UNL     1      -7.658   8.078 -16.018  1.00  0.00     0.021 C 
BRANCH  17  18
HETATM   18  C8  UNL     1      -6.911   6.774 -15.980  1.00  0.00     0.012 C 
BRANCH  18  19
HETATM   19  C9  UNL     1      -6.902   6.135 -14.611  1.00  0.00     0.113 C 
BRANCH  19  20
HETATM   20  C10 UNL     1      -6.236   7.066 -13.644  1.00  0.00     0.172 C 
HETATM   21  O4  UNL     1      -4.976   7.023 -13.604  1.00  0.00    -0.648 OA
HETATM   22  O5  UNL     1      -6.989   7.900 -12.865  1.00  0.00    -0.648 OA
ENDBRANCH  19  20
ENDBRANCH  18  19
ENDBRANCH  17  18
ENDBRANCH  16  17
ENDBRANCH  14  16
ENDBRANCH  11  14
ENDBRANCH   4  11
BRANCH   1  23
HETATM   23  O1  UNL     1      -2.624   5.547 -20.830  1.00  0.00    -0.355 OA
HETATM   24  C1  UNL     1      -2.502   4.332 -20.123  1.00  0.00     0.210 C 
ENDBRANCH   1  23
TORSDOF 8
ENDMDL
