MODEL 7
REMARK VINA RESULT: -7.632988345      2.015      3.720
REMARK  8 active torsions:
REMARK  status: ('A' for Active; 'I' for Inactive)
REMARK    1  A    between atoms: O1_2  and  C2_3 
REMARK    2  A    between atoms: C5_6  and  S1_7 
REMARK    3  A    between atoms: S1_7  and  N1_10 
REMARK    4  A    between atoms: N1_10  and  C6_12 
REMARK    5  A    between atoms: C6_12  and  C7_13 
REMARK    6  A    between atoms: C7_13  and  C8_14 
REMARK    7  A    between atoms: C8_14  and  C9_15 
REMARK    8  A    between atoms: C9_15  and  C10_16 
ROOT
HETATM    1  C2  UNL     1      -4.250   6.684 -20.896  1.00  0.00     0.079 A 
HETATM    2  C3  UNL     1      -4.714   7.859 -20.361  1.00  0.00     0.039 A 
HETATM    3  C4  UNL     1      -4.240   8.281 -19.148  1.00  0.00     0.029 A 
HETATM    4  C5  UNL     1      -3.306   7.569 -18.435  1.00  0.00     0.090 A 
HETATM    5  C11 UNL     1      -2.844   6.393 -18.979  1.00  0.00     0.000 A 
HETATM    6  C12 UNL     1      -1.902   5.680 -18.272  1.00  0.00     0.014 A 
HETATM    7  C13 UNL     1      -1.412   4.498 -18.790  1.00  0.00     0.001 A 
HETATM    8  C14 UNL     1      -1.875   4.050 -20.009  1.00  0.00     0.001 A 
HETATM    9  C15 UNL     1      -2.815   4.749 -20.729  1.00  0.00     0.015 A 
HETATM   10  C16 UNL     1      -3.312   5.935 -20.219  1.00  0.00     0.009 A 
ENDROOT
BRANCH   4  11
HETATM   11  S1  UNL     1      -2.780   8.120 -16.934  1.00  0.00     0.259 S 
HETATM   12  O2  UNL     1      -2.857   7.288 -15.746  1.00  0.00    -0.201 OA
HETATM   13  O3  UNL     1      -1.345   8.578 -17.047  1.00  0.00    -0.201 OA
BRANCH  11  14
HETATM   14  N1  UNL     1      -3.699   9.565 -16.575  1.00  0.00    -0.315 N 
ATOM     15  H1  UNL     1      -3.537  10.475 -17.006  1.00  0.00     0.172 HD
BRANCH  14  16
HETATM   16  C6  UNL     1      -4.724   9.295 -15.578  1.00  0.00     0.132 C 
BRANCH  16  17
HETATM   17  C7  UNL     1      -4.498  10.025 -14.305  1.00  0.00     0.021 C 
BRANCH  17  18
HETATM   18  C8  UNL     1      -3.226  10.822 -14.387  1.00  0.00     0.012 C 
BRANCH  18  19
HETATM   19  C9  UNL     1      -3.463  12.312 -14.459  1.00  0.00     0.113 C 
BRANCH  19  20
HETATM   20  C10 UNL     1      -2.594  12.893 -15.534  1.00  0.00     0.172 C 
HETATM   21  O4  UNL     1      -2.841  12.520 -16.714  1.00  0.00    -0.648 OA
HETATM   22  O5  UNL     1      -1.600  13.774 -15.213  1.00  0.00    -0.648 OA
ENDBRANCH  19  20
ENDBRANCH  18  19
ENDBRANCH  17  18
ENDBRANCH  16  17
ENDBRANCH  14  16
ENDBRANCH  11  14
ENDBRANCH   4  11
BRANCH   1  23
HETATM   23  O1  UNL     1      -4.727   6.258 -22.116  1.00  0.00    -0.355 OA
HETATM   24  C1  UNL     1      -5.834   6.918 -22.692  1.00  0.00     0.210 C 
ENDBRANCH   1  23
TORSDOF 8
ENDMDL
