MODEL 1
REMARK VINA RESULT: -7.361367076      0.000      0.000
REMARK  7 active torsions:
REMARK  status: ('A' for Active; 'I' for Inactive)
REMARK    1  A    between atoms: C1_2  and  C2_4 
REMARK    2  A    between atoms: C2_4  and  C3_5 
REMARK    3  A    between atoms: C3_5  and  C4_6 
REMARK    4  A    between atoms: C4_6  and  C5_7 
REMARK    5  A    between atoms: C5_7  and  N1_8 
REMARK    6  A    between atoms: N1_8  and  S1_10 
REMARK    7  A    between atoms: S1_10  and  C6_13 
ROOT
HETATM    1  S1  UNL     1      -4.652   6.176 -16.266  1.00  0.00     0.259 S 
HETATM    2  O3  UNL     1      -5.609   5.099 -15.826  1.00  0.00    -0.201 OA
HETATM    3  O4  UNL     1      -3.331   5.839 -15.635  1.00  0.00    -0.201 OA
ENDROOT
BRANCH   1   4
HETATM    4  N1  UNL     1      -5.199   7.667 -15.585  1.00  0.00    -0.315 N 
ATOM      5  H1  UNL     1      -6.090   7.843 -15.121  1.00  0.00     0.172 HD
BRANCH   4   6
HETATM    6  C5  UNL     1      -4.127   8.617 -15.812  1.00  0.00     0.132 C 
BRANCH   6   7
HETATM    7  C4  UNL     1      -4.570   9.979 -16.228  1.00  0.00     0.021 C 
BRANCH   7   8
HETATM    8  C3  UNL     1      -4.481   9.993 -17.743  1.00  0.00     0.012 C 
BRANCH   8   9
HETATM    9  C2  UNL     1      -5.691  10.641 -18.373  1.00  0.00     0.113 C 
BRANCH   9  10
HETATM   10  C1  UNL     1      -5.479  10.632 -19.860  1.00  0.00     0.172 C 
HETATM   11  O1  UNL     1      -4.328  10.301 -20.240  1.00  0.00    -0.648 OA
HETATM   12  O2  UNL     1      -6.478  10.963 -20.755  1.00  0.00    -0.648 OA
ENDBRANCH   9  10
ENDBRANCH   8   9
ENDBRANCH   7   8
ENDBRANCH   6   7
ENDBRANCH   4   6
ENDBRANCH   1   4
BRANCH   1  13
HETATM   13  C6  UNL     1      -4.448   6.254 -17.978  1.00  0.00     0.090 A 
HETATM   14  C7  UNL     1      -3.224   5.903 -18.517  1.00  0.00     0.027 A 
HETATM   15  C8  UNL     1      -2.964   5.995 -19.882  1.00  0.00     0.021 A 
HETATM   16  C9  UNL     1      -3.979   6.452 -20.683  1.00  0.00     0.022 A 
HETATM   17 BR1  UNL     1      -3.645   6.595 -22.565  1.00  0.00    -0.050 Br
HETATM   18  C10 UNL     1      -5.208   6.801 -20.136  1.00  0.00    -0.007 A 
HETATM   19  C11 UNL     1      -6.212   7.249 -20.988  1.00  0.00     0.013 A 
HETATM   20  C15 UNL     1      -5.463   6.710 -18.791  1.00  0.00    -0.001 A 
HETATM   21  C12 UNL     1      -7.467   7.606 -20.523  1.00  0.00     0.001 A 
HETATM   22  C13 UNL     1      -7.681   7.498 -19.169  1.00  0.00     0.001 A 
HETATM   23  C14 UNL     1      -6.704   7.058 -18.312  1.00  0.00     0.014 A 
ENDBRANCH   1  13
TORSDOF 7
ENDMDL
