MODEL 5
REMARK VINA RESULT: -7.192833499      1.005      1.222
REMARK  7 active torsions:
REMARK  status: ('A' for Active; 'I' for Inactive)
REMARK    1  A    between atoms: C1_2  and  C2_4 
REMARK    2  A    between atoms: C2_4  and  C3_5 
REMARK    3  A    between atoms: C3_5  and  C4_6 
REMARK    4  A    between atoms: C4_6  and  C5_7 
REMARK    5  A    between atoms: C5_7  and  N1_8 
REMARK    6  A    between atoms: N1_8  and  S1_10 
REMARK    7  A    between atoms: S1_10  and  C6_13 
ROOT
HETATM    1  S1  UNL     1      -6.125   6.108 -16.364  1.00  0.00     0.259 S 
HETATM    2  O3  UNL     1      -7.506   5.523 -16.233  1.00  0.00    -0.201 OA
HETATM    3  O4  UNL     1      -5.194   5.119 -15.723  1.00  0.00    -0.201 OA
ENDROOT
BRANCH   1   4
HETATM    4  N1  UNL     1      -6.084   7.559 -15.426  1.00  0.00    -0.315 N 
ATOM      5  H1  UNL     1      -6.876   8.040 -15.000  1.00  0.00     0.172 HD
BRANCH   4   6
HETATM    6  C5  UNL     1      -4.689   7.950 -15.371  1.00  0.00     0.132 C 
BRANCH   6   7
HETATM    7  C4  UNL     1      -4.440   9.415 -15.497  1.00  0.00     0.021 C 
BRANCH   7   8
HETATM    8  C3  UNL     1      -5.122   9.837 -16.785  1.00  0.00     0.012 C 
BRANCH   8   9
HETATM    9  C2  UNL     1      -4.165   9.847 -17.954  1.00  0.00     0.113 C 
BRANCH   9  10
HETATM   10  C1  UNL     1      -4.863  10.522 -19.098  1.00  0.00     0.172 C 
HETATM   11  O1  UNL     1      -4.274  10.456 -20.207  1.00  0.00    -0.648 OA
HETATM   12  O2  UNL     1      -6.072  11.174 -18.951  1.00  0.00    -0.648 OA
ENDBRANCH   9  10
ENDBRANCH   8   9
ENDBRANCH   7   8
ENDBRANCH   6   7
ENDBRANCH   4   6
ENDBRANCH   1   4
BRANCH   1  13
HETATM   13  C6  UNL     1      -5.636   6.353 -18.001  1.00  0.00     0.090 A 
HETATM   14  C7  UNL     1      -4.412   5.855 -18.410  1.00  0.00     0.027 A 
HETATM   15  C8  UNL     1      -3.923   6.062 -19.697  1.00  0.00     0.021 A 
HETATM   16  C9  UNL     1      -4.709   6.787 -20.556  1.00  0.00     0.022 A 
HETATM   17 BR1  UNL     1      -4.056   7.092 -22.332  1.00  0.00    -0.050 Br
HETATM   18  C10 UNL     1      -5.939   7.282 -20.141  1.00  0.00    -0.007 A 
HETATM   19  C11 UNL     1      -6.707   8.002 -21.050  1.00  0.00     0.013 A 
HETATM   20  C15 UNL     1      -6.419   7.078 -18.872  1.00  0.00    -0.001 A 
HETATM   21  C12 UNL     1      -7.948   8.521 -20.717  1.00  0.00     0.001 A 
HETATM   22  C13 UNL     1      -8.393   8.291 -19.437  1.00  0.00     0.001 A 
HETATM   23  C14 UNL     1      -7.651   7.583 -18.525  1.00  0.00     0.014 A 
ENDBRANCH   1  13
TORSDOF 7
ENDMDL
