MODEL 4
REMARK VINA RESULT: -7.203140869      2.343      4.541
REMARK  7 active torsions:
REMARK  status: ('A' for Active; 'I' for Inactive)
REMARK    1  A    between atoms: C1_2  and  C2_4 
REMARK    2  A    between atoms: C2_4  and  C3_5 
REMARK    3  A    between atoms: C3_5  and  C4_6 
REMARK    4  A    between atoms: C4_6  and  C5_7 
REMARK    5  A    between atoms: C5_7  and  N1_8 
REMARK    6  A    between atoms: N1_8  and  S1_10 
REMARK    7  A    between atoms: S1_10  and  C6_13 
ROOT
HETATM    1  S1  UNL     1      -5.049   9.586 -18.925  1.00  0.00     0.259 S 
HETATM    2  O3  UNL     1      -4.914  10.226 -17.569  1.00  0.00    -0.201 OA
HETATM    3  O4  UNL     1      -4.427  10.546 -19.899  1.00  0.00    -0.201 OA
ENDROOT
BRANCH   1   4
HETATM    4  N1  UNL     1      -6.735   9.484 -19.287  1.00  0.00    -0.315 N 
ATOM      5  H1  UNL     1      -7.228   9.931 -20.060  1.00  0.00     0.172 HD
BRANCH   4   6
HETATM    6  C5  UNL     1      -7.304   8.631 -18.262  1.00  0.00     0.132 C 
BRANCH   6   7
HETATM    7  C4  UNL     1      -7.749   7.288 -18.735  1.00  0.00     0.021 C 
BRANCH   7   8
HETATM    8  C3  UNL     1      -7.240   6.302 -17.700  1.00  0.00     0.012 C 
BRANCH   8   9
HETATM    9  C2  UNL     1      -6.909   6.977 -16.390  1.00  0.00     0.113 C 
BRANCH   9  10
HETATM   10  C1  UNL     1      -6.298   5.939 -15.494  1.00  0.00     0.172 C 
HETATM   11  O1  UNL     1      -6.795   5.861 -14.341  1.00  0.00    -0.648 OA
HETATM   12  O2  UNL     1      -5.262   5.121 -15.900  1.00  0.00    -0.648 OA
ENDBRANCH   9  10
ENDBRANCH   8   9
ENDBRANCH   7   8
ENDBRANCH   6   7
ENDBRANCH   4   6
ENDBRANCH   1   4
BRANCH   1  13
HETATM   13  C6  UNL     1      -4.242   8.065 -19.050  1.00  0.00     0.090 A 
HETATM   14  C7  UNL     1      -3.527   7.602 -17.961  1.00  0.00     0.027 A 
HETATM   15  C8  UNL     1      -2.804   6.412 -18.004  1.00  0.00     0.021 A 
HETATM   16  C9  UNL     1      -2.827   5.708 -19.182  1.00  0.00     0.022 A 
HETATM   17 BR1  UNL     1      -1.834   4.071 -19.270  1.00  0.00    -0.050 Br
HETATM   18  C10 UNL     1      -3.549   6.178 -20.271  1.00  0.00    -0.007 A 
HETATM   19  C11 UNL     1      -3.553   5.424 -21.441  1.00  0.00     0.013 A 
HETATM   20  C15 UNL     1      -4.261   7.349 -20.228  1.00  0.00    -0.001 A 
HETATM   21  C12 UNL     1      -4.256   5.819 -22.568  1.00  0.00     0.001 A 
HETATM   22  C13 UNL     1      -4.958   6.997 -22.480  1.00  0.00     0.001 A 
HETATM   23  C14 UNL     1      -4.968   7.755 -21.336  1.00  0.00     0.014 A 
ENDBRANCH   1  13
TORSDOF 7
ENDMDL
