MODEL 3
REMARK VINA RESULT: -7.254076238      1.118      1.305
REMARK  7 active torsions:
REMARK  status: ('A' for Active; 'I' for Inactive)
REMARK    1  A    between atoms: C1_2  and  C2_4 
REMARK    2  A    between atoms: C2_4  and  C3_5 
REMARK    3  A    between atoms: C3_5  and  C4_6 
REMARK    4  A    between atoms: C4_6  and  C5_7 
REMARK    5  A    between atoms: C5_7  and  N1_8 
REMARK    6  A    between atoms: N1_8  and  S1_10 
REMARK    7  A    between atoms: S1_10  and  C6_13 
ROOT
HETATM    1  S1  UNL     1      -3.371   6.327 -17.001  1.00  0.00     0.259 S 
HETATM    2  O3  UNL     1      -3.980   5.239 -16.159  1.00  0.00    -0.201 OA
HETATM    3  O4  UNL     1      -1.922   5.963 -17.164  1.00  0.00    -0.201 OA
ENDROOT
BRANCH   1   4
HETATM    4  N1  UNL     1      -3.447   7.794 -16.091  1.00  0.00    -0.315 N 
ATOM      5  H1  UNL     1      -3.889   7.933 -15.183  1.00  0.00     0.172 HD
BRANCH   4   6
HETATM    6  C5  UNL     1      -2.753   8.786 -16.889  1.00  0.00     0.132 C 
BRANCH   6   7
HETATM    7  C4  UNL     1      -3.461  10.092 -17.028  1.00  0.00     0.021 C 
BRANCH   7   8
HETATM    8  C3  UNL     1      -3.745  10.247 -18.511  1.00  0.00     0.012 C 
BRANCH   8   9
HETATM    9  C2  UNL     1      -5.161  10.703 -18.770  1.00  0.00     0.113 C 
BRANCH   9  10
HETATM   10  C1  UNL     1      -5.413  10.564 -20.243  1.00  0.00     0.172 C 
HETATM   11  O1  UNL     1      -4.461  10.087 -20.912  1.00  0.00    -0.648 OA
HETATM   12  O2  UNL     1      -6.607  10.931 -20.832  1.00  0.00    -0.648 OA
ENDBRANCH   9  10
ENDBRANCH   8   9
ENDBRANCH   7   8
ENDBRANCH   6   7
ENDBRANCH   4   6
ENDBRANCH   1   4
BRANCH   1  13
HETATM   13  C6  UNL     1      -4.089   6.469 -18.565  1.00  0.00     0.090 A 
HETATM   14  C7  UNL     1      -3.318   6.184 -19.677  1.00  0.00     0.027 A 
HETATM   15  C8  UNL     1      -3.809   6.329 -20.972  1.00  0.00     0.021 A 
HETATM   16  C9  UNL     1      -5.100   6.771 -21.106  1.00  0.00     0.022 A 
HETATM   17 BR1  UNL     1      -5.797   6.988 -22.879  1.00  0.00    -0.050 Br
HETATM   18  C10 UNL     1      -5.870   7.054 -19.985  1.00  0.00    -0.007 A 
HETATM   19  C11 UNL     1      -7.179   7.488 -20.169  1.00  0.00     0.013 A 
HETATM   20  C15 UNL     1      -5.386   6.910 -18.710  1.00  0.00    -0.001 A 
HETATM   21  C12 UNL     1      -8.014   7.781 -19.103  1.00  0.00     0.001 A 
HETATM   22  C13 UNL     1      -7.490   7.621 -17.842  1.00  0.00     0.001 A 
HETATM   23  C14 UNL     1      -6.202   7.192 -17.639  1.00  0.00     0.014 A 
ENDBRANCH   1  13
TORSDOF 7
ENDMDL
