MODEL 18
REMARK VINA RESULT: -3.131950538      8.577      9.317
REMARK  3 active torsions:
REMARK  status: ('A' for Active; 'I' for Inactive)
REMARK    1  A    between atoms: C1_2  and  C2_4 
REMARK    2  A    between atoms: C2_4  and  O3_5 
REMARK    3  A    between atoms: O3_5  and  P1_6 
ROOT
HETATM    1  O3  UNL     1      10.008   7.741  13.182  1.00  0.00    -0.272 OA
ENDROOT
BRANCH   1   2
HETATM    2  C2  UNL     1      10.507   7.308  11.979  1.00  0.00     0.295 C 
BRANCH   2   3
HETATM    3  C1  UNL     1      11.269   6.050  12.063  1.00  0.00     0.198 C 
HETATM    4  O1  UNL     1      12.020   5.761  13.024  1.00  0.00    -0.646 OA
HETATM    5  O2  UNL     1      11.165   5.130  11.042  1.00  0.00    -0.646 OA
ENDBRANCH   2   3
ENDBRANCH   1   2
BRANCH   1   6
HETATM    6  P1  UNL     1       8.460   7.094  13.389  1.00  0.00     0.422 P 
HETATM    7  O4  UNL     1       7.998   6.395  12.126  1.00  0.00    -0.617 OA
HETATM    8  O5  UNL     1       7.325   8.280  13.754  1.00  0.00    -0.617 OA
HETATM    9  O6  UNL     1       8.450   5.900  14.604  1.00  0.00    -0.617 OA
ENDBRANCH   1   6
TORSDOF 3
ENDMDL
