MODEL 5
REMARK VINA RESULT: -6.707574845      0.964      1.810
REMARK  3 active torsions:
REMARK  status: ('A' for Active; 'I' for Inactive)
REMARK    1  A    between atoms: C1_2  and  C2_4 
REMARK    2  A    between atoms: C2_4  and  O3_5 
REMARK    3  A    between atoms: O3_5  and  P1_6 
ROOT
HETATM    1  O3  UNL     1      15.003  12.231   9.697  1.00  0.00    -0.272 OA
ENDROOT
BRANCH   1   2
HETATM    2  C2  UNL     1      16.046  12.899   9.106  1.00  0.00     0.295 C 
BRANCH   2   3
HETATM    3  C1  UNL     1      16.792  13.778  10.023  1.00  0.00     0.198 C 
HETATM    4  O1  UNL     1      17.733  14.521   9.655  1.00  0.00    -0.646 OA
HETATM    5  O2  UNL     1      16.454  13.800  11.359  1.00  0.00    -0.646 OA
ENDBRANCH   2   3
ENDBRANCH   1   2
BRANCH   1   6
HETATM    6  P1  UNL     1      13.610  12.476   8.771  1.00  0.00     0.422 P 
HETATM    7  O4  UNL     1      12.731  13.540   9.398  1.00  0.00    -0.617 OA
HETATM    8  O5  UNL     1      12.689  11.075   8.637  1.00  0.00    -0.617 OA
HETATM    9  O6  UNL     1      13.997  13.058   7.218  1.00  0.00    -0.617 OA
ENDBRANCH   1   6
TORSDOF 3
ENDMDL
