MODEL 1
REMARK VINA RESULT: -7.172791044      0.000      0.000
REMARK  3 active torsions:
REMARK  status: ('A' for Active; 'I' for Inactive)
REMARK    1  A    between atoms: C1_2  and  C2_4 
REMARK    2  A    between atoms: C2_4  and  O3_5 
REMARK    3  A    between atoms: O3_5  and  P1_6 
ROOT
HETATM    1  O3  UNL     1      15.074  12.146   8.610  1.00  0.00    -0.272 OA
ENDROOT
BRANCH   1   2
HETATM    2  C2  UNL     1      15.658  13.386   8.673  1.00  0.00     0.295 C 
BRANCH   2   3
HETATM    3  C1  UNL     1      16.787  13.470   9.616  1.00  0.00     0.198 C 
HETATM    4  O1  UNL     1      17.460  12.477   9.977  1.00  0.00    -0.646 OA
HETATM    5  O2  UNL     1      17.137  14.696  10.139  1.00  0.00    -0.646 OA
ENDBRANCH   2   3
ENDBRANCH   1   2
BRANCH   1   6
HETATM    6  P1  UNL     1      13.413  12.342   8.362  1.00  0.00     0.422 P 
HETATM    7  O4  UNL     1      12.676  11.044   8.627  1.00  0.00    -0.617 OA
HETATM    8  O5  UNL     1      13.062  12.809   6.785  1.00  0.00    -0.617 OA
HETATM    9  O6  UNL     1      12.757  13.472   9.454  1.00  0.00    -0.617 OA
ENDBRANCH   1   6
TORSDOF 3
ENDMDL
