MODEL 2
REMARK VINA RESULT: -7.034078751      0.511      1.598
REMARK  3 active torsions:
REMARK  status: ('A' for Active; 'I' for Inactive)
REMARK    1  A    between atoms: C1_2  and  C2_4 
REMARK    2  A    between atoms: C2_4  and  O3_5 
REMARK    3  A    between atoms: O3_5  and  P1_6 
ROOT
HETATM    1  O3  UNL     1      15.128  12.228   8.306  1.00  0.00    -0.272 OA
ENDROOT
BRANCH   1   2
HETATM    2  C2  UNL     1      15.732  13.386   8.728  1.00  0.00     0.295 C 
BRANCH   2   3
HETATM    3  C1  UNL     1      16.692  13.195   9.829  1.00  0.00     0.198 C 
HETATM    4  O1  UNL     1      17.692  12.444   9.750  1.00  0.00    -0.646 OA
HETATM    5  O2  UNL     1      16.498  13.869  11.016  1.00  0.00    -0.646 OA
ENDBRANCH   2   3
ENDBRANCH   1   2
BRANCH   1   6
HETATM    6  P1  UNL     1      13.454  12.462   8.298  1.00  0.00     0.422 P 
HETATM    7  O4  UNL     1      12.982  12.902   6.927  1.00  0.00    -0.617 OA
HETATM    8  O5  UNL     1      12.977  13.641   9.399  1.00  0.00    -0.617 OA
HETATM    9  O6  UNL     1      12.627  11.008   8.622  1.00  0.00    -0.617 OA
ENDBRANCH   1   6
TORSDOF 3
ENDMDL
