MODEL 15
REMARK VINA RESULT: -3.441521381      8.574      9.641
REMARK  3 active torsions:
REMARK  status: ('A' for Active; 'I' for Inactive)
REMARK    1  A    between atoms: C1_2  and  C2_4 
REMARK    2  A    between atoms: C2_4  and  O3_5 
REMARK    3  A    between atoms: O3_5  and  P1_6 
ROOT
HETATM    1  O3  UNL     1       8.879  16.621   2.862  1.00  0.00    -0.272 OA
ENDROOT
BRANCH   1   2
HETATM    2  C2  UNL     1       8.653  15.520   2.076  1.00  0.00     0.295 C 
BRANCH   2   3
HETATM    3  C1  UNL     1       8.693  14.242   2.807  1.00  0.00     0.198 C 
HETATM    4  O1  UNL     1       8.298  14.110   3.989  1.00  0.00    -0.646 OA
HETATM    5  O2  UNL     1       9.189  13.121   2.177  1.00  0.00    -0.646 OA
ENDBRANCH   2   3
ENDBRANCH   1   2
BRANCH   1   6
HETATM    6  P1  UNL     1      10.320  17.353   2.367  1.00  0.00     0.422 P 
HETATM    7  O4  UNL     1      10.037  18.633   1.607  1.00  0.00    -0.617 OA
HETATM    8  O5  UNL     1      11.220  16.354   1.357  1.00  0.00    -0.617 OA
HETATM    9  O6  UNL     1      11.266  17.815   3.707  1.00  0.00    -0.617 OA
ENDBRANCH   1   6
TORSDOF 3
ENDMDL
