MODEL 17
REMARK VINA RESULT: -3.156637848      9.025     10.205
REMARK  3 active torsions:
REMARK  status: ('A' for Active; 'I' for Inactive)
REMARK    1  A    between atoms: C1_2  and  C2_4 
REMARK    2  A    between atoms: C2_4  and  O3_5 
REMARK    3  A    between atoms: O3_5  and  P1_6 
ROOT
HETATM    1  O3  UNL     1       8.589  14.639   2.022  1.00  0.00    -0.272 OA
ENDROOT
BRANCH   1   2
HETATM    2  C2  UNL     1       7.918  14.366   3.187  1.00  0.00     0.295 C 
BRANCH   2   3
HETATM    3  C1  UNL     1       7.083  13.154   3.129  1.00  0.00     0.198 C 
HETATM    4  O1  UNL     1       6.561  12.725   2.074  1.00  0.00    -0.646 OA
HETATM    5  O2  UNL     1       6.852  12.440   4.285  1.00  0.00    -0.646 OA
ENDBRANCH   2   3
ENDBRANCH   1   2
BRANCH   1   6
HETATM    6  P1  UNL     1       9.194  16.215   2.101  1.00  0.00     0.422 P 
HETATM    7  O4  UNL     1       9.542  16.584   3.529  1.00  0.00    -0.617 OA
HETATM    8  O5  UNL     1       8.080  17.346   1.545  1.00  0.00    -0.617 OA
HETATM    9  O6  UNL     1      10.646  16.363   1.223  1.00  0.00    -0.617 OA
ENDBRANCH   1   6
TORSDOF 3
ENDMDL
