MODEL 4
REMARK VINA RESULT: -6.926717436      0.170      1.506
REMARK  3 active torsions:
REMARK  status: ('A' for Active; 'I' for Inactive)
REMARK    1  A    between atoms: C1_2  and  C2_4 
REMARK    2  A    between atoms: C2_4  and  O3_5 
REMARK    3  A    between atoms: O3_5  and  P1_6 
ROOT
HETATM    1  O3  UNL     1      15.065  12.173   8.848  1.00  0.00    -0.272 OA
ENDROOT
BRANCH   1   2
HETATM    2  C2  UNL     1      15.697  13.386   8.738  1.00  0.00     0.295 C 
BRANCH   2   3
HETATM    3  C1  UNL     1      16.848  13.547   9.644  1.00  0.00     0.198 C 
HETATM    4  O1  UNL     1      17.586  12.598   9.997  1.00  0.00    -0.646 OA
HETATM    5  O2  UNL     1      17.145  14.799  10.139  1.00  0.00    -0.646 OA
ENDBRANCH   2   3
ENDBRANCH   1   2
BRANCH   1   6
HETATM    6  P1  UNL     1      13.422  12.387   8.518  1.00  0.00     0.422 P 
HETATM    7  O4  UNL     1      12.815  13.406   9.460  1.00  0.00    -0.617 OA
HETATM    8  O5  UNL     1      12.553  10.957   8.692  1.00  0.00    -0.617 OA
HETATM    9  O6  UNL     1      13.185  13.013   6.951  1.00  0.00    -0.617 OA
ENDBRANCH   1   6
TORSDOF 3
ENDMDL
