MODEL 3
REMARK VINA RESULT: -9.874192485      4.224      6.841
REMARK  2 active torsions:
REMARK  status: ('A' for Active; 'I' for Inactive)
REMARK    1  A    between atoms: N4_11  and  C5_12 
REMARK    2  A    between atoms: C5_12  and  C6_13 
ROOT
HETATM    1  N1  UNL     1       4.425   3.595  20.643  1.00  0.00    -0.063 NA
HETATM    2  C1  UNL     1       5.791   3.951  20.930  1.00  0.00     0.195 A 
HETATM    3  N2  UNL     1       6.743   3.040  20.659  1.00  0.00    -0.320 N 
ATOM      4  H2  UNL     1       6.483   2.136  20.264  1.00  0.00     0.169 HD
HETATM    5  C2  UNL     1       8.036   3.316  20.907  1.00  0.00     0.121 A 
HETATM    6 CL1  UNL     1       9.340   2.215  20.595  1.00  0.00    -0.063 Cl
HETATM    7  C3  UNL     1       8.333   4.560  21.446  1.00  0.00     0.065 A 
HETATM    8  C4  UNL     1       9.530   5.133  21.806  1.00  0.00     0.126 A 
HETATM    9  N3  UNL     1       9.227   6.347  22.270  1.00  0.00    -0.307 N 
ATOM     10  H3  UNL     1       9.921   7.011  22.614  1.00  0.00     0.186 HD
HETATM   11  N4  UNL     1       7.942   6.594  22.235  1.00  0.00    -0.272 N 
HETATM   12  C13 UNL     1       7.359   5.491  21.724  1.00  0.00     0.139 A 
HETATM   13  N5  UNL     1       6.093   5.172  21.460  1.00  0.00    -0.315 N 
ATOM     14  H5  UNL     1       5.348   5.840  21.655  1.00  0.00     0.170 HD
ENDROOT
BRANCH  11  15
HETATM   15  C5  UNL     1       7.305   7.822  22.669  1.00  0.00     0.191 C 
BRANCH  15  16
HETATM   16  C6  UNL     1       6.962   7.803  24.109  1.00  0.00    -0.018 A 
HETATM   17  C7  UNL     1       5.819   7.206  24.595  1.00  0.00     0.050 A 
HETATM   18  C8  UNL     1       5.536   7.209  25.946  1.00  0.00     0.105 A 
HETATM   19  C9  UNL     1       6.373   7.801  26.862  1.00  0.00     0.106 A 
HETATM   20  O2  UNL     1       4.473   6.685  26.649  1.00  0.00    -0.323 OA
HETATM   21  C10 UNL     1       7.537   8.412  26.393  1.00  0.00     0.059 A 
HETATM   22  O1  UNL     1       5.840   7.652  28.141  1.00  0.00    -0.323 OA
HETATM   23  C11 UNL     1       7.800   8.398  25.046  1.00  0.00     0.021 A 
HETATM   24 BR1  UNL     1       9.405   9.242  24.404  1.00  0.00    -0.050 Br
HETATM   25  C12 UNL     1       4.783   6.728  28.020  1.00  0.00     0.352 C 
ENDBRANCH  15  16
ENDBRANCH  11  15
TORSDOF 2
ENDMDL
