MODEL 4
REMARK VINA RESULT: -9.813454817      4.236      6.792
REMARK  2 active torsions:
REMARK  status: ('A' for Active; 'I' for Inactive)
REMARK    1  A    between atoms: N4_11  and  C5_12 
REMARK    2  A    between atoms: C5_12  and  C6_13 
ROOT
HETATM    1  N1  UNL     1       2.480   5.091  20.636  1.00  0.00    -0.063 NA
HETATM    2  C1  UNL     1       3.882   4.796  20.789  1.00  0.00     0.195 A 
HETATM    3  N2  UNL     1       4.295   3.556  20.474  1.00  0.00    -0.320 N 
ATOM      4  H2  UNL     1       3.622   2.865  20.140  1.00  0.00     0.169 HD
HETATM    5  C2  UNL     1       5.593   3.222  20.597  1.00  0.00     0.121 A 
HETATM    6 CL1  UNL     1       6.232   1.654  20.219  1.00  0.00    -0.063 Cl
HETATM    7  C3  UNL     1       6.464   4.200  21.057  1.00  0.00     0.065 A 
HETATM    8  C4  UNL     1       7.819   4.176  21.288  1.00  0.00     0.126 A 
HETATM    9  N3  UNL     1       8.136   5.396  21.726  1.00  0.00    -0.307 N 
ATOM     10  H3  UNL     1       9.083   5.677  21.981  1.00  0.00     0.186 HD
HETATM   11  N4  UNL     1       7.099   6.192  21.792  1.00  0.00    -0.272 N 
HETATM   12  C13 UNL     1       6.039   5.469  21.380  1.00  0.00     0.139 A 
HETATM   13  N5  UNL     1       4.746   5.751  21.240  1.00  0.00    -0.315 N 
ATOM     14  H5  UNL     1       4.400   6.683  21.471  1.00  0.00     0.170 HD
ENDROOT
BRANCH  11  15
HETATM   15  C5  UNL     1       7.123   7.575  22.230  1.00  0.00     0.191 C 
BRANCH  15  16
HETATM   16  C6  UNL     1       7.020   7.704  23.700  1.00  0.00    -0.018 A 
HETATM   17  C7  UNL     1       5.926   7.264  24.412  1.00  0.00     0.050 A 
HETATM   18  C8  UNL     1       5.869   7.403  25.785  1.00  0.00     0.105 A 
HETATM   19  C9  UNL     1       6.891   7.982  26.499  1.00  0.00     0.106 A 
HETATM   20  O2  UNL     1       4.895   7.043  26.692  1.00  0.00    -0.323 OA
HETATM   21  C10 UNL     1       8.009   8.436  25.799  1.00  0.00     0.059 A 
HETATM   22  O1  UNL     1       6.563   7.989  27.854  1.00  0.00    -0.323 OA
HETATM   23  C11 UNL     1       8.046   8.288  24.434  1.00  0.00     0.021 A 
HETATM   24 BR1  UNL     1       9.590   8.917  23.473  1.00  0.00    -0.050 Br
HETATM   25  C12 UNL     1       5.428   7.166  27.987  1.00  0.00     0.352 C 
ENDBRANCH  15  16
ENDBRANCH  11  15
TORSDOF 2
ENDMDL
