MODEL 1
REMARK VINA RESULT: -10.231719616      0.000      0.000
REMARK  2 active torsions:
REMARK  status: ('A' for Active; 'I' for Inactive)
REMARK    1  A    between atoms: N4_11  and  C5_12 
REMARK    2  A    between atoms: C5_12  and  C6_13 
ROOT
HETATM    1  N1  UNL     1       9.400   9.174  25.568  1.00  0.00    -0.063 NA
HETATM    2  C1  UNL     1       8.122   8.511  25.613  1.00  0.00     0.195 A 
HETATM    3  N2  UNL     1       7.562   8.319  26.821  1.00  0.00    -0.320 N 
ATOM      4  H2  UNL     1       8.044   8.639  27.661  1.00  0.00     0.169 HD
HETATM    5  C2  UNL     1       6.370   7.704  26.925  1.00  0.00     0.121 A 
HETATM    6 CL1  UNL     1       5.560   7.406  28.430  1.00  0.00    -0.063 Cl
HETATM    7  C3  UNL     1       5.760   7.287  25.750  1.00  0.00     0.065 A 
HETATM    8  C4  UNL     1       4.566   6.644  25.523  1.00  0.00     0.126 A 
HETATM    9  N3  UNL     1       4.481   6.489  24.200  1.00  0.00    -0.307 N 
ATOM     10  H3  UNL     1       3.695   6.038  23.733  1.00  0.00     0.186 HD
HETATM   11  N4  UNL     1       5.518   6.978  23.568  1.00  0.00    -0.272 N 
HETATM   12  C13 UNL     1       6.334   7.484  24.515  1.00  0.00     0.139 A 
HETATM   13  N5  UNL     1       7.515   8.098  24.463  1.00  0.00    -0.315 N 
ATOM     14  H5  UNL     1       7.966   8.258  23.563  1.00  0.00     0.170 HD
ENDROOT
BRANCH  11  15
HETATM   15  C5  UNL     1       5.717   6.962  22.132  1.00  0.00     0.191 C 
BRANCH  15  16
HETATM   16  C6  UNL     1       6.252   5.670  21.650  1.00  0.00    -0.018 A 
HETATM   17  C7  UNL     1       7.586   5.338  21.734  1.00  0.00     0.050 A 
HETATM   18  C8  UNL     1       8.046   4.120  21.273  1.00  0.00     0.105 A 
HETATM   19  C9  UNL     1       7.201   3.190  20.714  1.00  0.00     0.106 A 
HETATM   20  O2  UNL     1       9.314   3.579  21.253  1.00  0.00    -0.323 OA
HETATM   21  C10 UNL     1       5.845   3.505  20.618  1.00  0.00     0.059 A 
HETATM   22  O1  UNL     1       7.934   2.065  20.341  1.00  0.00    -0.323 OA
HETATM   23  C11 UNL     1       5.409   4.721  21.082  1.00  0.00     0.021 A 
HETATM   24 BR1  UNL     1       3.539   5.150  20.947  1.00  0.00    -0.050 Br
HETATM   25  C12 UNL     1       9.210   2.217  20.919  1.00  0.00     0.352 C 
ENDBRANCH  15  16
ENDBRANCH  11  15
TORSDOF 2
ENDMDL
