MODEL 10
REMARK VINA RESULT: -9.125493336      4.768      6.925
REMARK  2 active torsions:
REMARK  status: ('A' for Active; 'I' for Inactive)
REMARK    1  A    between atoms: N4_11  and  C5_12 
REMARK    2  A    between atoms: C5_12  and  C6_13 
ROOT
HETATM    1  N1  UNL     1       5.745   0.443  19.771  1.00  0.00    -0.063 NA
HETATM    2  C1  UNL     1       6.100   1.757  20.244  1.00  0.00     0.195 A 
HETATM    3  N2  UNL     1       7.360   1.945  20.674  1.00  0.00    -0.320 N 
ATOM      4  H2  UNL     1       8.024   1.171  20.656  1.00  0.00     0.169 HD
HETATM    5  C2  UNL     1       7.748   3.150  21.128  1.00  0.00     0.121 A 
HETATM    6 CL1  UNL     1       9.347   3.501  21.705  1.00  0.00    -0.063 Cl
HETATM    7  C3  UNL     1       6.804   4.168  21.132  1.00  0.00     0.065 A 
HETATM    8  C4  UNL     1       6.884   5.482  21.526  1.00  0.00     0.126 A 
HETATM    9  N3  UNL     1       5.674   6.002  21.311  1.00  0.00    -0.307 N 
ATOM     10  H3  UNL     1       5.431   6.972  21.511  1.00  0.00     0.186 HD
HETATM   11  N4  UNL     1       4.833   5.130  20.814  1.00  0.00    -0.272 N 
HETATM   12  C13 UNL     1       5.514   3.974  20.693  1.00  0.00     0.139 A 
HETATM   13  N5  UNL     1       5.178   2.763  20.252  1.00  0.00    -0.315 N 
ATOM     14  H5  UNL     1       4.230   2.587  19.919  1.00  0.00     0.170 HD
ENDROOT
BRANCH  11  15
HETATM   15  C5  UNL     1       3.448   5.392  20.474  1.00  0.00     0.191 C 
BRANCH  15  16
HETATM   16  C6  UNL     1       2.607   5.627  21.669  1.00  0.00    -0.018 A 
HETATM   17  C7  UNL     1       3.135   5.792  22.931  1.00  0.00     0.050 A 
HETATM   18  C8  UNL     1       2.315   6.010  24.021  1.00  0.00     0.105 A 
HETATM   19  C9  UNL     1       0.947   6.071  23.899  1.00  0.00     0.106 A 
HETATM   20  O2  UNL     1       2.612   6.200  25.353  1.00  0.00    -0.323 OA
HETATM   21  C10 UNL     1       0.390   5.907  22.631  1.00  0.00     0.059 A 
HETATM   22  O1  UNL     1       0.381   6.299  25.152  1.00  0.00    -0.323 OA
HETATM   23  C11 UNL     1       1.222   5.691  21.561  1.00  0.00     0.021 A 
HETATM   24 BR1  UNL     1       0.449   5.463  19.813  1.00  0.00    -0.050 Br
HETATM   25  C12 UNL     1       1.447   6.635  26.010  1.00  0.00     0.352 C 
ENDBRANCH  15  16
ENDBRANCH  11  15
TORSDOF 2
ENDMDL
