MODEL 6
REMARK VINA RESULT: -9.276504829      1.356      1.619
REMARK  2 active torsions:
REMARK  status: ('A' for Active; 'I' for Inactive)
REMARK    1  A    between atoms: N4_11  and  C5_12 
REMARK    2  A    between atoms: C5_12  and  C6_13 
ROOT
HETATM    1  N1  UNL     1       9.905   9.699  22.619  1.00  0.00    -0.063 NA
HETATM    2  C1  UNL     1       8.903   9.067  23.440  1.00  0.00     0.195 A 
HETATM    3  N2  UNL     1       9.085   9.090  24.772  1.00  0.00    -0.320 N 
ATOM      4  H2  UNL     1       9.909   9.544  25.165  1.00  0.00     0.169 HD
HETATM    5  C2  UNL     1       8.183   8.515  25.589  1.00  0.00     0.121 A 
HETATM    6 CL1  UNL     1       8.319   8.487  27.319  1.00  0.00    -0.063 Cl
HETATM    7  C3  UNL     1       7.080   7.911  25.001  1.00  0.00     0.065 A 
HETATM    8  C4  UNL     1       6.005   7.251  25.547  1.00  0.00     0.126 A 
HETATM    9  N3  UNL     1       5.247   6.874  24.516  1.00  0.00    -0.307 N 
ATOM     10  H3  UNL     1       4.372   6.359  24.616  1.00  0.00     0.186 HD
HETATM   11  N4  UNL     1       5.748   7.237  23.363  1.00  0.00    -0.272 N 
HETATM   12  C13 UNL     1       6.896   7.888  23.637  1.00  0.00     0.139 A 
HETATM   13  N5  UNL     1       7.816   8.471  22.871  1.00  0.00    -0.315 N 
ATOM     14  H5  UNL     1       7.708   8.470  21.856  1.00  0.00     0.170 HD
ENDROOT
BRANCH  11  15
HETATM   15  C5  UNL     1       5.157   6.974  22.065  1.00  0.00     0.191 C 
BRANCH  15  16
HETATM   16  C6  UNL     1       5.536   5.648  21.530  1.00  0.00    -0.018 A 
HETATM   17  C7  UNL     1       6.832   5.179  21.550  1.00  0.00     0.050 A 
HETATM   18  C8  UNL     1       7.144   3.933  21.041  1.00  0.00     0.105 A 
HETATM   19  C9  UNL     1       6.187   3.112  20.495  1.00  0.00     0.106 A 
HETATM   20  O2  UNL     1       8.348   3.267  20.955  1.00  0.00    -0.323 OA
HETATM   21  C10 UNL     1       4.868   3.566  20.463  1.00  0.00     0.059 A 
HETATM   22  O1  UNL     1       6.784   1.928  20.064  1.00  0.00    -0.323 OA
HETATM   23  C11 UNL     1       4.579   4.807  20.974  1.00  0.00     0.021 A 
HETATM   24 BR1  UNL     1       2.759   5.429  20.928  1.00  0.00    -0.050 Br
HETATM   25  C12 UNL     1       8.090   1.932  20.592  1.00  0.00     0.352 C 
ENDBRANCH  15  16
ENDBRANCH  11  15
TORSDOF 2
ENDMDL
