MODEL 1
REMARK VINA RESULT: -8.736314066      0.000      0.000
REMARK  5 active torsions:
REMARK  status: ('A' for Active; 'I' for Inactive)
REMARK    1  A    between atoms: O1_2  and  C2_3 
REMARK    2  A    between atoms: C9_13  and  N2_14 
REMARK    3  A    between atoms: N2_14  and  S1_16 
REMARK    4  A    between atoms: S1_16  and  C10_19 
REMARK    5  A    between atoms: C15_25  and  O5_26 
ROOT
HETATM    1  N2  UNL     1      11.225   5.543  -0.542  1.00  0.00    -0.278 N 
ATOM      2  H2  UNL     1      10.780   5.130   0.278  1.00  0.00     0.179 HD
ENDROOT
BRANCH   1   3
HETATM    3  C9  UNL     1      12.269   4.861  -1.185  1.00  0.00     0.077 A 
HETATM    4  C2  UNL     1      13.528   4.889  -0.642  1.00  0.00     0.098 A 
HETATM    5  C3  UNL     1      14.551   4.229  -1.271  1.00  0.00     0.079 A 
HETATM    6  C4  UNL     1      14.351   3.532  -2.445  1.00  0.00     0.113 A 
HETATM    7  O2  UNL     1      15.096   2.835  -3.244  1.00  0.00    -0.237 OA
HETATM    8  C7  UNL     1      13.074   3.517  -2.977  1.00  0.00     0.026 A 
HETATM    9  N1  UNL     1      14.410   2.368  -4.250  1.00  0.00    -0.264 N 
HETATM   10  C5  UNL     1      13.125   2.763  -4.141  1.00  0.00     0.042 A 
ATOM     11  H1  UNL     1      14.787   1.793  -5.003  1.00  0.00     0.194 HD
HETATM   12  C6  UNL     1      11.977   2.481  -5.039  1.00  0.00     0.071 C 
HETATM   13  C8  UNL     1      12.041   4.180  -2.346  1.00  0.00     0.049 A 
BRANCH   4  14
HETATM   14  O1  UNL     1      13.768   5.594   0.559  1.00  0.00    -0.354 OA
HETATM   15  C1  UNL     1      14.272   6.909   0.488  1.00  0.00     0.210 C 
ENDBRANCH   4  14
ENDBRANCH   1   3
BRANCH   1  16
HETATM   16  S1  UNL     1      10.690   7.070  -1.125  1.00  0.00     0.266 S 
HETATM   17  O3  UNL     1       9.693   6.904  -2.248  1.00  0.00    -0.200 OA
HETATM   18  O4  UNL     1      11.897   7.799  -1.688  1.00  0.00    -0.200 OA
BRANCH  16  19
HETATM   19  C10 UNL     1      10.015   7.960   0.211  1.00  0.00     0.114 A 
HETATM   20  C11 UNL     1      10.862   8.624   1.053  1.00  0.00     0.047 A 
HETATM   21  C12 UNL     1      10.328   9.325   2.121  1.00  0.00     0.012 A 
HETATM   22 BR1  UNL     1      11.480  10.266   3.320  1.00  0.00    -0.051 Br
HETATM   23  C13 UNL     1       8.964   9.343   2.320  1.00  0.00     0.022 A 
HETATM   24  C14 UNL     1       8.125   8.667   1.462  1.00  0.00     0.040 A 
HETATM   25  C15 UNL     1       8.655   7.961   0.386  1.00  0.00     0.091 A 
BRANCH  25  26
HETATM   26  O5  UNL     1       7.803   7.267  -0.497  1.00  0.00    -0.354 OA
HETATM   27  C16 UNL     1       6.785   7.998  -1.125  1.00  0.00     0.210 C 
ENDBRANCH  25  26
ENDBRANCH  16  19
ENDBRANCH   1  16
TORSDOF 5
ENDMDL
