MODEL 2
REMARK VINA RESULT: -8.444674587      1.512      2.304
REMARK  5 active torsions:
REMARK  status: ('A' for Active; 'I' for Inactive)
REMARK    1  A    between atoms: O1_2  and  C2_3 
REMARK    2  A    between atoms: C9_13  and  N2_14 
REMARK    3  A    between atoms: N2_14  and  S1_16 
REMARK    4  A    between atoms: S1_16  and  C10_19 
REMARK    5  A    between atoms: C15_25  and  O5_26 
ROOT
HETATM    1  N2  UNL     1      11.290   5.367  -0.419  1.00  0.00    -0.278 N 
ATOM      2  H2  UNL     1      11.004   4.911   0.448  1.00  0.00     0.179 HD
ENDROOT
BRANCH   1   3
HETATM    3  C9  UNL     1      12.203   4.730  -1.272  1.00  0.00     0.077 A 
HETATM    4  C2  UNL     1      13.537   4.731  -0.955  1.00  0.00     0.098 A 
HETATM    5  C3  UNL     1      14.432   4.116  -1.789  1.00  0.00     0.079 A 
HETATM    6  C4  UNL     1      14.028   3.489  -2.952  1.00  0.00     0.113 A 
HETATM    7  O2  UNL     1      14.620   2.845  -3.907  1.00  0.00    -0.237 OA
HETATM    8  C7  UNL     1      12.679   3.499  -3.254  1.00  0.00     0.026 A 
HETATM    9  N1  UNL     1      13.767   2.435  -4.805  1.00  0.00    -0.264 N 
HETATM   10  C5  UNL     1      12.523   2.816  -4.452  1.00  0.00     0.042 A 
ATOM     11  H1  UNL     1      14.005   1.908  -5.645  1.00  0.00     0.194 HD
HETATM   12  C6  UNL     1      11.235   2.583  -5.153  1.00  0.00     0.071 C 
HETATM   13  C8  UNL     1      11.774   4.118  -2.415  1.00  0.00     0.049 A 
BRANCH   4  14
HETATM   14  O1  UNL     1      13.985   5.365   0.226  1.00  0.00    -0.354 OA
HETATM   15  C1  UNL     1      14.655   6.601   0.124  1.00  0.00     0.210 C 
ENDBRANCH   4  14
ENDBRANCH   1   3
BRANCH   1  16
HETATM   16  S1  UNL     1      10.648   6.911  -0.822  1.00  0.00     0.266 S 
HETATM   17  O3  UNL     1       9.695   6.814  -1.990  1.00  0.00    -0.200 OA
HETATM   18  O4  UNL     1      11.806   7.796  -1.247  1.00  0.00    -0.200 OA
BRANCH  16  19
HETATM   19  C10 UNL     1       9.872   7.567   0.592  1.00  0.00     0.114 A 
HETATM   20  C11 UNL     1       8.642   8.145   0.457  1.00  0.00     0.047 A 
HETATM   21  C12 UNL     1       8.027   8.676   1.579  1.00  0.00     0.012 A 
HETATM   22 BR1  UNL     1       6.306   9.493   1.431  1.00  0.00    -0.051 Br
HETATM   23  C13 UNL     1       8.657   8.614   2.804  1.00  0.00     0.022 A 
HETATM   24  C14 UNL     1       9.898   8.027   2.921  1.00  0.00     0.040 A 
HETATM   25  C15 UNL     1      10.521   7.492   1.798  1.00  0.00     0.091 A 
BRANCH  25  26
HETATM   26  O5  UNL     1      11.791   6.890   1.910  1.00  0.00    -0.354 OA
HETATM   27  C16 UNL     1      12.605   7.286   2.980  1.00  0.00     0.210 C 
ENDBRANCH  25  26
ENDBRANCH  16  19
ENDBRANCH   1  16
TORSDOF 5
ENDMDL
