MODEL 16
REMARK VINA RESULT: -7.007955431      2.866      4.092
REMARK  5 active torsions:
REMARK  status: ('A' for Active; 'I' for Inactive)
REMARK    1  A    between atoms: O1_2  and  C2_3 
REMARK    2  A    between atoms: C9_13  and  N2_14 
REMARK    3  A    between atoms: N2_14  and  S1_16 
REMARK    4  A    between atoms: S1_16  and  C10_19 
REMARK    5  A    between atoms: C15_25  and  O5_26 
ROOT
HETATM    1  N2  UNL     1      10.430   8.538   0.893  1.00  0.00    -0.278 N 
ATOM      2  H2  UNL     1      10.404   9.435   0.408  1.00  0.00     0.179 HD
ENDROOT
BRANCH   1   3
HETATM    3  C9  UNL     1      11.530   7.685   0.722  1.00  0.00     0.077 A 
HETATM    4  C2  UNL     1      12.653   7.870   1.486  1.00  0.00     0.098 A 
HETATM    5  C3  UNL     1      13.732   7.043   1.317  1.00  0.00     0.079 A 
HETATM    6  C4  UNL     1      13.723   6.019   0.391  1.00  0.00     0.113 A 
HETATM    7  O2  UNL     1      14.561   5.106   0.015  1.00  0.00    -0.237 OA
HETATM    8  C7  UNL     1      12.581   5.850  -0.371  1.00  0.00     0.026 A 
HETATM    9  N1  UNL     1      14.059   4.357  -0.927  1.00  0.00    -0.264 N 
HETATM   10  C5  UNL     1      12.810   4.773  -1.217  1.00  0.00     0.042 A 
ATOM     11  H1  UNL     1      14.538   3.575  -1.375  1.00  0.00     0.194 HD
HETATM   12  C6  UNL     1      11.848   4.236  -2.213  1.00  0.00     0.071 C 
HETATM   13  C8  UNL     1      11.492   6.681  -0.203  1.00  0.00     0.049 A 
BRANCH   4  14
HETATM   14  O1  UNL     1      12.697   8.910   2.443  1.00  0.00    -0.354 OA
HETATM   15  C1  UNL     1      13.167   8.622   3.741  1.00  0.00     0.210 C 
ENDBRANCH   4  14
ENDBRANCH   1   3
BRANCH   1  16
HETATM   16  S1  UNL     1       9.123   8.084   1.915  1.00  0.00     0.266 S 
HETATM   17  O3  UNL     1       8.963   6.582   1.956  1.00  0.00    -0.200 OA
HETATM   18  O4  UNL     1       7.851   8.665   1.325  1.00  0.00    -0.200 OA
BRANCH  16  19
HETATM   19  C10 UNL     1       9.413   8.746   3.499  1.00  0.00     0.114 A 
HETATM   20  C11 UNL     1       9.313   7.921   4.584  1.00  0.00     0.047 A 
HETATM   21  C12 UNL     1       9.534   8.448   5.846  1.00  0.00     0.012 A 
HETATM   22 BR1  UNL     1       9.404   7.326   7.388  1.00  0.00    -0.051 Br
HETATM   23  C13 UNL     1       9.848   9.783   5.990  1.00  0.00     0.022 A 
HETATM   24  C14 UNL     1       9.943  10.599   4.885  1.00  0.00     0.040 A 
HETATM   25  C15 UNL     1       9.723  10.076   3.614  1.00  0.00     0.091 A 
BRANCH  25  26
HETATM   26  O5  UNL     1       9.819  10.907   2.479  1.00  0.00    -0.354 OA
HETATM   27  C16 UNL     1       9.235  12.179   2.554  1.00  0.00     0.210 C 
ENDBRANCH  25  26
ENDBRANCH  16  19
ENDBRANCH   1  16
TORSDOF 5
ENDMDL
