MODEL 7
REMARK VINA RESULT: -7.385848922      3.113      4.313
REMARK  5 active torsions:
REMARK  status: ('A' for Active; 'I' for Inactive)
REMARK    1  A    between atoms: O1_2  and  C2_3 
REMARK    2  A    between atoms: C9_13  and  N2_14 
REMARK    3  A    between atoms: N2_14  and  S1_16 
REMARK    4  A    between atoms: S1_16  and  C10_19 
REMARK    5  A    between atoms: C15_25  and  O5_26 
ROOT
HETATM    1  N2  UNL     1      10.712   8.804   0.922  1.00  0.00    -0.278 N 
ATOM      2  H2  UNL     1      10.877   9.772   0.645  1.00  0.00     0.179 HD
ENDROOT
BRANCH   1   3
HETATM    3  C9  UNL     1      11.722   7.847   0.744  1.00  0.00     0.077 A 
HETATM    4  C2  UNL     1      12.878   7.942   1.477  1.00  0.00     0.098 A 
HETATM    5  C3  UNL     1      13.869   7.014   1.302  1.00  0.00     0.079 A 
HETATM    6  C4  UNL     1      13.740   5.976   0.400  1.00  0.00     0.113 A 
HETATM    7  O2  UNL     1      14.479   4.980   0.026  1.00  0.00    -0.237 OA
HETATM    8  C7  UNL     1      12.568   5.898  -0.330  1.00  0.00     0.026 A 
HETATM    9  N1  UNL     1      13.885   4.261  -0.885  1.00  0.00    -0.264 N 
HETATM   10  C5  UNL     1      12.674   4.788  -1.155  1.00  0.00     0.042 A 
ATOM     11  H1  UNL     1      14.277   3.429  -1.326  1.00  0.00     0.194 HD
HETATM   12  C6  UNL     1      11.640   4.323  -2.115  1.00  0.00     0.071 C 
HETATM   13  C8  UNL     1      11.567   6.832  -0.155  1.00  0.00     0.049 A 
BRANCH   4  14
HETATM   14  O1  UNL     1      13.043   8.992   2.408  1.00  0.00    -0.354 OA
HETATM   15  C1  UNL     1      13.967   8.831   3.461  1.00  0.00     0.210 C 
ENDBRANCH   4  14
ENDBRANCH   1   3
BRANCH   1  16
HETATM   16  S1  UNL     1       9.197   8.358   1.602  1.00  0.00     0.266 S 
HETATM   17  O3  UNL     1       8.511   7.308   0.759  1.00  0.00    -0.200 OA
HETATM   18  O4  UNL     1       8.311   9.591   1.608  1.00  0.00    -0.200 OA
BRANCH  16  19
HETATM   19  C10 UNL     1       9.470   7.802   3.229  1.00  0.00     0.114 A 
HETATM   20  C11 UNL     1       9.045   6.551   3.576  1.00  0.00     0.047 A 
HETATM   21  C12 UNL     1       9.253   6.111   4.873  1.00  0.00     0.012 A 
HETATM   22 BR1  UNL     1       8.673   4.366   5.396  1.00  0.00    -0.051 Br
HETATM   23  C13 UNL     1       9.881   6.931   5.787  1.00  0.00     0.022 A 
HETATM   24  C14 UNL     1      10.302   8.190   5.419  1.00  0.00     0.040 A 
HETATM   25  C15 UNL     1      10.096   8.638   4.118  1.00  0.00     0.091 A 
BRANCH  25  26
HETATM   26  O5  UNL     1      10.525   9.926   3.734  1.00  0.00    -0.354 OA
HETATM   27  C16 UNL     1      10.975  10.787   4.745  1.00  0.00     0.210 C 
ENDBRANCH  25  26
ENDBRANCH  16  19
ENDBRANCH   1  16
TORSDOF 5
ENDMDL
