MODEL 3
REMARK VINA RESULT: -8.005816169      1.446      1.937
REMARK  5 active torsions:
REMARK  status: ('A' for Active; 'I' for Inactive)
REMARK    1  A    between atoms: O1_2  and  C2_3 
REMARK    2  A    between atoms: C9_13  and  N2_14 
REMARK    3  A    between atoms: N2_14  and  S1_16 
REMARK    4  A    between atoms: S1_16  and  C10_19 
REMARK    5  A    between atoms: C15_25  and  O5_26 
ROOT
HETATM    1  N2  UNL     1      11.380   5.413  -0.414  1.00  0.00    -0.278 N 
ATOM      2  H2  UNL     1      10.799   4.880   0.234  1.00  0.00     0.179 HD
ENDROOT
BRANCH   1   3
HETATM    3  C9  UNL     1      12.249   4.739  -1.285  1.00  0.00     0.077 A 
HETATM    4  C2  UNL     1      13.581   4.648  -0.972  1.00  0.00     0.098 A 
HETATM    5  C3  UNL     1      14.434   3.996  -1.823  1.00  0.00     0.079 A 
HETATM    6  C4  UNL     1      13.989   3.423  -2.998  1.00  0.00     0.113 A 
HETATM    7  O2  UNL     1      14.537   2.765  -3.970  1.00  0.00    -0.237 OA
HETATM    8  C7  UNL     1      12.643   3.527  -3.296  1.00  0.00     0.026 A 
HETATM    9  N1  UNL     1      13.659   2.432  -4.874  1.00  0.00    -0.264 N 
HETATM   10  C5  UNL     1      12.442   2.883  -4.509  1.00  0.00     0.042 A 
ATOM     11  H1  UNL     1      13.862   1.910  -5.727  1.00  0.00     0.194 HD
HETATM   12  C6  UNL     1      11.141   2.749  -5.212  1.00  0.00     0.071 C 
HETATM   13  C8  UNL     1      11.781   4.182  -2.441  1.00  0.00     0.049 A 
BRANCH   4  14
HETATM   14  O1  UNL     1      14.070   5.224   0.223  1.00  0.00    -0.354 OA
HETATM   15  C1  UNL     1      14.815   6.418   0.148  1.00  0.00     0.210 C 
ENDBRANCH   4  14
ENDBRANCH   1   3
BRANCH   1  16
HETATM   16  S1  UNL     1      11.284   7.130  -0.431  1.00  0.00     0.266 S 
HETATM   17  O3  UNL     1      11.944   7.698  -1.666  1.00  0.00    -0.200 OA
HETATM   18  O4  UNL     1      12.047   7.648   0.775  1.00  0.00    -0.200 OA
BRANCH  16  19
HETATM   19  C10 UNL     1       9.607   7.586  -0.328  1.00  0.00     0.114 A 
HETATM   20  C11 UNL     1       9.163   8.202   0.808  1.00  0.00     0.047 A 
HETATM   21  C12 UNL     1       7.827   8.557   0.896  1.00  0.00     0.012 A 
HETATM   22 BR1  UNL     1       7.168   9.421   2.468  1.00  0.00    -0.051 Br
HETATM   23  C13 UNL     1       6.972   8.287  -0.152  1.00  0.00     0.022 A 
HETATM   24  C14 UNL     1       7.438   7.665  -1.289  1.00  0.00     0.040 A 
HETATM   25  C15 UNL     1       8.779   7.306  -1.384  1.00  0.00     0.091 A 
BRANCH  25  26
HETATM   26  O5  UNL     1       9.262   6.668  -2.545  1.00  0.00    -0.354 OA
HETATM   27  C16 UNL     1       9.029   7.298  -3.776  1.00  0.00     0.210 C 
ENDBRANCH  25  26
ENDBRANCH  16  19
ENDBRANCH   1  16
TORSDOF 5
ENDMDL
