MODEL 3
REMARK VINA RESULT: -7.110520026      1.346      2.568
REMARK  5 active torsions:
REMARK  status: ('A' for Active; 'I' for Inactive)
REMARK    1  A    between atoms: N1_2  and  C2_4 
REMARK    2  A    between atoms: C9_14  and  N3_15 
REMARK    3  A    between atoms: N3_15  and  S1_17 
REMARK    4  A    between atoms: S1_17  and  C10_20 
REMARK    5  A    between atoms: C15_26  and  O4_27 
ROOT
HETATM    1  C2  UNL     1      -9.460   7.281   2.771  1.00  0.00     0.058 A 
HETATM    2  C3  UNL     1     -10.742   6.768   3.003  1.00  0.00     0.071 A 
HETATM    3  C4  UNL     1     -10.951   5.986   4.114  1.00  0.00     0.113 A 
HETATM    4  O1  UNL     1     -11.985   5.359   4.630  1.00  0.00    -0.237 OA
HETATM    5  N2  UNL     1     -11.671   4.737   5.720  1.00  0.00    -0.264 N 
ATOM      6  H2  UNL     1     -12.321   4.188   6.282  1.00  0.00     0.194 HD
HETATM    7  C5  UNL     1     -10.370   4.914   6.012  1.00  0.00     0.042 A 
HETATM    8  C6  UNL     1      -9.566   4.401   7.150  1.00  0.00     0.071 C 
HETATM    9  C7  UNL     1      -9.901   5.725   4.970  1.00  0.00     0.026 A 
HETATM   10  C8  UNL     1      -8.636   6.221   4.758  1.00  0.00     0.049 A 
HETATM   11  C9  UNL     1      -8.426   7.009   3.637  1.00  0.00     0.070 A 
ENDROOT
BRANCH  11  12
HETATM   12  N3  UNL     1      -7.095   7.502   3.434  1.00  0.00    -0.278 N 
ATOM     13  H3  UNL     1      -6.321   6.838   3.409  1.00  0.00     0.179 HD
BRANCH  12  14
HETATM   14  S1  UNL     1      -6.763   9.160   3.232  1.00  0.00     0.266 S 
HETATM   15  O2  UNL     1      -6.799   9.484   1.753  1.00  0.00    -0.200 OA
HETATM   16  O3  UNL     1      -7.828   9.997   3.926  1.00  0.00    -0.200 OA
BRANCH  14  17
HETATM   17  C10 UNL     1      -5.188   9.610   3.835  1.00  0.00     0.114 A 
HETATM   18  C11 UNL     1      -4.296  10.287   3.039  1.00  0.00     0.047 A 
HETATM   19  C12 UNL     1      -3.045  10.606   3.578  1.00  0.00     0.012 A 
HETATM   20 BR1  UNL     1      -1.749  11.546   2.541  1.00  0.00    -0.051 Br
HETATM   21  C13 UNL     1      -2.713  10.252   4.869  1.00  0.00     0.022 A 
HETATM   22  C14 UNL     1      -3.626   9.571   5.649  1.00  0.00     0.040 A 
HETATM   23  C15 UNL     1      -4.867   9.250   5.127  1.00  0.00     0.091 A 
BRANCH  23  24
HETATM   24  O4  UNL     1      -5.799   8.568   5.890  1.00  0.00    -0.354 OA
HETATM   25  C16 UNL     1      -6.001   8.931   7.247  1.00  0.00     0.210 C 
ENDBRANCH  23  24
ENDBRANCH  14  17
ENDBRANCH  12  14
ENDBRANCH  11  12
BRANCH   1  26
HETATM   26  N1  UNL     1      -9.239   8.097   1.622  1.00  0.00    -0.392 N 
HETATM   27  C1  UNL     1     -10.007   9.322   1.410  1.00  0.00     0.146 C 
ATOM     28  H1  UNL     1      -8.535   7.822   0.937  1.00  0.00     0.159 HD
ENDBRANCH   1  26
TORSDOF 5
ENDMDL
