MODEL 1
REMARK VINA RESULT: -7.806710839      0.000      0.000
REMARK  5 active torsions:
REMARK  status: ('A' for Active; 'I' for Inactive)
REMARK    1  A    between atoms: N1_2  and  C2_4 
REMARK    2  A    between atoms: C9_14  and  N3_15 
REMARK    3  A    between atoms: N3_15  and  S1_17 
REMARK    4  A    between atoms: S1_17  and  C10_20 
REMARK    5  A    between atoms: C15_26  and  O4_27 
ROOT
HETATM    1  C2  UNL     1      -9.705   7.112   3.014  1.00  0.00     0.058 A 
HETATM    2  C3  UNL     1     -10.910   6.554   3.458  1.00  0.00     0.071 A 
HETATM    3  C4  UNL     1     -10.907   5.802   4.607  1.00  0.00     0.113 A 
HETATM    4  O1  UNL     1     -11.818   5.149   5.296  1.00  0.00    -0.237 OA
HETATM    5  N2  UNL     1     -11.311   4.579   6.340  1.00  0.00    -0.264 N 
ATOM      6  H2  UNL     1     -11.840   4.022   7.010  1.00  0.00     0.194 HD
HETATM    7  C5  UNL     1      -9.990   4.820   6.419  1.00  0.00     0.042 A 
HETATM    8  C6  UNL     1      -8.996   4.379   7.431  1.00  0.00     0.071 C 
HETATM    9  C7  UNL     1      -9.726   5.614   5.296  1.00  0.00     0.026 A 
HETATM   10  C8  UNL     1      -8.534   6.155   4.875  1.00  0.00     0.049 A 
HETATM   11  C9  UNL     1      -8.537   6.913   3.715  1.00  0.00     0.070 A 
ENDROOT
BRANCH  11  12
HETATM   12  N3  UNL     1      -7.279   7.455   3.293  1.00  0.00    -0.278 N 
ATOM     13  H3  UNL     1      -6.694   6.909   2.660  1.00  0.00     0.179 HD
BRANCH  12  14
HETATM   14  S1  UNL     1      -6.728   8.980   3.812  1.00  0.00     0.266 S 
HETATM   15  O2  UNL     1      -7.907   9.930   3.860  1.00  0.00    -0.200 OA
HETATM   16  O3  UNL     1      -6.145   8.878   5.215  1.00  0.00    -0.200 OA
BRANCH  14  17
HETATM   17  C10 UNL     1      -5.537   9.667   2.737  1.00  0.00     0.114 A 
HETATM   18  C11 UNL     1      -4.372  10.208   3.229  1.00  0.00     0.047 A 
HETATM   19  C12 UNL     1      -3.466  10.754   2.315  1.00  0.00     0.012 A 
HETATM   20 BR1  UNL     1      -1.825  11.524   2.913  1.00  0.00    -0.051 Br
HETATM   21  C13 UNL     1      -3.728  10.754   0.961  1.00  0.00     0.022 A 
HETATM   22  C14 UNL     1      -4.905  10.205   0.492  1.00  0.00     0.040 A 
HETATM   23  C15 UNL     1      -5.811   9.661   1.386  1.00  0.00     0.091 A 
BRANCH  23  24
HETATM   24  O4  UNL     1      -6.997   9.106   0.939  1.00  0.00    -0.354 OA
HETATM   25  C16 UNL     1      -7.538   9.509  -0.309  1.00  0.00     0.210 C 
ENDBRANCH  23  24
ENDBRANCH  14  17
ENDBRANCH  12  14
ENDBRANCH  11  12
BRANCH   1  26
HETATM   26  N1  UNL     1      -9.703   7.898   1.823  1.00  0.00    -0.392 N 
HETATM   27  C1  UNL     1     -10.366   9.199   1.779  1.00  0.00     0.146 C 
ATOM     28  H1  UNL     1      -9.233   7.546   0.989  1.00  0.00     0.159 HD
ENDBRANCH   1  26
TORSDOF 5
ENDMDL
