MODEL 2
REMARK VINA RESULT: -7.520560847      1.525      2.268
REMARK  5 active torsions:
REMARK  status: ('A' for Active; 'I' for Inactive)
REMARK    1  A    between atoms: N1_2  and  C2_4 
REMARK    2  A    between atoms: C9_14  and  N3_15 
REMARK    3  A    between atoms: N3_15  and  S1_17 
REMARK    4  A    between atoms: S1_17  and  C10_20 
REMARK    5  A    between atoms: C15_26  and  O4_27 
ROOT
HETATM    1  C2  UNL     1      -9.628   7.016   3.002  1.00  0.00     0.058 A 
HETATM    2  C3  UNL     1     -10.859   6.382   3.217  1.00  0.00     0.071 A 
HETATM    3  C4  UNL     1     -11.009   5.591   4.331  1.00  0.00     0.113 A 
HETATM    4  O1  UNL     1     -11.986   4.870   4.835  1.00  0.00    -0.237 OA
HETATM    5  N2  UNL     1     -11.633   4.289   5.936  1.00  0.00    -0.264 N 
ATOM      6  H2  UNL     1     -12.236   3.684   6.491  1.00  0.00     0.194 HD
HETATM    7  C5  UNL     1     -10.360   4.595   6.247  1.00  0.00     0.042 A 
HETATM    8  C6  UNL     1      -9.529   4.171   7.404  1.00  0.00     0.071 C 
HETATM    9  C7  UNL     1      -9.954   5.440   5.207  1.00  0.00     0.026 A 
HETATM   10  C8  UNL     1      -8.740   6.056   5.011  1.00  0.00     0.049 A 
HETATM   11  C9  UNL     1      -8.588   6.853   3.887  1.00  0.00     0.070 A 
ENDROOT
BRANCH  11  12
HETATM   12  N3  UNL     1      -7.309   7.472   3.702  1.00  0.00    -0.278 N 
ATOM     13  H3  UNL     1      -6.573   6.951   3.224  1.00  0.00     0.179 HD
BRANCH  12  14
HETATM   14  S1  UNL     1      -6.976   9.049   4.252  1.00  0.00     0.266 S 
HETATM   15  O2  UNL     1      -8.274   9.826   4.308  1.00  0.00    -0.200 OA
HETATM   16  O3  UNL     1      -6.393   9.001   5.658  1.00  0.00    -0.200 OA
BRANCH  14  17
HETATM   17  C10 UNL     1      -5.885   9.913   3.199  1.00  0.00     0.114 A 
HETATM   18  C11 UNL     1      -6.360  10.630   2.128  1.00  0.00     0.047 A 
HETATM   19  C12 UNL     1      -5.431  11.289   1.316  1.00  0.00     0.012 A 
HETATM   20 BR1  UNL     1      -6.007  12.307  -0.192  1.00  0.00    -0.051 Br
HETATM   21  C13 UNL     1      -4.080  11.224   1.578  1.00  0.00     0.022 A 
HETATM   22  C14 UNL     1      -3.627  10.497   2.661  1.00  0.00     0.040 A 
HETATM   23  C15 UNL     1      -4.535   9.840   3.473  1.00  0.00     0.091 A 
BRANCH  23  24
HETATM   24  O4  UNL     1      -4.105   9.105   4.564  1.00  0.00    -0.354 OA
HETATM   25  C16 UNL     1      -3.092   9.627   5.410  1.00  0.00     0.210 C 
ENDBRANCH  23  24
ENDBRANCH  14  17
ENDBRANCH  12  14
ENDBRANCH  11  12
BRANCH   1  26
HETATM   26  N1  UNL     1      -9.469   7.842   1.849  1.00  0.00    -0.392 N 
HETATM   27  C1  UNL     1     -10.103   9.156   1.771  1.00  0.00     0.146 C 
ATOM     28  H1  UNL     1      -8.903   7.510   1.068  1.00  0.00     0.159 HD
ENDBRANCH   1  26
TORSDOF 5
ENDMDL
