MODEL 18
REMARK VINA RESULT: -6.053169699      3.015      4.220
REMARK  5 active torsions:
REMARK  status: ('A' for Active; 'I' for Inactive)
REMARK    1  A    between atoms: N1_2  and  C2_4 
REMARK    2  A    between atoms: C9_14  and  N3_15 
REMARK    3  A    between atoms: N3_15  and  S1_17 
REMARK    4  A    between atoms: S1_17  and  C10_20 
REMARK    5  A    between atoms: C15_26  and  O4_27 
ROOT
HETATM    1  C2  UNL     1      -8.076  10.368   1.168  1.00  0.00     0.058 A 
HETATM    2  C3  UNL     1      -9.247   9.628   0.963  1.00  0.00     0.071 A 
HETATM    3  C4  UNL     1      -9.474   8.519   1.743  1.00  0.00     0.113 A 
HETATM    4  O1  UNL     1     -10.429   7.619   1.828  1.00  0.00    -0.237 OA
HETATM    5  N2  UNL     1     -10.181   6.745   2.748  1.00  0.00    -0.264 N 
ATOM      6  H2  UNL     1     -10.789   5.960   2.981  1.00  0.00     0.194 HD
HETATM    7  C5  UNL     1      -9.011   7.011   3.355  1.00  0.00     0.042 A 
HETATM    8  C6  UNL     1      -8.320   6.294   4.458  1.00  0.00     0.071 C 
HETATM    9  C7  UNL     1      -8.550   8.163   2.705  1.00  0.00     0.026 A 
HETATM   10  C8  UNL     1      -7.396   8.879   2.920  1.00  0.00     0.049 A 
HETATM   11  C9  UNL     1      -7.168   9.996   2.132  1.00  0.00     0.070 A 
ENDROOT
BRANCH  11  12
HETATM   12  N3  UNL     1      -5.952  10.717   2.369  1.00  0.00    -0.278 N 
ATOM     13  H3  UNL     1      -5.973  11.533   2.981  1.00  0.00     0.179 HD
BRANCH  12  14
HETATM   14  S1  UNL     1      -4.472  10.256   1.665  1.00  0.00     0.266 S 
HETATM   15  O2  UNL     1      -3.341  10.785   2.523  1.00  0.00    -0.200 OA
HETATM   16  O3  UNL     1      -4.362   8.739   1.621  1.00  0.00    -0.200 OA
BRANCH  14  17
HETATM   17  C10 UNL     1      -4.262  10.901   0.056  1.00  0.00     0.114 A 
HETATM   18  C11 UNL     1      -3.760  10.119  -0.956  1.00  0.00     0.047 A 
HETATM   19  C12 UNL     1      -3.604  10.700  -2.219  1.00  0.00     0.012 A 
HETATM   20 BR1  UNL     1      -2.915   9.684  -3.680  1.00  0.00    -0.051 Br
HETATM   21  C13 UNL     1      -3.942  12.017  -2.445  1.00  0.00     0.022 A 
HETATM   22  C14 UNL     1      -4.444  12.783  -1.412  1.00  0.00     0.040 A 
HETATM   23  C15 UNL     1      -4.603  12.220  -0.158  1.00  0.00     0.091 A 
BRANCH  23  24
HETATM   24  O4  UNL     1      -5.104  12.967   0.894  1.00  0.00    -0.354 OA
HETATM   25  C16 UNL     1      -4.356  14.062   1.400  1.00  0.00     0.210 C 
ENDBRANCH  23  24
ENDBRANCH  14  17
ENDBRANCH  12  14
ENDBRANCH  11  12
BRANCH   1  26
HETATM   26  N1  UNL     1      -7.839  11.523   0.363  1.00  0.00    -0.392 N 
HETATM   27  C1  UNL     1      -8.168  11.528  -1.060  1.00  0.00     0.146 C 
ATOM     28  H1  UNL     1      -7.433  12.357   0.787  1.00  0.00     0.159 HD
ENDBRANCH   1  26
TORSDOF 5
ENDMDL
