MODEL 7
REMARK VINA RESULT: -6.474588019      2.939      3.974
REMARK  5 active torsions:
REMARK  status: ('A' for Active; 'I' for Inactive)
REMARK    1  A    between atoms: N1_2  and  C2_4 
REMARK    2  A    between atoms: C9_14  and  N3_15 
REMARK    3  A    between atoms: N3_15  and  S1_17 
REMARK    4  A    between atoms: S1_17  and  C10_20 
REMARK    5  A    between atoms: C15_26  and  O4_27 
ROOT
HETATM    1  C2  UNL     1      -8.350  10.332   1.157  1.00  0.00     0.058 A 
HETATM    2  C3  UNL     1      -9.423   9.456   0.953  1.00  0.00     0.071 A 
HETATM    3  C4  UNL     1      -9.538   8.352   1.762  1.00  0.00     0.113 A 
HETATM    4  O1  UNL     1     -10.385   7.350   1.857  1.00  0.00    -0.237 OA
HETATM    5  N2  UNL     1     -10.059   6.536   2.807  1.00  0.00    -0.264 N 
ATOM      6  H2  UNL     1     -10.578   5.694   3.053  1.00  0.00     0.194 HD
HETATM    7  C5  UNL     1      -8.941   6.953   3.428  1.00  0.00     0.042 A 
HETATM    8  C6  UNL     1      -8.197   6.353   4.566  1.00  0.00     0.071 C 
HETATM    9  C7  UNL     1      -8.601   8.132   2.752  1.00  0.00     0.026 A 
HETATM   10  C8  UNL     1      -7.542   8.982   2.966  1.00  0.00     0.049 A 
HETATM   11  C9  UNL     1      -7.426  10.095   2.149  1.00  0.00     0.070 A 
ENDROOT
BRANCH  11  12
HETATM   12  N3  UNL     1      -6.306  10.958   2.387  1.00  0.00    -0.278 N 
ATOM     13  H3  UNL     1      -6.462  11.849   2.858  1.00  0.00     0.179 HD
BRANCH  12  14
HETATM   14  S1  UNL     1      -4.725  10.545   1.910  1.00  0.00     0.266 S 
HETATM   15  O2  UNL     1      -3.824  11.743   2.130  1.00  0.00    -0.200 OA
HETATM   16  O3  UNL     1      -4.203   9.398   2.763  1.00  0.00    -0.200 OA
BRANCH  14  17
HETATM   17  C10 UNL     1      -4.623  10.108   0.223  1.00  0.00     0.114 A 
HETATM   18  C11 UNL     1      -4.122   8.887  -0.159  1.00  0.00     0.047 A 
HETATM   19  C12 UNL     1      -4.055   8.605  -1.528  1.00  0.00     0.012 A 
HETATM   20 BR1  UNL     1      -3.374   6.932  -2.144  1.00  0.00    -0.051 Br
HETATM   21  C13 UNL     1      -4.477   9.520  -2.467  1.00  0.00     0.022 A 
HETATM   22  C14 UNL     1      -4.976  10.741  -2.058  1.00  0.00     0.040 A 
HETATM   23  C15 UNL     1      -5.048  11.033  -0.708  1.00  0.00     0.091 A 
BRANCH  23  24
HETATM   24  O4  UNL     1      -5.544  12.250  -0.273  1.00  0.00    -0.354 OA
HETATM   25  C16 UNL     1      -5.160  13.444  -0.936  1.00  0.00     0.210 C 
ENDBRANCH  23  24
ENDBRANCH  14  17
ENDBRANCH  12  14
ENDBRANCH  11  12
BRANCH   1  26
HETATM   26  N1  UNL     1      -8.228  11.483   0.322  1.00  0.00    -0.392 N 
HETATM   27  C1  UNL     1      -8.964  11.580  -0.937  1.00  0.00     0.146 C 
ATOM     28  H1  UNL     1      -7.619  12.249   0.607  1.00  0.00     0.159 HD
ENDBRANCH   1  26
TORSDOF 5
ENDMDL
