MODEL 1
REMARK VINA RESULT: -9.199310128      0.000      0.000
REMARK  4 active torsions:
REMARK  status: ('A' for Active; 'I' for Inactive)
REMARK    1  A    between atoms: O1_2  and  C2_3 
REMARK    2  A    between atoms: C5_6  and  C6_7 
REMARK    3  A    between atoms: C6_7  and  C7_8 
REMARK    4  A    between atoms: C9_15  and  C10_16 
ROOT
HETATM    1  C7  UNL     1      14.929  -9.734 -21.020  1.00  0.00     0.124 A 
HETATM    2  N1  UNL     1      15.666  -8.642 -21.266  1.00  0.00    -0.285 N 
ATOM      3  H1  UNL     1      16.524  -8.611 -21.818  1.00  0.00     0.188 HD
HETATM    4  N2  UNL     1      15.094  -7.617 -20.674  1.00  0.00    -0.277 N 
ATOM      5  H2  UNL     1      15.420  -6.651 -20.679  1.00  0.00     0.189 HD
HETATM    6  C8  UNL     1      13.972  -8.100 -20.047  1.00  0.00     0.188 A 
HETATM    7  S1  UNL     1      12.589  -7.771 -19.078  1.00  0.00    -0.029 SA
HETATM    8  C9  UNL     1      11.956  -9.358 -19.006  1.00  0.00     0.119 A 
HETATM    9  N4  UNL     1      12.848 -10.017 -19.728  1.00  0.00    -0.282 N 
ATOM     10  H4  UNL     1      12.738 -11.021 -19.873  1.00  0.00     0.188 HD
HETATM   11  N5  UNL     1      13.841  -9.412 -20.243  1.00  0.00    -0.217 N 
ENDROOT
BRANCH   8  12
HETATM   12  C10 UNL     1      10.758  -9.868 -18.335  1.00  0.00     0.069 A 
HETATM   13  C11 UNL     1      10.404 -11.193 -18.307  1.00  0.00     0.046 A 
HETATM   14  C12 UNL     1       9.219 -11.341 -17.592  1.00  0.00    -0.007 A 
HETATM   15  C13 UNL     1       8.420 -12.419 -17.252  1.00  0.00     0.014 A 
HETATM   16  C17 UNL     1       8.881 -10.059 -17.195  1.00  0.00     0.043 A 
HETATM   17  C14 UNL     1       7.269 -12.249 -16.511  1.00  0.00     0.001 A 
HETATM   18  C15 UNL     1       6.914 -10.962 -16.103  1.00  0.00     0.002 A 
HETATM   19  C16 UNL     1       7.724  -9.908 -16.453  1.00  0.00     0.030 A 
HETATM   20  N3  UNL     1       9.820  -9.206 -17.654  1.00  0.00    -0.353 N 
ATOM     21  H3  UNL     1       9.814  -8.197 -17.503  1.00  0.00     0.166 HD
ENDBRANCH   8  12
BRANCH   1  22
HETATM   22  C6  UNL     1      15.308 -11.076 -21.554  1.00  0.00     0.118 C 
BRANCH  22  23
HETATM   23  C5  UNL     1      15.751 -11.924 -20.432  1.00  0.00    -0.051 A 
HETATM   24  C4  UNL     1      16.928 -11.697 -19.748  1.00  0.00     0.010 A 
HETATM   25  C3  UNL     1      17.333 -12.497 -18.696  1.00  0.00     0.037 A 
HETATM   26  C2  UNL     1      16.564 -13.567 -18.288  1.00  0.00     0.068 A 
HETATM   27  C19 UNL     1      15.388 -13.797 -18.968  1.00  0.00     0.037 A 
HETATM   28  C18 UNL     1      14.987 -12.995 -20.018  1.00  0.00     0.010 A 
BRANCH  26  29
HETATM   29  O1  UNL     1      16.955 -14.390 -17.226  1.00  0.00    -0.356 OA
HETATM   30  C1  UNL     1      16.176 -15.507 -16.848  1.00  0.00     0.210 C 
ENDBRANCH  26  29
ENDBRANCH  22  23
ENDBRANCH   1  22
TORSDOF 4
ENDMDL
