MODEL 14
REMARK VINA RESULT: -8.102255434      1.220      1.783
REMARK  4 active torsions:
REMARK  status: ('A' for Active; 'I' for Inactive)
REMARK    1  A    between atoms: O1_2  and  C2_3 
REMARK    2  A    between atoms: C5_6  and  C6_7 
REMARK    3  A    between atoms: C6_7  and  C7_8 
REMARK    4  A    between atoms: C9_15  and  C10_16 
ROOT
HETATM    1  C7  UNL     1      14.256  -9.287 -20.622  1.00  0.00     0.124 A 
HETATM    2  N1  UNL     1      14.639  -8.003 -20.589  1.00  0.00    -0.285 N 
ATOM      3  H1  UNL     1      15.444  -7.606 -21.074  1.00  0.00     0.188 HD
HETATM    4  N2  UNL     1      13.799  -7.342 -19.823  1.00  0.00    -0.277 N 
ATOM      5  H2  UNL     1      13.829  -6.346 -19.604  1.00  0.00     0.189 HD
HETATM    6  C8  UNL     1      12.874  -8.252 -19.375  1.00  0.00     0.188 A 
HETATM    7  S1  UNL     1      11.466  -8.556 -18.434  1.00  0.00    -0.029 SA
HETATM    8  C9  UNL     1      11.325 -10.234 -18.737  1.00  0.00     0.119 A 
HETATM    9  N4  UNL     1      12.363 -10.433 -19.534  1.00  0.00    -0.282 N 
ATOM     10  H4  UNL     1      12.550 -11.369 -19.896  1.00  0.00     0.188 HD
HETATM   11  N5  UNL     1      13.130  -9.469 -19.853  1.00  0.00    -0.217 N 
ENDROOT
BRANCH   8  12
HETATM   12  C10 UNL     1      10.336 -11.200 -18.256  1.00  0.00     0.069 A 
HETATM   13  C11 UNL     1       9.271 -10.869 -17.457  1.00  0.00     0.046 A 
HETATM   14  C12 UNL     1       8.526 -12.012 -17.181  1.00  0.00    -0.007 A 
HETATM   15  C13 UNL     1       7.381 -12.270 -16.448  1.00  0.00     0.014 A 
HETATM   16  C17 UNL     1       9.184 -13.034 -17.843  1.00  0.00     0.043 A 
HETATM   17  C14 UNL     1       6.863 -13.544 -16.355  1.00  0.00     0.001 A 
HETATM   18  C15 UNL     1       7.515 -14.586 -17.017  1.00  0.00     0.002 A 
HETATM   19  C16 UNL     1       8.650 -14.305 -17.739  1.00  0.00     0.030 A 
HETATM   20  N3  UNL     1      10.258 -12.515 -18.474  1.00  0.00    -0.353 N 
ATOM     21  H3  UNL     1      10.917 -13.051 -19.038  1.00  0.00     0.166 HD
ENDBRANCH   8  12
BRANCH   1  22
HETATM   22  C6  UNL     1      15.005 -10.312 -21.408  1.00  0.00     0.118 C 
BRANCH  22  23
HETATM   23  C5  UNL     1      15.657 -11.244 -20.470  1.00  0.00    -0.051 A 
HETATM   24  C4  UNL     1      16.841 -10.944 -19.827  1.00  0.00     0.010 A 
HETATM   25  C3  UNL     1      17.443 -11.826 -18.949  1.00  0.00     0.037 A 
HETATM   26  C2  UNL     1      16.874 -13.053 -18.681  1.00  0.00     0.068 A 
HETATM   27  C19 UNL     1      15.693 -13.356 -19.321  1.00  0.00     0.037 A 
HETATM   28  C18 UNL     1      15.094 -12.473 -20.197  1.00  0.00     0.010 A 
BRANCH  26  29
HETATM   29  O1  UNL     1      17.468 -13.960 -17.796  1.00  0.00    -0.356 OA
HETATM   30  C1  UNL     1      16.707 -14.986 -17.189  1.00  0.00     0.210 C 
ENDBRANCH  26  29
ENDBRANCH  22  23
ENDBRANCH   1  22
TORSDOF 4
ENDMDL
