MODEL 6
REMARK VINA RESULT: -8.514200413      3.584      6.942
REMARK  4 active torsions:
REMARK  status: ('A' for Active; 'I' for Inactive)
REMARK    1  A    between atoms: O1_2  and  C2_3 
REMARK    2  A    between atoms: C5_6  and  C6_7 
REMARK    3  A    between atoms: C6_7  and  C7_8 
REMARK    4  A    between atoms: C9_15  and  C10_16 
ROOT
HETATM    1  C7  UNL     1      14.541 -12.041 -20.458  1.00  0.00     0.124 A 
HETATM    2  N1  UNL     1      15.454 -11.170 -20.911  1.00  0.00    -0.285 N 
ATOM      3  H1  UNL     1      15.309 -10.482 -21.650  1.00  0.00     0.188 HD
HETATM    4  N2  UNL     1      16.568 -11.356 -20.238  1.00  0.00    -0.277 N 
ATOM      5  H2  UNL     1      17.443 -10.844 -20.356  1.00  0.00     0.189 HD
HETATM    6  C8  UNL     1      16.327 -12.372 -19.347  1.00  0.00     0.188 A 
HETATM    7  S1  UNL     1      16.929 -13.381 -18.090  1.00  0.00    -0.029 SA
HETATM    8  C9  UNL     1      15.512 -14.299 -17.812  1.00  0.00     0.119 A 
HETATM    9  N4  UNL     1      14.689 -13.764 -18.700  1.00  0.00    -0.282 N 
ATOM     10  H4  UNL     1      13.733 -14.113 -18.777  1.00  0.00     0.188 HD
HETATM   11  N5  UNL     1      15.077 -12.819 -19.459  1.00  0.00    -0.217 N 
ENDROOT
BRANCH   8  12
HETATM   12  C10 UNL     1      15.261 -15.382 -16.860  1.00  0.00     0.069 A 
HETATM   13  C11 UNL     1      15.032 -16.684 -17.228  1.00  0.00     0.046 A 
HETATM   14  C12 UNL     1      14.830 -17.458 -16.089  1.00  0.00    -0.007 A 
HETATM   15  C13 UNL     1      14.565 -18.797 -15.861  1.00  0.00     0.014 A 
HETATM   16  C17 UNL     1      14.947 -16.573 -15.032  1.00  0.00     0.043 A 
HETATM   17  C14 UNL     1      14.411 -19.288 -14.581  1.00  0.00     0.001 A 
HETATM   18  C15 UNL     1      14.526 -18.407 -13.503  1.00  0.00     0.002 A 
HETATM   19  C16 UNL     1      14.790 -17.082 -13.756  1.00  0.00     0.030 A 
HETATM   20  N3  UNL     1      15.204 -15.344 -15.527  1.00  0.00    -0.353 N 
ATOM     21  H3  UNL     1      15.337 -14.505 -14.963  1.00  0.00     0.166 HD
ENDBRANCH   8  12
BRANCH   1  22
HETATM   22  C6  UNL     1      13.157 -12.093 -21.017  1.00  0.00     0.118 C 
BRANCH  22  23
HETATM   23  C5  UNL     1      12.215 -11.609 -19.992  1.00  0.00    -0.051 A 
HETATM   24  C4  UNL     1      12.264 -10.328 -19.481  1.00  0.00     0.010 A 
HETATM   25  C3  UNL     1      11.374  -9.885 -18.520  1.00  0.00     0.037 A 
HETATM   26  C2  UNL     1      10.392 -10.720 -18.031  1.00  0.00     0.068 A 
HETATM   27  C19 UNL     1      10.339 -12.000 -18.537  1.00  0.00     0.037 A 
HETATM   28  C18 UNL     1      11.229 -12.439 -19.498  1.00  0.00     0.010 A 
BRANCH  26  29
HETATM   29  O1  UNL     1       9.482 -10.292 -17.058  1.00  0.00    -0.356 OA
HETATM   30  C1  UNL     1       8.186 -10.851 -16.979  1.00  0.00     0.210 C 
ENDBRANCH  26  29
ENDBRANCH  22  23
ENDBRANCH   1  22
TORSDOF 4
ENDMDL
