MODEL 3
REMARK VINA RESULT: -8.581415974      4.212      6.198
REMARK  4 active torsions:
REMARK  status: ('A' for Active; 'I' for Inactive)
REMARK    1  A    between atoms: O1_2  and  C2_3 
REMARK    2  A    between atoms: C5_6  and  C6_7 
REMARK    3  A    between atoms: C6_7  and  C7_8 
REMARK    4  A    between atoms: C9_15  and  C10_16 
ROOT
HETATM    1  C7  UNL     1      16.407 -11.836 -20.326  1.00  0.00     0.124 A 
HETATM    2  N1  UNL     1      17.668 -11.390 -20.221  1.00  0.00    -0.285 N 
ATOM      3  H1  UNL     1      18.108 -10.694 -20.823  1.00  0.00     0.188 HD
HETATM    4  N2  UNL     1      18.239 -12.005 -19.209  1.00  0.00    -0.277 N 
ATOM      5  H2  UNL     1      19.196 -11.877 -18.881  1.00  0.00     0.189 HD
HETATM    6  C8  UNL     1      17.298 -12.852 -18.680  1.00  0.00     0.188 A 
HETATM    7  S1  UNL     1      16.901 -14.028 -17.488  1.00  0.00    -0.029 SA
HETATM    8  C9  UNL     1      15.282 -14.318 -17.957  1.00  0.00     0.119 A 
HETATM    9  N4  UNL     1      15.168 -13.494 -18.987  1.00  0.00    -0.282 N 
ATOM     10  H4  UNL     1      14.284 -13.438 -19.493  1.00  0.00     0.188 HD
HETATM   11  N5  UNL     1      16.149 -12.771 -19.351  1.00  0.00    -0.217 N 
ENDROOT
BRANCH   8  12
HETATM   12  C10 UNL     1      14.281 -15.224 -17.388  1.00  0.00     0.069 A 
HETATM   13  C11 UNL     1      14.523 -16.543 -17.101  1.00  0.00     0.046 A 
HETATM   14  C12 UNL     1      13.371 -17.121 -16.575  1.00  0.00    -0.007 A 
HETATM   15  C13 UNL     1      13.040 -18.385 -16.121  1.00  0.00     0.014 A 
HETATM   16  C17 UNL     1      12.437 -16.098 -16.557  1.00  0.00     0.043 A 
HETATM   17  C14 UNL     1      11.778 -18.665 -15.639  1.00  0.00     0.001 A 
HETATM   18  C15 UNL     1      10.825 -17.645 -15.616  1.00  0.00     0.002 A 
HETATM   19  C16 UNL     1      11.177 -16.397 -16.071  1.00  0.00     0.030 A 
HETATM   20  N3  UNL     1      13.014 -14.982 -17.048  1.00  0.00    -0.353 N 
ATOM     21  H3  UNL     1      12.547 -14.081 -17.146  1.00  0.00     0.166 HD
ENDBRANCH   8  12
BRANCH   1  22
HETATM   22  C6  UNL     1      15.480 -11.334 -21.384  1.00  0.00     0.118 C 
BRANCH  22  23
HETATM   23  C5  UNL     1      14.789 -10.135 -20.876  1.00  0.00    -0.051 A 
HETATM   24  C4  UNL     1      15.218  -8.854 -21.157  1.00  0.00     0.010 A 
HETATM   25  C3  UNL     1      14.562  -7.737 -20.676  1.00  0.00     0.037 A 
HETATM   26  C2  UNL     1      13.438  -7.865 -19.886  1.00  0.00     0.068 A 
HETATM   27  C19 UNL     1      13.007  -9.142 -19.602  1.00  0.00     0.037 A 
HETATM   28  C18 UNL     1      13.665 -10.255 -20.085  1.00  0.00     0.010 A 
BRANCH  26  29
HETATM   29  O1  UNL     1      12.759  -6.747 -19.388  1.00  0.00    -0.356 OA
HETATM   30  C1  UNL     1      11.727  -6.891 -18.433  1.00  0.00     0.210 C 
ENDBRANCH  26  29
ENDBRANCH  22  23
ENDBRANCH   1  22
TORSDOF 4
ENDMDL
