MODEL 2
REMARK VINA RESULT: -8.722571331      0.543      1.120
REMARK  4 active torsions:
REMARK  status: ('A' for Active; 'I' for Inactive)
REMARK    1  A    between atoms: O1_2  and  C2_3 
REMARK    2  A    between atoms: C5_6  and  C6_7 
REMARK    3  A    between atoms: C6_7  and  C7_8 
REMARK    4  A    between atoms: C9_15  and  C10_16 
ROOT
HETATM    1  C7  UNL     1      14.935  -9.701 -21.004  1.00  0.00     0.124 A 
HETATM    2  N1  UNL     1      15.609  -8.562 -21.220  1.00  0.00    -0.285 N 
ATOM      3  H1  UNL     1      16.468  -8.469 -21.762  1.00  0.00     0.188 HD
HETATM    4  N2  UNL     1      14.970  -7.585 -20.614  1.00  0.00    -0.277 N 
ATOM      5  H2  UNL     1      15.239  -6.601 -20.597  1.00  0.00     0.189 HD
HETATM    6  C8  UNL     1      13.873  -8.146 -20.009  1.00  0.00     0.188 A 
HETATM    7  S1  UNL     1      12.464  -7.919 -19.049  1.00  0.00    -0.029 SA
HETATM    8  C9  UNL     1      11.925  -9.542 -19.015  1.00  0.00     0.119 A 
HETATM    9  N4  UNL     1      12.862 -10.133 -19.740  1.00  0.00    -0.282 N 
ATOM     10  H4  UNL     1      12.813 -11.138 -19.906  1.00  0.00     0.188 HD
HETATM   11  N5  UNL     1      13.823  -9.459 -20.232  1.00  0.00    -0.217 N 
ENDROOT
BRANCH   8  12
HETATM   12  C10 UNL     1      10.753 -10.135 -18.367  1.00  0.00     0.069 A 
HETATM   13  C11 UNL     1       9.805  -9.408 -17.693  1.00  0.00     0.046 A 
HETATM   14  C12 UNL     1       8.828 -10.268 -17.200  1.00  0.00    -0.007 A 
HETATM   15  C13 UNL     1       7.667 -10.098 -16.465  1.00  0.00     0.014 A 
HETATM   16  C17 UNL     1       9.227 -11.530 -17.604  1.00  0.00     0.043 A 
HETATM   17  C14 UNL     1       6.878 -11.173 -16.114  1.00  0.00     0.001 A 
HETATM   18  C15 UNL     1       7.268 -12.453 -16.514  1.00  0.00     0.002 A 
HETATM   19  C16 UNL     1       8.424 -12.597 -17.243  1.00  0.00     0.030 A 
HETATM   20  N3  UNL     1      10.378 -11.414 -18.298  1.00  0.00    -0.353 N 
ATOM     21  H3  UNL     1      10.890 -12.194 -18.711  1.00  0.00     0.166 HD
ENDBRANCH   8  12
BRANCH   1  22
HETATM   22  C6  UNL     1      15.398 -11.007 -21.560  1.00  0.00     0.118 C 
BRANCH  22  23
HETATM   23  C5  UNL     1      15.841 -11.865 -20.445  1.00  0.00    -0.051 A 
HETATM   24  C4  UNL     1      17.020 -11.648 -19.762  1.00  0.00     0.010 A 
HETATM   25  C3  UNL     1      17.424 -12.458 -18.717  1.00  0.00     0.037 A 
HETATM   26  C2  UNL     1      16.652 -13.528 -18.316  1.00  0.00     0.068 A 
HETATM   27  C19 UNL     1      15.474 -13.749 -18.995  1.00  0.00     0.037 A 
HETATM   28  C18 UNL     1      15.074 -12.937 -20.037  1.00  0.00     0.010 A 
BRANCH  26  29
HETATM   29  O1  UNL     1      17.044 -14.360 -17.261  1.00  0.00    -0.356 OA
HETATM   30  C1  UNL     1      16.238 -15.451 -16.860  1.00  0.00     0.210 C 
ENDBRANCH  26  29
ENDBRANCH  22  23
ENDBRANCH   1  22
TORSDOF 4
ENDMDL
