MODEL 7
REMARK VINA RESULT: -8.496944892      3.880      6.958
REMARK  4 active torsions:
REMARK  status: ('A' for Active; 'I' for Inactive)
REMARK    1  A    between atoms: O1_2  and  C2_3 
REMARK    2  A    between atoms: C5_6  and  C6_7 
REMARK    3  A    between atoms: C6_7  and  C7_8 
REMARK    4  A    between atoms: C9_15  and  C10_16 
ROOT
HETATM    1  C7  UNL     1      14.784 -12.063 -20.222  1.00  0.00     0.124 A 
HETATM    2  N1  UNL     1      15.853 -11.265 -20.359  1.00  0.00    -0.285 N 
ATOM      3  H1  UNL     1      15.910 -10.439 -20.955  1.00  0.00     0.188 HD
HETATM    4  N2  UNL     1      16.814 -11.730 -19.592  1.00  0.00    -0.277 N 
ATOM      5  H2  UNL     1      17.749 -11.337 -19.482  1.00  0.00     0.189 HD
HETATM    6  C8  UNL     1      16.316 -12.846 -18.968  1.00  0.00     0.188 A 
HETATM    7  S1  UNL     1      16.586 -14.146 -17.872  1.00  0.00    -0.029 SA
HETATM    8  C9  UNL     1      15.047 -14.885 -17.984  1.00  0.00     0.119 A 
HETATM    9  N4  UNL     1      14.445 -14.082 -18.848  1.00  0.00    -0.282 N 
ATOM     10  H4  UNL     1      13.481 -14.269 -19.124  1.00  0.00     0.188 HD
HETATM   11  N5  UNL     1      15.057 -13.080 -19.338  1.00  0.00    -0.217 N 
ENDROOT
BRANCH   8  12
HETATM   12  C10 UNL     1      14.521 -16.077 -17.315  1.00  0.00     0.069 A 
HETATM   13  C11 UNL     1      15.311 -17.046 -16.750  1.00  0.00     0.046 A 
HETATM   14  C12 UNL     1      14.504 -18.037 -16.200  1.00  0.00    -0.007 A 
HETATM   15  C13 UNL     1      14.746 -19.220 -15.523  1.00  0.00     0.014 A 
HETATM   16  C17 UNL     1      13.208 -17.624 -16.456  1.00  0.00     0.043 A 
HETATM   17  C14 UNL     1      13.710 -20.019 -15.085  1.00  0.00     0.001 A 
HETATM   18  C15 UNL     1      12.397 -19.616 -15.336  1.00  0.00     0.002 A 
HETATM   19  C16 UNL     1      12.182 -18.438 -16.010  1.00  0.00     0.030 A 
HETATM   20  N3  UNL     1      13.254 -16.452 -17.122  1.00  0.00    -0.353 N 
ATOM     21  H3  UNL     1      12.438 -15.926 -17.433  1.00  0.00     0.166 HD
ENDBRANCH   8  12
BRANCH   1  22
HETATM   22  C6  UNL     1      13.513 -11.810 -20.964  1.00  0.00     0.118 C 
BRANCH  22  23
HETATM   23  C5  UNL     1      12.474 -11.409 -19.998  1.00  0.00    -0.051 A 
HETATM   24  C4  UNL     1      11.524 -12.288 -19.518  1.00  0.00     0.010 A 
HETATM   25  C3  UNL     1      10.555 -11.900 -18.612  1.00  0.00     0.037 A 
HETATM   26  C2  UNL     1      10.502 -10.603 -18.148  1.00  0.00     0.068 A 
HETATM   27  C19 UNL     1      11.448  -9.722 -18.625  1.00  0.00     0.037 A 
HETATM   28  C18 UNL     1      12.415 -10.113 -19.529  1.00  0.00     0.010 A 
BRANCH  26  29
HETATM   29  O1  UNL     1       9.529 -10.190 -17.231  1.00  0.00    -0.356 OA
HETATM   30  C1  UNL     1       8.381 -10.977 -16.987  1.00  0.00     0.210 C 
ENDBRANCH  26  29
ENDBRANCH  22  23
ENDBRANCH   1  22
TORSDOF 4
ENDMDL
