MODEL 13
REMARK VINA RESULT: -8.130028867      0.956      1.232
REMARK  4 active torsions:
REMARK  status: ('A' for Active; 'I' for Inactive)
REMARK    1  A    between atoms: O1_2  and  C2_3 
REMARK    2  A    between atoms: C5_6  and  C6_7 
REMARK    3  A    between atoms: C6_7  and  C7_8 
REMARK    4  A    between atoms: C9_15  and  C10_16 
ROOT
HETATM    1  C7  UNL     1      14.288  -9.493 -20.648  1.00  0.00     0.124 A 
HETATM    2  N1  UNL     1      14.787  -8.249 -20.654  1.00  0.00    -0.285 N 
ATOM      3  H1  UNL     1      15.626  -7.943 -21.147  1.00  0.00     0.188 HD
HETATM    4  N2  UNL     1      14.008  -7.490 -19.915  1.00  0.00    -0.277 N 
ATOM      5  H2  UNL     1      14.128  -6.494 -19.728  1.00  0.00     0.189 HD
HETATM    6  C8  UNL     1      13.003  -8.296 -19.444  1.00  0.00     0.188 A 
HETATM    7  S1  UNL     1      11.570  -8.439 -18.501  1.00  0.00    -0.029 SA
HETATM    8  C9  UNL     1      11.277 -10.106 -18.750  1.00  0.00     0.119 A 
HETATM    9  N4  UNL     1      12.295 -10.425 -19.535  1.00  0.00    -0.282 N 
ATOM     10  H4  UNL     1      12.396 -11.385 -19.865  1.00  0.00     0.188 HD
HETATM   11  N5  UNL     1      13.148  -9.547 -19.881  1.00  0.00    -0.217 N 
ENDROOT
BRANCH   8  12
HETATM   12  C10 UNL     1      10.202 -10.962 -18.244  1.00  0.00     0.069 A 
HETATM   13  C11 UNL     1      10.002 -12.257 -18.652  1.00  0.00     0.046 A 
HETATM   14  C12 UNL     1       8.903 -12.788 -17.982  1.00  0.00    -0.007 A 
HETATM   15  C13 UNL     1       8.260 -14.013 -17.994  1.00  0.00     0.014 A 
HETATM   16  C17 UNL     1       8.458 -11.765 -17.163  1.00  0.00     0.043 A 
HETATM   17  C14 UNL     1       7.161 -14.252 -17.194  1.00  0.00     0.001 A 
HETATM   18  C15 UNL     1       6.699 -13.230 -16.363  1.00  0.00     0.002 A 
HETATM   19  C16 UNL     1       7.355 -12.022 -16.369  1.00  0.00     0.030 A 
HETATM   20  N3  UNL     1       9.254 -10.692 -17.344  1.00  0.00    -0.353 N 
ATOM     21  H3  UNL     1       9.148  -9.800 -16.861  1.00  0.00     0.166 HD
ENDBRANCH   8  12
BRANCH   1  22
HETATM   22  C6  UNL     1      14.942 -10.607 -21.397  1.00  0.00     0.118 C 
BRANCH  22  23
HETATM   23  C5  UNL     1      15.564 -11.527 -20.427  1.00  0.00    -0.051 A 
HETATM   24  C4  UNL     1      16.754 -11.242 -19.789  1.00  0.00     0.010 A 
HETATM   25  C3  UNL     1      17.327 -12.112 -18.881  1.00  0.00     0.037 A 
HETATM   26  C2  UNL     1      16.722 -13.313 -18.576  1.00  0.00     0.068 A 
HETATM   27  C19 UNL     1      15.534 -13.602 -19.212  1.00  0.00     0.037 A 
HETATM   28  C18 UNL     1      14.964 -12.731 -20.117  1.00  0.00     0.010 A 
BRANCH  26  29
HETATM   29  O1  UNL     1      17.286 -14.208 -17.660  1.00  0.00    -0.356 OA
HETATM   30  C1  UNL     1      16.490 -15.176 -17.006  1.00  0.00     0.210 C 
ENDBRANCH  26  29
ENDBRANCH  22  23
ENDBRANCH   1  22
TORSDOF 4
ENDMDL
