MODEL 18
REMARK VINA RESULT: -5.870315660      6.574      7.591
REMARK  5 active torsions:
REMARK  status: ('A' for Active; 'I' for Inactive)
REMARK    1  A    between atoms: N1_1  and  C1_5 
REMARK    2  A    between atoms: C1_5  and  C2_6 
REMARK    3  A    between atoms: C1_5  and  C9_16 
REMARK    4  A    between atoms: C2_6  and  C3_7 
REMARK    5  A    between atoms: C6_10  and  O1_11 
ROOT
HETATM    1  C3  UNL     1     -45.435 -63.091  64.022  1.00  0.00    -0.053 A 
HETATM    2  C4  UNL     1     -44.745 -62.007  64.536  1.00  0.00     0.010 A 
HETATM    3  C5  UNL     1     -43.443 -61.724  64.163  1.00  0.00     0.040 A 
HETATM    4  C6  UNL     1     -42.783 -62.520  63.259  1.00  0.00     0.104 A 
HETATM    5  C7  UNL     1     -43.452 -63.602  62.739  1.00  0.00     0.149 A 
HETATM    6  F1  UNL     1     -42.844 -64.417  61.844  1.00  0.00    -0.203 F 
HETATM    7  C8  UNL     1     -44.769 -63.888  63.117  1.00  0.00     0.052 A 
ENDROOT
BRANCH   1   8
HETATM    8  C2  UNL     1     -46.827 -63.365  64.456  1.00  0.00     0.082 C 
BRANCH   8   9
HETATM    9  C1  UNL     1     -47.781 -62.377  63.850  1.00  0.00     0.287 C 
BRANCH   9  10
HETATM   10  N1  UNL     1     -47.560 -62.379  62.412  1.00  0.00    -0.065 N 
ATOM     11  H13 UNL     1     -46.828 -61.731  62.121  1.00  0.00     0.275 HD
ATOM     12  H12 UNL     1     -47.119 -63.235  62.079  1.00  0.00     0.275 HD
ATOM     13  H11 UNL     1     -48.457 -62.192  61.962  1.00  0.00     0.275 HD
ENDBRANCH   9  10
BRANCH   9  14
HETATM   14  C9  UNL     1     -47.686 -61.021  64.417  1.00  0.00     0.204 C 
HETATM   15  O2  UNL     1     -47.749 -60.782  65.646  1.00  0.00    -0.646 OA
HETATM   16  O3  UNL     1     -47.516 -59.962  63.514  1.00  0.00    -0.646 OA
ENDBRANCH   9  14
ENDBRANCH   8   9
ENDBRANCH   1   8
BRANCH   4  17
HETATM   17  O1  UNL     1     -41.481 -62.294  62.843  1.00  0.00    -0.358 OA
ATOM     18  H1  UNL     1     -41.050 -62.797  62.161  1.00  0.00     0.217 HD
ENDBRANCH   4  17
TORSDOF 5
ENDMDL
