MODEL 2
REMARK VINA RESULT: -6.153141935      1.666      2.144
REMARK  5 active torsions:
REMARK  status: ('A' for Active; 'I' for Inactive)
REMARK    1  A    between atoms: N1_1  and  C1_5 
REMARK    2  A    between atoms: C1_5  and  C2_6 
REMARK    3  A    between atoms: C1_5  and  C9_16 
REMARK    4  A    between atoms: C2_6  and  C3_7 
REMARK    5  A    between atoms: C6_10  and  O1_11 
ROOT
HETATM    1  C3  UNL     1     -40.025 -60.365  58.697  1.00  0.00    -0.053 A 
HETATM    2  C4  UNL     1     -39.174 -60.476  57.611  1.00  0.00     0.010 A 
HETATM    3  C5  UNL     1     -39.254 -61.533  56.723  1.00  0.00     0.040 A 
HETATM    4  C6  UNL     1     -40.192 -62.522  56.891  1.00  0.00     0.104 A 
HETATM    5  C7  UNL     1     -41.045 -62.430  57.964  1.00  0.00     0.149 A 
HETATM    6  F1  UNL     1     -41.988 -63.380  58.173  1.00  0.00    -0.203 F 
HETATM    7  C8  UNL     1     -40.964 -61.360  58.863  1.00  0.00     0.052 A 
ENDROOT
BRANCH   1   8
HETATM    8  C2  UNL     1     -39.901 -59.220  59.631  1.00  0.00     0.082 C 
BRANCH   8   9
HETATM    9  C1  UNL     1     -40.072 -59.666  61.054  1.00  0.00     0.287 C 
BRANCH   9  10
HETATM   10  N1  UNL     1     -41.367 -59.185  61.511  1.00  0.00    -0.065 N 
ATOM     11  H13 UNL     1     -41.834 -59.837  62.140  1.00  0.00     0.275 HD
ATOM     12  H12 UNL     1     -41.293 -58.402  62.161  1.00  0.00     0.275 HD
ATOM     13  H11 UNL     1     -41.922 -58.964  60.684  1.00  0.00     0.275 HD
ENDBRANCH   9  10
BRANCH   9  14
HETATM   14  C9  UNL     1     -38.983 -59.248  61.952  1.00  0.00     0.204 C 
HETATM   15  O2  UNL     1     -37.984 -58.596  61.568  1.00  0.00    -0.646 OA
HETATM   16  O3  UNL     1     -39.095 -59.612  63.302  1.00  0.00    -0.646 OA
ENDBRANCH   9  14
ENDBRANCH   8   9
ENDBRANCH   1   8
BRANCH   4  17
HETATM   17  O1  UNL     1     -40.326 -63.608  56.040  1.00  0.00    -0.358 OA
ATOM     18  H1  UNL     1     -40.409 -64.506  56.339  1.00  0.00     0.217 HD
ENDBRANCH   4  17
TORSDOF 5
ENDMDL
