MODEL 1
REMARK VINA RESULT: -6.261439180      0.000      0.000
REMARK  5 active torsions:
REMARK  status: ('A' for Active; 'I' for Inactive)
REMARK    1  A    between atoms: N1_1  and  C1_5 
REMARK    2  A    between atoms: C1_5  and  C2_6 
REMARK    3  A    between atoms: C1_5  and  C9_16 
REMARK    4  A    between atoms: C2_6  and  C3_7 
REMARK    5  A    between atoms: C6_10  and  O1_11 
ROOT
HETATM    1  C3  UNL     1     -40.991 -61.159  59.363  1.00  0.00    -0.053 A 
HETATM    2  C4  UNL     1     -41.810 -62.210  58.987  1.00  0.00     0.010 A 
HETATM    3  C5  UNL     1     -41.570 -62.953  57.845  1.00  0.00     0.040 A 
HETATM    4  C6  UNL     1     -40.498 -62.670  57.035  1.00  0.00     0.104 A 
HETATM    5  C7  UNL     1     -39.674 -61.629  57.392  1.00  0.00     0.149 A 
HETATM    6  F1  UNL     1     -38.603 -61.310  56.626  1.00  0.00    -0.203 F 
HETATM    7  C8  UNL     1     -39.917 -60.877  58.547  1.00  0.00     0.052 A 
ENDROOT
BRANCH   1   8
HETATM    8  C2  UNL     1     -41.289 -60.381  60.590  1.00  0.00     0.082 C 
BRANCH   8   9
HETATM    9  C1  UNL     1     -40.028 -60.047  61.332  1.00  0.00     0.287 C 
BRANCH   9  10
HETATM   10  N1  UNL     1     -40.065 -60.758  62.602  1.00  0.00    -0.065 N 
ATOM     11  H13 UNL     1     -40.223 -60.141  63.398  1.00  0.00     0.275 HD
ATOM     12  H12 UNL     1     -40.900 -61.332  62.711  1.00  0.00     0.275 HD
ATOM     13  H11 UNL     1     -39.200 -61.293  62.679  1.00  0.00     0.275 HD
ENDBRANCH   9  10
BRANCH   9  14
HETATM   14  C9  UNL     1     -39.803 -58.603  61.519  1.00  0.00     0.204 C 
HETATM   15  O2  UNL     1     -40.041 -57.749  60.633  1.00  0.00    -0.646 OA
HETATM   16  O3  UNL     1     -39.296 -58.193  62.760  1.00  0.00    -0.646 OA
ENDBRANCH   9  14
ENDBRANCH   8   9
ENDBRANCH   1   8
BRANCH   4  17
HETATM   17  O1  UNL     1     -40.200 -63.373  55.879  1.00  0.00    -0.358 OA
ATOM     18  H1  UNL     1     -39.752 -62.994  55.131  1.00  0.00     0.217 HD
ENDBRANCH   4  17
TORSDOF 5
ENDMDL
