MODEL 1
REMARK VINA RESULT: -5.754805263      0.000      0.000
REMARK  4 active torsions:
REMARK  status: ('A' for Active; 'I' for Inactive)
REMARK    1  A    between atoms: O1_1  and  C1_3 
REMARK    2  A    between atoms: C1_3  and  O2_4 
REMARK    3  A    between atoms: C1_3  and  C2_6 
REMARK    4  A    between atoms: C1_3  and  C3_10 
ROOT
HETATM    1  C1  UNL     1      13.289  52.086  16.263  1.00  0.00     0.361 C 
ENDROOT
BRANCH   1   2
HETATM    2  O1  UNL     1      13.185  50.740  16.532  1.00  0.00    -0.352 OA
ATOM      3  H1  UNL     1      12.317  50.460  16.799  1.00  0.00     0.213 HD
ENDBRANCH   1   2
BRANCH   1   4
HETATM    4  O2  UNL     1      13.410  52.389  14.923  1.00  0.00    -0.352 OA
ATOM      5  H2  UNL     1      13.105  53.258  14.690  1.00  0.00     0.213 HD
ENDBRANCH   1   4
BRANCH   1   6
HETATM    6  C2  UNL     1      12.021  52.731  16.808  1.00  0.00     0.454 C 
HETATM    7  F1  UNL     1      11.214  52.980  15.711  1.00  0.00    -0.165 F 
HETATM    8  F2  UNL     1      12.366  53.935  17.423  1.00  0.00    -0.165 F 
HETATM    9  F3  UNL     1      11.453  51.847  17.681  1.00  0.00    -0.165 F 
ENDBRANCH   1   6
BRANCH   1  10
HETATM   10  C3  UNL     1      14.481  52.650  17.021  1.00  0.00     0.454 C 
HETATM   11  F4  UNL     1      15.603  52.032  16.493  1.00  0.00    -0.165 F 
HETATM   12  F5  UNL     1      14.535  54.006  16.927  1.00  0.00    -0.165 F 
HETATM   13  F6  UNL     1      14.389  52.221  18.339  1.00  0.00    -0.165 F 
ENDBRANCH   1  10
TORSDOF 4
ENDMDL
