MODEL 3
REMARK VINA RESULT: -5.734651589      0.106      3.150
REMARK  4 active torsions:
REMARK  status: ('A' for Active; 'I' for Inactive)
REMARK    1  A    between atoms: O1_1  and  C1_3 
REMARK    2  A    between atoms: C1_3  and  O2_4 
REMARK    3  A    between atoms: C1_3  and  C2_6 
REMARK    4  A    between atoms: C1_3  and  C3_10 
ROOT
HETATM    1  C1  UNL     1      13.237  52.059  16.278  1.00  0.00     0.361 C 
ENDROOT
BRANCH   1   2
HETATM    2  O1  UNL     1      13.395  52.398  14.953  1.00  0.00    -0.352 OA
ATOM      3  H1  UNL     1      13.622  53.310  14.807  1.00  0.00     0.213 HD
ENDBRANCH   1   2
BRANCH   1   4
HETATM    4  O2  UNL     1      13.206  50.700  16.515  1.00  0.00    -0.352 OA
ATOM      5  H2  UNL     1      13.300  50.461  17.430  1.00  0.00     0.213 HD
ENDBRANCH   1   4
BRANCH   1   6
HETATM    6  C2  UNL     1      14.420  52.668  17.020  1.00  0.00     0.454 C 
HETATM    7  F1  UNL     1      15.551  52.050  16.515  1.00  0.00    -0.165 F 
HETATM    8  F2  UNL     1      14.289  52.374  18.378  1.00  0.00    -0.165 F 
HETATM    9  F3  UNL     1      14.410  54.012  16.776  1.00  0.00    -0.165 F 
ENDBRANCH   1   6
BRANCH   1  10
HETATM   10  C3  UNL     1      11.959  52.695  16.802  1.00  0.00     0.454 C 
HETATM   11  F4  UNL     1      11.199  53.011  15.688  1.00  0.00    -0.165 F 
HETATM   12  F5  UNL     1      11.309  51.870  17.666  1.00  0.00    -0.165 F 
HETATM   13  F6  UNL     1      12.299  53.907  17.392  1.00  0.00    -0.165 F 
ENDBRANCH   1  10
TORSDOF 4
ENDMDL
