MODEL 6
REMARK VINA RESULT: -5.699753377      0.130      3.060
REMARK  4 active torsions:
REMARK  status: ('A' for Active; 'I' for Inactive)
REMARK    1  A    between atoms: O1_1  and  C1_3 
REMARK    2  A    between atoms: C1_3  and  O2_4 
REMARK    3  A    between atoms: C1_3  and  C2_6 
REMARK    4  A    between atoms: C1_3  and  C3_10 
ROOT
HETATM    1  C1  UNL     1      13.215  52.053  16.288  1.00  0.00     0.361 C 
ENDROOT
BRANCH   1   2
HETATM    2  O1  UNL     1      13.390  52.397  14.966  1.00  0.00    -0.352 OA
ATOM      3  H1  UNL     1      12.756  53.024  14.638  1.00  0.00     0.213 HD
ENDBRANCH   1   2
BRANCH   1   4
HETATM    4  O2  UNL     1      13.169  50.694  16.519  1.00  0.00    -0.352 OA
ATOM      5  H2  UNL     1      12.294  50.325  16.504  1.00  0.00     0.213 HD
ENDBRANCH   1   4
BRANCH   1   6
HETATM    6  C2  UNL     1      14.395  52.649  17.045  1.00  0.00     0.454 C 
HETATM    7  F1  UNL     1      14.381  54.007  16.774  1.00  0.00    -0.165 F 
HETATM    8  F2  UNL     1      15.570  52.081  16.551  1.00  0.00    -0.165 F 
HETATM    9  F3  UNL     1      14.207  52.382  18.372  1.00  0.00    -0.165 F 
ENDBRANCH   1   6
BRANCH   1  10
HETATM   10  C3  UNL     1      11.937  52.699  16.801  1.00  0.00     0.454 C 
HETATM   11  F4  UNL     1      11.184  53.011  15.680  1.00  0.00    -0.165 F 
HETATM   12  F5  UNL     1      11.279  51.883  17.667  1.00  0.00    -0.165 F 
HETATM   13  F6  UNL     1      12.279  53.913  17.384  1.00  0.00    -0.165 F 
ENDBRANCH   1  10
TORSDOF 4
ENDMDL
