MODEL 4
REMARK VINA RESULT: -5.716572640      0.027      1.195
REMARK  4 active torsions:
REMARK  status: ('A' for Active; 'I' for Inactive)
REMARK    1  A    between atoms: O1_1  and  C1_3 
REMARK    2  A    between atoms: C1_3  and  O2_4 
REMARK    3  A    between atoms: C1_3  and  C2_6 
REMARK    4  A    between atoms: C1_3  and  C3_10 
ROOT
HETATM    1  C1  UNL     1      13.286  52.092  16.258  1.00  0.00     0.361 C 
ENDROOT
BRANCH   1   2
HETATM    2  O1  UNL     1      13.175  50.747  16.529  1.00  0.00    -0.352 OA
ATOM      3  H1  UNL     1      13.520  50.489  17.376  1.00  0.00     0.213 HD
ENDBRANCH   1   2
BRANCH   1   4
HETATM    4  O2  UNL     1      13.419  52.390  14.917  1.00  0.00    -0.352 OA
ATOM      5  H2  UNL     1      12.834  53.072  14.609  1.00  0.00     0.213 HD
ENDBRANCH   1   4
BRANCH   1   6
HETATM    6  C2  UNL     1      12.016  52.743  16.790  1.00  0.00     0.454 C 
HETATM    7  F1  UNL     1      12.418  53.903  17.432  1.00  0.00    -0.165 F 
HETATM    8  F2  UNL     1      11.426  51.876  17.710  1.00  0.00    -0.165 F 
HETATM    9  F3  UNL     1      11.205  52.996  15.720  1.00  0.00    -0.165 F 
ENDBRANCH   1   6
BRANCH   1  10
HETATM   10  C3  UNL     1      14.474  52.654  17.023  1.00  0.00     0.454 C 
HETATM   11  F4  UNL     1      15.599  52.038  16.499  1.00  0.00    -0.165 F 
HETATM   12  F5  UNL     1      14.527  54.010  16.936  1.00  0.00    -0.165 F 
HETATM   13  F6  UNL     1      14.376  52.218  18.339  1.00  0.00    -0.165 F 
ENDBRANCH   1  10
TORSDOF 4
ENDMDL
