MODEL 2
REMARK VINA RESULT: -5.735852955      0.032      1.186
REMARK  4 active torsions:
REMARK  status: ('A' for Active; 'I' for Inactive)
REMARK    1  A    between atoms: O1_1  and  C1_3 
REMARK    2  A    between atoms: C1_3  and  O2_4 
REMARK    3  A    between atoms: C1_3  and  C2_6 
REMARK    4  A    between atoms: C1_3  and  C3_10 
ROOT
HETATM    1  C1  UNL     1      13.296  52.097  16.260  1.00  0.00     0.361 C 
ENDROOT
BRANCH   1   2
HETATM    2  O1  UNL     1      13.169  50.754  16.536  1.00  0.00    -0.352 OA
ATOM      3  H1  UNL     1      13.989  50.275  16.532  1.00  0.00     0.213 HD
ENDBRANCH   1   2
BRANCH   1   4
HETATM    4  O2  UNL     1      13.434  52.390  14.918  1.00  0.00    -0.352 OA
ATOM      5  H2  UNL     1      14.324  52.324  14.594  1.00  0.00     0.213 HD
ENDBRANCH   1   4
BRANCH   1   6
HETATM    6  C2  UNL     1      12.034  52.765  16.789  1.00  0.00     0.454 C 
HETATM    7  F1  UNL     1      11.444  51.850  17.645  1.00  0.00    -0.165 F 
HETATM    8  F2  UNL     1      11.184  53.021  15.713  1.00  0.00    -0.165 F 
HETATM    9  F3  UNL     1      12.415  53.908  17.434  1.00  0.00    -0.165 F 
ENDBRANCH   1   6
BRANCH   1  10
HETATM   10  C3  UNL     1      14.490  52.647  17.024  1.00  0.00     0.454 C 
HETATM   11  F4  UNL     1      15.610  52.031  16.488  1.00  0.00    -0.165 F 
HETATM   12  F5  UNL     1      14.550  54.004  16.948  1.00  0.00    -0.165 F 
HETATM   13  F6  UNL     1      14.397  52.201  18.337  1.00  0.00    -0.165 F 
ENDBRANCH   1  10
TORSDOF 4
ENDMDL
