MODEL 4
REMARK VINA RESULT: -8.329187622      1.272      5.843
REMARK  7 active torsions:
REMARK  status: ('A' for Active; 'I' for Inactive)
REMARK    1  A    between atoms: O1_1  and  C1_3 
REMARK    2  A    between atoms: C2_4  and  C3_5 
REMARK    3  A    between atoms: C3_5  and  O2_6 
REMARK    4  A    between atoms: O2_6  and  P1_7 
REMARK    5  A    between atoms: C4_12  and  O7_13 
REMARK    6  A    between atoms: O7_13  and  P2_14 
REMARK    7  A    between atoms: C5_18  and  O11_19 
ROOT
HETATM    1  C1  UNL     1     -32.836 -15.762  21.795  1.00  0.00     0.182 C 
HETATM    2  C2  UNL     1     -32.457 -15.353  20.398  1.00  0.00     0.180 C 
HETATM    3  O6  UNL     1     -31.250 -15.973  20.093  1.00  0.00    -0.348 OA
HETATM    4  C4  UNL     1     -30.616 -16.183  21.339  1.00  0.00     0.305 C 
HETATM    5  C5  UNL     1     -31.734 -16.781  22.113  1.00  0.00     0.205 C 
ENDROOT
BRANCH   2   6
HETATM    6  C3  UNL     1     -32.242 -13.869  20.272  1.00  0.00     0.217 C 
BRANCH   6   7
HETATM    7  O2  UNL     1     -33.414 -13.181  20.075  1.00  0.00    -0.280 OA
BRANCH   7   8
HETATM    8  P1  UNL     1     -32.993 -11.626  19.649  1.00  0.00     0.422 P 
HETATM    9  O3  UNL     1     -33.585 -10.384  20.559  1.00  0.00    -0.617 OA
HETATM   10  O4  UNL     1     -31.745 -11.733  20.524  1.00  0.00    -0.617 OA
HETATM   11  O5  UNL     1     -34.181 -11.655  18.671  1.00  0.00    -0.617 OA
ENDBRANCH   7   8
ENDBRANCH   6   7
ENDBRANCH   2   6
BRANCH   1  12
HETATM   12  O1  UNL     1     -34.077 -16.384  21.851  1.00  0.00    -0.390 OA
ATOM     13  H1  UNL     1     -34.739 -15.840  22.260  1.00  0.00     0.210 HD
ENDBRANCH   1  12
BRANCH   5  14
HETATM   14  O11 UNL     1     -32.186 -17.989  21.603  1.00  0.00    -0.388 OA
ATOM     15  H11 UNL     1     -31.815 -18.052  20.731  1.00  0.00     0.210 HD
ENDBRANCH   5  14
BRANCH   4  16
HETATM   16  O7  UNL     1     -29.458 -16.820  21.285  1.00  0.00    -0.249 OA
BRANCH  16  17
HETATM   17  P2  UNL     1     -29.008 -17.627  19.958  1.00  0.00     0.424 P 
HETATM   18  O8  UNL     1     -28.374 -16.417  19.235  1.00  0.00    -0.617 OA
HETATM   19  O9  UNL     1     -27.464 -18.281  19.941  1.00  0.00    -0.617 OA
HETATM   20  O10 UNL     1     -29.514 -18.977  20.469  1.00  0.00    -0.617 OA
ENDBRANCH  16  17
ENDBRANCH   4  16
TORSDOF 7
ENDMDL
