MODEL 1
REMARK VINA RESULT: -9.041108429      0.000      0.000
REMARK  7 active torsions:
REMARK  status: ('A' for Active; 'I' for Inactive)
REMARK    1  A    between atoms: O1_1  and  C1_3 
REMARK    2  A    between atoms: C2_4  and  C3_5 
REMARK    3  A    between atoms: C3_5  and  O2_6 
REMARK    4  A    between atoms: O2_6  and  P1_7 
REMARK    5  A    between atoms: C4_12  and  O7_13 
REMARK    6  A    between atoms: O7_13  and  P2_14 
REMARK    7  A    between atoms: C5_18  and  O11_19 
ROOT
HETATM    1  C1  UNL     1     -33.786 -16.437  20.920  1.00  0.00     0.182 C 
HETATM    2  C2  UNL     1     -32.345 -16.238  21.301  1.00  0.00     0.180 C 
HETATM    3  O6  UNL     1     -32.174 -14.890  21.601  1.00  0.00    -0.348 OA
HETATM    4  C4  UNL     1     -33.172 -14.216  20.861  1.00  0.00     0.305 C 
HETATM    5  C5  UNL     1     -34.360 -15.043  21.197  1.00  0.00     0.205 C 
ENDROOT
BRANCH   2   6
HETATM    6  C3  UNL     1     -31.401 -16.568  20.177  1.00  0.00     0.217 C 
BRANCH   6   7
HETATM    7  O2  UNL     1     -30.095 -16.274  20.481  1.00  0.00    -0.280 OA
BRANCH   7   8
HETATM    8  P1  UNL     1     -29.146 -17.249  19.518  1.00  0.00     0.422 P 
HETATM    9  O3  UNL     1     -29.234 -18.881  19.738  1.00  0.00    -0.617 OA
HETATM   10  O4  UNL     1     -30.258 -17.283  18.471  1.00  0.00    -0.617 OA
HETATM   11  O5  UNL     1     -28.020 -17.035  20.546  1.00  0.00    -0.617 OA
ENDBRANCH   7   8
ENDBRANCH   6   7
ENDBRANCH   2   6
BRANCH   1  12
HETATM   12  O1  UNL     1     -34.424 -17.373  21.724  1.00  0.00    -0.390 OA
ATOM     13  H1  UNL     1     -34.820 -16.983  22.494  1.00  0.00     0.210 HD
ENDBRANCH   1  12
BRANCH   5  14
HETATM   14  O11 UNL     1     -34.685 -15.034  22.546  1.00  0.00    -0.388 OA
ATOM     15  H11 UNL     1     -33.929 -14.667  22.988  1.00  0.00     0.210 HD
ENDBRANCH   5  14
BRANCH   4  16
HETATM   16  O7  UNL     1     -33.226 -12.907  21.043  1.00  0.00    -0.249 OA
BRANCH  16  17
HETATM   17  P2  UNL     1     -32.938 -11.880  19.829  1.00  0.00     0.424 P 
HETATM   18  O8  UNL     1     -34.209 -12.221  19.018  1.00  0.00    -0.617 OA
HETATM   19  O9  UNL     1     -33.588 -10.339  19.954  1.00  0.00    -0.617 OA
HETATM   20  O10 UNL     1     -31.653 -11.328  20.449  1.00  0.00    -0.617 OA
ENDBRANCH  16  17
ENDBRANCH   4  16
TORSDOF 7
ENDMDL
