MODEL 3
REMARK VINA RESULT: -8.377380678      1.204      5.654
REMARK  7 active torsions:
REMARK  status: ('A' for Active; 'I' for Inactive)
REMARK    1  A    between atoms: O1_1  and  C1_3 
REMARK    2  A    between atoms: C2_4  and  C3_5 
REMARK    3  A    between atoms: C3_5  and  O2_6 
REMARK    4  A    between atoms: O2_6  and  P1_7 
REMARK    5  A    between atoms: C4_12  and  O7_13 
REMARK    6  A    between atoms: O7_13  and  P2_14 
REMARK    7  A    between atoms: C5_18  and  O11_19 
ROOT
HETATM    1  C1  UNL     1     -33.855 -15.355  21.808  1.00  0.00     0.182 C 
HETATM    2  C2  UNL     1     -33.694 -14.571  20.535  1.00  0.00     0.180 C 
HETATM    3  O6  UNL     1     -32.852 -15.298  19.700  1.00  0.00    -0.348 OA
HETATM    4  C4  UNL     1     -32.052 -16.077  20.567  1.00  0.00     0.305 C 
HETATM    5  C5  UNL     1     -33.095 -16.642  21.461  1.00  0.00     0.205 C 
ENDROOT
BRANCH   2   6
HETATM    6  C3  UNL     1     -33.049 -13.231  20.762  1.00  0.00     0.217 C 
BRANCH   6   7
HETATM    7  O2  UNL     1     -32.446 -12.738  19.631  1.00  0.00    -0.280 OA
BRANCH   7   8
HETATM    8  P1  UNL     1     -32.926 -11.148  19.485  1.00  0.00     0.422 P 
HETATM    9  O3  UNL     1     -33.782 -10.478  20.725  1.00  0.00    -0.617 OA
HETATM   10  O4  UNL     1     -31.599 -10.700  20.098  1.00  0.00    -0.617 OA
HETATM   11  O5  UNL     1     -34.163 -11.672  18.735  1.00  0.00    -0.617 OA
ENDBRANCH   7   8
ENDBRANCH   6   7
ENDBRANCH   2   6
BRANCH   1  12
HETATM   12  O1  UNL     1     -35.182 -15.657  22.084  1.00  0.00    -0.390 OA
ATOM     13  H1  UNL     1     -35.767 -15.408  21.378  1.00  0.00     0.210 HD
ENDBRANCH   1  12
BRANCH   5  14
HETATM   14  O11 UNL     1     -34.014 -17.452  20.809  1.00  0.00    -0.388 OA
ATOM     15  H11 UNL     1     -33.831 -17.350  19.883  1.00  0.00     0.210 HD
ENDBRANCH   5  14
BRANCH   4  16
HETATM   16  O7  UNL     1     -31.203 -16.898  19.970  1.00  0.00    -0.249 OA
BRANCH  16  17
HETATM   17  P2  UNL     1     -29.863 -17.406  20.718  1.00  0.00     0.424 P 
HETATM   18  O8  UNL     1     -30.583 -18.260  21.786  1.00  0.00    -0.617 OA
HETATM   19  O9  UNL     1     -29.194 -18.853  20.200  1.00  0.00    -0.617 OA
HETATM   20  O10 UNL     1     -28.916 -16.687  19.756  1.00  0.00    -0.617 OA
ENDBRANCH  16  17
ENDBRANCH   4  16
TORSDOF 7
ENDMDL
