MODEL 6
REMARK VINA RESULT: -8.304869634      1.111      1.659
REMARK  7 active torsions:
REMARK  status: ('A' for Active; 'I' for Inactive)
REMARK    1  A    between atoms: O1_1  and  C1_3 
REMARK    2  A    between atoms: C2_4  and  C3_5 
REMARK    3  A    between atoms: C3_5  and  O2_6 
REMARK    4  A    between atoms: O2_6  and  P1_7 
REMARK    5  A    between atoms: C4_12  and  O7_13 
REMARK    6  A    between atoms: O7_13  and  P2_14 
REMARK    7  A    between atoms: C5_18  and  O11_19 
ROOT
HETATM    1  C1  UNL     1     -32.878 -16.701  21.134  1.00  0.00     0.182 C 
HETATM    2  C2  UNL     1     -31.629 -15.873  21.018  1.00  0.00     0.180 C 
HETATM    3  O6  UNL     1     -32.018 -14.563  20.757  1.00  0.00    -0.348 OA
HETATM    4  C4  UNL     1     -33.275 -14.669  20.120  1.00  0.00     0.305 C 
HETATM    5  C5  UNL     1     -33.960 -15.619  21.035  1.00  0.00     0.205 C 
ENDROOT
BRANCH   2   6
HETATM    6  C3  UNL     1     -30.750 -16.313  19.878  1.00  0.00     0.217 C 
BRANCH   6   7
HETATM    7  O2  UNL     1     -29.464 -16.582  20.278  1.00  0.00    -0.280 OA
BRANCH   7   8
HETATM    8  P1  UNL     1     -28.698 -17.297  18.982  1.00  0.00     0.422 P 
HETATM    9  O3  UNL     1     -27.725 -16.358  18.039  1.00  0.00    -0.617 OA
HETATM   10  O4  UNL     1     -27.530 -17.675  19.891  1.00  0.00    -0.617 OA
HETATM   11  O5  UNL     1     -29.978 -17.021  18.173  1.00  0.00    -0.617 OA
ENDBRANCH   7   8
ENDBRANCH   6   7
ENDBRANCH   2   6
BRANCH   1  12
HETATM   12  O1  UNL     1     -32.977 -17.348  22.359  1.00  0.00    -0.390 OA
ATOM     13  H1  UNL     1     -33.853 -17.307  22.725  1.00  0.00     0.210 HD
ENDBRANCH   1  12
BRANCH   5  14
HETATM   14  O11 UNL     1     -34.123 -15.135  22.325  1.00  0.00    -0.388 OA
ATOM     15  H11 UNL     1     -33.339 -15.392  22.795  1.00  0.00     0.210 HD
ENDBRANCH   5  14
BRANCH   4  16
HETATM   16  O7  UNL     1     -33.861 -13.520  19.829  1.00  0.00    -0.249 OA
BRANCH  16  17
HETATM   17  P2  UNL     1     -33.144 -12.108  20.154  1.00  0.00     0.424 P 
HETATM   18  O8  UNL     1     -32.764 -11.775  18.694  1.00  0.00    -0.617 OA
HETATM   19  O9  UNL     1     -34.094 -10.728  20.084  1.00  0.00    -0.617 OA
HETATM   20  O10 UNL     1     -33.443 -12.171  21.653  1.00  0.00    -0.617 OA
ENDBRANCH  16  17
ENDBRANCH   4  16
TORSDOF 7
ENDMDL
