MODEL 2
REMARK VINA RESULT: -8.796723642      1.047      1.418
REMARK  7 active torsions:
REMARK  status: ('A' for Active; 'I' for Inactive)
REMARK    1  A    between atoms: O1_1  and  C1_3 
REMARK    2  A    between atoms: C2_4  and  C3_5 
REMARK    3  A    between atoms: C3_5  and  O2_6 
REMARK    4  A    between atoms: O2_6  and  P1_7 
REMARK    5  A    between atoms: C4_12  and  O7_13 
REMARK    6  A    between atoms: O7_13  and  P2_14 
REMARK    7  A    between atoms: C5_18  and  O11_19 
ROOT
HETATM    1  C1  UNL     1     -33.179 -16.571  20.779  1.00  0.00     0.182 C 
HETATM    2  C2  UNL     1     -31.748 -16.543  21.239  1.00  0.00     0.180 C 
HETATM    3  O6  UNL     1     -31.397 -15.210  21.432  1.00  0.00    -0.348 OA
HETATM    4  C4  UNL     1     -32.242 -14.476  20.570  1.00  0.00     0.305 C 
HETATM    5  C5  UNL     1     -33.556 -15.089  20.895  1.00  0.00     0.205 C 
ENDROOT
BRANCH   2   6
HETATM    6  C3  UNL     1     -30.803 -17.109  20.213  1.00  0.00     0.217 C 
BRANCH   6   7
HETATM    7  O2  UNL     1     -29.499 -16.742  20.438  1.00  0.00    -0.280 OA
BRANCH   7   8
HETATM    8  P1  UNL     1     -28.551 -17.734  19.493  1.00  0.00     0.422 P 
HETATM    9  O3  UNL     1     -27.058 -18.149  20.057  1.00  0.00    -0.617 OA
HETATM   10  O4  UNL     1     -29.190 -18.957  20.149  1.00  0.00    -0.617 OA
HETATM   11  O5  UNL     1     -28.073 -16.460  18.773  1.00  0.00    -0.617 OA
ENDBRANCH   7   8
ENDBRANCH   6   7
ENDBRANCH   2   6
BRANCH   1  12
HETATM   12  O1  UNL     1     -33.992 -17.326  21.615  1.00  0.00    -0.390 OA
ATOM     13  H1  UNL     1     -34.758 -16.847  21.910  1.00  0.00     0.210 HD
ENDBRANCH   1  12
BRANCH   5  14
HETATM   14  O11 UNL     1     -33.950 -14.906  22.212  1.00  0.00    -0.388 OA
ATOM     15  H11 UNL     1     -33.908 -15.766  22.613  1.00  0.00     0.210 HD
ENDBRANCH   5  14
BRANCH   4  16
HETATM   16  O7  UNL     1     -32.113 -13.161  20.635  1.00  0.00    -0.249 OA
BRANCH  16  17
HETATM   17  P2  UNL     1     -33.330 -12.179  20.225  1.00  0.00     0.424 P 
HETATM   18  O8  UNL     1     -33.904 -12.022  21.652  1.00  0.00    -0.617 OA
HETATM   19  O9  UNL     1     -33.045 -10.528  20.299  1.00  0.00    -0.617 OA
HETATM   20  O10 UNL     1     -32.940 -12.124  18.747  1.00  0.00    -0.617 OA
ENDBRANCH  16  17
ENDBRANCH   4  16
TORSDOF 7
ENDMDL
