MODEL 5
REMARK VINA RESULT: -8.107970889      1.133      5.779
REMARK  7 active torsions:
REMARK  status: ('A' for Active; 'I' for Inactive)
REMARK    1  A    between atoms: O1_1  and  C1_3 
REMARK    2  A    between atoms: C2_4  and  C3_5 
REMARK    3  A    between atoms: C3_5  and  O2_6 
REMARK    4  A    between atoms: O2_6  and  P1_7 
REMARK    5  A    between atoms: C4_12  and  O7_13 
REMARK    6  A    between atoms: O7_13  and  P2_14 
REMARK    7  A    between atoms: C5_18  and  O11_19 
ROOT
HETATM    1  C1  UNL     1      64.723  71.463 279.473  1.00  0.00     0.182 C 
HETATM    2  C2  UNL     1      64.830  70.701 278.181  1.00  0.00     0.180 C 
HETATM    3  O6  UNL     1      65.641  69.595 278.414  1.00  0.00    -0.348 OA
HETATM    4  C4  UNL     1      66.478  69.969 279.490  1.00  0.00     0.305 C 
HETATM    5  C5  UNL     1      65.473  70.529 280.430  1.00  0.00     0.205 C 
ENDROOT
BRANCH   2   6
HETATM    6  C3  UNL     1      65.478  71.509 277.089  1.00  0.00     0.217 C 
BRANCH   6   7
HETATM    7  O2  UNL     1      66.000  70.722 276.091  1.00  0.00    -0.280 OA
BRANCH   7   8
HETATM    8  P1  UNL     1      65.614  71.460 274.647  1.00  0.00     0.422 P 
HETATM    9  O3  UNL     1      64.907  72.949 274.699  1.00  0.00    -0.617 OA
HETATM   10  O4  UNL     1      67.012  72.075 274.597  1.00  0.00    -0.617 OA
HETATM   11  O5  UNL     1      64.288  70.679 274.692  1.00  0.00    -0.617 OA
ENDBRANCH   7   8
ENDBRANCH   6   7
ENDBRANCH   2   6
BRANCH   1  12
HETATM   12  O1  UNL     1      63.408  71.610 279.897  1.00  0.00    -0.390 OA
ATOM     13  H1  UNL     1      63.205  71.065 280.648  1.00  0.00     0.210 HD
ENDBRANCH   1  12
BRANCH   5  14
HETATM   14  O11 UNL     1      64.533  69.604 280.861  1.00  0.00    -0.388 OA
ATOM     15  H11 UNL     1      63.877  69.569 280.175  1.00  0.00     0.210 HD
ENDBRANCH   5  14
BRANCH   4  16
HETATM   16  O7  UNL     1      67.305  69.030 279.917  1.00  0.00    -0.249 OA
BRANCH  16  17
HETATM   17  P2  UNL     1      68.696  69.409 280.651  1.00  0.00     0.424 P 
HETATM   18  O8  UNL     1      68.054  69.995 281.928  1.00  0.00    -0.617 OA
HETATM   19  O9  UNL     1      69.365  68.259 281.671  1.00  0.00    -0.617 OA
HETATM   20  O10 UNL     1      69.572  68.845 279.531  1.00  0.00    -0.617 OA
ENDBRANCH  16  17
ENDBRANCH   4  16
TORSDOF 7
ENDMDL
