MODEL 3
REMARK VINA RESULT: -8.758150054      1.402      6.034
REMARK  7 active torsions:
REMARK  status: ('A' for Active; 'I' for Inactive)
REMARK    1  A    between atoms: O1_1  and  C1_3 
REMARK    2  A    between atoms: C2_4  and  C3_5 
REMARK    3  A    between atoms: C3_5  and  O2_6 
REMARK    4  A    between atoms: O2_6  and  P1_7 
REMARK    5  A    between atoms: C4_12  and  O7_13 
REMARK    6  A    between atoms: O7_13  and  P2_14 
REMARK    7  A    between atoms: C5_18  and  O11_19 
ROOT
HETATM    1  C1  UNL     1      67.087  71.458 279.758  1.00  0.00     0.182 C 
HETATM    2  C2  UNL     1      66.118  70.669 278.922  1.00  0.00     0.180 C 
HETATM    3  O6  UNL     1      66.406  69.320 279.107  1.00  0.00    -0.348 OA
HETATM    4  C4  UNL     1      67.775  69.278 279.456  1.00  0.00     0.305 C 
HETATM    5  C5  UNL     1      67.818  70.334 280.502  1.00  0.00     0.205 C 
ENDROOT
BRANCH   2   6
HETATM    6  C3  UNL     1      66.259  70.957 277.451  1.00  0.00     0.217 C 
BRANCH   6   7
HETATM    7  O2  UNL     1      65.046  71.100 276.824  1.00  0.00    -0.280 OA
BRANCH   7   8
HETATM    8  P1  UNL     1      65.369  71.436 275.224  1.00  0.00     0.422 P 
HETATM    9  O3  UNL     1      64.863  72.883 274.616  1.00  0.00    -0.617 OA
HETATM   10  O4  UNL     1      66.720  72.026 275.629  1.00  0.00    -0.617 OA
HETATM   11  O5  UNL     1      64.069  70.685 274.884  1.00  0.00    -0.617 OA
ENDBRANCH   7   8
ENDBRANCH   6   7
ENDBRANCH   2   6
BRANCH   1  12
HETATM   12  O1  UNL     1      66.450  72.286 280.673  1.00  0.00    -0.390 OA
ATOM     13  H1  UNL     1      66.223  73.131 280.304  1.00  0.00     0.210 HD
ENDBRANCH   1  12
BRANCH   5  14
HETATM   14  O11 UNL     1      67.038  70.053 281.614  1.00  0.00    -0.388 OA
ATOM     15  H11 UNL     1      67.230  69.150 281.838  1.00  0.00     0.210 HD
ENDBRANCH   5  14
BRANCH   4  16
HETATM   16  O7  UNL     1      68.252  68.076 279.735  1.00  0.00    -0.249 OA
BRANCH  16  17
HETATM   17  P2  UNL     1      69.791  67.870 280.184  1.00  0.00     0.424 P 
HETATM   18  O8  UNL     1      70.391  67.954 278.762  1.00  0.00    -0.617 OA
HETATM   19  O9  UNL     1      70.691  69.249 280.504  1.00  0.00    -0.617 OA
HETATM   20  O10 UNL     1      69.466  67.803 281.677  1.00  0.00    -0.617 OA
ENDBRANCH  16  17
ENDBRANCH   4  16
TORSDOF 7
ENDMDL
