MODEL 4
REMARK VINA RESULT: -8.631983143      1.480      5.800
REMARK  7 active torsions:
REMARK  status: ('A' for Active; 'I' for Inactive)
REMARK    1  A    between atoms: O1_1  and  C1_3 
REMARK    2  A    between atoms: C2_4  and  C3_5 
REMARK    3  A    between atoms: C3_5  and  O2_6 
REMARK    4  A    between atoms: O2_6  and  P1_7 
REMARK    5  A    between atoms: C4_12  and  O7_13 
REMARK    6  A    between atoms: O7_13  and  P2_14 
REMARK    7  A    between atoms: C5_18  and  O11_19 
ROOT
HETATM    1  C1  UNL     1      67.047  71.396 279.731  1.00  0.00     0.182 C 
HETATM    2  C2  UNL     1      65.932  70.540 279.197  1.00  0.00     0.180 C 
HETATM    3  O6  UNL     1      66.266  69.213 279.448  1.00  0.00    -0.348 OA
HETATM    4  C4  UNL     1      67.679  69.191 279.503  1.00  0.00     0.305 C 
HETATM    5  C5  UNL     1      67.930  70.341 280.409  1.00  0.00     0.205 C 
ENDROOT
BRANCH   2   6
HETATM    6  C3  UNL     1      65.758  70.683 277.709  1.00  0.00     0.217 C 
BRANCH   6   7
HETATM    7  O2  UNL     1      66.601  71.623 277.169  1.00  0.00    -0.280 OA
BRANCH   7   8
HETATM    8  P1  UNL     1      65.984  72.017 275.671  1.00  0.00     0.422 P 
HETATM    9  O3  UNL     1      65.761  70.801 274.579  1.00  0.00    -0.617 OA
HETATM   10  O4  UNL     1      64.568  71.848 276.219  1.00  0.00    -0.617 OA
HETATM   11  O5  UNL     1      67.431  72.319 275.242  1.00  0.00    -0.617 OA
ENDBRANCH   7   8
ENDBRANCH   6   7
ENDBRANCH   2   6
BRANCH   1  12
HETATM   12  O1  UNL     1      66.608  72.315 280.675  1.00  0.00    -0.390 OA
ATOM     13  H1  UNL     1      67.221  72.422 281.393  1.00  0.00     0.210 HD
ENDBRANCH   1  12
BRANCH   5  14
HETATM   14  O11 UNL     1      67.404  70.178 281.683  1.00  0.00    -0.388 OA
ATOM     15  H11 UNL     1      67.930  69.500 282.090  1.00  0.00     0.210 HD
ENDBRANCH   5  14
BRANCH   4  16
HETATM   16  O7  UNL     1      68.216  68.016 279.791  1.00  0.00    -0.249 OA
BRANCH  16  17
HETATM   17  P2  UNL     1      69.779  67.884 280.184  1.00  0.00     0.424 P 
HETATM   18  O8  UNL     1      70.322  67.997 278.741  1.00  0.00    -0.617 OA
HETATM   19  O9  UNL     1      70.622  69.305 280.473  1.00  0.00    -0.617 OA
HETATM   20  O10 UNL     1      69.511  67.801 281.687  1.00  0.00    -0.617 OA
ENDBRANCH  16  17
ENDBRANCH   4  16
TORSDOF 7
ENDMDL
