MODEL 17
REMARK VINA RESULT: -5.348978241      1.435      1.959
REMARK  7 active torsions:
REMARK  status: ('A' for Active; 'I' for Inactive)
REMARK    1  A    between atoms: O1_1  and  C1_3 
REMARK    2  A    between atoms: C2_4  and  C3_5 
REMARK    3  A    between atoms: C3_5  and  O2_6 
REMARK    4  A    between atoms: O2_6  and  P1_7 
REMARK    5  A    between atoms: C4_12  and  O7_13 
REMARK    6  A    between atoms: O7_13  and  P2_14 
REMARK    7  A    between atoms: C5_18  and  O11_19 
ROOT
HETATM    1  C1  UNL     1      64.940  70.958 278.596  1.00  0.00     0.182 C 
HETATM    2  C2  UNL     1      66.424  71.198 278.616  1.00  0.00     0.180 C 
HETATM    3  O6  UNL     1      66.802  71.596 277.338  1.00  0.00    -0.348 OA
HETATM    4  C4  UNL     1      65.837  71.030 276.474  1.00  0.00     0.305 C 
HETATM    5  C5  UNL     1      64.586  71.417 277.176  1.00  0.00     0.205 C 
ENDROOT
BRANCH   2   6
HETATM    6  C3  UNL     1      67.204  69.954 278.945  1.00  0.00     0.217 C 
BRANCH   6   7
HETATM    7  O2  UNL     1      67.053  69.568 280.255  1.00  0.00    -0.280 OA
BRANCH   7   8
HETATM    8  P1  UNL     1      68.558  69.100 280.795  1.00  0.00     0.422 P 
HETATM    9  O3  UNL     1      69.876  69.903 280.214  1.00  0.00    -0.617 OA
HETATM   10  O4  UNL     1      68.429  70.069 281.970  1.00  0.00    -0.617 OA
HETATM   11  O5  UNL     1      68.543  68.040 279.679  1.00  0.00    -0.617 OA
ENDBRANCH   7   8
ENDBRANCH   6   7
ENDBRANCH   2   6
BRANCH   1  12
HETATM   12  O1  UNL     1      64.261  71.739 279.522  1.00  0.00    -0.390 OA
ATOM     13  H1  UNL     1      63.448  71.341 279.809  1.00  0.00     0.210 HD
ENDBRANCH   1  12
BRANCH   5  14
HETATM   14  O11 UNL     1      64.395  72.788 277.264  1.00  0.00    -0.388 OA
ATOM     15  H11 UNL     1      64.944  73.076 277.984  1.00  0.00     0.210 HD
ENDBRANCH   5  14
BRANCH   4  16
HETATM   16  O7  UNL     1      65.976  71.332 275.193  1.00  0.00    -0.249 OA
BRANCH  16  17
HETATM   17  P2  UNL     1      66.918  72.559 274.721  1.00  0.00     0.424 P 
HETATM   18  O8  UNL     1      66.024  73.683 275.290  1.00  0.00    -0.617 OA
HETATM   19  O9  UNL     1      68.073  73.105 275.807  1.00  0.00    -0.617 OA
HETATM   20  O10 UNL     1      67.992  71.652 274.119  1.00  0.00    -0.617 OA
ENDBRANCH  16  17
ENDBRANCH   4  16
TORSDOF 7
ENDMDL
