MODEL 2
REMARK VINA RESULT: -9.203677865      0.731      1.162
REMARK  7 active torsions:
REMARK  status: ('A' for Active; 'I' for Inactive)
REMARK    1  A    between atoms: O1_1  and  C1_3 
REMARK    2  A    between atoms: C2_4  and  C3_5 
REMARK    3  A    between atoms: C3_5  and  O2_6 
REMARK    4  A    between atoms: O2_6  and  P1_7 
REMARK    5  A    between atoms: C4_12  and  O7_13 
REMARK    6  A    between atoms: O7_13  and  P2_14 
REMARK    7  A    between atoms: C5_18  and  O11_19 
ROOT
HETATM    1  C1  UNL     1      65.228  69.982 279.690  1.00  0.00     0.182 C 
HETATM    2  C2  UNL     1      66.649  70.390 279.966  1.00  0.00     0.180 C 
HETATM    3  O6  UNL     1      67.003  71.342 279.015  1.00  0.00    -0.348 OA
HETATM    4  C4  UNL     1      66.182  71.071 277.896  1.00  0.00     0.305 C 
HETATM    5  C5  UNL     1      64.858  70.948 278.559  1.00  0.00     0.205 C 
ENDROOT
BRANCH   2   6
HETATM    6  C3  UNL     1      67.614  69.243 279.832  1.00  0.00     0.217 C 
BRANCH   6   7
HETATM    7  O2  UNL     1      68.921  69.634 279.986  1.00  0.00    -0.280 OA
BRANCH   7   8
HETATM    8  P1  UNL     1      69.787  68.268 280.385  1.00  0.00     0.422 P 
HETATM    9  O3  UNL     1      71.295  68.462 281.023  1.00  0.00    -0.617 OA
HETATM   10  O4  UNL     1      69.148  68.277 281.773  1.00  0.00    -0.617 OA
HETATM   11  O5  UNL     1      70.264  68.237 278.921  1.00  0.00    -0.617 OA
ENDBRANCH   7   8
ENDBRANCH   6   7
ENDBRANCH   2   6
BRANCH   1  12
HETATM   12  O1  UNL     1      64.391  70.195 280.778  1.00  0.00    -0.390 OA
ATOM     13  H1  UNL     1      63.472  70.160 280.544  1.00  0.00     0.210 HD
ENDBRANCH   1  12
BRANCH   5  14
HETATM   14  O11 UNL     1      64.435  72.112 279.185  1.00  0.00    -0.388 OA
ATOM     15  H11 UNL     1      65.224  72.613 279.351  1.00  0.00     0.210 HD
ENDBRANCH   5  14
BRANCH   4  16
HETATM   16  O7  UNL     1      66.318  71.905 276.879  1.00  0.00    -0.249 OA
BRANCH  16  17
HETATM   17  P2  UNL     1      65.360  71.805 275.581  1.00  0.00     0.424 P 
HETATM   18  O8  UNL     1      65.867  73.097 274.901  1.00  0.00    -0.617 OA
HETATM   19  O9  UNL     1      65.968  71.013 274.234  1.00  0.00    -0.617 OA
HETATM   20  O10 UNL     1      64.728  70.479 276.007  1.00  0.00    -0.617 OA
ENDBRANCH  16  17
ENDBRANCH   4  16
TORSDOF 7
ENDMDL
