MODEL 2
REMARK VINA RESULT: -6.969374817      2.044      6.018
REMARK  11 active torsions:
REMARK  status: ('A' for Active; 'I' for Inactive)
REMARK    1  A    between atoms: C2_2  and  N1_3 
REMARK    2  A    between atoms: C2_2  and  C13_26 
REMARK    3  A    between atoms: N1_3  and  C3_6 
REMARK    4  A    between atoms: C3_6  and  C4_7 
REMARK    5  A    between atoms: C3_6  and  C12_23 
REMARK    6  A    between atoms: C4_7  and  C5_8 
REMARK    7  A    between atoms: C5_8  and  N2_9 
REMARK    8  A    between atoms: N2_9  and  C6_11 
REMARK    9  A    between atoms: C6_11  and  C7_12 
REMARK   10  A    between atoms: C6_11  and  C11_20 
REMARK   11  A    between atoms: C7_12  and  C8_13 
ROOT
HETATM    1  C5  UNL     1     -17.277  23.966 -20.493  1.00  0.00     0.117 C 
ENDROOT
BRANCH   1   2
HETATM    2  C4  UNL     1     -16.192  24.386 -21.415  1.00  0.00     0.063 C 
BRANCH   2   3
HETATM    3  C3  UNL     1     -15.817  25.799 -21.555  1.00  0.00     0.288 C 
BRANCH   3   4
HETATM    4  N1  UNL     1     -14.393  25.915 -21.948  1.00  0.00    -0.047 N 
ATOM      5  H12 UNL     1     -13.959  26.722 -21.500  1.00  0.00     0.279 HD
ATOM      6  H11 UNL     1     -14.309  26.198 -22.924  1.00  0.00     0.279 HD
BRANCH   4   7
HETATM    7  C2  UNL     1     -13.640  24.733 -21.698  1.00  0.00     0.282 C 
HETATM    8  C1  UNL     1     -12.544  24.628 -22.762  1.00  0.00     0.052 C 
BRANCH   7   9
HETATM    9  C13 UNL     1     -12.950  24.734 -20.394  1.00  0.00     0.204 C 
HETATM   10  O5  UNL     1     -12.549  23.667 -19.896  1.00  0.00    -0.646 OA
HETATM   11  O6  UNL     1     -12.747  25.914 -19.720  1.00  0.00    -0.646 OA
ENDBRANCH   7   9
ENDBRANCH   4   7
ENDBRANCH   3   4
BRANCH   3  12
HETATM   12  C12 UNL     1     -16.030  26.769 -20.519  1.00  0.00     0.204 C 
HETATM   13  O3  UNL     1     -16.472  27.942 -20.784  1.00  0.00    -0.646 OA
HETATM   14  O4  UNL     1     -15.807  26.581 -19.143  1.00  0.00    -0.646 OA
ENDBRANCH   3  12
ENDBRANCH   2   3
ENDBRANCH   1   2
BRANCH   1  15
HETATM   15  N2  UNL     1     -16.789  23.566 -19.230  1.00  0.00    -0.408 N 
ATOM     16  H2  UNL     1     -16.282  24.208 -18.621  1.00  0.00     0.154 HD
BRANCH  15  17
HETATM   17  C6  UNL     1     -17.046  22.197 -18.849  1.00  0.00     0.184 C 
BRANCH  17  18
HETATM   18  C7  UNL     1     -16.809  22.091 -17.358  1.00  0.00     0.094 C 
BRANCH  18  19
HETATM   19  C8  UNL     1     -15.633  22.839 -16.887  1.00  0.00     0.028 A 
HETATM   20  C9  UNL     1     -15.682  23.828 -15.913  1.00  0.00     0.114 A 
HETATM   21  N3  UNL     1     -14.438  24.267 -15.763  1.00  0.00    -0.360 N 
HETATM   22  C10 UNL     1     -13.628  23.603 -16.590  1.00  0.00     0.180 A 
ATOM     23  H3  UNL     1     -14.147  24.999 -15.116  1.00  0.00     0.166 HD
HETATM   24  N4  UNL     1     -14.370  22.721 -17.284  1.00  0.00    -0.354 N 
ATOM     25  H4  UNL     1     -14.023  22.074 -17.992  1.00  0.00     0.166 HD
ENDBRANCH  18  19
ENDBRANCH  17  18
BRANCH  17  26
HETATM   26  C11 UNL     1     -16.199  21.238 -19.604  1.00  0.00     0.196 C 
HETATM   27  O1  UNL     1     -16.620  20.104 -19.952  1.00  0.00    -0.646 OA
HETATM   28  O2  UNL     1     -14.896  21.553 -19.958  1.00  0.00    -0.646 OA
ENDBRANCH  17  26
ENDBRANCH  15  17
ENDBRANCH   1  15
TORSDOF 11
ENDMDL
