MODEL 4
REMARK VINA RESULT: -6.883885297      2.005      6.914
REMARK  11 active torsions:
REMARK  status: ('A' for Active; 'I' for Inactive)
REMARK    1  A    between atoms: C2_2  and  N1_3 
REMARK    2  A    between atoms: C2_2  and  C13_26 
REMARK    3  A    between atoms: N1_3  and  C3_6 
REMARK    4  A    between atoms: C3_6  and  C4_7 
REMARK    5  A    between atoms: C3_6  and  C12_23 
REMARK    6  A    between atoms: C4_7  and  C5_8 
REMARK    7  A    between atoms: C5_8  and  N2_9 
REMARK    8  A    between atoms: N2_9  and  C6_11 
REMARK    9  A    between atoms: C6_11  and  C7_12 
REMARK   10  A    between atoms: C6_11  and  C11_20 
REMARK   11  A    between atoms: C7_12  and  C8_13 
ROOT
HETATM    1  C5  UNL     1     -17.436  23.646 -20.559  1.00  0.00     0.117 C 
ENDROOT
BRANCH   1   2
HETATM    2  C4  UNL     1     -16.530  24.550 -21.311  1.00  0.00     0.063 C 
BRANCH   2   3
HETATM    3  C3  UNL     1     -16.408  25.970 -20.960  1.00  0.00     0.288 C 
BRANCH   3   4
HETATM    4  N1  UNL     1     -15.959  26.751 -22.136  1.00  0.00    -0.047 N 
ATOM      5  H12 UNL     1     -16.109  26.227 -22.997  1.00  0.00     0.279 HD
ATOM      6  H11 UNL     1     -14.941  26.822 -22.156  1.00  0.00     0.279 HD
BRANCH   4   7
HETATM    7  C2  UNL     1     -16.555  28.042 -22.220  1.00  0.00     0.282 C 
HETATM    8  C1  UNL     1     -15.461  29.054 -22.569  1.00  0.00     0.052 C 
BRANCH   7   9
HETATM    9  C13 UNL     1     -17.577  28.155 -23.276  1.00  0.00     0.204 C 
HETATM   10  O5  UNL     1     -18.786  28.080 -22.991  1.00  0.00    -0.646 OA
HETATM   11  O6  UNL     1     -17.201  28.344 -24.585  1.00  0.00    -0.646 OA
ENDBRANCH   7   9
ENDBRANCH   4   7
ENDBRANCH   3   4
BRANCH   3  12
HETATM   12  C12 UNL     1     -15.631  26.434 -19.847  1.00  0.00     0.204 C 
HETATM   13  O3  UNL     1     -15.909  26.083 -18.646  1.00  0.00    -0.646 OA
HETATM   14  O4  UNL     1     -14.512  27.285 -19.908  1.00  0.00    -0.646 OA
ENDBRANCH   3  12
ENDBRANCH   2   3
ENDBRANCH   1   2
BRANCH   1  15
HETATM   15  N2  UNL     1     -16.947  23.337 -19.271  1.00  0.00    -0.408 N 
ATOM     16  H2  UNL     1     -16.607  24.060 -18.637  1.00  0.00     0.154 HD
BRANCH  15  17
HETATM   17  C6  UNL     1     -16.953  21.942 -18.902  1.00  0.00     0.184 C 
BRANCH  17  18
HETATM   18  C7  UNL     1     -16.747  21.870 -17.404  1.00  0.00     0.094 C 
BRANCH  18  19
HETATM   19  C8  UNL     1     -15.635  22.698 -16.915  1.00  0.00     0.028 A 
HETATM   20  C9  UNL     1     -15.757  23.640 -15.901  1.00  0.00     0.114 A 
HETATM   21  N3  UNL     1     -14.554  24.180 -15.745  1.00  0.00    -0.360 N 
HETATM   22  C10 UNL     1     -13.700  23.622 -16.606  1.00  0.00     0.180 A 
ATOM     23  H3  UNL     1     -14.319  24.909 -15.072  1.00  0.00     0.166 HD
HETATM   24  N4  UNL     1     -14.371  22.707 -17.328  1.00  0.00    -0.354 N 
ATOM     25  H4  UNL     1     -13.979  22.121 -18.065  1.00  0.00     0.166 HD
ENDBRANCH  18  19
ENDBRANCH  17  18
BRANCH  17  26
HETATM   26  C11 UNL     1     -15.916  21.167 -19.631  1.00  0.00     0.196 C 
HETATM   27  O1  UNL     1     -14.831  21.687 -20.004  1.00  0.00    -0.646 OA
HETATM   28  O2  UNL     1     -16.099  19.826 -19.935  1.00  0.00    -0.646 OA
ENDBRANCH  17  26
ENDBRANCH  15  17
ENDBRANCH   1  15
TORSDOF 11
ENDMDL
