MODEL 6
REMARK VINA RESULT: -6.479318958      2.044      2.838
REMARK  11 active torsions:
REMARK  status: ('A' for Active; 'I' for Inactive)
REMARK    1  A    between atoms: C2_2  and  N1_3 
REMARK    2  A    between atoms: C2_2  and  C13_26 
REMARK    3  A    between atoms: N1_3  and  C3_6 
REMARK    4  A    between atoms: C3_6  and  C4_7 
REMARK    5  A    between atoms: C3_6  and  C12_23 
REMARK    6  A    between atoms: C4_7  and  C5_8 
REMARK    7  A    between atoms: C5_8  and  N2_9 
REMARK    8  A    between atoms: N2_9  and  C6_11 
REMARK    9  A    between atoms: C6_11  and  C7_12 
REMARK   10  A    between atoms: C6_11  and  C11_20 
REMARK   11  A    between atoms: C7_12  and  C8_13 
ROOT
HETATM    1  C5  UNL     1     -17.339  23.471 -20.215  1.00  0.00     0.117 C 
ENDROOT
BRANCH   1   2
HETATM    2  C4  UNL     1     -17.184  22.996 -18.816  1.00  0.00     0.063 C 
BRANCH   2   3
HETATM    3  C3  UNL     1     -16.740  21.628 -18.522  1.00  0.00     0.288 C 
BRANCH   3   4
HETATM    4  N1  UNL     1     -15.862  21.621 -17.329  1.00  0.00    -0.047 N 
ATOM      5  H12 UNL     1     -15.021  21.071 -17.502  1.00  0.00     0.279 HD
ATOM      6  H11 UNL     1     -16.275  21.065 -16.579  1.00  0.00     0.279 HD
BRANCH   4   7
HETATM    7  C2  UNL     1     -15.526  22.924 -16.865  1.00  0.00     0.282 C 
HETATM    8  C1  UNL     1     -15.895  23.015 -15.382  1.00  0.00     0.052 C 
BRANCH   7   9
HETATM    9  C13 UNL     1     -14.087  23.232 -16.953  1.00  0.00     0.204 C 
HETATM   10  O5  UNL     1     -13.502  23.184 -18.050  1.00  0.00    -0.646 OA
HETATM   11  O6  UNL     1     -13.382  23.575 -15.824  1.00  0.00    -0.646 OA
ENDBRANCH   7   9
ENDBRANCH   4   7
ENDBRANCH   3   4
BRANCH   3  12
HETATM   12  C12 UNL     1     -16.104  20.788 -19.496  1.00  0.00     0.204 C 
HETATM   13  O3  UNL     1     -15.009  21.137 -20.065  1.00  0.00    -0.646 OA
HETATM   14  O4  UNL     1     -16.556  19.531 -19.936  1.00  0.00    -0.646 OA
ENDBRANCH   3  12
ENDBRANCH   2   3
ENDBRANCH   1   2
BRANCH   1  15
HETATM   15  N2  UNL     1     -16.170  24.088 -20.709  1.00  0.00    -0.408 N 
ATOM     16  H2  UNL     1     -15.262  23.625 -20.675  1.00  0.00     0.154 HD
BRANCH  15  17
HETATM   17  C6  UNL     1     -16.331  25.410 -21.266  1.00  0.00     0.184 C 
BRANCH  17  18
HETATM   18  C7  UNL     1     -15.363  25.534 -22.423  1.00  0.00     0.094 C 
BRANCH  18  19
HETATM   19  C8  UNL     1     -13.992  25.111 -22.101  1.00  0.00     0.028 A 
HETATM   20  C9  UNL     1     -13.017  24.846 -23.054  1.00  0.00     0.114 A 
HETATM   21  N3  UNL     1     -11.925  24.493 -22.386  1.00  0.00    -0.360 N 
HETATM   22  C10 UNL     1     -12.175  24.527 -21.075  1.00  0.00     0.180 A 
ATOM     23  H3  UNL     1     -11.034  24.236 -22.809  1.00  0.00     0.166 HD
HETATM   24  N4  UNL     1     -13.453  24.909 -20.902  1.00  0.00    -0.354 N 
ATOM     25  H4  UNL     1     -13.927  25.023 -20.006  1.00  0.00     0.166 HD
ENDBRANCH  18  19
ENDBRANCH  17  18
BRANCH  17  26
HETATM   26  C11 UNL     1     -16.106  26.474 -20.253  1.00  0.00     0.196 C 
HETATM   27  O1  UNL     1     -16.393  27.680 -20.476  1.00  0.00    -0.646 OA
HETATM   28  O2  UNL     1     -15.566  26.182 -19.011  1.00  0.00    -0.646 OA
ENDBRANCH  17  26
ENDBRANCH  15  17
ENDBRANCH   1  15
TORSDOF 11
ENDMDL
