MODEL 3
REMARK VINA RESULT: -6.885462520      2.031      6.407
REMARK  11 active torsions:
REMARK  status: ('A' for Active; 'I' for Inactive)
REMARK    1  A    between atoms: C2_2  and  N1_3 
REMARK    2  A    between atoms: C2_2  and  C13_26 
REMARK    3  A    between atoms: N1_3  and  C3_6 
REMARK    4  A    between atoms: C3_6  and  C4_7 
REMARK    5  A    between atoms: C3_6  and  C12_23 
REMARK    6  A    between atoms: C4_7  and  C5_8 
REMARK    7  A    between atoms: C5_8  and  N2_9 
REMARK    8  A    between atoms: N2_9  and  C6_11 
REMARK    9  A    between atoms: C6_11  and  C7_12 
REMARK   10  A    between atoms: C6_11  and  C11_20 
REMARK   11  A    between atoms: C7_12  and  C8_13 
ROOT
HETATM    1  C5  UNL     1     -17.409  23.848 -20.489  1.00  0.00     0.117 C 
ENDROOT
BRANCH   1   2
HETATM    2  C4  UNL     1     -16.430  24.029 -21.590  1.00  0.00     0.063 C 
BRANCH   2   3
HETATM    3  C3  UNL     1     -15.478  25.147 -21.586  1.00  0.00     0.288 C 
BRANCH   3   4
HETATM    4  N1  UNL     1     -15.985  26.254 -22.432  1.00  0.00    -0.047 N 
ATOM      5  H12 UNL     1     -16.733  25.928 -23.043  1.00  0.00     0.279 HD
ATOM      6  H11 UNL     1     -15.294  26.517 -23.135  1.00  0.00     0.279 HD
BRANCH   4   7
HETATM    7  C2  UNL     1     -16.402  27.392 -21.685  1.00  0.00     0.282 C 
HETATM    8  C1  UNL     1     -15.906  27.229 -20.246  1.00  0.00     0.052 C 
BRANCH   7   9
HETATM    9  C13 UNL     1     -15.839  28.662 -22.176  1.00  0.00     0.204 C 
HETATM   10  O5  UNL     1     -16.236  29.152 -23.248  1.00  0.00    -0.646 OA
HETATM   11  O6  UNL     1     -14.869  29.315 -21.452  1.00  0.00    -0.646 OA
ENDBRANCH   7   9
ENDBRANCH   4   7
ENDBRANCH   3   4
BRANCH   3  12
HETATM   12  C12 UNL     1     -14.091  24.992 -21.915  1.00  0.00     0.204 C 
HETATM   13  O3  UNL     1     -13.505  25.786 -22.733  1.00  0.00    -0.646 OA
HETATM   14  O4  UNL     1     -13.219  24.009 -21.411  1.00  0.00    -0.646 OA
ENDBRANCH   3  12
ENDBRANCH   2   3
ENDBRANCH   1   2
BRANCH   1  15
HETATM   15  N2  UNL     1     -16.797  23.449 -19.281  1.00  0.00    -0.408 N 
ATOM     16  H2  UNL     1     -16.218  24.088 -18.735  1.00  0.00     0.154 HD
BRANCH  15  17
HETATM   17  C6  UNL     1     -17.034  22.089 -18.861  1.00  0.00     0.184 C 
BRANCH  17  18
HETATM   18  C7  UNL     1     -16.855  22.042 -17.359  1.00  0.00     0.094 C 
BRANCH  18  19
HETATM   19  C8  UNL     1     -15.681  22.784 -16.875  1.00  0.00     0.028 A 
HETATM   20  C9  UNL     1     -15.735  23.778 -15.906  1.00  0.00     0.114 A 
HETATM   21  N3  UNL     1     -14.491  24.209 -15.741  1.00  0.00    -0.360 N 
HETATM   22  C10 UNL     1     -13.674  23.536 -16.554  1.00  0.00     0.180 A 
ATOM     23  H3  UNL     1     -14.203  24.942 -15.093  1.00  0.00     0.166 HD
HETATM   24  N4  UNL     1     -14.413  22.656 -17.254  1.00  0.00    -0.354 N 
ATOM     25  H4  UNL     1     -14.061  22.003 -17.955  1.00  0.00     0.166 HD
ENDBRANCH  18  19
ENDBRANCH  17  18
BRANCH  17  26
HETATM   26  C11 UNL     1     -16.133  21.127 -19.546  1.00  0.00     0.196 C 
HETATM   27  O1  UNL     1     -16.486  19.946 -19.803  1.00  0.00    -0.646 OA
HETATM   28  O2  UNL     1     -14.852  21.491 -19.934  1.00  0.00    -0.646 OA
ENDBRANCH  17  26
ENDBRANCH  15  17
ENDBRANCH   1  15
TORSDOF 11
ENDMDL
