MODEL 6
REMARK VINA RESULT: -6.769026039      2.159      2.905
REMARK  11 active torsions:
REMARK  status: ('A' for Active; 'I' for Inactive)
REMARK    1  A    between atoms: C2_2  and  N1_3 
REMARK    2  A    between atoms: C2_2  and  C13_26 
REMARK    3  A    between atoms: N1_3  and  C3_6 
REMARK    4  A    between atoms: C3_6  and  C4_7 
REMARK    5  A    between atoms: C3_6  and  C12_23 
REMARK    6  A    between atoms: C4_7  and  C5_8 
REMARK    7  A    between atoms: C5_8  and  N2_9 
REMARK    8  A    between atoms: N2_9  and  C6_11 
REMARK    9  A    between atoms: C6_11  and  C7_12 
REMARK   10  A    between atoms: C6_11  and  C11_20 
REMARK   11  A    between atoms: C7_12  and  C8_13 
ROOT
HETATM    1  C5  UNL     1      14.689  22.425  23.131  1.00  0.00     0.117 C 
ENDROOT
BRANCH   1   2
HETATM    2  C4  UNL     1      14.556  22.022  21.708  1.00  0.00     0.063 C 
BRANCH   2   3
HETATM    3  C3  UNL     1      14.259  20.634  21.335  1.00  0.00     0.288 C 
BRANCH   3   4
HETATM    4  N1  UNL     1      13.570  20.592  20.025  1.00  0.00    -0.047 N 
ATOM      5  H12 UNL     1      12.767  19.963  20.058  1.00  0.00     0.279 HD
ATOM      6  H11 UNL     1      14.138  20.103  19.332  1.00  0.00     0.279 HD
BRANCH   4   7
HETATM    7  C2  UNL     1      13.185  21.877  19.546  1.00  0.00     0.282 C 
HETATM    8  C1  UNL     1      13.679  22.019  18.104  1.00  0.00     0.052 C 
BRANCH   7   9
HETATM    9  C13 UNL     1      11.725  22.081  19.506  1.00  0.00     0.204 C 
HETATM   10  O5  UNL     1      11.064  22.092  20.560  1.00  0.00    -0.646 OA
HETATM   11  O6  UNL     1      11.085  22.260  18.303  1.00  0.00    -0.646 OA
ENDBRANCH   7   9
ENDBRANCH   4   7
ENDBRANCH   3   4
BRANCH   3  12
HETATM   12  C12 UNL     1      13.548  19.730  22.194  1.00  0.00     0.204 C 
HETATM   13  O3  UNL     1      12.414  20.045  22.701  1.00  0.00    -0.646 OA
HETATM   14  O4  UNL     1      13.963  18.441  22.575  1.00  0.00    -0.646 OA
ENDBRANCH   3  12
ENDBRANCH   2   3
ENDBRANCH   1   2
BRANCH   1  15
HETATM   15  N2  UNL     1      13.486  22.934  23.665  1.00  0.00    -0.408 N 
ATOM     16  H2  UNL     1      12.619  22.396  23.647  1.00  0.00     0.154 HD
BRANCH  15  17
HETATM   17  C6  UNL     1      13.548  24.258  24.236  1.00  0.00     0.184 C 
BRANCH  17  18
HETATM   18  C7  UNL     1      12.423  24.369  25.242  1.00  0.00     0.094 C 
BRANCH  18  19
HETATM   19  C8  UNL     1      11.126  23.891  24.741  1.00  0.00     0.028 A 
HETATM   20  C9  UNL     1      10.089  23.459  25.559  1.00  0.00     0.114 A 
HETATM   21  N3  UNL     1       9.096  23.107  24.751  1.00  0.00    -0.360 N 
HETATM   22  C10 UNL     1       9.465  23.298  23.482  1.00  0.00     0.180 A 
ATOM     23  H3  UNL     1       8.192  22.745  25.053  1.00  0.00     0.166 HD
HETATM   24  N4  UNL     1      10.720  23.782  23.479  1.00  0.00    -0.354 N 
ATOM     25  H4  UNL     1      11.266  24.024  22.652  1.00  0.00     0.166 HD
ENDBRANCH  18  19
ENDBRANCH  17  18
BRANCH  17  26
HETATM   26  C11 UNL     1      13.458  25.319  23.200  1.00  0.00     0.196 C 
HETATM   27  O1  UNL     1      13.027  25.085  22.040  1.00  0.00    -0.646 OA
HETATM   28  O2  UNL     1      13.847  26.622  23.467  1.00  0.00    -0.646 OA
ENDBRANCH  17  26
ENDBRANCH  15  17
ENDBRANCH   1  15
TORSDOF 11
ENDMDL
