MODEL 4
REMARK VINA RESULT: -6.850273528      2.621      4.451
REMARK  11 active torsions:
REMARK  status: ('A' for Active; 'I' for Inactive)
REMARK    1  A    between atoms: C2_2  and  N1_3 
REMARK    2  A    between atoms: C2_2  and  C13_26 
REMARK    3  A    between atoms: N1_3  and  C3_6 
REMARK    4  A    between atoms: C3_6  and  C4_7 
REMARK    5  A    between atoms: C3_6  and  C12_23 
REMARK    6  A    between atoms: C4_7  and  C5_8 
REMARK    7  A    between atoms: C5_8  and  N2_9 
REMARK    8  A    between atoms: N2_9  and  C6_11 
REMARK    9  A    between atoms: C6_11  and  C7_12 
REMARK   10  A    between atoms: C6_11  and  C11_20 
REMARK   11  A    between atoms: C7_12  and  C8_13 
ROOT
HETATM    1  C5  UNL     1      13.225  26.215  23.869  1.00  0.00     0.117 C 
ENDROOT
BRANCH   1   2
HETATM    2  C4  UNL     1      13.542  24.770  23.752  1.00  0.00     0.063 C 
BRANCH   2   3
HETATM    3  C3  UNL     1      12.961  23.786  24.673  1.00  0.00     0.288 C 
BRANCH   3   4
HETATM    4  N1  UNL     1      13.625  22.472  24.505  1.00  0.00    -0.047 N 
ATOM      5  H12 UNL     1      12.939  21.718  24.495  1.00  0.00     0.279 HD
ATOM      6  H11 UNL     1      14.143  22.218  25.347  1.00  0.00     0.279 HD
BRANCH   4   7
HETATM    7  C2  UNL     1      14.464  22.405  23.357  1.00  0.00     0.282 C 
HETATM    8  C1  UNL     1      15.887  22.081  23.821  1.00  0.00     0.052 C 
BRANCH   7   9
HETATM    9  C13 UNL     1      14.086  21.343  22.407  1.00  0.00     0.204 C 
HETATM   10  O5  UNL     1      13.021  20.717  22.559  1.00  0.00    -0.646 OA
HETATM   11  O6  UNL     1      14.907  21.036  21.349  1.00  0.00    -0.646 OA
ENDBRANCH   7   9
ENDBRANCH   4   7
ENDBRANCH   3   4
BRANCH   3  12
HETATM   12  C12 UNL     1      11.553  23.519  24.743  1.00  0.00     0.204 C 
HETATM   13  O3  UNL     1      10.823  24.021  25.669  1.00  0.00    -0.646 OA
HETATM   14  O4  UNL     1      10.810  22.723  23.852  1.00  0.00    -0.646 OA
ENDBRANCH   3  12
ENDBRANCH   2   3
ENDBRANCH   1   2
BRANCH   1  15
HETATM   15  N2  UNL     1      12.539  26.524  25.064  1.00  0.00    -0.408 N 
ATOM     16  H2  UNL     1      11.695  26.023  25.345  1.00  0.00     0.154 HD
BRANCH  15  17
HETATM   17  C6  UNL     1      13.098  27.585  25.867  1.00  0.00     0.184 C 
BRANCH  17  18
HETATM   18  C7  UNL     1      12.949  28.871  25.081  1.00  0.00     0.094 C 
BRANCH  18  19
HETATM   19  C8  UNL     1      12.392  29.986  25.862  1.00  0.00     0.028 A 
HETATM   20  C9  UNL     1      13.124  30.738  26.772  1.00  0.00     0.114 A 
HETATM   21  N3  UNL     1      12.287  31.638  27.273  1.00  0.00    -0.360 N 
HETATM   22  C10 UNL     1      11.082  31.481  26.722  1.00  0.00     0.180 A 
ATOM     23  H3  UNL     1      12.528  32.340  27.972  1.00  0.00     0.166 HD
HETATM   24  N4  UNL     1      11.149  30.459  25.850  1.00  0.00    -0.354 N 
ATOM     25  H4  UNL     1      10.381  30.107  25.279  1.00  0.00     0.166 HD
ENDBRANCH  18  19
ENDBRANCH  17  18
BRANCH  17  26
HETATM   26  C11 UNL     1      14.516  27.328  26.225  1.00  0.00     0.196 C 
HETATM   27  O1  UNL     1      15.471  27.751  25.521  1.00  0.00    -0.646 OA
HETATM   28  O2  UNL     1      14.853  26.605  27.359  1.00  0.00    -0.646 OA
ENDBRANCH  17  26
ENDBRANCH  15  17
ENDBRANCH   1  15
TORSDOF 11
ENDMDL
