MODEL 2
REMARK VINA RESULT: -6.962139324      2.033      6.434
REMARK  11 active torsions:
REMARK  status: ('A' for Active; 'I' for Inactive)
REMARK    1  A    between atoms: C2_2  and  N1_3 
REMARK    2  A    between atoms: C2_2  and  C13_26 
REMARK    3  A    between atoms: N1_3  and  C3_6 
REMARK    4  A    between atoms: C3_6  and  C4_7 
REMARK    5  A    between atoms: C3_6  and  C12_23 
REMARK    6  A    between atoms: C4_7  and  C5_8 
REMARK    7  A    between atoms: C5_8  and  N2_9 
REMARK    8  A    between atoms: N2_9  and  C6_11 
REMARK    9  A    between atoms: C6_11  and  C7_12 
REMARK   10  A    between atoms: C6_11  and  C11_20 
REMARK   11  A    between atoms: C7_12  and  C8_13 
ROOT
HETATM    1  C5  UNL     1      14.763  22.667  23.383  1.00  0.00     0.117 C 
ENDROOT
BRANCH   1   2
HETATM    2  C4  UNL     1      13.770  22.849  24.472  1.00  0.00     0.063 C 
BRANCH   2   3
HETATM    3  C3  UNL     1      12.787  23.938  24.430  1.00  0.00     0.288 C 
BRANCH   3   4
HETATM    4  N1  UNL     1      13.196  25.033  25.340  1.00  0.00    -0.047 N 
ATOM      5  H12 UNL     1      13.876  24.700  26.023  1.00  0.00     0.279 HD
ATOM      6  H11 UNL     1      12.434  25.284  25.970  1.00  0.00     0.279 HD
BRANCH   4   7
HETATM    7  C2  UNL     1      13.688  26.182  24.658  1.00  0.00     0.282 C 
HETATM    8  C1  UNL     1      13.299  26.067  23.182  1.00  0.00     0.052 C 
BRANCH   7   9
HETATM    9  C13 UNL     1      13.110  27.450  25.141  1.00  0.00     0.204 C 
HETATM   10  O5  UNL     1      13.375  27.865  26.283  1.00  0.00    -0.646 OA
HETATM   11  O6  UNL     1      12.273  28.181  24.332  1.00  0.00    -0.646 OA
ENDBRANCH   7   9
ENDBRANCH   4   7
ENDBRANCH   3   4
BRANCH   3  12
HETATM   12  C12 UNL     1      11.384  23.732  24.653  1.00  0.00     0.204 C 
HETATM   13  O3  UNL     1      10.740  22.806  24.044  1.00  0.00    -0.646 OA
HETATM   14  O4  UNL     1      10.562  24.467  25.527  1.00  0.00    -0.646 OA
ENDBRANCH   3  12
ENDBRANCH   2   3
ENDBRANCH   1   2
BRANCH   1  15
HETATM   15  N2  UNL     1      14.167  22.272  22.166  1.00  0.00    -0.408 N 
ATOM     16  H2  UNL     1      13.513  22.875  21.667  1.00  0.00     0.154 HD
BRANCH  15  17
HETATM   17  C6  UNL     1      14.532  20.967  21.668  1.00  0.00     0.184 C 
BRANCH  17  18
HETATM   18  C7  UNL     1      14.453  21.022  20.158  1.00  0.00     0.094 C 
BRANCH  18  19
HETATM   19  C8  UNL     1      13.267  21.726  19.648  1.00  0.00     0.028 A 
HETATM   20  C9  UNL     1      13.319  22.783  18.749  1.00  0.00     0.114 A 
HETATM   21  N3  UNL     1      12.063  23.154  18.532  1.00  0.00    -0.360 N 
HETATM   22  C10 UNL     1      11.241  22.383  19.249  1.00  0.00     0.180 A 
ATOM     23  H3  UNL     1      11.770  23.910  17.915  1.00  0.00     0.166 HD
HETATM   24  N4  UNL     1      11.989  21.502  19.938  1.00  0.00    -0.354 N 
ATOM     25  H4  UNL     1      11.636  20.786  20.573  1.00  0.00     0.166 HD
ENDBRANCH  18  19
ENDBRANCH  17  18
BRANCH  17  26
HETATM   26  C11 UNL     1      13.664  19.895  22.219  1.00  0.00     0.196 C 
HETATM   27  O1  UNL     1      12.484  20.119  22.599  1.00  0.00    -0.646 OA
HETATM   28  O2  UNL     1      14.119  18.591  22.341  1.00  0.00    -0.646 OA
ENDBRANCH  17  26
ENDBRANCH  15  17
ENDBRANCH   1  15
TORSDOF 11
ENDMDL
