MODEL 3
REMARK VINA RESULT: -6.959752016      2.089      6.035
REMARK  11 active torsions:
REMARK  status: ('A' for Active; 'I' for Inactive)
REMARK    1  A    between atoms: C2_2  and  N1_3 
REMARK    2  A    between atoms: C2_2  and  C13_26 
REMARK    3  A    between atoms: N1_3  and  C3_6 
REMARK    4  A    between atoms: C3_6  and  C4_7 
REMARK    5  A    between atoms: C3_6  and  C12_23 
REMARK    6  A    between atoms: C4_7  and  C5_8 
REMARK    7  A    between atoms: C5_8  and  N2_9 
REMARK    8  A    between atoms: N2_9  and  C6_11 
REMARK    9  A    between atoms: C6_11  and  C7_12 
REMARK   10  A    between atoms: C6_11  and  C11_20 
REMARK   11  A    between atoms: C7_12  and  C8_13 
ROOT
HETATM    1  C5  UNL     1      14.638  22.840  23.451  1.00  0.00     0.117 C 
ENDROOT
BRANCH   1   2
HETATM    2  C4  UNL     1      13.514  23.232  24.339  1.00  0.00     0.063 C 
BRANCH   2   3
HETATM    3  C3  UNL     1      13.063  24.626  24.426  1.00  0.00     0.288 C 
BRANCH   3   4
HETATM    4  N1  UNL     1      11.588  24.679  24.560  1.00  0.00    -0.047 N 
ATOM      5  H12 UNL     1      11.207  25.475  24.050  1.00  0.00     0.279 HD
ATOM      6  H11 UNL     1      11.320  24.943  25.508  1.00  0.00     0.279 HD
BRANCH   4   7
HETATM    7  C2  UNL     1      10.940  23.473  24.170  1.00  0.00     0.282 C 
HETATM    8  C1  UNL     1       9.807  23.195  25.161  1.00  0.00     0.052 C 
BRANCH   7   9
HETATM    9  C13 UNL     1      10.316  23.539  22.836  1.00  0.00     0.204 C 
HETATM   10  O5  UNL     1      10.207  24.631  22.248  1.00  0.00    -0.646 OA
HETATM   11  O6  UNL     1       9.849  22.397  22.232  1.00  0.00    -0.646 OA
ENDBRANCH   7   9
ENDBRANCH   4   7
ENDBRANCH   3   4
BRANCH   3  12
HETATM   12  C12 UNL     1      13.415  25.621  23.455  1.00  0.00     0.204 C 
HETATM   13  O3  UNL     1      13.273  25.408  22.199  1.00  0.00    -0.646 OA
HETATM   14  O4  UNL     1      13.929  26.903  23.723  1.00  0.00    -0.646 OA
ENDBRANCH   3  12
ENDBRANCH   2   3
ENDBRANCH   1   2
BRANCH   1  15
HETATM   15  N2  UNL     1      14.202  22.457  22.164  1.00  0.00    -0.408 N 
ATOM     16  H2  UNL     1      13.683  23.094  21.560  1.00  0.00     0.154 HD
BRANCH  15  17
HETATM   17  C6  UNL     1      14.531  21.114  21.752  1.00  0.00     0.184 C 
BRANCH  17  18
HETATM   18  C7  UNL     1      14.476  21.080  20.239  1.00  0.00     0.094 C 
BRANCH  18  19
HETATM   19  C8  UNL     1      13.304  21.763  19.670  1.00  0.00     0.028 A 
HETATM   20  C9  UNL     1      13.380  22.774  18.720  1.00  0.00     0.114 A 
HETATM   21  N3  UNL     1      12.131  23.138  18.460  1.00  0.00    -0.360 N 
HETATM   22  C10 UNL     1      11.291  22.407  19.196  1.00  0.00     0.180 A 
ATOM     23  H3  UNL     1      11.856  23.864  17.799  1.00  0.00     0.166 HD
HETATM   24  N4  UNL     1      12.019  21.558  19.944  1.00  0.00    -0.354 N 
ATOM     25  H4  UNL     1      11.649  20.877  20.606  1.00  0.00     0.166 HD
ENDBRANCH  18  19
ENDBRANCH  17  18
BRANCH  17  26
HETATM   26  C11 UNL     1      13.619  20.105  22.351  1.00  0.00     0.196 C 
HETATM   27  O1  UNL     1      12.422  20.372  22.635  1.00  0.00    -0.646 OA
HETATM   28  O2  UNL     1      14.051  18.817  22.628  1.00  0.00    -0.646 OA
ENDBRANCH  17  26
ENDBRANCH  15  17
ENDBRANCH   1  15
TORSDOF 11
ENDMDL
