MODEL 4
REMARK VINA RESULT: -6.975819581      1.433      2.002
REMARK  11 active torsions:
REMARK  status: ('A' for Active; 'I' for Inactive)
REMARK    1  A    between atoms: C2_2  and  N1_3 
REMARK    2  A    between atoms: C2_2  and  C13_26 
REMARK    3  A    between atoms: N1_3  and  C3_6 
REMARK    4  A    between atoms: C3_6  and  C4_7 
REMARK    5  A    between atoms: C3_6  and  C12_23 
REMARK    6  A    between atoms: C4_7  and  C5_8 
REMARK    7  A    between atoms: C5_8  and  N2_9 
REMARK    8  A    between atoms: N2_9  and  C6_11 
REMARK    9  A    between atoms: C6_11  and  C7_12 
REMARK   10  A    between atoms: C6_11  and  C11_20 
REMARK   11  A    between atoms: C7_12  and  C8_13 
ROOT
HETATM    1  C5  UNL     1     106.385  18.998  51.444  1.00  0.00     0.117 C 
ENDROOT
BRANCH   1   2
HETATM    2  C4  UNL     1     107.163  18.061  50.595  1.00  0.00     0.063 C 
BRANCH   2   3
HETATM    3  C3  UNL     1     106.742  16.666  50.418  1.00  0.00     0.288 C 
BRANCH   3   4
HETATM    4  N1  UNL     1     107.889  15.836  49.980  1.00  0.00    -0.047 N 
ATOM      5  H12 UNL     1     108.754  16.374  50.003  1.00  0.00     0.279 HD
ATOM      6  H11 UNL     1     107.836  15.645  48.979  1.00  0.00     0.279 HD
BRANCH   4   7
HETATM    7  C2  UNL     1     108.026  14.626  50.719  1.00  0.00     0.282 C 
HETATM    8  C1  UNL     1     108.018  13.457  49.730  1.00  0.00     0.052 C 
BRANCH   7   9
HETATM    9  C13 UNL     1     109.294  14.528  51.464  1.00  0.00     0.204 C 
HETATM   10  O5  UNL     1     109.315  14.716  52.694  1.00  0.00    -0.646 OA
HETATM   11  O6  UNL     1     110.463  14.230  50.806  1.00  0.00    -0.646 OA
ENDBRANCH   7   9
ENDBRANCH   4   7
ENDBRANCH   3   4
BRANCH   3  12
HETATM   12  C12 UNL     1     105.631  16.286  49.592  1.00  0.00     0.204 C 
HETATM   13  O3  UNL     1     105.759  15.416  48.660  1.00  0.00    -0.646 OA
HETATM   14  O4  UNL     1     104.316  16.776  49.687  1.00  0.00    -0.646 OA
ENDBRANCH   3  12
ENDBRANCH   2   3
ENDBRANCH   1   2
BRANCH   1  15
HETATM   15  N2  UNL     1     105.145  19.348  50.867  1.00  0.00    -0.408 N 
ATOM     16  H2  UNL     1     104.531  18.651  50.447  1.00  0.00     0.154 HD
BRANCH  15  17
HETATM   17  C6  UNL     1     104.795  20.748  50.905  1.00  0.00     0.184 C 
BRANCH  17  18
HETATM   18  C7  UNL     1     103.306  20.847  50.650  1.00  0.00     0.094 C 
BRANCH  18  19
HETATM   19  C8  UNL     1     102.826  19.971  49.571  1.00  0.00     0.028 A 
HETATM   20  C9  UNL     1     101.872  18.976  49.746  1.00  0.00     0.114 A 
HETATM   21  N3  UNL     1     101.706  18.403  48.560  1.00  0.00    -0.360 N 
HETATM   22  C10 UNL     1     102.504  18.991  47.666  1.00  0.00     0.180 A 
ATOM     23  H3  UNL     1     101.067  17.634  48.362  1.00  0.00     0.166 HD
HETATM   24  N4  UNL     1     103.196  19.959  48.294  1.00  0.00    -0.354 N 
ATOM     25  H4  UNL     1     103.884  20.577  47.864  1.00  0.00     0.166 HD
ENDBRANCH  18  19
ENDBRANCH  17  18
BRANCH  17  26
HETATM   26  C11 UNL     1     105.569  21.545  49.919  1.00  0.00     0.196 C 
HETATM   27  O1  UNL     1     105.908  21.077  48.800  1.00  0.00    -0.646 OA
HETATM   28  O2  UNL     1     105.957  22.848  50.191  1.00  0.00    -0.646 OA
ENDBRANCH  17  26
ENDBRANCH  15  17
ENDBRANCH   1  15
TORSDOF 11
ENDMDL
