MODEL 5
REMARK VINA RESULT: -6.829676666      1.350      2.910
REMARK  11 active torsions:
REMARK  status: ('A' for Active; 'I' for Inactive)
REMARK    1  A    between atoms: C2_2  and  N1_3 
REMARK    2  A    between atoms: C2_2  and  C13_26 
REMARK    3  A    between atoms: N1_3  and  C3_6 
REMARK    4  A    between atoms: C3_6  and  C4_7 
REMARK    5  A    between atoms: C3_6  and  C12_23 
REMARK    6  A    between atoms: C4_7  and  C5_8 
REMARK    7  A    between atoms: C5_8  and  N2_9 
REMARK    8  A    between atoms: N2_9  and  C6_11 
REMARK    9  A    between atoms: C6_11  and  C7_12 
REMARK   10  A    between atoms: C6_11  and  C11_20 
REMARK   11  A    between atoms: C7_12  and  C8_13 
ROOT
HETATM    1  C5  UNL     1     106.418  18.848  51.206  1.00  0.00     0.117 C 
ENDROOT
BRANCH   1   2
HETATM    2  C4  UNL     1     107.315  18.382  50.119  1.00  0.00     0.063 C 
BRANCH   2   3
HETATM    3  C3  UNL     1     107.337  16.975  49.701  1.00  0.00     0.288 C 
BRANCH   3   4
HETATM    4  N1  UNL     1     107.714  16.870  48.273  1.00  0.00    -0.047 N 
ATOM      5  H12 UNL     1     107.201  16.116  47.817  1.00  0.00     0.279 HD
ATOM      6  H11 UNL     1     108.664  16.512  48.174  1.00  0.00     0.279 HD
BRANCH   4   7
HETATM    7  C2  UNL     1     107.558  18.091  47.556  1.00  0.00     0.282 C 
HETATM    8  C1  UNL     1     108.616  18.135  46.449  1.00  0.00     0.052 C 
BRANCH   7   9
HETATM    9  C13 UNL     1     106.252  18.222  46.885  1.00  0.00     0.204 C 
HETATM   10  O5  UNL     1     105.802  19.347  46.602  1.00  0.00    -0.646 OA
HETATM   11  O6  UNL     1     105.522  17.102  46.568  1.00  0.00    -0.646 OA
ENDBRANCH   7   9
ENDBRANCH   4   7
ENDBRANCH   3   4
BRANCH   3  12
HETATM   12  C12 UNL     1     106.225  16.088  49.890  1.00  0.00     0.204 C 
HETATM   13  O3  UNL     1     106.387  14.903  50.351  1.00  0.00    -0.646 OA
HETATM   14  O4  UNL     1     104.874  16.376  49.623  1.00  0.00    -0.646 OA
ENDBRANCH   3  12
ENDBRANCH   2   3
ENDBRANCH   1   2
BRANCH   1  15
HETATM   15  N2  UNL     1     105.140  19.216  50.734  1.00  0.00    -0.408 N 
ATOM     16  H2  UNL     1     104.553  18.567  50.209  1.00  0.00     0.154 HD
BRANCH  15  17
HETATM   17  C6  UNL     1     104.710  20.561  51.033  1.00  0.00     0.184 C 
BRANCH  17  18
HETATM   18  C7  UNL     1     103.230  20.642  50.721  1.00  0.00     0.094 C 
BRANCH  18  19
HETATM   19  C8  UNL     1     102.818  19.823  49.572  1.00  0.00     0.028 A 
HETATM   20  C9  UNL     1     101.979  18.720  49.666  1.00  0.00     0.114 A 
HETATM   21  N3  UNL     1     101.843  18.246  48.433  1.00  0.00    -0.360 N 
HETATM   22  C10 UNL     1     102.551  18.996  47.587  1.00  0.00     0.180 A 
ATOM     23  H3  UNL     1     101.284  17.434  48.173  1.00  0.00     0.166 HD
HETATM   24  N4  UNL     1     103.153  19.970  48.293  1.00  0.00    -0.354 N 
ATOM     25  H4  UNL     1     103.762  20.695  47.914  1.00  0.00     0.166 HD
ENDBRANCH  18  19
ENDBRANCH  17  18
BRANCH  17  26
HETATM   26  C11 UNL     1     105.481  21.577  50.271  1.00  0.00     0.196 C 
HETATM   27  O1  UNL     1     105.854  22.661  50.792  1.00  0.00    -0.646 OA
HETATM   28  O2  UNL     1     105.825  21.374  48.944  1.00  0.00    -0.646 OA
ENDBRANCH  17  26
ENDBRANCH  15  17
ENDBRANCH   1  15
TORSDOF 11
ENDMDL
