MODEL 1
REMARK VINA RESULT: -7.148476542      0.000      0.000
REMARK  11 active torsions:
REMARK  status: ('A' for Active; 'I' for Inactive)
REMARK    1  A    between atoms: C2_2  and  N1_3 
REMARK    2  A    between atoms: C2_2  and  C13_26 
REMARK    3  A    between atoms: N1_3  and  C3_6 
REMARK    4  A    between atoms: C3_6  and  C4_7 
REMARK    5  A    between atoms: C3_6  and  C12_23 
REMARK    6  A    between atoms: C4_7  and  C5_8 
REMARK    7  A    between atoms: C5_8  and  N2_9 
REMARK    8  A    between atoms: N2_9  and  C6_11 
REMARK    9  A    between atoms: C6_11  and  C7_12 
REMARK   10  A    between atoms: C6_11  and  C11_20 
REMARK   11  A    between atoms: C7_12  and  C8_13 
ROOT
HETATM    1  C5  UNL     1     106.402  18.941  51.328  1.00  0.00     0.117 C 
ENDROOT
BRANCH   1   2
HETATM    2  C4  UNL     1     107.487  18.755  50.332  1.00  0.00     0.063 C 
BRANCH   2   3
HETATM    3  C3  UNL     1     107.464  17.637  49.381  1.00  0.00     0.288 C 
BRANCH   3   4
HETATM    4  N1  UNL     1     108.314  16.528  49.875  1.00  0.00    -0.047 N 
ATOM      5  H12 UNL     1     108.934  16.851  50.617  1.00  0.00     0.279 HD
ATOM      6  H11 UNL     1     109.010  16.267  49.176  1.00  0.00     0.279 HD
BRANCH   4   7
HETATM    7  C2  UNL     1     107.571  15.389  50.297  1.00  0.00     0.282 C 
HETATM    8  C1  UNL     1     106.117  15.575  49.855  1.00  0.00     0.052 C 
BRANCH   7   9
HETATM    9  C13 UNL     1     108.029  14.126  49.691  1.00  0.00     0.204 C 
HETATM   10  O5  UNL     1     107.346  13.568  48.812  1.00  0.00    -0.646 OA
HETATM   11  O6  UNL     1     109.212  13.554  50.093  1.00  0.00    -0.646 OA
ENDBRANCH   7   9
ENDBRANCH   4   7
ENDBRANCH   3   4
BRANCH   3  12
HETATM   12  C12 UNL     1     107.770  17.790  47.988  1.00  0.00     0.204 C 
HETATM   13  O3  UNL     1     108.586  17.001  47.393  1.00  0.00    -0.646 OA
HETATM   14  O4  UNL     1     107.245  18.766  47.121  1.00  0.00    -0.646 OA
ENDBRANCH   3  12
ENDBRANCH   2   3
ENDBRANCH   1   2
BRANCH   1  15
HETATM   15  N2  UNL     1     105.175  19.303  50.732  1.00  0.00    -0.408 N 
ATOM     16  H2  UNL     1     104.663  18.664  50.122  1.00  0.00     0.154 HD
BRANCH  15  17
HETATM   17  C6  UNL     1     104.684  20.626  51.032  1.00  0.00     0.184 C 
BRANCH  17  18
HETATM   18  C7  UNL     1     103.192  20.624  50.774  1.00  0.00     0.094 C 
BRANCH  18  19
HETATM   19  C8  UNL     1     102.791  19.830  49.603  1.00  0.00     0.028 A 
HETATM   20  C9  UNL     1     102.021  18.676  49.673  1.00  0.00     0.114 A 
HETATM   21  N3  UNL     1     101.874  18.246  48.426  1.00  0.00    -0.360 N 
HETATM   22  C10 UNL     1     102.510  19.072  47.592  1.00  0.00     0.180 A 
ATOM     23  H3  UNL     1     101.355  17.414  48.148  1.00  0.00     0.166 HD
HETATM   24  N4  UNL     1     103.076  20.050  48.322  1.00  0.00    -0.354 N 
ATOM     25  H4  UNL     1     103.629  20.826  47.957  1.00  0.00     0.166 HD
ENDBRANCH  18  19
ENDBRANCH  17  18
BRANCH  17  26
HETATM   26  C11 UNL     1     105.371  21.673  50.232  1.00  0.00     0.196 C 
HETATM   27  O1  UNL     1     105.664  22.799  50.714  1.00  0.00    -0.646 OA
HETATM   28  O2  UNL     1     105.723  21.453  48.909  1.00  0.00    -0.646 OA
ENDBRANCH  17  26
ENDBRANCH  15  17
ENDBRANCH   1  15
TORSDOF 11
ENDMDL
