MODEL 6
REMARK VINA RESULT: -6.762599766      2.188      6.012
REMARK  11 active torsions:
REMARK  status: ('A' for Active; 'I' for Inactive)
REMARK    1  A    between atoms: C2_2  and  N1_3 
REMARK    2  A    between atoms: C2_2  and  C13_26 
REMARK    3  A    between atoms: N1_3  and  C3_6 
REMARK    4  A    between atoms: C3_6  and  C4_7 
REMARK    5  A    between atoms: C3_6  and  C12_23 
REMARK    6  A    between atoms: C4_7  and  C5_8 
REMARK    7  A    between atoms: C5_8  and  N2_9 
REMARK    8  A    between atoms: N2_9  and  C6_11 
REMARK    9  A    between atoms: C6_11  and  C7_12 
REMARK   10  A    between atoms: C6_11  and  C11_20 
REMARK   11  A    between atoms: C7_12  and  C8_13 
ROOT
HETATM    1  C5  UNL     1     106.799  19.194  50.844  1.00  0.00     0.117 C 
ENDROOT
BRANCH   1   2
HETATM    2  C4  UNL     1     105.644  19.862  51.495  1.00  0.00     0.063 C 
BRANCH   2   3
HETATM    3  C3  UNL     1     104.819  20.835  50.768  1.00  0.00     0.288 C 
BRANCH   3   4
HETATM    4  N1  UNL     1     104.229  20.207  49.563  1.00  0.00    -0.047 N 
ATOM      5  H12 UNL     1     104.860  19.506  49.175  1.00  0.00     0.279 HD
ATOM      6  H11 UNL     1     104.210  20.866  48.784  1.00  0.00     0.279 HD
BRANCH   4   7
HETATM    7  C2  UNL     1     102.936  19.655  49.788  1.00  0.00     0.282 C 
HETATM    8  C1  UNL     1     101.895  20.741  49.506  1.00  0.00     0.052 C 
BRANCH   7   9
HETATM    9  C13 UNL     1     102.610  18.527  48.896  1.00  0.00     0.204 C 
HETATM   10  O5  UNL     1     103.098  17.401  49.103  1.00  0.00    -0.646 OA
HETATM   11  O6  UNL     1     101.766  18.712  47.827  1.00  0.00    -0.646 OA
ENDBRANCH   7   9
ENDBRANCH   4   7
ENDBRANCH   3   4
BRANCH   3  12
HETATM   12  C12 UNL     1     105.310  22.119  50.354  1.00  0.00     0.204 C 
HETATM   13  O3  UNL     1     105.877  22.282  49.216  1.00  0.00    -0.646 OA
HETATM   14  O4  UNL     1     105.237  23.316  51.090  1.00  0.00    -0.646 OA
ENDBRANCH   3  12
ENDBRANCH   2   3
ENDBRANCH   1   2
BRANCH   1  15
HETATM   15  N2  UNL     1     106.793  17.795  51.036  1.00  0.00    -0.408 N 
ATOM     16  H2  UNL     1     106.345  17.365  51.846  1.00  0.00     0.154 HD
BRANCH  15  17
HETATM   17  C6  UNL     1     107.457  17.008  50.025  1.00  0.00     0.184 C 
BRANCH  17  18
HETATM   18  C7  UNL     1     106.659  17.148  48.747  1.00  0.00     0.094 C 
BRANCH  18  19
HETATM   19  C8  UNL     1     107.453  17.601  47.595  1.00  0.00     0.028 A 
HETATM   20  C9  UNL     1     108.820  17.389  47.463  1.00  0.00     0.114 A 
HETATM   21  N3  UNL     1     109.175  17.939  46.308  1.00  0.00    -0.360 N 
HETATM   22  C10 UNL     1     108.103  18.478  45.723  1.00  0.00     0.180 A 
ATOM     23  H3  UNL     1     110.120  17.949  45.927  1.00  0.00     0.166 HD
HETATM   24  N4  UNL     1     107.040  18.268  46.521  1.00  0.00    -0.354 N 
ATOM     25  H4  UNL     1     106.083  18.569  46.335  1.00  0.00     0.166 HD
ENDBRANCH  18  19
ENDBRANCH  17  18
BRANCH  17  26
HETATM   26  C11 UNL     1     107.594  15.584  50.427  1.00  0.00     0.196 C 
HETATM   27  O1  UNL     1     108.671  15.118  50.883  1.00  0.00    -0.646 OA
HETATM   28  O2  UNL     1     106.533  14.698  50.313  1.00  0.00    -0.646 OA
ENDBRANCH  17  26
ENDBRANCH  15  17
ENDBRANCH   1  15
TORSDOF 11
ENDMDL
