MODEL 7
REMARK VINA RESULT: -6.347451235      1.912      5.999
REMARK  1 active torsions:
REMARK  status: ('A' for Active; 'I' for Inactive)
REMARK    1  A    between atoms: C4_5  and  N1_6 
ROOT
HETATM    1  N1  UNL     1     -40.014 -57.257  67.301  1.00  0.00    -0.266 N 
HETATM    2  C5  UNL     1     -40.522 -58.181  68.254  1.00  0.00     0.262 A 
HETATM    3  O2  UNL     1     -41.718 -58.382  68.588  1.00  0.00    -0.267 OA
HETATM    4  C6  UNL     1     -39.388 -58.890  68.806  1.00  0.00     0.048 A 
HETATM    5  C7  UNL     1     -39.311 -59.886  69.760  1.00  0.00     0.018 A 
HETATM    6  C8  UNL     1     -38.102 -60.418  70.133  1.00  0.00     0.001 A 
HETATM    7  C9  UNL     1     -36.940 -59.948  69.543  1.00  0.00     0.001 A 
HETATM    8  C10 UNL     1     -37.008 -58.948  68.583  1.00  0.00     0.018 A 
HETATM    9  C11 UNL     1     -38.241 -58.429  68.226  1.00  0.00     0.048 A 
HETATM   10  C12 UNL     1     -38.598 -57.394  67.267  1.00  0.00     0.262 A 
HETATM   11  O3  UNL     1     -37.839 -56.720  66.526  1.00  0.00    -0.267 OA
ENDROOT
BRANCH   1  12
HETATM   12  C4  UNL     1     -40.842 -56.355  66.525  1.00  0.00     0.189 C 
HETATM   13  C3  UNL     1     -41.320 -57.112  65.312  1.00  0.00     0.045 C 
HETATM   14  C2  UNL     1     -42.542 -56.480  64.690  1.00  0.00     0.106 C 
HETATM   15  C1  UNL     1     -43.642 -56.306  65.643  1.00  0.00     0.224 C 
HETATM   16  O1  UNL     1     -44.826 -56.415  65.231  1.00  0.00    -0.273 OA
HETATM   17  N2  UNL     1     -43.320 -56.020  67.002  1.00  0.00    -0.296 N 
HETATM   18  C13 UNL     1     -41.968 -55.841  67.341  1.00  0.00     0.247 C 
ATOM     19  H2  UNL     1     -44.052 -55.948  67.709  1.00  0.00     0.171 HD
HETATM   20  O4  UNL     1     -41.669 -55.216  68.392  1.00  0.00    -0.271 OA
ENDBRANCH   1  12
TORSDOF 1
ENDMDL
