MODEL 1
REMARK VINA RESULT: -7.315986020      0.000      0.000
REMARK  1 active torsions:
REMARK  status: ('A' for Active; 'I' for Inactive)
REMARK    1  A    between atoms: C4_5  and  N1_6 
ROOT
HETATM    1  N1  UNL     1     -39.976 -57.308  67.336  1.00  0.00    -0.266 N 
HETATM    2  C5  UNL     1     -40.078 -57.342  65.919  1.00  0.00     0.262 A 
HETATM    3  O2  UNL     1     -39.186 -57.624  65.077  1.00  0.00    -0.267 OA
HETATM    4  C6  UNL     1     -41.439 -56.986  65.580  1.00  0.00     0.048 A 
HETATM    5  C7  UNL     1     -42.075 -56.866  64.360  1.00  0.00     0.018 A 
HETATM    6  C8  UNL     1     -43.397 -56.508  64.281  1.00  0.00     0.001 A 
HETATM    7  C9  UNL     1     -44.106 -56.262  65.446  1.00  0.00     0.001 A 
HETATM    8  C10 UNL     1     -43.476 -56.380  66.677  1.00  0.00     0.018 A 
HETATM    9  C11 UNL     1     -42.141 -56.743  66.727  1.00  0.00     0.048 A 
HETATM   10  C12 UNL     1     -41.247 -56.937  67.859  1.00  0.00     0.262 A 
HETATM   11  O3  UNL     1     -41.501 -56.814  69.084  1.00  0.00    -0.267 OA
ENDROOT
BRANCH   1  12
HETATM   12  C4  UNL     1     -38.763 -57.608  68.070  1.00  0.00     0.189 C 
HETATM   13  C3  UNL     1     -38.491 -59.082  67.908  1.00  0.00     0.045 C 
HETATM   14  C2  UNL     1     -37.051 -59.431  68.196  1.00  0.00     0.106 C 
HETATM   15  C1  UNL     1     -36.103 -58.652  67.395  1.00  0.00     0.224 C 
HETATM   16  O1  UNL     1     -35.027 -59.192  67.031  1.00  0.00    -0.273 OA
HETATM   17  N2  UNL     1     -36.445 -57.309  67.060  1.00  0.00    -0.296 N 
HETATM   18  C13 UNL     1     -37.636 -56.776  67.584  1.00  0.00     0.247 C 
ATOM     19  H2  UNL     1     -35.841 -56.750  66.457  1.00  0.00     0.171 HD
HETATM   20  O4  UNL     1     -37.780 -55.528  67.652  1.00  0.00    -0.271 OA
ENDBRANCH   1  12
TORSDOF 1
ENDMDL
