MODEL 3
REMARK VINA RESULT: -7.124110044      1.949      2.590
REMARK  1 active torsions:
REMARK  status: ('A' for Active; 'I' for Inactive)
REMARK    1  A    between atoms: C4_5  and  N1_6 
ROOT
HETATM    1  N1  UNL     1     -40.116 -57.208  67.332  1.00  0.00    -0.266 N 
HETATM    2  C5  UNL     1     -40.179 -57.264  65.913  1.00  0.00     0.262 A 
HETATM    3  O2  UNL     1     -39.259 -57.537  65.100  1.00  0.00    -0.267 OA
HETATM    4  C6  UNL     1     -41.537 -56.942  65.534  1.00  0.00     0.048 A 
HETATM    5  C7  UNL     1     -42.142 -56.852  64.296  1.00  0.00     0.018 A 
HETATM    6  C8  UNL     1     -43.470 -56.525  64.177  1.00  0.00     0.001 A 
HETATM    7  C9  UNL     1     -44.215 -56.278  65.318  1.00  0.00     0.001 A 
HETATM    8  C10 UNL     1     -43.616 -56.366  66.567  1.00  0.00     0.018 A 
HETATM    9  C11 UNL     1     -42.275 -56.699  66.657  1.00  0.00     0.048 A 
HETATM   10  C12 UNL     1     -41.408 -56.858  67.816  1.00  0.00     0.262 A 
HETATM   11  O3  UNL     1     -41.697 -56.724  69.032  1.00  0.00    -0.267 OA
ENDROOT
BRANCH   1  12
HETATM   12  C4  UNL     1     -38.916 -57.471  68.102  1.00  0.00     0.189 C 
HETATM   13  C3  UNL     1     -38.392 -56.144  68.589  1.00  0.00     0.045 C 
HETATM   14  C2  UNL     1     -37.462 -56.298  69.768  1.00  0.00     0.106 C 
HETATM   15  C1  UNL     1     -38.063 -57.042  70.878  1.00  0.00     0.224 C 
HETATM   16  O1  UNL     1     -37.751 -56.734  72.057  1.00  0.00    -0.273 OA
HETATM   17  N2  UNL     1     -38.983 -58.087  70.571  1.00  0.00    -0.296 N 
HETATM   18  C13 UNL     1     -39.203 -58.403  69.218  1.00  0.00     0.247 C 
ATOM     19  H2  UNL     1     -39.468 -58.593  71.313  1.00  0.00     0.171 HD
HETATM   20  O4  UNL     1     -39.670 -59.530  68.913  1.00  0.00    -0.271 OA
ENDBRANCH   1  12
TORSDOF 1
ENDMDL
