MODEL 8
REMARK VINA RESULT: -5.845554406      2.188      6.019
REMARK  1 active torsions:
REMARK  status: ('A' for Active; 'I' for Inactive)
REMARK    1  A    between atoms: C4_5  and  N1_6 
ROOT
HETATM    1  N1  UNL     1     -40.156 -56.746  67.895  1.00  0.00    -0.266 N 
HETATM    2  C5  UNL     1     -40.615 -57.880  68.618  1.00  0.00     0.262 A 
HETATM    3  O2  UNL     1     -41.743 -58.435  68.567  1.00  0.00    -0.267 OA
HETATM    4  C6  UNL     1     -39.525 -58.318  69.462  1.00  0.00     0.048 A 
HETATM    5  C7  UNL     1     -39.429 -59.362  70.360  1.00  0.00     0.018 A 
HETATM    6  C8  UNL     1     -38.272 -59.589  71.063  1.00  0.00     0.001 A 
HETATM    7  C9  UNL     1     -37.183 -58.755  70.869  1.00  0.00     0.001 A 
HETATM    8  C10 UNL     1     -37.270 -57.703  69.968  1.00  0.00     0.018 A 
HETATM    9  C11 UNL     1     -38.449 -57.498  69.273  1.00  0.00     0.048 A 
HETATM   10  C12 UNL     1     -38.812 -56.490  68.286  1.00  0.00     0.262 A 
HETATM   11  O3  UNL     1     -38.108 -55.552  67.833  1.00  0.00    -0.267 OA
ENDROOT
BRANCH   1  12
HETATM   12  C4  UNL     1     -40.960 -56.015  66.936  1.00  0.00     0.189 C 
HETATM   13  C3  UNL     1     -41.089 -56.877  65.705  1.00  0.00     0.045 C 
HETATM   14  C2  UNL     1     -42.262 -56.471  64.846  1.00  0.00     0.106 C 
HETATM   15  C1  UNL     1     -43.529 -56.449  65.583  1.00  0.00     0.224 C 
HETATM   16  O1  UNL     1     -44.589 -56.761  64.980  1.00  0.00    -0.273 OA
HETATM   17  N2  UNL     1     -43.505 -56.073  66.958  1.00  0.00    -0.296 N 
HETATM   18  C13 UNL     1     -42.280 -55.667  67.514  1.00  0.00     0.247 C 
ATOM     19  H2  UNL     1     -44.354 -56.100  67.523  1.00  0.00     0.171 HD
HETATM   20  O4  UNL     1     -42.275 -54.970  68.562  1.00  0.00    -0.271 OA
ENDBRANCH   1  12
TORSDOF 1
ENDMDL
