MODEL 5
REMARK VINA RESULT: -6.479949053      1.902      5.756
REMARK  1 active torsions:
REMARK  status: ('A' for Active; 'I' for Inactive)
REMARK    1  A    between atoms: C4_5  and  N1_6 
ROOT
HETATM    1  N1  UNL     1     -40.209 -57.142  66.932  1.00  0.00    -0.266 N 
HETATM    2  C5  UNL     1     -38.815 -57.259  66.675  1.00  0.00     0.262 A 
HETATM    3  O2  UNL     1     -38.123 -56.646  65.823  1.00  0.00    -0.267 OA
HETATM    4  C6  UNL     1     -38.294 -58.246  67.597  1.00  0.00     0.048 A 
HETATM    5  C7  UNL     1     -37.018 -58.740  67.779  1.00  0.00     0.018 A 
HETATM    6  C8  UNL     1     -36.754 -59.690  68.733  1.00  0.00     0.001 A 
HETATM    7  C9  UNL     1     -37.787 -60.163  69.526  1.00  0.00     0.001 A 
HETATM    8  C10 UNL     1     -39.073 -59.671  69.352  1.00  0.00     0.018 A 
HETATM    9  C11 UNL     1     -39.310 -58.713  68.382  1.00  0.00     0.048 A 
HETATM   10  C12 UNL     1     -40.537 -58.036  67.989  1.00  0.00     0.262 A 
HETATM   11  O3  UNL     1     -41.693 -58.179  68.463  1.00  0.00    -0.267 OA
ENDROOT
BRANCH   1  12
HETATM   12  C4  UNL     1     -41.093 -56.247  66.212  1.00  0.00     0.189 C 
HETATM   13  C3  UNL     1     -41.550 -56.969  64.970  1.00  0.00     0.045 C 
HETATM   14  C2  UNL     1     -42.812 -56.372  64.396  1.00  0.00     0.106 C 
HETATM   15  C1  UNL     1     -43.905 -56.301  65.370  1.00  0.00     0.224 C 
HETATM   16  O1  UNL     1     -45.088 -56.451  64.969  1.00  0.00    -0.273 OA
HETATM   17  N2  UNL     1     -43.578 -56.065  66.737  1.00  0.00    -0.296 N 
HETATM   18  C13 UNL     1     -42.231 -55.833  67.067  1.00  0.00     0.247 C 
ATOM     19  H2  UNL     1     -44.301 -56.065  67.457  1.00  0.00     0.171 HD
HETATM   20  O4  UNL     1     -41.948 -55.245  68.143  1.00  0.00    -0.271 OA
ENDBRANCH   1  12
TORSDOF 1
ENDMDL
