MODEL 2
REMARK VINA RESULT: -7.299789231      0.231      2.031
REMARK  1 active torsions:
REMARK  status: ('A' for Active; 'I' for Inactive)
REMARK    1  A    between atoms: C4_5  and  N1_6 
ROOT
HETATM    1  N1  UNL     1     -40.113 -57.221  67.279  1.00  0.00    -0.266 N 
HETATM    2  C5  UNL     1     -41.397 -56.881  67.787  1.00  0.00     0.262 A 
HETATM    3  O2  UNL     1     -41.753 -56.747  68.986  1.00  0.00    -0.267 OA
HETATM    4  C6  UNL     1     -42.272 -56.704  66.649  1.00  0.00     0.048 A 
HETATM    5  C7  UNL     1     -43.610 -56.372  66.570  1.00  0.00     0.018 A 
HETATM    6  C8  UNL     1     -44.242 -56.258  65.357  1.00  0.00     0.001 A 
HETATM    7  C9  UNL     1     -43.526 -56.482  64.193  1.00  0.00     0.001 A 
HETATM    8  C10 UNL     1     -42.180 -56.816  64.262  1.00  0.00     0.018 A 
HETATM    9  C11 UNL     1     -41.568 -56.923  65.499  1.00  0.00     0.048 A 
HETATM   10  C12 UNL     1     -40.197 -57.253  65.859  1.00  0.00     0.262 A 
HETATM   11  O3  UNL     1     -39.233 -57.522  65.098  1.00  0.00    -0.267 OA
ENDROOT
BRANCH   1  12
HETATM   12  C4  UNL     1     -38.954 -57.480  68.111  1.00  0.00     0.189 C 
HETATM   13  C3  UNL     1     -38.670 -58.959  68.041  1.00  0.00     0.045 C 
HETATM   14  C2  UNL     1     -37.253 -59.286  68.447  1.00  0.00     0.106 C 
HETATM   15  C1  UNL     1     -36.252 -58.542  67.678  1.00  0.00     0.224 C 
HETATM   16  O1  UNL     1     -35.151 -59.093  67.418  1.00  0.00    -0.273 OA
HETATM   17  N2  UNL     1     -36.571 -57.218  67.255  1.00  0.00    -0.296 N 
HETATM   18  C13 UNL     1     -37.797 -56.667  67.666  1.00  0.00     0.247 C 
ATOM     19  H2  UNL     1     -35.927 -56.686  66.670  1.00  0.00     0.171 HD
HETATM   20  O4  UNL     1     -37.948 -55.418  67.664  1.00  0.00    -0.271 OA
ENDBRANCH   1  12
TORSDOF 1
ENDMDL
