MODEL 4
REMARK VINA RESULT: -6.511740857      1.819      4.949
REMARK  2 active torsions:
REMARK  status: ('A' for Active; 'I' for Inactive)
REMARK    1  A    between atoms: O1_2  and  C2_3 
REMARK    2  A    between atoms: C5_6  and  C6_7 
ROOT
HETATM    1  C2  UNL     1      14.456  15.438  48.782  1.00  0.00     0.139 A 
HETATM    2  C3  UNL     1      14.946  14.526  49.606  1.00  0.00     0.057 A 
HETATM    3  C4  UNL     1      14.126  13.466  50.123  1.00  0.00     0.018 A 
HETATM    4  C5  UNL     1      12.851  13.390  49.776  1.00  0.00     0.025 A 
HETATM    5  C7  UNL     1      12.216  14.364  48.859  1.00  0.00     0.168 A 
HETATM    6  N2  UNL     1      13.103  15.386  48.391  1.00  0.00    -0.362 N 
HETATM    7  C8  UNL     1      12.552  16.381  47.486  1.00  0.00     0.152 C 
ENDROOT
BRANCH   4   8
HETATM    8  C6  UNL     1      12.024  12.309  50.305  1.00  0.00     0.262 C 
HETATM    9  N1  UNL     1      11.575  11.303  49.422  1.00  0.00    -0.057 NA
HETATM   10  O2  UNL     1      11.736  12.309  51.535  1.00  0.00    -0.271 OA
ENDBRANCH   4   8
BRANCH   1  11
HETATM   11  O1  UNL     1      15.291  16.441  48.311  1.00  0.00    -0.341 OA
HETATM   12  C1  UNL     1      16.529  16.731  48.922  1.00  0.00     0.211 C 
ENDBRANCH   1  11
TORSDOF 2
ENDMDL
