MODEL 6
REMARK VINA RESULT: -6.035925622      6.651      9.014
REMARK  2 active torsions:
REMARK  status: ('A' for Active; 'I' for Inactive)
REMARK    1  A    between atoms: O1_2  and  C2_3 
REMARK    2  A    between atoms: C5_6  and  C6_7 
ROOT
HETATM    1  C2  UNL     1      20.681  13.234  55.578  1.00  0.00     0.139 A 
HETATM    2  C3  UNL     1      19.901  12.371  56.209  1.00  0.00     0.057 A 
HETATM    3  C4  UNL     1      18.622  11.989  55.677  1.00  0.00     0.018 A 
HETATM    4  C5  UNL     1      18.204  12.506  54.532  1.00  0.00     0.025 A 
HETATM    5  C7  UNL     1      19.008  13.478  53.757  1.00  0.00     0.168 A 
HETATM    6  N2  UNL     1      20.266  13.802  54.357  1.00  0.00    -0.362 N 
HETATM    7  C8  UNL     1      21.114  14.752  53.654  1.00  0.00     0.152 C 
ENDROOT
BRANCH   4   8
HETATM    8  C6  UNL     1      16.903  12.113  53.997  1.00  0.00     0.262 C 
HETATM    9  N1  UNL     1      16.613  10.738  53.859  1.00  0.00    -0.057 NA
HETATM   10  O2  UNL     1      16.080  13.015  53.675  1.00  0.00    -0.271 OA
ENDBRANCH   4   8
BRANCH   1  11
HETATM   11  O1  UNL     1      21.906  13.568  56.136  1.00  0.00    -0.341 OA
HETATM   12  C1  UNL     1      22.007  14.352  57.304  1.00  0.00     0.211 C 
ENDBRANCH   1  11
TORSDOF 2
ENDMDL
