MODEL 1
REMARK VINA RESULT: -7.248963618      0.000      0.000
REMARK  2 active torsions:
REMARK  status: ('A' for Active; 'I' for Inactive)
REMARK    1  A    between atoms: O1_2  and  C2_3 
REMARK    2  A    between atoms: C5_6  and  C6_7 
ROOT
HETATM    1  C2  UNL     1      13.010  13.119  50.027  1.00  0.00     0.139 A 
HETATM    2  C3  UNL     1      12.294  13.735  49.100  1.00  0.00     0.057 A 
HETATM    3  C4  UNL     1      12.789  14.901  48.423  1.00  0.00     0.018 A 
HETATM    4  C5  UNL     1      13.985  15.381  48.725  1.00  0.00     0.025 A 
HETATM    5  C7  UNL     1      14.856  14.759  49.748  1.00  0.00     0.168 A 
HETATM    6  N2  UNL     1      14.288  13.603  50.373  1.00  0.00    -0.362 N 
HETATM    7  C8  UNL     1      15.084  12.937  51.390  1.00  0.00     0.152 C 
ENDROOT
BRANCH   4   8
HETATM    8  C6  UNL     1      14.482  16.566  48.033  1.00  0.00     0.262 C 
HETATM    9  N1  UNL     1      15.855  16.638  47.709  1.00  0.00    -0.057 NA
HETATM   10  O2  UNL     1      13.669  17.488  47.745  1.00  0.00    -0.271 OA
ENDBRANCH   4   8
BRANCH   1  11
HETATM   11  O1  UNL     1      12.485  11.997  50.650  1.00  0.00    -0.341 OA
HETATM   12  C1  UNL     1      11.618  11.107  49.981  1.00  0.00     0.211 C 
ENDBRANCH   1  11
TORSDOF 2
ENDMDL
