MODEL 7
REMARK VINA RESULT: -6.026615901      2.173      4.707
REMARK  2 active torsions:
REMARK  status: ('A' for Active; 'I' for Inactive)
REMARK    1  A    between atoms: O1_2  and  C2_3 
REMARK    2  A    between atoms: C5_6  and  C6_7 
ROOT
HETATM    1  C2  UNL     1      13.986  14.846  49.155  1.00  0.00     0.139 A 
HETATM    2  C3  UNL     1      15.264  14.975  49.474  1.00  0.00     0.057 A 
HETATM    3  C4  UNL     1      15.850  14.217  50.544  1.00  0.00     0.018 A 
HETATM    4  C5  UNL     1      15.105  13.367  51.234  1.00  0.00     0.025 A 
HETATM    5  C7  UNL     1      13.668  13.155  50.950  1.00  0.00     0.168 A 
HETATM    6  N2  UNL     1      13.166  13.949  49.869  1.00  0.00    -0.362 N 
HETATM    7  C8  UNL     1      11.761  13.797  49.529  1.00  0.00     0.152 C 
ENDROOT
BRANCH   4   8
HETATM    8  C6  UNL     1      15.708  12.599  52.320  1.00  0.00     0.262 C 
HETATM    9  N1  UNL     1      16.312  11.358  52.021  1.00  0.00    -0.057 NA
HETATM   10  O2  UNL     1      15.669  13.069  53.492  1.00  0.00    -0.271 OA
ENDBRANCH   4   8
BRANCH   1  11
HETATM   11  O1  UNL     1      13.471  15.602  48.113  1.00  0.00    -0.341 OA
HETATM   12  C1  UNL     1      13.781  16.969  47.957  1.00  0.00     0.211 C 
ENDBRANCH   1  11
TORSDOF 2
ENDMDL
