MODEL 2
REMARK VINA RESULT: -9.309033617      1.251      1.878
REMARK  9 active torsions:
REMARK  status: ('A' for Active; 'I' for Inactive)
REMARK    1  A    between atoms: C2_2  and  C3_3 
REMARK    2  A    between atoms: C3_3  and  N1_4 
REMARK    3  A    between atoms: C3_3  and  C24_36 
REMARK       I    between atoms: N1_4  and  C4_6 
REMARK       I    between atoms: C4_6  and  N2_8 
REMARK    4  A    between atoms: N3_11  and  O2_13 
REMARK    5  A    between atoms: O2_13  and  C7_14 
REMARK    6  A    between atoms: C14_23  and  C15_24 
REMARK    7  A    between atoms: C15_24  and  C16_25 
REMARK    8  A    between atoms: C21_31  and  O3_32 
REMARK    9  A    between atoms: C27_39  and  C28_40 
ROOT
HETATM    1  N1  UNL     1     -10.335 -13.546  -7.390  1.00  0.00    -0.334 N 
ATOM      2  H1  UNL     1      -9.497 -14.070  -7.135  1.00  0.00     0.165 HD
HETATM    3  C4  UNL     1     -10.945 -13.797  -8.642  1.00  0.00     0.326 C 
HETATM    4  O1  UNL     1     -11.995 -13.109  -8.901  1.00  0.00    -0.247 OA
HETATM    5  N2  UNL     1     -10.536 -14.709  -9.632  1.00  0.00    -0.263 N 
HETATM    6  C5  UNL     1     -11.439 -14.725 -10.795  1.00  0.00     0.214 C 
HETATM    7  C6  UNL     1     -11.912 -16.099 -11.065  1.00  0.00     0.116 C 
HETATM    8  N3  UNL     1     -13.165 -16.248 -11.385  1.00  0.00    -0.247 N 
ATOM      9  H3  UNL     1     -13.776 -15.433 -11.442  1.00  0.00     0.196 HD
HETATM   10  N4  UNL     1     -11.157 -17.285 -11.015  1.00  0.00    -0.376 N 
ATOM     11  H4  UNL     1     -11.679 -18.158 -10.948  1.00  0.00     0.160 HD
HETATM   12  C13 UNL     1      -9.701 -17.392 -11.049  1.00  0.00     0.135 C 
HETATM   13  C14 UNL     1      -9.058 -16.867  -9.831  1.00  0.00     0.100 C 
HETATM   14  C23 UNL     1      -9.389 -15.482  -9.486  1.00  0.00     0.234 C 
HETATM   15  O4  UNL     1      -8.431 -14.851  -8.940  1.00  0.00    -0.272 OA
ENDROOT
BRANCH   1  16
HETATM   16  C3  UNL     1     -10.864 -12.562  -6.452  1.00  0.00     0.119 C 
BRANCH  16  17
HETATM   17  C2  UNL     1      -9.801 -11.587  -6.012  1.00  0.00     0.025 C 
HETATM   18  C1  UNL     1      -9.204 -10.891  -7.215  1.00  0.00     0.007 C 
ENDBRANCH  16  17
BRANCH  16  19
HETATM   19  C24 UNL     1     -11.372 -13.302  -5.269  1.00  0.00    -0.034 A 
HETATM   20  C25 UNL     1     -11.689 -12.660  -4.082  1.00  0.00     0.010 A 
HETATM   21  C26 UNL     1     -12.159 -13.349  -2.981  1.00  0.00     0.021 A 
HETATM   22  C27 UNL     1     -12.335 -14.722  -3.015  1.00  0.00     0.065 A 
HETATM   23  C29 UNL     1     -12.020 -15.362  -4.193  1.00  0.00     0.064 A 
HETATM   24  N5  UNL     1     -12.204 -16.773  -4.220  1.00  0.00    -0.101 NA
HETATM   25  C30 UNL     1     -11.551 -14.670  -5.291  1.00  0.00     0.037 A 
BRANCH  22  26
HETATM   26  C28 UNL     1     -12.833 -15.454  -1.847  1.00  0.00     0.211 C 
HETATM   27  O5  UNL     1     -12.037 -16.013  -1.082  1.00  0.00    -0.644 OA
HETATM   28  O6  UNL     1     -14.186 -15.547  -1.561  1.00  0.00    -0.644 OA
ENDBRANCH  22  26
ENDBRANCH  16  19
ENDBRANCH   1  16
BRANCH  13  29
HETATM   29  C15 UNL     1      -7.563 -16.999  -9.838  1.00  0.00     0.057 C 
BRANCH  29  30
HETATM   30  C16 UNL     1      -7.076 -18.238  -9.205  1.00  0.00    -0.022 A 
HETATM   31  C17 UNL     1      -7.200 -18.289  -7.819  1.00  0.00     0.033 A 
HETATM   32  C18 UNL     1      -6.819 -19.422  -7.157  1.00  0.00     0.034 A 
HETATM   33 CL1  UNL     1      -6.969 -19.507  -5.399  1.00  0.00    -0.084 Cl
HETATM   34  C19 UNL     1      -6.317 -20.500  -7.846  1.00  0.00     0.026 A 
HETATM   35  C20 UNL     1      -6.196 -20.442  -9.217  1.00  0.00     0.039 A 
HETATM   36  C21 UNL     1      -6.582 -19.292  -9.903  1.00  0.00     0.074 A 
BRANCH  36  37
HETATM   37  O3  UNL     1      -6.452 -19.231 -11.291  1.00  0.00    -0.355 OA
HETATM   38  C22 UNL     1      -7.343 -19.895 -12.156  1.00  0.00     0.210 C 
ENDBRANCH  36  37
ENDBRANCH  29  30
ENDBRANCH  13  29
BRANCH   8  39
HETATM   39  O2  UNL     1     -13.667 -17.504 -11.649  1.00  0.00    -0.237 OA
BRANCH  39  40
HETATM   40  C7  UNL     1     -14.776 -17.916 -10.944  1.00  0.00     0.098 A 
HETATM   41  C8  UNL     1     -15.599 -18.868 -11.509  1.00  0.00     0.039 A 
HETATM   42  C9  UNL     1     -16.721 -19.333 -10.879  1.00  0.00     0.003 A 
HETATM   43  C10 UNL     1     -17.052 -18.843  -9.640  1.00  0.00     0.000 A 
HETATM   44  C11 UNL     1     -16.244 -17.887  -9.046  1.00  0.00     0.003 A 
HETATM   45  C12 UNL     1     -15.118 -17.434  -9.702  1.00  0.00     0.039 A 
ENDBRANCH  39  40
ENDBRANCH   8  39
TORSDOF 9
ENDMDL
