MODEL 3
REMARK VINA RESULT: -9.252323463      4.308      6.808
REMARK  9 active torsions:
REMARK  status: ('A' for Active; 'I' for Inactive)
REMARK    1  A    between atoms: C2_2  and  C3_3 
REMARK    2  A    between atoms: C3_3  and  N1_4 
REMARK    3  A    between atoms: C3_3  and  C24_36 
REMARK       I    between atoms: N1_4  and  C4_6 
REMARK       I    between atoms: C4_6  and  N2_8 
REMARK    4  A    between atoms: N3_11  and  O2_13 
REMARK    5  A    between atoms: O2_13  and  C7_14 
REMARK    6  A    between atoms: C14_23  and  C15_24 
REMARK    7  A    between atoms: C15_24  and  C16_25 
REMARK    8  A    between atoms: C21_31  and  O3_32 
REMARK    9  A    between atoms: C27_39  and  C28_40 
ROOT
HETATM    1  N1  UNL     1     -11.210 -14.596  -6.455  1.00  0.00    -0.334 N 
ATOM      2  H1  UNL     1     -11.298 -15.504  -6.912  1.00  0.00     0.165 HD
HETATM    3  C4  UNL     1     -11.774 -13.458  -7.079  1.00  0.00     0.326 C 
HETATM    4  O1  UNL     1     -11.633 -12.349  -6.453  1.00  0.00    -0.247 OA
HETATM    5  N2  UNL     1     -12.469 -13.401  -8.301  1.00  0.00    -0.263 N 
HETATM    6  C5  UNL     1     -12.944 -12.044  -8.620  1.00  0.00     0.214 C 
HETATM    7  C6  UNL     1     -14.400 -12.053  -8.880  1.00  0.00     0.116 C 
HETATM    8  N3  UNL     1     -15.101 -11.073  -8.387  1.00  0.00    -0.247 N 
ATOM      9  H3  UNL     1     -14.642 -10.340  -7.847  1.00  0.00     0.196 HD
HETATM   10  N4  UNL     1     -15.129 -13.011  -9.607  1.00  0.00    -0.376 N 
ATOM     11  H4  UNL     1     -16.137 -13.030  -9.458  1.00  0.00     0.160 HD
HETATM   12  C13 UNL     1     -14.588 -13.982 -10.554  1.00  0.00     0.135 C 
HETATM   13  C14 UNL     1     -13.766 -15.020  -9.907  1.00  0.00     0.100 C 
HETATM   14  C23 UNL     1     -12.650 -14.529  -9.094  1.00  0.00     0.234 C 
HETATM   15  O4  UNL     1     -11.633 -15.290  -9.114  1.00  0.00    -0.272 OA
ENDROOT
BRANCH   1  16
HETATM   16  C3  UNL     1     -10.507 -14.513  -5.180  1.00  0.00     0.119 C 
BRANCH  16  17
HETATM   17  C2  UNL     1      -9.371 -15.501  -5.107  1.00  0.00     0.025 C 
HETATM   18  C1  UNL     1      -9.186 -16.179  -6.447  1.00  0.00     0.007 C 
ENDBRANCH  16  17
BRANCH  16  19
HETATM   19  C24 UNL     1     -11.491 -14.817  -4.109  1.00  0.00    -0.034 A 
HETATM   20  C25 UNL     1     -11.986 -16.096  -3.908  1.00  0.00     0.010 A 
HETATM   21  C26 UNL     1     -12.903 -16.378  -2.914  1.00  0.00     0.021 A 
HETATM   22  C27 UNL     1     -13.371 -15.388  -2.068  1.00  0.00     0.065 A 
HETATM   23  C29 UNL     1     -12.881 -14.116  -2.266  1.00  0.00     0.064 A 
HETATM   24  N5  UNL     1     -13.367 -13.104  -1.392  1.00  0.00    -0.101 NA
HETATM   25  C30 UNL     1     -11.965 -13.838  -3.260  1.00  0.00     0.037 A 
BRANCH  22  26
HETATM   26  C28 UNL     1     -14.344 -15.686  -1.013  1.00  0.00     0.211 C 
HETATM   27  O5  UNL     1     -14.093 -15.386   0.161  1.00  0.00    -0.644 OA
HETATM   28  O6  UNL     1     -15.556 -16.301  -1.284  1.00  0.00    -0.644 OA
ENDBRANCH  22  26
ENDBRANCH  16  19
ENDBRANCH   1  16
BRANCH  13  29
HETATM   29  C15 UNL     1     -13.228 -16.044 -10.864  1.00  0.00     0.057 C 
BRANCH  29  30
HETATM   30  C16 UNL     1     -14.178 -17.131 -11.161  1.00  0.00    -0.022 A 
HETATM   31  C17 UNL     1     -15.118 -17.390 -10.168  1.00  0.00     0.033 A 
HETATM   32  C18 UNL     1     -16.068 -18.349 -10.384  1.00  0.00     0.034 A 
HETATM   33 CL1  UNL     1     -17.270 -18.693  -9.136  1.00  0.00    -0.084 Cl
HETATM   34  C19 UNL     1     -16.097 -19.053 -11.564  1.00  0.00     0.026 A 
HETATM   35  C20 UNL     1     -15.163 -18.790 -12.542  1.00  0.00     0.039 A 
HETATM   36  C21 UNL     1     -14.190 -17.815 -12.333  1.00  0.00     0.074 A 
BRANCH  36  37
HETATM   37  O3  UNL     1     -13.240 -17.556 -13.321  1.00  0.00    -0.355 OA
HETATM   38  C22 UNL     1     -12.565 -18.589 -14.000  1.00  0.00     0.210 C 
ENDBRANCH  36  37
ENDBRANCH  29  30
ENDBRANCH  13  29
BRANCH   8  39
HETATM   39  O2  UNL     1     -16.463 -11.025  -8.595  1.00  0.00    -0.237 OA
BRANCH  39  40
HETATM   40  C7  UNL     1     -17.105  -9.826  -8.378  1.00  0.00     0.098 A 
HETATM   41  C8  UNL     1     -16.516  -8.908  -7.534  1.00  0.00     0.039 A 
HETATM   42  C9  UNL     1     -17.084  -7.693  -7.261  1.00  0.00     0.003 A 
HETATM   43  C10 UNL     1     -18.283  -7.364  -7.842  1.00  0.00     0.000 A 
HETATM   44  C11 UNL     1     -18.900  -8.265  -8.695  1.00  0.00     0.003 A 
HETATM   45  C12 UNL     1     -18.306  -9.484  -8.953  1.00  0.00     0.039 A 
ENDBRANCH  39  40
ENDBRANCH   8  39
TORSDOF 9
ENDMDL
