MODEL 1
REMARK VINA RESULT: -9.679568894      0.000      0.000
REMARK  9 active torsions:
REMARK  status: ('A' for Active; 'I' for Inactive)
REMARK    1  A    between atoms: C2_2  and  C3_3 
REMARK    2  A    between atoms: C3_3  and  N1_4 
REMARK    3  A    between atoms: C3_3  and  C24_36 
REMARK       I    between atoms: N1_4  and  C4_6 
REMARK       I    between atoms: C4_6  and  N2_8 
REMARK    4  A    between atoms: N3_11  and  O2_13 
REMARK    5  A    between atoms: O2_13  and  C7_14 
REMARK    6  A    between atoms: C14_23  and  C15_24 
REMARK    7  A    between atoms: C15_24  and  C16_25 
REMARK    8  A    between atoms: C21_31  and  O3_32 
REMARK    9  A    between atoms: C27_39  and  C28_40 
ROOT
HETATM    1  N1  UNL     1     -10.200 -13.878  -7.405  1.00  0.00    -0.334 N 
ATOM      2  H1  UNL     1      -9.382 -14.419  -7.123  1.00  0.00     0.165 HD
HETATM    3  C4  UNL     1     -10.798 -14.145  -8.659  1.00  0.00     0.326 C 
HETATM    4  O1  UNL     1     -11.824 -13.435  -8.952  1.00  0.00    -0.247 OA
HETATM    5  N2  UNL     1     -10.401 -15.094  -9.619  1.00  0.00    -0.263 N 
HETATM    6  C5  UNL     1     -11.287 -15.114 -10.796  1.00  0.00     0.214 C 
HETATM    7  C6  UNL     1     -11.795 -16.481 -11.038  1.00  0.00     0.116 C 
HETATM    8  N3  UNL     1     -13.046 -16.602 -11.374  1.00  0.00    -0.247 N 
ATOM      9  H3  UNL     1     -13.633 -15.773 -11.460  1.00  0.00     0.196 HD
HETATM   10  N4  UNL     1     -11.075 -17.686 -10.946  1.00  0.00    -0.376 N 
ATOM     11  H4  UNL     1     -11.622 -18.542 -10.865  1.00  0.00     0.160 HD
HETATM   12  C13 UNL     1      -9.622 -17.835 -10.955  1.00  0.00     0.135 C 
HETATM   13  C14 UNL     1      -8.982 -17.297  -9.740  1.00  0.00     0.100 C 
HETATM   14  C23 UNL     1      -9.279 -15.895  -9.436  1.00  0.00     0.234 C 
HETATM   15  O4  UNL     1      -8.312 -15.277  -8.891  1.00  0.00    -0.272 OA
ENDROOT
BRANCH   1  16
HETATM   16  C3  UNL     1     -10.715 -12.856  -6.501  1.00  0.00     0.119 C 
BRANCH  16  17
HETATM   17  C2  UNL     1      -9.635 -11.892  -6.080  1.00  0.00     0.025 C 
HETATM   18  C1  UNL     1      -9.250 -11.004  -7.242  1.00  0.00     0.007 C 
ENDBRANCH  16  17
BRANCH  16  19
HETATM   19  C24 UNL     1     -11.248 -13.550  -5.301  1.00  0.00    -0.034 A 
HETATM   20  C25 UNL     1     -11.679 -12.855  -4.181  1.00  0.00     0.010 A 
HETATM   21  C26 UNL     1     -12.173 -13.500  -3.065  1.00  0.00     0.021 A 
HETATM   22  C27 UNL     1     -12.260 -14.882  -3.014  1.00  0.00     0.065 A 
HETATM   23  C29 UNL     1     -11.833 -15.574  -4.125  1.00  0.00     0.064 A 
HETATM   24  N5  UNL     1     -11.926 -16.993  -4.065  1.00  0.00    -0.101 NA
HETATM   25  C30 UNL     1     -11.340 -14.926  -5.239  1.00  0.00     0.037 A 
BRANCH  22  26
HETATM   26  C28 UNL     1     -12.784 -15.568  -1.829  1.00  0.00     0.211 C 
HETATM   27  O5  UNL     1     -12.008 -16.141  -1.055  1.00  0.00    -0.644 OA
HETATM   28  O6  UNL     1     -14.139 -15.599  -1.538  1.00  0.00    -0.644 OA
ENDBRANCH  22  26
ENDBRANCH  16  19
ENDBRANCH   1  16
BRANCH  13  29
HETATM   29  C15 UNL     1      -7.491 -17.471  -9.720  1.00  0.00     0.057 C 
BRANCH  29  30
HETATM   30  C16 UNL     1      -7.048 -18.694  -9.027  1.00  0.00    -0.022 A 
HETATM   31  C17 UNL     1      -7.034 -19.848  -9.805  1.00  0.00     0.033 A 
HETATM   32  C18 UNL     1      -6.589 -21.018  -9.255  1.00  0.00     0.034 A 
HETATM   33 CL1  UNL     1      -6.563 -22.493 -10.225  1.00  0.00    -0.084 Cl
HETATM   34  C19 UNL     1      -6.162 -21.058  -7.949  1.00  0.00     0.026 A 
HETATM   35  C20 UNL     1      -6.180 -19.912  -7.186  1.00  0.00     0.039 A 
HETATM   36  C21 UNL     1      -6.631 -18.714  -7.736  1.00  0.00     0.074 A 
BRANCH  36  37
HETATM   37  O3  UNL     1      -6.656 -17.555  -6.960  1.00  0.00    -0.355 OA
HETATM   38  C22 UNL     1      -7.623 -17.346  -5.957  1.00  0.00     0.210 C 
ENDBRANCH  36  37
ENDBRANCH  29  30
ENDBRANCH  13  29
BRANCH   8  39
HETATM   39  O2  UNL     1     -13.580 -17.851 -11.613  1.00  0.00    -0.237 OA
BRANCH  39  40
HETATM   40  C7  UNL     1     -14.760 -18.179 -10.983  1.00  0.00     0.098 A 
HETATM   41  C8  UNL     1     -15.035 -17.599  -9.762  1.00  0.00     0.039 A 
HETATM   42  C9  UNL     1     -16.183 -17.868  -9.066  1.00  0.00     0.003 A 
HETATM   43  C10 UNL     1     -17.100 -18.744  -9.590  1.00  0.00     0.000 A 
HETATM   44  C11 UNL     1     -16.852 -19.341 -10.815  1.00  0.00     0.003 A 
HETATM   45  C12 UNL     1     -15.688 -19.054 -11.497  1.00  0.00     0.039 A 
ENDBRANCH  39  40
ENDBRANCH   8  39
TORSDOF 9
ENDMDL
