MODEL 1
REMARK VINA RESULT: -10.026564832      0.000      0.000
REMARK  6 active torsions:
REMARK  status: ('A' for Active; 'I' for Inactive)
REMARK    1  A    between atoms: O1_2  and  C2_3 
REMARK    2  A    between atoms: C5_6  and  C6_7 
REMARK    3  A    between atoms: C7_8  and  C8_9 
REMARK    4  A    between atoms: C8_9  and  C9_11 
REMARK    5  A    between atoms: C12_14  and  O3_15 
REMARK    6  A    between atoms: C22_26  and  O5_27 
ROOT
HETATM    1  C9  UNL     1      17.826 225.405  39.953  1.00  0.00     0.048 A 
HETATM    2  C10 UNL     1      18.237 225.198  38.654  1.00  0.00     0.021 A 
HETATM    3  C11 UNL     1      17.326 225.184  37.591  1.00  0.00     0.039 A 
HETATM    4  C12 UNL     1      15.981 225.378  37.807  1.00  0.00     0.081 A 
HETATM    5  C14 UNL     1      15.564 225.586  39.107  1.00  0.00     0.031 A 
HETATM    6  C15 UNL     1      16.471 225.600  40.162  1.00  0.00     0.097 A 
HETATM    7  O4  UNL     1      16.022 225.810  41.454  1.00  0.00    -0.335 OA
HETATM    8  C16 UNL     1      14.671 226.017  41.772  1.00  0.00     0.078 A 
HETATM    9  C17 UNL     1      14.287 224.913  42.767  1.00  0.00     0.051 C 
HETATM   10  C18 UNL     1      14.479 227.379  42.449  1.00  0.00     0.051 C 
HETATM   11  C19 UNL     1      13.746 225.997  40.632  1.00  0.00     0.012 A 
HETATM   12  C20 UNL     1      14.159 225.797  39.400  1.00  0.00     0.016 A 
ENDROOT
BRANCH   1  13
HETATM   13  C8  UNL     1      18.757 225.424  41.086  1.00  0.00     0.184 C 
HETATM   14  O2  UNL     1      19.715 226.265  41.061  1.00  0.00    -0.287 OA
BRANCH  13  15
HETATM   15  C7  UNL     1      18.652 224.548  42.226  1.00  0.00     0.056 C 
HETATM   16  C6  UNL     1      17.974 224.888  43.300  1.00  0.00     0.015 C 
BRANCH  16  17
HETATM   17  C5  UNL     1      17.821 224.061  44.489  1.00  0.00    -0.033 A 
HETATM   18  C4  UNL     1      17.495 222.718  44.369  1.00  0.00     0.014 A 
HETATM   19  C3  UNL     1      17.338 221.889  45.456  1.00  0.00     0.040 A 
HETATM   20  C2  UNL     1      17.505 222.382  46.732  1.00  0.00     0.101 A 
HETATM   21  C22 UNL     1      17.830 223.713  46.878  1.00  0.00     0.099 A 
HETATM   22  C21 UNL     1      17.987 224.550  45.764  1.00  0.00     0.050 A 
BRANCH  20  23
HETATM   23  O1  UNL     1      17.359 221.589  47.868  1.00  0.00    -0.353 OA
HETATM   24  C1  UNL     1      17.190 220.188  47.787  1.00  0.00     0.210 C 
ENDBRANCH  20  23
BRANCH  21  25
HETATM   25  O5  UNL     1      18.005 224.241  48.142  1.00  0.00    -0.358 OA
ATOM     26  H5  UNL     1      17.965 225.181  48.270  1.00  0.00     0.217 HD
ENDBRANCH  21  25
ENDBRANCH  16  17
ENDBRANCH  13  15
ENDBRANCH   1  13
BRANCH   4  27
HETATM   27  O3  UNL     1      15.042 225.373  36.784  1.00  0.00    -0.355 OA
HETATM   28  C13 UNL     1      15.343 226.066  35.571  1.00  0.00     0.210 C 
ENDBRANCH   4  27
TORSDOF 6
ENDMDL
