MODEL 3
REMARK VINA RESULT: -9.375486275      1.413      1.706
REMARK  6 active torsions:
REMARK  status: ('A' for Active; 'I' for Inactive)
REMARK    1  A    between atoms: O1_2  and  C2_3 
REMARK    2  A    between atoms: C5_6  and  C6_7 
REMARK    3  A    between atoms: C7_8  and  C8_9 
REMARK    4  A    between atoms: C8_9  and  C9_11 
REMARK    5  A    between atoms: C12_14  and  O3_15 
REMARK    6  A    between atoms: C22_26  and  O5_27 
ROOT
HETATM    1  C9  UNL     1      17.502 225.464  39.633  1.00  0.00     0.048 A 
HETATM    2  C10 UNL     1      18.575 225.388  38.773  1.00  0.00     0.021 A 
HETATM    3  C11 UNL     1      18.410 225.058  37.423  1.00  0.00     0.039 A 
HETATM    4  C12 UNL     1      17.162 224.798  36.904  1.00  0.00     0.081 A 
HETATM    5  C14 UNL     1      16.083 224.874  37.762  1.00  0.00     0.031 A 
HETATM    6  C15 UNL     1      16.249 225.201  39.104  1.00  0.00     0.097 A 
HETATM    7  O4  UNL     1      15.147 225.269  39.938  1.00  0.00    -0.335 OA
HETATM    8  C16 UNL     1      13.838 225.020  39.500  1.00  0.00     0.078 A 
HETATM    9  C17 UNL     1      13.306 223.865  40.360  1.00  0.00     0.051 C 
HETATM   10  C18 UNL     1      12.952 226.251  39.726  1.00  0.00     0.051 C 
HETATM   11  C19 UNL     1      13.704 224.679  38.078  1.00  0.00     0.012 A 
HETATM   12  C20 UNL     1      14.742 224.611  37.275  1.00  0.00     0.016 A 
ENDROOT
BRANCH   1  13
HETATM   13  C8  UNL     1      17.645 225.806  41.052  1.00  0.00     0.184 C 
HETATM   14  O2  UNL     1      17.741 227.038  41.366  1.00  0.00    -0.287 OA
BRANCH  13  15
HETATM   15  C7  UNL     1      17.683 224.830  42.113  1.00  0.00     0.056 C 
HETATM   16  C6  UNL     1      17.455 225.159  43.365  1.00  0.00     0.015 C 
BRANCH  16  17
HETATM   17  C5  UNL     1      17.475 224.235  44.490  1.00  0.00    -0.033 A 
HETATM   18  C4  UNL     1      17.115 222.907  44.310  1.00  0.00     0.014 A 
HETATM   19  C3  UNL     1      17.115 221.989  45.335  1.00  0.00     0.040 A 
HETATM   20  C2  UNL     1      17.485 222.372  46.606  1.00  0.00     0.101 A 
HETATM   21  C22 UNL     1      17.847 223.685  46.811  1.00  0.00     0.099 A 
HETATM   22  C21 UNL     1      17.843 224.613  45.760  1.00  0.00     0.050 A 
BRANCH  20  23
HETATM   23  O1  UNL     1      17.504 221.485  47.681  1.00  0.00    -0.353 OA
HETATM   24  C1  UNL     1      17.148 220.125  47.537  1.00  0.00     0.210 C 
ENDBRANCH  20  23
BRANCH  21  25
HETATM   25  O5  UNL     1      18.223 224.103  48.073  1.00  0.00    -0.358 OA
ATOM     26  H5  UNL     1      17.891 224.925  48.415  1.00  0.00     0.217 HD
ENDBRANCH  21  25
ENDBRANCH  16  17
ENDBRANCH  13  15
ENDBRANCH   1  13
BRANCH   4  27
HETATM   27  O3  UNL     1      16.951 224.468  35.572  1.00  0.00    -0.355 OA
HETATM   28  C13 UNL     1      17.862 223.572  34.932  1.00  0.00     0.210 C 
ENDBRANCH   4  27
TORSDOF 6
ENDMDL
