MODEL 2
REMARK VINA RESULT: -9.837693413      1.084      1.665
REMARK  6 active torsions:
REMARK  status: ('A' for Active; 'I' for Inactive)
REMARK    1  A    between atoms: O1_2  and  C2_3 
REMARK    2  A    between atoms: C5_6  and  C6_7 
REMARK    3  A    between atoms: C7_8  and  C8_9 
REMARK    4  A    between atoms: C8_9  and  C9_11 
REMARK    5  A    between atoms: C12_14  and  O3_15 
REMARK    6  A    between atoms: C22_26  and  O5_27 
ROOT
HETATM    1  C9  UNL     1      17.154 225.187  39.612  1.00  0.00     0.048 A 
HETATM    2  C10 UNL     1      17.316 224.816  38.295  1.00  0.00     0.021 A 
HETATM    3  C11 UNL     1      16.218 224.606  37.452  1.00  0.00     0.039 A 
HETATM    4  C12 UNL     1      14.931 224.765  37.912  1.00  0.00     0.081 A 
HETATM    5  C14 UNL     1      14.763 225.138  39.231  1.00  0.00     0.031 A 
HETATM    6  C15 UNL     1      15.855 225.346  40.067  1.00  0.00     0.097 A 
HETATM    7  O4  UNL     1      15.654 225.719  41.384  1.00  0.00    -0.335 OA
HETATM    8  C16 UNL     1      14.380 225.904  41.941  1.00  0.00     0.078 A 
HETATM    9  C17 UNL     1      14.283 224.938  43.130  1.00  0.00     0.051 C 
HETATM   10  C18 UNL     1      14.222 227.339  42.459  1.00  0.00     0.051 C 
HETATM   11  C19 UNL     1      13.253 225.676  41.028  1.00  0.00     0.012 A 
HETATM   12  C20 UNL     1      13.430 225.322  39.775  1.00  0.00     0.016 A 
ENDROOT
BRANCH   1  13
HETATM   13  C8  UNL     1      18.285 225.414  40.517  1.00  0.00     0.184 C 
HETATM   14  O2  UNL     1      19.379 225.833  40.017  1.00  0.00    -0.287 OA
BRANCH  13  15
HETATM   15  C7  UNL     1      18.230 225.190  41.940  1.00  0.00     0.056 C 
HETATM   16  C6  UNL     1      17.975 224.003  42.445  1.00  0.00     0.015 C 
BRANCH  16  17
HETATM   17  C5  UNL     1      17.902 223.697  43.867  1.00  0.00    -0.033 A 
HETATM   18  C4  UNL     1      18.036 224.709  44.807  1.00  0.00     0.014 A 
HETATM   19  C3  UNL     1      17.976 224.479  46.164  1.00  0.00     0.040 A 
HETATM   20  C2  UNL     1      17.774 223.202  46.640  1.00  0.00     0.101 A 
HETATM   21  C22 UNL     1      17.638 222.180  45.726  1.00  0.00     0.099 A 
HETATM   22  C21 UNL     1      17.702 222.424  44.347  1.00  0.00     0.050 A 
BRANCH  20  23
HETATM   23  O1  UNL     1      17.705 222.912  48.001  1.00  0.00    -0.353 OA
HETATM   24  C1  UNL     1      17.173 223.828  48.936  1.00  0.00     0.210 C 
ENDBRANCH  20  23
BRANCH  21  25
HETATM   25  O5  UNL     1      17.435 220.888  46.170  1.00  0.00    -0.358 OA
ATOM     26  H5  UNL     1      16.714 220.699  46.758  1.00  0.00     0.217 HD
ENDBRANCH  21  25
ENDBRANCH  16  17
ENDBRANCH  13  15
ENDBRANCH   1  13
BRANCH   4  27
HETATM   27  O3  UNL     1      13.813 224.568  37.113  1.00  0.00    -0.355 OA
HETATM   28  C13 UNL     1      13.323 225.662  36.333  1.00  0.00     0.210 C 
ENDBRANCH   4  27
TORSDOF 6
ENDMDL
