MODEL 8
REMARK VINA RESULT: -6.773956244      2.066      7.576
REMARK  6 active torsions:
REMARK  status: ('A' for Active; 'I' for Inactive)
REMARK    1  A    between atoms: O1_2  and  C2_3 
REMARK    2  A    between atoms: C5_6  and  C6_7 
REMARK    3  A    between atoms: C7_8  and  C8_9 
REMARK    4  A    between atoms: C8_9  and  C9_11 
REMARK    5  A    between atoms: C12_14  and  O3_15 
REMARK    6  A    between atoms: C22_26  and  O5_27 
ROOT
HETATM    1  C9  UNL     1      18.899 226.021  42.036  1.00  0.00     0.048 A 
HETATM    2  C10 UNL     1      19.665 225.450  43.030  1.00  0.00     0.021 A 
HETATM    3  C11 UNL     1      19.098 225.019  44.235  1.00  0.00     0.039 A 
HETATM    4  C12 UNL     1      17.749 225.150  44.471  1.00  0.00     0.081 A 
HETATM    5  C14 UNL     1      16.977 225.721  43.478  1.00  0.00     0.031 A 
HETATM    6  C15 UNL     1      17.542 226.149  42.281  1.00  0.00     0.097 A 
HETATM    7  O4  UNL     1      16.742 226.717  41.305  1.00  0.00    -0.335 OA
HETATM    8  C16 UNL     1      15.358 226.892  41.456  1.00  0.00     0.078 A 
HETATM    9  C17 UNL     1      15.092 228.395  41.293  1.00  0.00     0.051 C 
HETATM   10  C18 UNL     1      14.597 226.136  40.360  1.00  0.00     0.051 C 
HETATM   11  C19 UNL     1      14.799 226.427  42.732  1.00  0.00     0.012 A 
HETATM   12  C20 UNL     1      15.548 225.886  43.667  1.00  0.00     0.016 A 
ENDROOT
BRANCH   1  13
HETATM   13  C8  UNL     1      19.465 226.481  40.764  1.00  0.00     0.184 C 
HETATM   14  O2  UNL     1      20.127 227.570  40.761  1.00  0.00    -0.287 OA
BRANCH  13  15
HETATM   15  C7  UNL     1      19.316 225.773  39.517  1.00  0.00     0.056 C 
HETATM   16  C6  UNL     1      18.137 225.572  38.972  1.00  0.00     0.015 C 
BRANCH  16  17
HETATM   17  C5  UNL     1      17.904 224.868  37.718  1.00  0.00    -0.033 A 
HETATM   18  C4  UNL     1      18.869 224.879  36.722  1.00  0.00     0.014 A 
HETATM   19  C3  UNL     1      18.704 224.232  35.518  1.00  0.00     0.040 A 
HETATM   20  C2  UNL     1      17.544 223.535  35.260  1.00  0.00     0.101 A 
HETATM   21  C22 UNL     1      16.570 223.509  36.235  1.00  0.00     0.099 A 
HETATM   22  C21 UNL     1      16.747 224.172  37.458  1.00  0.00     0.050 A 
BRANCH  20  23
HETATM   23  O1  UNL     1      17.323 222.862  34.061  1.00  0.00    -0.353 OA
HETATM   24  C1  UNL     1      18.385 222.485  33.207  1.00  0.00     0.210 C 
ENDBRANCH  20  23
BRANCH  21  25
HETATM   25  O5  UNL     1      15.394 222.820  36.010  1.00  0.00    -0.358 OA
ATOM     26  H5  UNL     1      14.793 223.120  35.338  1.00  0.00     0.217 HD
ENDBRANCH  21  25
ENDBRANCH  16  17
ENDBRANCH  13  15
ENDBRANCH   1  13
BRANCH   4  27
HETATM   27  O3  UNL     1      17.143 224.737  45.650  1.00  0.00    -0.355 OA
HETATM   28  C13 UNL     1      17.892 223.928  46.561  1.00  0.00     0.210 C 
ENDBRANCH   4  27
TORSDOF 6
ENDMDL
