MODEL 6
REMARK VINA RESULT: -7.455638469      3.577      5.732
REMARK  6 active torsions:
REMARK  status: ('A' for Active; 'I' for Inactive)
REMARK    1  A    between atoms: O1_2  and  C2_3 
REMARK    2  A    between atoms: C5_6  and  C6_7 
REMARK    3  A    between atoms: C7_8  and  C8_9 
REMARK    4  A    between atoms: C8_9  and  C9_11 
REMARK    5  A    between atoms: C12_14  and  O3_15 
REMARK    6  A    between atoms: C22_26  and  O5_27 
ROOT
HETATM    1  C9  UNL     1      17.280 225.326  39.964  1.00  0.00     0.048 A 
HETATM    2  C10 UNL     1      18.427 225.361  39.201  1.00  0.00     0.021 A 
HETATM    3  C11 UNL     1      18.390 225.185  37.813  1.00  0.00     0.039 A 
HETATM    4  C12 UNL     1      17.199 224.970  37.157  1.00  0.00     0.081 A 
HETATM    5  C14 UNL     1      16.047 224.935  37.917  1.00  0.00     0.031 A 
HETATM    6  C15 UNL     1      16.086 225.110  39.296  1.00  0.00     0.097 A 
HETATM    7  O4  UNL     1      14.913 225.069  40.030  1.00  0.00    -0.335 OA
HETATM    8  C16 UNL     1      13.653 224.856  39.449  1.00  0.00     0.078 A 
HETATM    9  C17 UNL     1      13.073 223.605  40.123  1.00  0.00     0.051 C 
HETATM   10  C18 UNL     1      12.723 226.043  39.730  1.00  0.00     0.051 C 
HETATM   11  C19 UNL     1      13.653 224.677  37.992  1.00  0.00     0.012 A 
HETATM   12  C20 UNL     1      14.760 224.713  37.283  1.00  0.00     0.016 A 
ENDROOT
BRANCH   1  13
HETATM   13  C8  UNL     1      17.289 225.507  41.419  1.00  0.00     0.184 C 
HETATM   14  O2  UNL     1      18.046 224.753  42.113  1.00  0.00    -0.287 OA
BRANCH  13  15
HETATM   15  C7  UNL     1      16.491 226.489  42.109  1.00  0.00     0.056 C 
HETATM   16  C6  UNL     1      15.822 227.418  41.462  1.00  0.00     0.015 C 
BRANCH  16  17
HETATM   17  C5  UNL     1      14.996 228.442  42.085  1.00  0.00    -0.033 A 
HETATM   18  C4  UNL     1      14.472 228.240  43.354  1.00  0.00     0.014 A 
HETATM   19  C3  UNL     1      13.685 229.173  43.993  1.00  0.00     0.040 A 
HETATM   20  C2  UNL     1      13.387 230.367  43.373  1.00  0.00     0.101 A 
HETATM   21  C22 UNL     1      13.897 230.591  42.113  1.00  0.00     0.099 A 
HETATM   22  C21 UNL     1      14.696 229.635  41.470  1.00  0.00     0.050 A 
BRANCH  20  23
HETATM   23  O1  UNL     1      12.597 231.346  43.972  1.00  0.00    -0.353 OA
HETATM   24  C1  UNL     1      11.907 231.114  45.183  1.00  0.00     0.210 C 
ENDBRANCH  20  23
BRANCH  21  25
HETATM   25  O5  UNL     1      13.618 231.778  41.463  1.00  0.00    -0.358 OA
ATOM     26  H5  UNL     1      12.983 231.790  40.756  1.00  0.00     0.217 HD
ENDBRANCH  21  25
ENDBRANCH  16  17
ENDBRANCH  13  15
ENDBRANCH   1  13
BRANCH   4  27
HETATM   27  O3  UNL     1      17.115 224.791  35.783  1.00  0.00    -0.355 OA
HETATM   28  C13 UNL     1      17.816 223.697  35.188  1.00  0.00     0.210 C 
ENDBRANCH   4  27
TORSDOF 6
ENDMDL
