MODEL 7
REMARK VINA RESULT: -7.097425992      3.697      5.939
REMARK  6 active torsions:
REMARK  status: ('A' for Active; 'I' for Inactive)
REMARK    1  A    between atoms: O1_2  and  C2_3 
REMARK    2  A    between atoms: C5_6  and  C6_7 
REMARK    3  A    between atoms: C7_8  and  C8_9 
REMARK    4  A    between atoms: C8_9  and  C9_11 
REMARK    5  A    between atoms: C12_14  and  O3_15 
REMARK    6  A    between atoms: C22_26  and  O5_27 
ROOT
HETATM    1  C9  UNL     1      17.265 225.428  39.874  1.00  0.00     0.048 A 
HETATM    2  C10 UNL     1      18.418 225.423  39.120  1.00  0.00     0.021 A 
HETATM    3  C11 UNL     1      18.394 225.152  37.747  1.00  0.00     0.039 A 
HETATM    4  C12 UNL     1      17.210 224.881  37.099  1.00  0.00     0.081 A 
HETATM    5  C14 UNL     1      16.052 224.886  37.850  1.00  0.00     0.031 A 
HETATM    6  C15 UNL     1      16.079 225.155  39.215  1.00  0.00     0.097 A 
HETATM    7  O4  UNL     1      14.900 225.152  39.941  1.00  0.00    -0.335 OA
HETATM    8  C16 UNL     1      13.648 224.887  39.367  1.00  0.00     0.078 A 
HETATM    9  C17 UNL     1      13.075 223.679  40.121  1.00  0.00     0.051 C 
HETATM   10  C18 UNL     1      12.704 226.080  39.560  1.00  0.00     0.051 C 
HETATM   11  C19 UNL     1      13.661 224.608  37.926  1.00  0.00     0.012 A 
HETATM   12  C20 UNL     1      14.773 224.607  37.225  1.00  0.00     0.016 A 
ENDROOT
BRANCH   1  13
HETATM   13  C8  UNL     1      17.261 225.709  41.314  1.00  0.00     0.184 C 
HETATM   14  O2  UNL     1      17.987 224.984  42.069  1.00  0.00    -0.287 OA
BRANCH  13  15
HETATM   15  C7  UNL     1      16.482 226.757  41.924  1.00  0.00     0.056 C 
HETATM   16  C6  UNL     1      15.792 227.615  41.205  1.00  0.00     0.015 C 
BRANCH  16  17
HETATM   17  C5  UNL     1      14.983 228.699  41.745  1.00  0.00    -0.033 A 
HETATM   18  C4  UNL     1      14.756 229.843  40.993  1.00  0.00     0.014 A 
HETATM   19  C3  UNL     1      14.000 230.898  41.452  1.00  0.00     0.040 A 
HETATM   20  C2  UNL     1      13.430 230.848  42.705  1.00  0.00     0.101 A 
HETATM   21  C22 UNL     1      13.640 229.722  43.471  1.00  0.00     0.099 A 
HETATM   22  C21 UNL     1      14.413 228.653  42.996  1.00  0.00     0.050 A 
BRANCH  20  23
HETATM   23  O1  UNL     1      12.656 231.886  43.220  1.00  0.00    -0.353 OA
HETATM   24  C1  UNL     1      11.362 232.170  42.727  1.00  0.00     0.210 C 
ENDBRANCH  20  23
BRANCH  21  25
HETATM   25  O5  UNL     1      13.084 229.638  44.733  1.00  0.00    -0.358 OA
ATOM     26  H5  UNL     1      13.113 230.391  45.311  1.00  0.00     0.217 HD
ENDBRANCH  21  25
ENDBRANCH  16  17
ENDBRANCH  13  15
ENDBRANCH   1  13
BRANCH   4  27
HETATM   27  O3  UNL     1      17.138 224.607  35.739  1.00  0.00    -0.355 OA
HETATM   28  C13 UNL     1      18.023 223.629  35.187  1.00  0.00     0.210 C 
ENDBRANCH   4  27
TORSDOF 6
ENDMDL
