MODEL 2
REMARK VINA RESULT: -7.909615282      3.565      7.701
REMARK  11 active torsions:
REMARK  status: ('A' for Active; 'I' for Inactive)
REMARK    1  A    between atoms: N5_13  and  C6_14 
REMARK    2  A    between atoms: C7_16  and  C8_17 
REMARK    3  A    between atoms: C8_17  and  C9_18 
REMARK    4  A    between atoms: C9_18  and  N6_19 
REMARK    5  A    between atoms: C9_18  and  C10_23 
REMARK    6  A    between atoms: C10_23  and  C11_24 
REMARK    7  A    between atoms: C11_24  and  C12_25 
REMARK    8  A    between atoms: C12_25  and  N7_26 
REMARK    9  A    between atoms: C12_25  and  C13_30 
REMARK   10  A    between atoms: C14_33  and  O4_34 
REMARK   11  A    between atoms: C15_36  and  O5_37 
ROOT
HETATM    1  C6  UNL     1     -40.456  -0.945 -12.389  1.00  0.00     0.262 C 
HETATM    2  O1  UNL     1     -41.699  -0.492 -12.818  1.00  0.00    -0.355 OA
HETATM    3  C7  UNL     1     -41.440   0.818 -13.299  1.00  0.00     0.157 C 
HETATM    4  C14 UNL     1     -40.135   0.721 -14.009  1.00  0.00     0.180 C 
HETATM    5  C15 UNL     1     -39.561  -0.590 -13.543  1.00  0.00     0.198 C 
ENDROOT
BRANCH   3   6
HETATM    6  C8  UNL     1     -42.623   1.188 -14.091  1.00  0.00     0.067 C 
BRANCH   6   7
HETATM    7  C9  UNL     1     -43.984   0.870 -13.596  1.00  0.00     0.186 C 
BRANCH   7   8
HETATM    8  N6  UNL     1     -44.272   1.641 -12.377  1.00  0.00    -0.075 N 
ATOM      9  H63 UNL     1     -43.489   2.236 -12.108  1.00  0.00     0.274 HD
ATOM     10  H62 UNL     1     -44.965   2.371 -12.542  1.00  0.00     0.274 HD
ATOM     11  H61 UNL     1     -44.552   1.014 -11.623  1.00  0.00     0.274 HD
ENDBRANCH   7   8
BRANCH   7  12
HETATM   12  C10 UNL     1     -45.115   0.946 -14.523  1.00  0.00     0.035 C 
BRANCH  12  13
HETATM   13  C11 UNL     1     -45.040   2.091 -15.480  1.00  0.00     0.046 C 
BRANCH  13  14
HETATM   14  C12 UNL     1     -46.244   2.935 -15.680  1.00  0.00     0.283 C 
BRANCH  14  15
HETATM   15  N7  UNL     1     -46.013   3.627 -16.990  1.00  0.00    -0.065 N 
ATOM     16  H73 UNL     1     -45.142   3.363 -17.450  1.00  0.00     0.275 HD
ATOM     17  H72 UNL     1     -46.635   3.318 -17.736  1.00  0.00     0.275 HD
ATOM     18  H71 UNL     1     -46.085   4.621 -16.776  1.00  0.00     0.275 HD
ENDBRANCH  14  15
BRANCH  14  19
HETATM   19  C13 UNL     1     -46.328   4.011 -14.659  1.00  0.00     0.204 C 
HETATM   20  O2  UNL     1     -47.343   4.753 -14.600  1.00  0.00    -0.646 OA
HETATM   21  O3  UNL     1     -45.333   4.270 -13.730  1.00  0.00    -0.646 OA
ENDBRANCH  14  19
ENDBRANCH  13  14
ENDBRANCH  12  13
ENDBRANCH   7  12
ENDBRANCH   6   7
ENDBRANCH   3   6
BRANCH   4  22
HETATM   22  O4  UNL     1     -39.224   1.703 -13.605  1.00  0.00    -0.390 OA
ATOM     23  H4  UNL     1     -38.358   1.352 -13.434  1.00  0.00     0.210 HD
ENDBRANCH   4  22
BRANCH   1  24
HETATM   24  N5  UNL     1     -40.422  -2.349 -12.136  1.00  0.00    -0.297 N 
HETATM   25  C3  UNL     1     -41.325  -3.274 -12.499  1.00  0.00     0.142 A 
HETATM   26  N3  UNL     1     -42.493  -3.258 -13.168  1.00  0.00    -0.336 N 
HETATM   27  C4  UNL     1     -40.897  -4.521 -12.046  1.00  0.00     0.119 A 
HETATM   28  C2  UNL     1     -43.243  -4.324 -13.419  1.00  0.00     0.183 A 
ATOM     29  H3  UNL     1     -42.828  -2.357 -13.509  1.00  0.00     0.168 HD
HETATM   30  N2  UNL     1     -42.846  -5.522 -12.993  1.00  0.00    -0.339 N 
HETATM   31  C1  UNL     1     -41.674  -5.630 -12.306  1.00  0.00     0.148 A 
ATOM     32  H2  UNL     1     -43.413  -6.349 -13.179  1.00  0.00     0.167 HD
HETATM   33  N1  UNL     1     -41.294  -6.920 -11.874  1.00  0.00    -0.080 NA
HETATM   34  N4  UNL     1     -39.739  -4.321 -11.419  1.00  0.00    -0.346 N 
HETATM   35  C5  UNL     1     -39.449  -2.996 -11.474  1.00  0.00     0.188 A 
ATOM     36  H4  UNL     1     -39.169  -5.039 -10.974  1.00  0.00     0.167 HD
ENDBRANCH   1  24
BRANCH   5  37
HETATM   37  O5  UNL     1     -38.247  -0.462 -13.096  1.00  0.00    -0.388 OA
ATOM     38  H5  UNL     1     -37.813  -1.305 -13.135  1.00  0.00     0.210 HD
ENDBRANCH   5  37
TORSDOF 11
ENDMDL
