MODEL 5
REMARK VINA RESULT: -7.755638365      6.035      7.734
REMARK  11 active torsions:
REMARK  status: ('A' for Active; 'I' for Inactive)
REMARK    1  A    between atoms: N5_13  and  C6_14 
REMARK    2  A    between atoms: C7_16  and  C8_17 
REMARK    3  A    between atoms: C8_17  and  C9_18 
REMARK    4  A    between atoms: C9_18  and  N6_19 
REMARK    5  A    between atoms: C9_18  and  C10_23 
REMARK    6  A    between atoms: C10_23  and  C11_24 
REMARK    7  A    between atoms: C11_24  and  C12_25 
REMARK    8  A    between atoms: C12_25  and  N7_26 
REMARK    9  A    between atoms: C12_25  and  C13_30 
REMARK   10  A    between atoms: C14_33  and  O4_34 
REMARK   11  A    between atoms: C15_36  and  O5_37 
ROOT
HETATM    1  C6  UNL     1     -44.579   4.021 -20.093  1.00  0.00     0.262 C 
HETATM    2  O1  UNL     1     -43.209   3.780 -20.127  1.00  0.00    -0.355 OA
HETATM    3  C7  UNL     1     -42.722   4.405 -18.948  1.00  0.00     0.157 C 
HETATM    4  C14 UNL     1     -43.741   4.114 -17.904  1.00  0.00     0.180 C 
HETATM    5  C15 UNL     1     -44.943   3.649 -18.682  1.00  0.00     0.198 C 
ENDROOT
BRANCH   3   6
HETATM    6  C8  UNL     1     -41.367   3.868 -18.749  1.00  0.00     0.067 C 
BRANCH   6   7
HETATM    7  C9  UNL     1     -40.179   4.697 -19.069  1.00  0.00     0.186 C 
BRANCH   7   8
HETATM    8  N6  UNL     1     -39.085   4.394 -18.135  1.00  0.00    -0.075 N 
ATOM      9  H63 UNL     1     -39.308   4.677 -17.180  1.00  0.00     0.274 HD
ATOM     10  H62 UNL     1     -38.986   3.392 -17.974  1.00  0.00     0.274 HD
ATOM     11  H61 UNL     1     -38.216   4.814 -18.463  1.00  0.00     0.274 HD
ENDBRANCH   7   8
BRANCH   7  12
HETATM   12  C10 UNL     1     -39.679   4.723 -20.444  1.00  0.00     0.035 C 
BRANCH  12  13
HETATM   13  C11 UNL     1     -39.682   6.081 -21.067  1.00  0.00     0.046 C 
BRANCH  13  14
HETATM   14  C12 UNL     1     -40.977   6.786 -21.236  1.00  0.00     0.283 C 
BRANCH  14  15
HETATM   15  N7  UNL     1     -41.555   6.227 -22.501  1.00  0.00    -0.065 N 
ATOM     16  H73 UNL     1     -40.892   5.685 -23.056  1.00  0.00     0.275 HD
ATOM     17  H72 UNL     1     -42.225   5.474 -22.353  1.00  0.00     0.275 HD
ATOM     18  H71 UNL     1     -41.941   7.035 -22.990  1.00  0.00     0.275 HD
ENDBRANCH  14  15
BRANCH  14  19
HETATM   19  C13 UNL     1     -40.778   8.237 -21.483  1.00  0.00     0.204 C 
HETATM   20  O2  UNL     1     -41.005   8.725 -22.620  1.00  0.00    -0.646 OA
HETATM   21  O3  UNL     1     -40.343   9.131 -20.517  1.00  0.00    -0.646 OA
ENDBRANCH  14  19
ENDBRANCH  13  14
ENDBRANCH  12  13
ENDBRANCH   7  12
ENDBRANCH   6   7
ENDBRANCH   3   6
BRANCH   4  22
HETATM   22  O4  UNL     1     -44.152   5.260 -17.214  1.00  0.00    -0.390 OA
ATOM     23  H4  UNL     1     -44.970   5.134 -16.747  1.00  0.00     0.210 HD
ENDBRANCH   4  22
BRANCH   1  24
HETATM   24  N5  UNL     1     -45.315   3.233 -21.029  1.00  0.00    -0.297 N 
HETATM   25  C3  UNL     1     -44.914   2.120 -21.664  1.00  0.00     0.142 A 
HETATM   26  N3  UNL     1     -43.790   1.380 -21.678  1.00  0.00    -0.336 N 
HETATM   27  C4  UNL     1     -45.948   1.677 -22.487  1.00  0.00     0.119 A 
HETATM   28  C2  UNL     1     -43.607   0.285 -22.404  1.00  0.00     0.183 A 
ATOM     29  H3  UNL     1     -43.018   1.684 -21.084  1.00  0.00     0.168 HD
HETATM   30  N2  UNL     1     -44.586  -0.151 -23.195  1.00  0.00    -0.339 N 
HETATM   31  C1  UNL     1     -45.761   0.538 -23.243  1.00  0.00     0.148 A 
ATOM     32  H2  UNL     1     -44.458  -0.992 -23.759  1.00  0.00     0.167 HD
HETATM   33  N1  UNL     1     -46.770   0.039 -24.095  1.00  0.00    -0.080 NA
HETATM   34  N4  UNL     1     -46.955   2.535 -22.329  1.00  0.00    -0.346 N 
HETATM   35  C5  UNL     1     -46.568   3.484 -21.439  1.00  0.00     0.188 A 
ATOM     36  H4  UNL     1     -47.860   2.487 -22.796  1.00  0.00     0.167 HD
ENDBRANCH   1  24
BRANCH   5  37
HETATM   37  O5  UNL     1     -46.106   4.319 -18.307  1.00  0.00    -0.388 OA
ATOM     38  H5  UNL     1     -45.886   5.045 -17.734  1.00  0.00     0.210 HD
ENDBRANCH   5  37
TORSDOF 11
ENDMDL
