MODEL 3
REMARK VINA RESULT: -7.882655804      3.546      7.662
REMARK  11 active torsions:
REMARK  status: ('A' for Active; 'I' for Inactive)
REMARK    1  A    between atoms: N5_13  and  C6_14 
REMARK    2  A    between atoms: C7_16  and  C8_17 
REMARK    3  A    between atoms: C8_17  and  C9_18 
REMARK    4  A    between atoms: C9_18  and  N6_19 
REMARK    5  A    between atoms: C9_18  and  C10_23 
REMARK    6  A    between atoms: C10_23  and  C11_24 
REMARK    7  A    between atoms: C11_24  and  C12_25 
REMARK    8  A    between atoms: C12_25  and  N7_26 
REMARK    9  A    between atoms: C12_25  and  C13_30 
REMARK   10  A    between atoms: C14_33  and  O4_34 
REMARK   11  A    between atoms: C15_36  and  O5_37 
ROOT
HETATM    1  C6  UNL     1     -40.502  -0.937 -12.422  1.00  0.00     0.262 C 
HETATM    2  O1  UNL     1     -41.733  -0.499 -12.899  1.00  0.00    -0.355 OA
HETATM    3  C7  UNL     1     -41.470   0.813 -13.374  1.00  0.00     0.157 C 
HETATM    4  C14 UNL     1     -40.139   0.728 -14.034  1.00  0.00     0.180 C 
HETATM    5  C15 UNL     1     -39.568  -0.575 -13.543  1.00  0.00     0.198 C 
ENDROOT
BRANCH   3   6
HETATM    6  C8  UNL     1     -42.626   1.168 -14.211  1.00  0.00     0.067 C 
BRANCH   6   7
HETATM    7  C9  UNL     1     -44.005   1.004 -13.691  1.00  0.00     0.186 C 
BRANCH   7   8
HETATM    8  N6  UNL     1     -44.096   1.535 -12.323  1.00  0.00    -0.075 N 
ATOM      9  H63 UNL     1     -43.193   1.865 -11.981  1.00  0.00     0.274 HD
ATOM     10  H62 UNL     1     -44.601   2.421 -12.290  1.00  0.00     0.274 HD
ATOM     11  H61 UNL     1     -44.508   0.839 -11.702  1.00  0.00     0.274 HD
ENDBRANCH   7   8
BRANCH   7  12
HETATM   12  C10 UNL     1     -45.131   1.481 -14.496  1.00  0.00     0.035 C 
BRANCH  12  13
HETATM   13  C11 UNL     1     -45.594   2.856 -14.139  1.00  0.00     0.046 C 
BRANCH  13  14
HETATM   14  C12 UNL     1     -45.578   3.909 -15.185  1.00  0.00     0.283 C 
BRANCH  14  15
HETATM   15  N7  UNL     1     -46.492   4.978 -14.665  1.00  0.00    -0.065 N 
ATOM     16  H73 UNL     1     -47.478   4.718 -14.666  1.00  0.00     0.275 HD
ATOM     17  H72 UNL     1     -46.416   5.135 -13.660  1.00  0.00     0.275 HD
ATOM     18  H71 UNL     1     -46.278   5.800 -15.230  1.00  0.00     0.275 HD
ENDBRANCH  14  15
BRANCH  14  19
HETATM   19  C13 UNL     1     -46.191   3.428 -16.449  1.00  0.00     0.204 C 
HETATM   20  O2  UNL     1     -47.430   3.218 -16.516  1.00  0.00    -0.646 OA
HETATM   21  O3  UNL     1     -45.472   3.184 -17.609  1.00  0.00    -0.646 OA
ENDBRANCH  14  19
ENDBRANCH  13  14
ENDBRANCH  12  13
ENDBRANCH   7  12
ENDBRANCH   6   7
ENDBRANCH   3   6
BRANCH   4  22
HETATM   22  O4  UNL     1     -39.254   1.721 -13.598  1.00  0.00    -0.390 OA
ATOM     23  H4  UNL     1     -39.228   2.471 -14.181  1.00  0.00     0.210 HD
ENDBRANCH   4  22
BRANCH   1  24
HETATM   24  N5  UNL     1     -40.462  -2.340 -12.164  1.00  0.00    -0.297 N 
HETATM   25  C3  UNL     1     -41.365  -3.269 -12.519  1.00  0.00     0.142 A 
HETATM   26  N3  UNL     1     -42.536  -3.260 -13.182  1.00  0.00    -0.336 N 
HETATM   27  C4  UNL     1     -40.930  -4.513 -12.063  1.00  0.00     0.119 A 
HETATM   28  C2  UNL     1     -43.283  -4.329 -13.425  1.00  0.00     0.183 A 
ATOM     29  H3  UNL     1     -42.875  -2.361 -13.525  1.00  0.00     0.168 HD
HETATM   30  N2  UNL     1     -42.881  -5.524 -12.997  1.00  0.00    -0.339 N 
HETATM   31  C1  UNL     1     -41.705  -5.626 -12.315  1.00  0.00     0.148 A 
ATOM     32  H2  UNL     1     -43.446  -6.354 -13.177  1.00  0.00     0.167 HD
HETATM   33  N1  UNL     1     -41.319  -6.913 -11.880  1.00  0.00    -0.080 NA
HETATM   34  N4  UNL     1     -39.770  -4.307 -11.442  1.00  0.00    -0.346 N 
HETATM   35  C5  UNL     1     -39.485  -2.981 -11.504  1.00  0.00     0.188 A 
ATOM     36  H4  UNL     1     -39.195  -5.022 -10.997  1.00  0.00     0.167 HD
ENDBRANCH   1  24
BRANCH   5  37
HETATM   37  O5  UNL     1     -38.273  -0.431 -13.047  1.00  0.00    -0.388 OA
ATOM     38  H5  UNL     1     -37.770   0.130 -13.625  1.00  0.00     0.210 HD
ENDBRANCH   5  37
TORSDOF 11
ENDMDL
