MODEL 1
REMARK VINA RESULT: -8.178290066      0.000      0.000
REMARK  11 active torsions:
REMARK  status: ('A' for Active; 'I' for Inactive)
REMARK    1  A    between atoms: N5_13  and  C6_14 
REMARK    2  A    between atoms: C7_16  and  C8_17 
REMARK    3  A    between atoms: C8_17  and  C9_18 
REMARK    4  A    between atoms: C9_18  and  N6_19 
REMARK    5  A    between atoms: C9_18  and  C10_23 
REMARK    6  A    between atoms: C10_23  and  C11_24 
REMARK    7  A    between atoms: C11_24  and  C12_25 
REMARK    8  A    between atoms: C12_25  and  N7_26 
REMARK    9  A    between atoms: C12_25  and  C13_30 
REMARK   10  A    between atoms: C14_33  and  O4_34 
REMARK   11  A    between atoms: C15_36  and  O5_37 
ROOT
HETATM    1  C6  UNL     1     -43.867  -0.276 -13.886  1.00  0.00     0.262 C 
HETATM    2  O1  UNL     1     -42.508  -0.139 -13.627  1.00  0.00    -0.355 OA
HETATM    3  C7  UNL     1     -42.058  -1.473 -13.438  1.00  0.00     0.157 C 
HETATM    4  C14 UNL     1     -42.785  -2.276 -14.459  1.00  0.00     0.180 C 
HETATM    5  C15 UNL     1     -43.898  -1.371 -14.915  1.00  0.00     0.198 C 
ENDROOT
BRANCH   3   6
HETATM    6  C8  UNL     1     -40.592  -1.412 -13.534  1.00  0.00     0.067 C 
BRANCH   6   7
HETATM    7  C9  UNL     1     -39.904  -0.103 -13.651  1.00  0.00     0.186 C 
BRANCH   7   8
HETATM    8  N6  UNL     1     -40.001   0.634 -12.382  1.00  0.00    -0.075 N 
ATOM      9  H63 UNL     1     -40.211   0.017 -11.597  1.00  0.00     0.274 HD
ATOM     10  H62 UNL     1     -39.092   0.972 -12.066  1.00  0.00     0.274 HD
ATOM     11  H61 UNL     1     -40.680   1.389 -12.466  1.00  0.00     0.274 HD
ENDBRANCH   7   8
BRANCH   7  12
HETATM   12  C10 UNL     1     -38.530  -0.064 -14.156  1.00  0.00     0.035 C 
BRANCH  12  13
HETATM   13  C11 UNL     1     -38.234   1.116 -15.023  1.00  0.00     0.046 C 
BRANCH  13  14
HETATM   14  C12 UNL     1     -37.066   1.056 -15.936  1.00  0.00     0.283 C 
BRANCH  14  15
HETATM   15  N7  UNL     1     -35.871   1.099 -15.032  1.00  0.00    -0.065 N 
ATOM     16  H73 UNL     1     -35.929   0.464 -14.237  1.00  0.00     0.275 HD
ATOM     17  H72 UNL     1     -35.028   0.695 -15.440  1.00  0.00     0.275 HD
ATOM     18  H71 UNL     1     -35.776   2.081 -14.773  1.00  0.00     0.275 HD
ENDBRANCH  14  15
BRANCH  14  19
HETATM   19  C13 UNL     1     -36.979   2.270 -16.787  1.00  0.00     0.204 C 
HETATM   20  O2  UNL     1     -37.545   3.336 -16.434  1.00  0.00    -0.646 OA
HETATM   21  O3  UNL     1     -36.293   2.319 -17.991  1.00  0.00    -0.646 OA
ENDBRANCH  14  19
ENDBRANCH  13  14
ENDBRANCH  12  13
ENDBRANCH   7  12
ENDBRANCH   6   7
ENDBRANCH   3   6
BRANCH   4  22
HETATM   22  O4  UNL     1     -43.409  -3.405 -13.916  1.00  0.00    -0.390 OA
ATOM     23  H4  UNL     1     -42.827  -4.154 -13.859  1.00  0.00     0.210 HD
ENDBRANCH   4  22
BRANCH   1  24
HETATM   24  N5  UNL     1     -44.468   0.914 -14.395  1.00  0.00    -0.297 N 
HETATM   25  C3  UNL     1     -44.041   1.684 -15.410  1.00  0.00     0.142 A 
HETATM   26  N3  UNL     1     -42.997   1.653 -16.259  1.00  0.00    -0.336 N 
HETATM   27  C4  UNL     1     -44.929   2.746 -15.571  1.00  0.00     0.119 A 
HETATM   28  C2  UNL     1     -42.763   2.544 -17.213  1.00  0.00     0.183 A 
ATOM     29  H3  UNL     1     -42.333   0.885 -16.160  1.00  0.00     0.168 HD
HETATM   30  N2  UNL     1     -43.603   3.565 -17.379  1.00  0.00    -0.339 N 
HETATM   31  C1  UNL     1     -44.689   3.674 -16.563  1.00  0.00     0.148 A 
ATOM     32  H2  UNL     1     -43.435   4.258 -18.109  1.00  0.00     0.167 HD
HETATM   33  N1  UNL     1     -45.551   4.773 -16.775  1.00  0.00    -0.080 NA
HETATM   34  N4  UNL     1     -45.876   2.594 -14.647  1.00  0.00    -0.346 N 
HETATM   35  C5  UNL     1     -45.595   1.476 -13.931  1.00  0.00     0.188 A 
ATOM     36  H4  UNL     1     -46.675   3.211 -14.503  1.00  0.00     0.167 HD
ENDBRANCH   1  24
BRANCH   5  37
HETATM   37  O5  UNL     1     -45.139  -2.005 -14.888  1.00  0.00    -0.388 OA
ATOM     38  H5  UNL     1     -45.184  -2.587 -14.138  1.00  0.00     0.210 HD
ENDBRANCH   5  37
TORSDOF 11
ENDMDL
