MODEL 16
REMARK VINA RESULT: -7.369056294      6.474      7.934
REMARK  11 active torsions:
REMARK  status: ('A' for Active; 'I' for Inactive)
REMARK    1  A    between atoms: N5_13  and  C6_14 
REMARK    2  A    between atoms: C7_16  and  C8_17 
REMARK    3  A    between atoms: C8_17  and  C9_18 
REMARK    4  A    between atoms: C9_18  and  N6_19 
REMARK    5  A    between atoms: C9_18  and  C10_23 
REMARK    6  A    between atoms: C10_23  and  C11_24 
REMARK    7  A    between atoms: C11_24  and  C12_25 
REMARK    8  A    between atoms: C12_25  and  N7_26 
REMARK    9  A    between atoms: C12_25  and  C13_30 
REMARK   10  A    between atoms: C14_33  and  O4_34 
REMARK   11  A    between atoms: C15_36  and  O5_37 
ROOT
HETATM    1  C6  UNL     1     -44.281   4.055 -19.925  1.00  0.00     0.262 C 
HETATM    2  O1  UNL     1     -43.238   4.682 -19.252  1.00  0.00    -0.355 OA
HETATM    3  C7  UNL     1     -43.888   5.629 -18.418  1.00  0.00     0.157 C 
HETATM    4  C14 UNL     1     -45.101   4.933 -17.911  1.00  0.00     0.180 C 
HETATM    5  C15 UNL     1     -45.245   3.739 -18.816  1.00  0.00     0.198 C 
ENDROOT
BRANCH   3   6
HETATM    6  C8  UNL     1     -42.878   6.045 -17.433  1.00  0.00     0.067 C 
BRANCH   6   7
HETATM    7  C9  UNL     1     -41.498   6.371 -17.869  1.00  0.00     0.186 C 
BRANCH   7   8
HETATM    8  N6  UNL     1     -40.721   5.137 -18.054  1.00  0.00    -0.075 N 
ATOM      9  H63 UNL     1     -40.164   4.909 -17.230  1.00  0.00     0.274 HD
ATOM     10  H62 UNL     1     -41.316   4.309 -18.066  1.00  0.00     0.274 HD
ATOM     11  H61 UNL     1     -40.147   5.205 -18.894  1.00  0.00     0.274 HD
ENDBRANCH   7   8
BRANCH   7  12
HETATM   12  C10 UNL     1     -41.306   7.267 -19.012  1.00  0.00     0.035 C 
BRANCH  12  13
HETATM   13  C11 UNL     1     -40.351   6.748 -20.037  1.00  0.00     0.046 C 
BRANCH  13  14
HETATM   14  C12 UNL     1     -40.860   6.442 -21.397  1.00  0.00     0.283 C 
BRANCH  14  15
HETATM   15  N7  UNL     1     -39.683   5.867 -22.126  1.00  0.00    -0.065 N 
ATOM     16  H73 UNL     1     -39.632   6.137 -23.109  1.00  0.00     0.275 HD
ATOM     17  H72 UNL     1     -38.788   6.270 -21.850  1.00  0.00     0.275 HD
ATOM     18  H71 UNL     1     -39.749   4.861 -21.975  1.00  0.00     0.275 HD
ENDBRANCH  14  15
BRANCH  14  19
HETATM   19  C13 UNL     1     -41.231   7.679 -22.130  1.00  0.00     0.204 C 
HETATM   20  O2  UNL     1     -40.345   8.501 -22.478  1.00  0.00    -0.646 OA
HETATM   21  O3  UNL     1     -42.533   8.009 -22.475  1.00  0.00    -0.646 OA
ENDBRANCH  14  19
ENDBRANCH  13  14
ENDBRANCH  12  13
ENDBRANCH   7  12
ENDBRANCH   6   7
ENDBRANCH   3   6
BRANCH   4  22
HETATM   22  O4  UNL     1     -46.269   5.684 -18.082  1.00  0.00    -0.390 OA
ATOM     23  H4  UNL     1     -46.507   6.176 -17.305  1.00  0.00     0.210 HD
ENDBRANCH   4  22
BRANCH   1  24
HETATM   24  N5  UNL     1     -43.882   2.864 -20.603  1.00  0.00    -0.297 N 
HETATM   25  C3  UNL     1     -44.593   2.137 -21.480  1.00  0.00     0.142 A 
HETATM   26  N3  UNL     1     -45.826   2.222 -22.014  1.00  0.00    -0.336 N 
HETATM   27  C4  UNL     1     -43.820   1.055 -21.897  1.00  0.00     0.119 A 
HETATM   28  C2  UNL     1     -46.339   1.366 -22.889  1.00  0.00     0.183 A 
ATOM     29  H3  UNL     1     -46.411   3.005 -21.725  1.00  0.00     0.168 HD
HETATM   30  N2  UNL     1     -45.611   0.327 -23.297  1.00  0.00    -0.339 N 
HETATM   31  C1  UNL     1     -44.350   0.164 -22.806  1.00  0.00     0.148 A 
ATOM     32  H2  UNL     1     -45.993  -0.339 -23.968  1.00  0.00     0.167 HD
HETATM   33  N1  UNL     1     -43.616  -0.952 -23.267  1.00  0.00    -0.080 NA
HETATM   34  N4  UNL     1     -42.653   1.154 -21.261  1.00  0.00    -0.346 N 
HETATM   35  C5  UNL     1     -42.692   2.257 -20.472  1.00  0.00     0.188 A 
ATOM     36  H4  UNL     1     -41.867   0.511 -21.351  1.00  0.00     0.167 HD
ENDBRANCH   1  24
BRANCH   5  37
HETATM   37  O5  UNL     1     -46.534   3.621 -19.334  1.00  0.00    -0.388 OA
ATOM     38  H5  UNL     1     -47.116   4.218 -18.880  1.00  0.00     0.210 HD
ENDBRANCH   5  37
TORSDOF 11
ENDMDL
