MODEL 2
REMARK VINA RESULT: -9.080981074      2.505      5.311
REMARK  15 active torsions:
REMARK  status: ('A' for Active; 'I' for Inactive)
REMARK    1  A    between atoms: C1_2  and  C2_4 
REMARK    2  A    between atoms: N2_6  and  C4_7 
REMARK    3  A    between atoms: C5_9  and  C6_10 
REMARK    4  A    between atoms: C6_10  and  O3_11 
REMARK    5  A    between atoms: O3_11  and  P1_12 
REMARK    6  A    between atoms: P1_12  and  O6_15 
REMARK    7  A    between atoms: O6_15  and  P2_16 
REMARK    8  A    between atoms: P2_16  and  O9_19 
REMARK    9  A    between atoms: O9_19  and  C7_20 
REMARK   10  A    between atoms: C7_20  and  C8_21 
REMARK   11  A    between atoms: C9_23  and  N3_24 
REMARK   12  A    between atoms: C15_37  and  O11_38 
REMARK   13  A    between atoms: C16_40  and  O12_41 
REMARK   14  A    between atoms: C17_43  and  O13_44 
REMARK   15  A    between atoms: C18_46  and  O14_47 
ROOT
HETATM    1  P2  UNL     1      42.878 -20.387  32.488  1.00  0.00     0.417 P 
HETATM    2  O7  UNL     1      44.134 -19.937  33.204  1.00  0.00    -0.624 OA
HETATM    3  O8  UNL     1      43.002 -19.976  30.880  1.00  0.00    -0.624 OA
ENDROOT
BRANCH   1   4
HETATM    4  O6  UNL     1      42.685 -22.028  32.758  1.00  0.00    -0.180 OA
BRANCH   4   5
HETATM    5  P1  UNL     1      43.293 -22.995  31.555  1.00  0.00     0.417 P 
HETATM    6  O4  UNL     1      44.737 -22.639  31.293  1.00  0.00    -0.624 OA
HETATM    7  O5  UNL     1      43.301 -24.605  32.137  1.00  0.00    -0.624 OA
BRANCH   5   8
HETATM    8  O3  UNL     1      42.379 -22.983  30.144  1.00  0.00    -0.287 OA
BRANCH   8   9
HETATM    9  C6  UNL     1      41.263 -23.760  30.333  1.00  0.00     0.216 C 
BRANCH   9  10
HETATM   10  C5  UNL     1      39.987 -23.083  29.892  1.00  0.00     0.180 C 
HETATM   11  O2  UNL     1      38.927 -23.508  30.690  1.00  0.00    -0.353 OA
HETATM   12  C4  UNL     1      37.913 -22.591  30.570  1.00  0.00     0.259 C 
HETATM   13  C18 UNL     1      38.529 -21.268  30.178  1.00  0.00     0.198 C 
HETATM   14  C17 UNL     1      40.010 -21.598  30.195  1.00  0.00     0.182 C 
BRANCH  12  15
HETATM   15  N2  UNL     1      37.196 -22.374  31.810  1.00  0.00    -0.337 N 
HETATM   16  C3  UNL     1      36.190 -21.382  31.869  1.00  0.00     0.105 A 
HETATM   17  C2  UNL     1      35.475 -21.109  32.971  1.00  0.00     0.026 A 
HETATM   18  C21 UNL     1      35.730 -21.872  34.214  1.00  0.00     0.073 A 
HETATM   19  C20 UNL     1      36.785 -22.885  34.088  1.00  0.00    -0.005 A 
HETATM   20  C19 UNL     1      37.472 -23.125  32.975  1.00  0.00     0.089 A 
BRANCH  17  21
HETATM   21  C1  UNL     1      34.461 -20.074  32.940  1.00  0.00     0.262 C 
HETATM   22  N1  UNL     1      34.462 -19.123  31.903  1.00  0.00    -0.057 NA
HETATM   23  O1  UNL     1      33.594 -20.031  33.831  1.00  0.00    -0.271 OA
ENDBRANCH  17  21
ENDBRANCH  12  15
BRANCH  13  24
HETATM   24  O14 UNL     1      38.109 -20.937  28.893  1.00  0.00    -0.388 OA
ATOM     25  H14 UNL     1      38.872 -20.830  28.337  1.00  0.00     0.210 HD
ENDBRANCH  13  24
BRANCH  14  26
HETATM   26  O13 UNL     1      40.659 -20.871  29.209  1.00  0.00    -0.390 OA
ATOM     27  H13 UNL     1      40.866 -19.988  29.491  1.00  0.00     0.210 HD
ENDBRANCH  14  26
ENDBRANCH   9  10
ENDBRANCH   8   9
ENDBRANCH   5   8
ENDBRANCH   4   5
ENDBRANCH   1   4
BRANCH   1  28
HETATM   28  O9  UNL     1      41.581 -19.584  33.263  1.00  0.00    -0.287 OA
BRANCH  28  29
HETATM   29  C7  UNL     1      42.102 -19.093  34.462  1.00  0.00     0.216 C 
BRANCH  29  30
HETATM   30  C8  UNL     1      41.627 -17.705  34.765  1.00  0.00     0.180 C 
HETATM   31  O10 UNL     1      41.308 -17.056  33.604  1.00  0.00    -0.353 OA
HETATM   32  C9  UNL     1      40.193 -16.292  33.786  1.00  0.00     0.262 C 
HETATM   33  C15 UNL     1      39.756 -16.371  35.206  1.00  0.00     0.198 C 
HETATM   34  C16 UNL     1      40.411 -17.680  35.665  1.00  0.00     0.182 C 
BRANCH  32  35
HETATM   35  N3  UNL     1      39.096 -16.700  32.914  1.00  0.00    -0.297 N 
HETATM   36  C10 UNL     1      37.794 -16.847  33.211  1.00  0.00     0.188 A 
HETATM   37  N4  UNL     1      37.126 -17.239  32.115  1.00  0.00    -0.346 N 
HETATM   38  C11 UNL     1      38.025 -17.335  31.125  1.00  0.00     0.119 A 
ATOM     39  H4  UNL     1      36.125 -17.426  32.048  1.00  0.00     0.167 HD
HETATM   40  C12 UNL     1      37.896 -17.691  29.803  1.00  0.00     0.148 A 
HETATM   41  C14 UNL     1      39.254 -17.003  31.609  1.00  0.00     0.142 A 
HETATM   42  N5  UNL     1      36.608 -18.036  29.309  1.00  0.00    -0.080 NA
HETATM   43  N6  UNL     1      38.975 -17.702  29.029  1.00  0.00    -0.339 N 
HETATM   44  C13 UNL     1      40.176 -17.374  29.513  1.00  0.00     0.183 A 
ATOM     45  H6  UNL     1      38.886 -17.967  28.048  1.00  0.00     0.167 HD
HETATM   46  N7  UNL     1      40.321 -17.024  30.800  1.00  0.00    -0.336 N 
ATOM     47  H7  UNL     1      41.242 -16.775  31.162  1.00  0.00     0.168 HD
ENDBRANCH  32  35
BRANCH  33  48
HETATM   48  O11 UNL     1      40.316 -15.304  35.942  1.00  0.00    -0.388 OA
ATOM     49  H11 UNL     1      39.657 -14.919  36.507  1.00  0.00     0.210 HD
ENDBRANCH  33  48
BRANCH  34  50
HETATM   50  O12 UNL     1      40.750 -17.649  36.998  1.00  0.00    -0.390 OA
ATOM     51  H12 UNL     1      41.302 -18.381  37.246  1.00  0.00     0.210 HD
ENDBRANCH  34  50
ENDBRANCH  29  30
ENDBRANCH  28  29
ENDBRANCH   1  28
TORSDOF 15
ENDMDL
