MODEL 1
REMARK VINA RESULT: -9.152754827      0.000      0.000
REMARK  15 active torsions:
REMARK  status: ('A' for Active; 'I' for Inactive)
REMARK    1  A    between atoms: C1_2  and  C2_4 
REMARK    2  A    between atoms: N2_6  and  C4_7 
REMARK    3  A    between atoms: C5_9  and  C6_10 
REMARK    4  A    between atoms: C6_10  and  O3_11 
REMARK    5  A    between atoms: O3_11  and  P1_12 
REMARK    6  A    between atoms: P1_12  and  O6_15 
REMARK    7  A    between atoms: O6_15  and  P2_16 
REMARK    8  A    between atoms: P2_16  and  O9_19 
REMARK    9  A    between atoms: O9_19  and  C7_20 
REMARK   10  A    between atoms: C7_20  and  C8_21 
REMARK   11  A    between atoms: C9_23  and  N3_24 
REMARK   12  A    between atoms: C15_37  and  O11_38 
REMARK   13  A    between atoms: C16_40  and  O12_41 
REMARK   14  A    between atoms: C17_43  and  O13_44 
REMARK   15  A    between atoms: C18_46  and  O14_47 
ROOT
HETATM    1  P2  UNL     1      39.340 -17.093  33.957  1.00  0.00     0.417 P 
HETATM    2  O7  UNL     1      38.037 -16.545  33.414  1.00  0.00    -0.624 OA
HETATM    3  O8  UNL     1      39.757 -16.230  35.318  1.00  0.00    -0.624 OA
ENDROOT
BRANCH   1   4
HETATM    4  O6  UNL     1      39.143 -18.734  34.226  1.00  0.00    -0.180 OA
BRANCH   4   5
HETATM    5  P1  UNL     1      40.409 -19.454  35.020  1.00  0.00     0.417 P 
HETATM    6  O4  UNL     1      40.785 -18.634  36.232  1.00  0.00    -0.624 OA
HETATM    7  O5  UNL     1      39.858 -20.959  35.620  1.00  0.00    -0.624 OA
BRANCH   5   8
HETATM    8  O3  UNL     1      41.738 -19.768  34.039  1.00  0.00    -0.287 OA
BRANCH   8   9
HETATM    9  C6  UNL     1      41.596 -21.018  33.488  1.00  0.00     0.216 C 
BRANCH   9  10
HETATM   10  C5  UNL     1      42.085 -21.095  32.062  1.00  0.00     0.180 C 
HETATM   11  O2  UNL     1      41.761 -22.336  31.518  1.00  0.00    -0.353 OA
HETATM   12  C4  UNL     1      41.815 -22.227  30.151  1.00  0.00     0.259 C 
HETATM   13  C18 UNL     1      41.579 -20.777  29.793  1.00  0.00     0.198 C 
HETATM   14  C17 UNL     1      41.309 -20.162  31.154  1.00  0.00     0.182 C 
BRANCH  12  15
HETATM   15  N2  UNL     1      40.790 -23.001  29.480  1.00  0.00    -0.337 N 
HETATM   16  C3  UNL     1      39.590 -22.370  29.079  1.00  0.00     0.105 A 
HETATM   17  C2  UNL     1      38.586 -23.003  28.455  1.00  0.00     0.026 A 
HETATM   18  C21 UNL     1      38.710 -24.447  28.153  1.00  0.00     0.073 A 
HETATM   19  C20 UNL     1      39.977 -25.044  28.595  1.00  0.00    -0.005 A 
HETATM   20  C19 UNL     1      40.949 -24.380  29.213  1.00  0.00     0.089 A 
BRANCH  17  21
HETATM   21  C1  UNL     1      37.390 -22.275  28.079  1.00  0.00     0.262 C 
HETATM   22  N1  UNL     1      36.606 -21.657  29.071  1.00  0.00    -0.057 NA
HETATM   23  O1  UNL     1      37.064 -22.198  26.881  1.00  0.00    -0.271 OA
ENDBRANCH  17  21
ENDBRANCH  12  15
BRANCH  13  24
HETATM   24  O14 UNL     1      42.742 -20.255  29.234  1.00  0.00    -0.388 OA
ATOM     25  H14 UNL     1      42.570 -19.370  28.935  1.00  0.00     0.210 HD
ENDBRANCH  13  24
BRANCH  14  26
HETATM   26  O13 UNL     1      41.805 -18.868  31.184  1.00  0.00    -0.390 OA
ATOM     27  H13 UNL     1      41.162 -18.243  31.500  1.00  0.00     0.210 HD
ENDBRANCH  14  26
ENDBRANCH   9  10
ENDBRANCH   8   9
ENDBRANCH   5   8
ENDBRANCH   4   5
ENDBRANCH   1   4
BRANCH   1  28
HETATM   28  O9  UNL     1      40.487 -16.913  32.701  1.00  0.00    -0.287 OA
BRANCH  28  29
HETATM   29  C7  UNL     1      39.973 -15.927  31.857  1.00  0.00     0.216 C 
BRANCH  29  30
HETATM   30  C8  UNL     1      39.526 -16.480  30.538  1.00  0.00     0.180 C 
HETATM   31  O10 UNL     1      39.048 -17.751  30.702  1.00  0.00    -0.353 OA
HETATM   32  C9  UNL     1      37.959 -17.947  29.907  1.00  0.00     0.262 C 
HETATM   33  C15 UNL     1      37.715 -16.734  29.080  1.00  0.00     0.198 C 
HETATM   34  C16 UNL     1      38.440 -15.651  29.888  1.00  0.00     0.182 C 
BRANCH  32  35
HETATM   35  N3  UNL     1      36.761 -18.262  30.679  1.00  0.00    -0.297 N 
HETATM   36  C10 UNL     1      35.571 -17.638  30.678  1.00  0.00     0.188 A 
HETATM   37  N4  UNL     1      34.742 -18.251  31.538  1.00  0.00    -0.346 N 
HETATM   38  C11 UNL     1      35.428 -19.269  32.078  1.00  0.00     0.119 A 
ATOM     39  H4  UNL     1      33.777 -17.993  31.741  1.00  0.00     0.167 HD
HETATM   40  C12 UNL     1      35.075 -20.219  33.008  1.00  0.00     0.148 A 
HETATM   41  C14 UNL     1      36.684 -19.286  31.553  1.00  0.00     0.142 A 
HETATM   42  N5  UNL     1      33.761 -20.191  33.551  1.00  0.00    -0.080 NA
HETATM   43  N6  UNL     1      35.969 -21.130  33.372  1.00  0.00    -0.339 N 
HETATM   44  C13 UNL     1      37.199 -21.139  32.850  1.00  0.00     0.183 A 
ATOM     45  H6  UNL     1      35.714 -21.835  34.063  1.00  0.00     0.167 HD
HETATM   46  N7  UNL     1      37.561 -20.221  31.941  1.00  0.00    -0.336 N 
ATOM     47  H7  UNL     1      38.502 -20.234  31.547  1.00  0.00     0.168 HD
ENDBRANCH  32  35
BRANCH  33  48
HETATM   48  O11 UNL     1      38.355 -16.868  27.829  1.00  0.00    -0.388 OA
ATOM     49  H11 UNL     1      39.159 -16.363  27.820  1.00  0.00     0.210 HD
ENDBRANCH  33  48
BRANCH  34  50
HETATM   50  O12 UNL     1      38.952 -14.661  29.082  1.00  0.00    -0.390 OA
ATOM     51  H12 UNL     1      38.590 -14.688  28.204  1.00  0.00     0.210 HD
ENDBRANCH  34  50
ENDBRANCH  29  30
ENDBRANCH  28  29
ENDBRANCH   1  28
TORSDOF 15
ENDMDL
