MODEL 3
REMARK VINA RESULT: -9.005142185      2.600      5.017
REMARK  15 active torsions:
REMARK  status: ('A' for Active; 'I' for Inactive)
REMARK    1  A    between atoms: C1_2  and  C2_4 
REMARK    2  A    between atoms: N2_6  and  C4_7 
REMARK    3  A    between atoms: C5_9  and  C6_10 
REMARK    4  A    between atoms: C6_10  and  O3_11 
REMARK    5  A    between atoms: O3_11  and  P1_12 
REMARK    6  A    between atoms: P1_12  and  O6_15 
REMARK    7  A    between atoms: O6_15  and  P2_16 
REMARK    8  A    between atoms: P2_16  and  O9_19 
REMARK    9  A    between atoms: O9_19  and  C7_20 
REMARK   10  A    between atoms: C7_20  and  C8_21 
REMARK   11  A    between atoms: C9_23  and  N3_24 
REMARK   12  A    between atoms: C15_37  and  O11_38 
REMARK   13  A    between atoms: C16_40  and  O12_41 
REMARK   14  A    between atoms: C17_43  and  O13_44 
REMARK   15  A    between atoms: C18_46  and  O14_47 
ROOT
HETATM    1  P2  UNL     1      41.904 -21.303  35.293  1.00  0.00     0.417 P 
HETATM    2  O7  UNL     1      43.140 -22.168  35.423  1.00  0.00    -0.624 OA
HETATM    3  O8  UNL     1      41.099 -21.726  33.899  1.00  0.00    -0.624 OA
ENDROOT
BRANCH   1   4
HETATM    4  O6  UNL     1      40.994 -21.483  36.687  1.00  0.00    -0.180 OA
BRANCH   4   5
HETATM    5  P1  UNL     1      39.385 -21.783  36.419  1.00  0.00     0.417 P 
HETATM    6  O4  UNL     1      39.206 -23.194  35.908  1.00  0.00    -0.624 OA
HETATM    7  O5  UNL     1      38.586 -21.723  37.931  1.00  0.00    -0.624 OA
BRANCH   5   8
HETATM    8  O3  UNL     1      38.639 -20.656  35.420  1.00  0.00    -0.287 OA
BRANCH   8   9
HETATM    9  C6  UNL     1      37.503 -21.216  34.889  1.00  0.00     0.216 C 
BRANCH   9  10
HETATM   10  C5  UNL     1      37.082 -20.582  33.586  1.00  0.00     0.180 C 
HETATM   11  O2  UNL     1      38.046 -20.825  32.609  1.00  0.00    -0.353 OA
HETATM   12  C4  UNL     1      37.462 -20.632  31.382  1.00  0.00     0.259 C 
HETATM   13  C18 UNL     1      35.975 -20.857  31.536  1.00  0.00     0.198 C 
HETATM   14  C17 UNL     1      35.874 -21.277  32.991  1.00  0.00     0.182 C 
BRANCH  12  15
HETATM   15  N2  UNL     1      37.931 -21.568  30.380  1.00  0.00    -0.337 N 
HETATM   16  C3  UNL     1      39.267 -22.027  30.425  1.00  0.00     0.105 A 
HETATM   17  C2  UNL     1      39.790 -22.891  29.542  1.00  0.00     0.026 A 
HETATM   18  C21 UNL     1      38.945 -23.414  28.445  1.00  0.00     0.073 A 
HETATM   19  C20 UNL     1      37.570 -22.900  28.452  1.00  0.00    -0.005 A 
HETATM   20  C19 UNL     1      37.089 -22.042  29.347  1.00  0.00     0.089 A 
BRANCH  17  21
HETATM   21  C1  UNL     1      41.173 -23.307  29.666  1.00  0.00     0.262 C 
HETATM   22  N1  UNL     1      42.205 -22.360  29.526  1.00  0.00    -0.057 NA
HETATM   23  O1  UNL     1      41.441 -24.500  29.896  1.00  0.00    -0.271 OA
ENDBRANCH  17  21
ENDBRANCH  12  15
BRANCH  13  24
HETATM   24  O14 UNL     1      35.312 -19.653  31.320  1.00  0.00    -0.388 OA
ATOM     25  H14 UNL     1      35.706 -18.981  31.864  1.00  0.00     0.210 HD
ENDBRANCH  13  24
BRANCH  14  26
HETATM   26  O13 UNL     1      34.683 -20.811  33.526  1.00  0.00    -0.390 OA
ATOM     27  H13 UNL     1      34.806 -20.393  34.370  1.00  0.00     0.210 HD
ENDBRANCH  14  26
ENDBRANCH   9  10
ENDBRANCH   8   9
ENDBRANCH   5   8
ENDBRANCH   4   5
ENDBRANCH   1   4
BRANCH   1  28
HETATM   28  O9  UNL     1      42.464 -19.686  35.251  1.00  0.00    -0.287 OA
BRANCH  28  29
HETATM   29  C7  UNL     1      41.824 -19.092  34.162  1.00  0.00     0.216 C 
BRANCH  29  30
HETATM   30  C8  UNL     1      41.467 -17.660  34.420  1.00  0.00     0.180 C 
HETATM   31  O10 UNL     1      41.115 -17.047  33.249  1.00  0.00    -0.353 OA
HETATM   32  C9  UNL     1      40.070 -16.198  33.461  1.00  0.00     0.262 C 
HETATM   33  C15 UNL     1      39.726 -16.175  34.909  1.00  0.00     0.198 C 
HETATM   34  C16 UNL     1      40.319 -17.504  35.394  1.00  0.00     0.182 C 
BRANCH  32  35
HETATM   35  N3  UNL     1      38.891 -16.567  32.684  1.00  0.00    -0.297 N 
HETATM   36  C10 UNL     1      37.652 -16.853  33.118  1.00  0.00     0.188 A 
HETATM   37  N4  UNL     1      36.866 -17.144  32.070  1.00  0.00    -0.346 N 
HETATM   38  C11 UNL     1      37.627 -17.036  30.972  1.00  0.00     0.119 A 
ATOM     39  H4  UNL     1      35.878 -17.397  32.103  1.00  0.00     0.167 HD
HETATM   40  C12 UNL     1      37.342 -17.219  29.639  1.00  0.00     0.148 A 
HETATM   41  C14 UNL     1      38.889 -16.679  31.340  1.00  0.00     0.142 A 
HETATM   42  N5  UNL     1      36.021 -17.593  29.266  1.00  0.00    -0.080 NA
HETATM   43  N6  UNL     1      38.305 -17.044  28.743  1.00  0.00    -0.339 N 
HETATM   44  C13 UNL     1      39.540 -16.692  29.114  1.00  0.00     0.183 A 
ATOM     45  H6  UNL     1      38.100 -17.180  27.753  1.00  0.00     0.167 HD
HETATM   46  N7  UNL     1      39.836 -16.509  30.409  1.00  0.00    -0.336 N 
ATOM     47  H7  UNL     1      40.781 -16.241  30.684  1.00  0.00     0.168 HD
ENDBRANCH  32  35
BRANCH  33  48
HETATM   48  O11 UNL     1      40.407 -15.117  35.548  1.00  0.00    -0.388 OA
ATOM     49  H11 UNL     1      41.243 -15.422  35.879  1.00  0.00     0.210 HD
ENDBRANCH  33  48
BRANCH  34  50
HETATM   50  O12 UNL     1      40.750 -17.432  36.699  1.00  0.00    -0.390 OA
ATOM     51  H12 UNL     1      41.475 -16.828  36.805  1.00  0.00     0.210 HD
ENDBRANCH  34  50
ENDBRANCH  29  30
ENDBRANCH  28  29
ENDBRANCH   1  28
TORSDOF 15
ENDMDL
