MODEL 12
REMARK VINA RESULT: -6.656883752      1.446      2.397
REMARK  6 active torsions:
REMARK  status: ('A' for Active; 'I' for Inactive)
REMARK    1  A    between atoms: N5_13  and  C6_14 
REMARK    2  A    between atoms: C7_16  and  C8_17 
REMARK    3  A    between atoms: C8_17  and  O2_18 
REMARK    4  A    between atoms: O2_18  and  P1_19 
REMARK    5  A    between atoms: C9_23  and  O6_24 
REMARK    6  A    between atoms: C10_26  and  O7_27 
ROOT
HETATM    1  C6  UNL     1      16.727   9.691   6.100  1.00  0.00     0.262 C 
HETATM    2  O1  UNL     1      17.215   9.814   7.370  1.00  0.00    -0.353 OA
HETATM    3  C7  UNL     1      16.198  10.023   8.253  1.00  0.00     0.180 C 
HETATM    4  C9  UNL     1      14.914  10.216   7.473  1.00  0.00     0.182 C 
HETATM    5  C10 UNL     1      15.236   9.518   6.179  1.00  0.00     0.198 C 
ENDROOT
BRANCH   1   6
HETATM    6  N5  UNL     1      17.370   8.601   5.434  1.00  0.00    -0.297 N 
HETATM    7  C3  UNL     1      17.522   7.312   5.842  1.00  0.00     0.142 A 
HETATM    8  N3  UNL     1      17.115   6.722   6.966  1.00  0.00    -0.336 N 
HETATM    9  C4  UNL     1      18.212   6.592   4.881  1.00  0.00     0.119 A 
HETATM   10  C2  UNL     1      17.393   5.416   7.135  1.00  0.00     0.183 A 
ATOM     11  H3  UNL     1      16.607   7.246   7.678  1.00  0.00     0.168 HD
HETATM   12  N2  UNL     1      18.068   4.687   6.208  1.00  0.00    -0.339 N 
HETATM   13  C1  UNL     1      18.495   5.248   5.062  1.00  0.00     0.148 A 
ATOM     14  H2  UNL     1      18.255   3.700   6.384  1.00  0.00     0.167 HD
HETATM   15  N1  UNL     1      19.206   4.541   4.054  1.00  0.00    -0.080 NA
HETATM   16  N4  UNL     1      18.470   7.464   3.898  1.00  0.00    -0.346 N 
HETATM   17  C5  UNL     1      17.965   8.664   4.230  1.00  0.00     0.188 A 
ATOM     18  H4  UNL     1      18.970   7.250   3.035  1.00  0.00     0.167 HD
ENDBRANCH   1   6
BRANCH   5  19
HETATM   19  O7  UNL     1      14.556  10.155   5.149  1.00  0.00    -0.388 OA
ATOM     20  H7  UNL     1      13.657  10.366   5.368  1.00  0.00     0.210 HD
ENDBRANCH   5  19
BRANCH   3  21
HETATM   21  C8  UNL     1      15.991   8.760   9.091  1.00  0.00     0.217 C 
BRANCH  21  22
HETATM   22  O2  UNL     1      14.683   8.579   9.342  1.00  0.00    -0.280 OA
BRANCH  22  23
HETATM   23  P1  UNL     1      13.938   7.192   9.098  1.00  0.00     0.422 P 
HETATM   24  O3  UNL     1      13.249   6.330  10.377  1.00  0.00    -0.617 OA
HETATM   25  O4  UNL     1      14.025   6.371   7.635  1.00  0.00    -0.617 OA
HETATM   26  O5  UNL     1      12.584   7.780   8.743  1.00  0.00    -0.617 OA
ENDBRANCH  22  23
ENDBRANCH  21  22
ENDBRANCH   3  21
BRANCH   4  27
HETATM   27  O6  UNL     1      14.752  11.562   7.216  1.00  0.00    -0.390 OA
ATOM     28  H6  UNL     1      15.542  11.890   6.803  1.00  0.00     0.210 HD
ENDBRANCH   4  27
TORSDOF 6
ENDMDL
