MODEL 4
REMARK VINA RESULT: -7.338281480      1.835      3.239
REMARK  6 active torsions:
REMARK  status: ('A' for Active; 'I' for Inactive)
REMARK    1  A    between atoms: N5_13  and  C6_14 
REMARK    2  A    between atoms: C7_16  and  C8_17 
REMARK    3  A    between atoms: C8_17  and  O2_18 
REMARK    4  A    between atoms: O2_18  and  P1_19 
REMARK    5  A    between atoms: C9_23  and  O6_24 
REMARK    6  A    between atoms: C10_26  and  O7_27 
ROOT
HETATM    1  C6  UNL     1      18.169   6.932   5.900  1.00  0.00     0.262 C 
HETATM    2  O1  UNL     1      17.162   6.464   6.696  1.00  0.00    -0.353 OA
HETATM    3  C7  UNL     1      17.418   6.750   8.004  1.00  0.00     0.180 C 
HETATM    4  C9  UNL     1      18.815   7.328   8.106  1.00  0.00     0.182 C 
HETATM    5  C10 UNL     1      19.029   7.858   6.714  1.00  0.00     0.198 C 
ENDROOT
BRANCH   1   6
HETATM    6  N5  UNL     1      17.619   7.570   4.744  1.00  0.00    -0.297 N 
HETATM    7  C3  UNL     1      17.682   7.190   3.440  1.00  0.00     0.142 A 
HETATM    8  N3  UNL     1      18.270   6.127   2.890  1.00  0.00    -0.336 N 
HETATM    9  C4  UNL     1      17.008   8.106   2.649  1.00  0.00     0.119 A 
HETATM   10  C2  UNL     1      18.188   5.974   1.556  1.00  0.00     0.183 A 
ATOM     11  H3  UNL     1      18.769   5.449   3.466  1.00  0.00     0.168 HD
HETATM   12  N2  UNL     1      17.533   6.858   0.758  1.00  0.00    -0.339 N 
HETATM   13  C1  UNL     1      16.928   7.942   1.275  1.00  0.00     0.148 A 
ATOM     14  H2  UNL     1      17.500   6.698  -0.249  1.00  0.00     0.167 HD
HETATM   15  N1  UNL     1      16.228   8.903   0.496  1.00  0.00    -0.080 NA
HETATM   16  N4  UNL     1      16.543   9.035   3.495  1.00  0.00    -0.346 N 
HETATM   17  C5  UNL     1      16.909   8.712   4.746  1.00  0.00     0.188 A 
ATOM     18  H4  UNL     1      15.999   9.856   3.230  1.00  0.00     0.167 HD
ENDBRANCH   1   6
BRANCH   5  19
HETATM   19  O7  UNL     1      20.380   7.762   6.404  1.00  0.00    -0.388 OA
ATOM     20  H7  UNL     1      20.565   7.920   5.486  1.00  0.00     0.210 HD
ENDBRANCH   5  19
BRANCH   3  21
HETATM   21  C8  UNL     1      16.473   7.857   8.472  1.00  0.00     0.217 C 
BRANCH  21  22
HETATM   22  O2  UNL     1      15.426   7.327   9.126  1.00  0.00    -0.280 OA
BRANCH  22  23
HETATM   23  P1  UNL     1      14.026   7.031   8.423  1.00  0.00     0.422 P 
HETATM   24  O3  UNL     1      12.628   7.871   8.864  1.00  0.00    -0.617 OA
HETATM   25  O4  UNL     1      13.789   5.705   7.419  1.00  0.00    -0.617 OA
HETATM   26  O5  UNL     1      14.227   7.956   7.236  1.00  0.00    -0.617 OA
ENDBRANCH  22  23
ENDBRANCH  21  22
ENDBRANCH   3  21
BRANCH   4  27
HETATM   27  O6  UNL     1      19.705   6.297   8.325  1.00  0.00    -0.390 OA
ATOM     28  H6  UNL     1      19.757   6.133   9.259  1.00  0.00     0.210 HD
ENDBRANCH   4  27
TORSDOF 6
ENDMDL
