MODEL 7
REMARK VINA RESULT: -7.036606627      2.813      4.867
REMARK  6 active torsions:
REMARK  status: ('A' for Active; 'I' for Inactive)
REMARK    1  A    between atoms: N5_13  and  C6_14 
REMARK    2  A    between atoms: C7_16  and  C8_17 
REMARK    3  A    between atoms: C8_17  and  O2_18 
REMARK    4  A    between atoms: O2_18  and  P1_19 
REMARK    5  A    between atoms: C9_23  and  O6_24 
REMARK    6  A    between atoms: C10_26  and  O7_27 
ROOT
HETATM    1  C6  UNL     1      17.982   7.728   2.167  1.00  0.00     0.262 C 
HETATM    2  O1  UNL     1      17.810   8.879   2.881  1.00  0.00    -0.353 OA
HETATM    3  C7  UNL     1      16.641   9.487   2.530  1.00  0.00     0.180 C 
HETATM    4  C9  UNL     1      16.050   8.747   1.347  1.00  0.00     0.182 C 
HETATM    5  C10 UNL     1      16.684   7.390   1.489  1.00  0.00     0.198 C 
ENDROOT
BRANCH   1   6
HETATM    6  N5  UNL     1      18.437   6.683   3.030  1.00  0.00    -0.297 N 
HETATM    7  C3  UNL     1      18.913   6.763   4.302  1.00  0.00     0.142 A 
HETATM    8  N3  UNL     1      19.083   7.832   5.081  1.00  0.00    -0.336 N 
HETATM    9  C4  UNL     1      19.241   5.499   4.763  1.00  0.00     0.119 A 
HETATM   10  C2  UNL     1      19.578   7.645   6.318  1.00  0.00     0.183 A 
ATOM     11  H3  UNL     1      18.845   8.766   4.748  1.00  0.00     0.168 HD
HETATM   12  N2  UNL     1      19.907   6.415   6.794  1.00  0.00    -0.339 N 
HETATM   13  C1  UNL     1      19.750   5.313   6.039  1.00  0.00     0.148 A 
ATOM     14  H2  UNL     1      20.279   6.325   7.740  1.00  0.00     0.167 HD
HETATM   15  N1  UNL     1      20.075   4.001   6.477  1.00  0.00    -0.080 NA
HETATM   16  N4  UNL     1      18.955   4.665   3.755  1.00  0.00    -0.346 N 
HETATM   17  C5  UNL     1      18.475   5.374   2.720  1.00  0.00     0.188 A 
ATOM     18  H4  UNL     1      19.083   3.653   3.770  1.00  0.00     0.167 HD
ENDBRANCH   1   6
BRANCH   5  19
HETATM   19  O7  UNL     1      16.855   6.844   0.222  1.00  0.00    -0.388 OA
ATOM     20  H7  UNL     1      16.890   7.499  -0.465  1.00  0.00     0.210 HD
ENDBRANCH   5  19
BRANCH   3  21
HETATM   21  C8  UNL     1      15.631   9.331   3.666  1.00  0.00     0.217 C 
BRANCH  21  22
HETATM   22  O2  UNL     1      16.270   9.148   4.834  1.00  0.00    -0.280 OA
BRANCH  22  23
HETATM   23  P1  UNL     1      15.592   9.433   6.248  1.00  0.00     0.422 P 
HETATM   24  O3  UNL     1      16.158  10.662   7.260  1.00  0.00    -0.617 OA
HETATM   25  O4  UNL     1      14.477   8.382   6.936  1.00  0.00    -0.617 OA
HETATM   26  O5  UNL     1      14.491  10.342   5.733  1.00  0.00    -0.617 OA
ENDBRANCH  22  23
ENDBRANCH  21  22
ENDBRANCH   3  21
BRANCH   4  27
HETATM   27  O6  UNL     1      16.514   9.329   0.185  1.00  0.00    -0.390 OA
ATOM     28  H6  UNL     1      17.463   9.340   0.209  1.00  0.00     0.210 HD
ENDBRANCH   4  27
TORSDOF 6
ENDMDL
