MODEL 3
REMARK VINA RESULT: -7.392120235      2.015      3.583
REMARK  6 active torsions:
REMARK  status: ('A' for Active; 'I' for Inactive)
REMARK    1  A    between atoms: N5_13  and  C6_14 
REMARK    2  A    between atoms: C7_16  and  C8_17 
REMARK    3  A    between atoms: C8_17  and  O2_18 
REMARK    4  A    between atoms: O2_18  and  P1_19 
REMARK    5  A    between atoms: C9_23  and  O6_24 
REMARK    6  A    between atoms: C10_26  and  O7_27 
ROOT
HETATM    1  C6  UNL     1      18.034   6.993   5.925  1.00  0.00     0.262 C 
HETATM    2  O1  UNL     1      17.165   7.176   6.963  1.00  0.00    -0.353 OA
HETATM    3  C7  UNL     1      17.842   7.508   8.098  1.00  0.00     0.180 C 
HETATM    4  C9  UNL     1      19.328   7.380   7.828  1.00  0.00     0.182 C 
HETATM    5  C10 UNL     1      19.379   7.527   6.331  1.00  0.00     0.198 C 
ENDROOT
BRANCH   1   6
HETATM    6  N5  UNL     1      17.526   7.627   4.747  1.00  0.00    -0.297 N 
HETATM    7  C3  UNL     1      17.635   7.241   3.448  1.00  0.00     0.142 A 
HETATM    8  N3  UNL     1      18.241   6.175   2.924  1.00  0.00    -0.336 N 
HETATM    9  C4  UNL     1      16.991   8.155   2.630  1.00  0.00     0.119 A 
HETATM   10  C2  UNL     1      18.207   6.016   1.589  1.00  0.00     0.183 A 
ATOM     11  H3  UNL     1      18.718   5.499   3.521  1.00  0.00     0.168 HD
HETATM   12  N2  UNL     1      17.581   6.898   0.764  1.00  0.00    -0.339 N 
HETATM   13  C1  UNL     1      16.959   7.985   1.255  1.00  0.00     0.148 A 
ATOM     14  H2  UNL     1      17.584   6.732  -0.243  1.00  0.00     0.167 HD
HETATM   15  N1  UNL     1      16.289   8.943   0.447  1.00  0.00    -0.080 NA
HETATM   16  N4  UNL     1      16.497   9.087   3.454  1.00  0.00    -0.346 N 
HETATM   17  C5  UNL     1      16.818   8.770   4.720  1.00  0.00     0.188 A 
ATOM     18  H4  UNL     1      15.964   9.908   3.167  1.00  0.00     0.167 HD
ENDBRANCH   1   6
BRANCH   5  19
HETATM   19  O7  UNL     1      20.437   6.768   5.845  1.00  0.00    -0.388 OA
ATOM     20  H7  UNL     1      21.287   7.130   6.065  1.00  0.00     0.210 HD
ENDBRANCH   5  19
BRANCH   3  21
HETATM   21  C8  UNL     1      17.602   8.985   8.414  1.00  0.00     0.217 C 
BRANCH  21  22
HETATM   22  O2  UNL     1      16.419   9.141   9.031  1.00  0.00    -0.280 OA
BRANCH  22  23
HETATM   23  P1  UNL     1      15.094   9.584   8.264  1.00  0.00     0.422 P 
HETATM   24  O3  UNL     1      13.858   8.479   7.939  1.00  0.00    -0.617 OA
HETATM   25  O4  UNL     1      14.956  11.072   7.498  1.00  0.00    -0.617 OA
HETATM   26  O5  UNL     1      14.345  10.087   9.485  1.00  0.00    -0.617 OA
ENDBRANCH  22  23
ENDBRANCH  21  22
ENDBRANCH   3  21
BRANCH   4  27
HETATM   27  O6  UNL     1      19.727   6.100   8.156  1.00  0.00    -0.390 OA
ATOM     28  H6  UNL     1      19.773   6.030   9.102  1.00  0.00     0.210 HD
ENDBRANCH   4  27
TORSDOF 6
ENDMDL
