MODEL 8
REMARK VINA RESULT: -7.024486920      4.110      6.255
REMARK  6 active torsions:
REMARK  status: ('A' for Active; 'I' for Inactive)
REMARK    1  A    between atoms: N5_13  and  C6_14 
REMARK    2  A    between atoms: C7_16  and  C8_17 
REMARK    3  A    between atoms: C8_17  and  O2_18 
REMARK    4  A    between atoms: O2_18  and  P1_19 
REMARK    5  A    between atoms: C9_23  and  O6_24 
REMARK    6  A    between atoms: C10_26  and  O7_27 
ROOT
HETATM    1  C6  UNL     1      19.296   7.548   6.693  1.00  0.00     0.262 C 
HETATM    2  O1  UNL     1      19.543   7.668   5.355  1.00  0.00    -0.353 OA
HETATM    3  C7  UNL     1      19.699   6.439   4.787  1.00  0.00     0.180 C 
HETATM    4  C9  UNL     1      19.713   5.398   5.888  1.00  0.00     0.182 C 
HETATM    5  C10 UNL     1      18.976   6.110   6.990  1.00  0.00     0.198 C 
ENDROOT
BRANCH   1   6
HETATM    6  N5  UNL     1      18.241   8.434   7.075  1.00  0.00    -0.297 N 
HETATM    7  C3  UNL     1      17.223   8.935   6.324  1.00  0.00     0.142 A 
HETATM    8  N3  UNL     1      16.939   8.737   5.036  1.00  0.00    -0.336 N 
HETATM    9  C4  UNL     1      16.425   9.759   7.101  1.00  0.00     0.119 A 
HETATM   10  C2  UNL     1      15.861   9.356   4.521  1.00  0.00     0.183 A 
ATOM     11  H3  UNL     1      17.522   8.132   4.458  1.00  0.00     0.168 HD
HETATM   12  N2  UNL     1      15.062  10.169   5.262  1.00  0.00    -0.339 N 
HETATM   13  C1  UNL     1      15.317  10.393   6.563  1.00  0.00     0.148 A 
ATOM     14  H2  UNL     1      14.256  10.616   4.823  1.00  0.00     0.167 HD
HETATM   15  N1  UNL     1      14.521  11.231   7.391  1.00  0.00    -0.080 NA
HETATM   16  N4  UNL     1      16.977   9.743   8.321  1.00  0.00    -0.346 N 
HETATM   17  C5  UNL     1      18.061   8.950   8.304  1.00  0.00     0.188 A 
ATOM     18  H4  UNL     1      16.628  10.252   9.133  1.00  0.00     0.167 HD
ENDBRANCH   1   6
BRANCH   5  19
HETATM   19  O7  UNL     1      19.479   5.679   8.211  1.00  0.00    -0.388 OA
ATOM     20  H7  UNL     1      19.060   4.889   8.531  1.00  0.00     0.210 HD
ENDBRANCH   5  19
BRANCH   3  21
HETATM   21  C8  UNL     1      18.473   6.122   3.929  1.00  0.00     0.217 C 
BRANCH  21  22
HETATM   22  O2  UNL     1      18.221   7.137   3.087  1.00  0.00    -0.280 OA
BRANCH  22  23
HETATM   23  P1  UNL     1      17.793   6.916   1.567  1.00  0.00     0.422 P 
HETATM   24  O3  UNL     1      17.087   5.469   1.056  1.00  0.00    -0.617 OA
HETATM   25  O4  UNL     1      18.257   7.968   0.342  1.00  0.00    -0.617 OA
HETATM   26  O5  UNL     1      16.426   7.566   1.674  1.00  0.00    -0.617 OA
ENDBRANCH  22  23
ENDBRANCH  21  22
ENDBRANCH   3  21
BRANCH   4  27
HETATM   27  O6  UNL     1      21.018   5.199   6.290  1.00  0.00    -0.390 OA
ATOM     28  H6  UNL     1      21.509   4.842   5.560  1.00  0.00     0.210 HD
ENDBRANCH   4  27
TORSDOF 6
ENDMDL
