MODEL 11
REMARK VINA RESULT: -4.375526436      1.294      1.294
REMARK  5 active torsions:
REMARK  status: ('A' for Active; 'I' for Inactive)
REMARK    1  A    between atoms: O1_1  and  C1_3 
REMARK    2  A    between atoms: C1_3  and  C2_4 
REMARK    3  A    between atoms: C3_6  and  O3_7 
REMARK    4  A    between atoms: C4_9  and  O4_10 
REMARK    5  A    between atoms: C5_12  and  O5_13 
ROOT
HETATM    1  C2  UNL     1       7.049   7.379  14.892  1.00  0.00     0.179 C 
HETATM    2  O2  UNL     1       8.370   7.064  14.687  1.00  0.00    -0.349 OA
HETATM    3  C3  UNL     1       8.979   8.290  14.448  1.00  0.00     0.288 C 
HETATM    4  C4  UNL     1       8.261   9.326  15.250  1.00  0.00     0.204 C 
HETATM    5  C5  UNL     1       7.174   8.490  15.937  1.00  0.00     0.182 C 
ENDROOT
BRANCH   1   6
HETATM    6  C1  UNL     1       6.225   6.235  15.407  1.00  0.00     0.198 C 
BRANCH   6   7
HETATM    7  O1  UNL     1       7.064   5.328  16.029  1.00  0.00    -0.398 OA
ATOM      8  H1  UNL     1       7.024   4.503  15.558  1.00  0.00     0.209 HD
ENDBRANCH   6   7
ENDBRANCH   1   6
BRANCH   5   9
HETATM    9  O5  UNL     1       6.008   9.187  16.108  1.00  0.00    -0.390 OA
ATOM     10  H5  UNL     1       5.353   8.970  15.454  1.00  0.00     0.210 HD
ENDBRANCH   5   9
BRANCH   3  11
HETATM   11  O3  UNL     1      10.333   8.287  14.744  1.00  0.00    -0.369 OA
ATOM     12  H3  UNL     1      10.509   8.319  15.677  1.00  0.00     0.212 HD
ENDBRANCH   3  11
BRANCH   4  13
HETATM   13  O4  UNL     1       9.050   9.995  16.151  1.00  0.00    -0.388 OA
ATOM     14  H4  UNL     1       9.003   9.661  17.039  1.00  0.00     0.210 HD
ENDBRANCH   4  13
TORSDOF 5
ENDMDL
