MODEL 14
REMARK VINA RESULT: -4.073289073      7.836      9.051
REMARK  5 active torsions:
REMARK  status: ('A' for Active; 'I' for Inactive)
REMARK    1  A    between atoms: O1_1  and  C1_3 
REMARK    2  A    between atoms: C1_3  and  C2_4 
REMARK    3  A    between atoms: C3_6  and  O3_7 
REMARK    4  A    between atoms: C4_9  and  O4_10 
REMARK    5  A    between atoms: C5_12  and  O5_13 
ROOT
HETATM    1  C2  UNL     1       3.687  14.206  16.898  1.00  0.00     0.179 C 
HETATM    2  O2  UNL     1       2.421  13.749  17.175  1.00  0.00    -0.349 OA
HETATM    3  C3  UNL     1       2.331  13.817  18.560  1.00  0.00     0.288 C 
HETATM    4  C4  UNL     1       3.150  14.979  19.019  1.00  0.00     0.204 C 
HETATM    5  C5  UNL     1       3.705  15.513  17.693  1.00  0.00     0.182 C 
ENDROOT
BRANCH   1   6
HETATM    6  C1  UNL     1       3.938  14.451  15.438  1.00  0.00     0.198 C 
BRANCH   6   7
HETATM    7  O1  UNL     1       4.922  13.582  15.004  1.00  0.00    -0.398 OA
ATOM      8  H1  UNL     1       4.511  12.772  14.724  1.00  0.00     0.209 HD
ENDBRANCH   6   7
ENDBRANCH   1   6
BRANCH   5   9
HETATM    9  O5  UNL     1       4.964  16.033  17.825  1.00  0.00    -0.390 OA
ATOM     10  H5  UNL     1       5.350  15.847  18.673  1.00  0.00     0.210 HD
ENDBRANCH   5   9
BRANCH   3  11
HETATM   11  O3  UNL     1       1.024  13.924  19.011  1.00  0.00    -0.369 OA
ATOM     12  H3  UNL     1       0.834  14.771  19.397  1.00  0.00     0.212 HD
ENDBRANCH   3  11
BRANCH   4  13
HETATM   13  O4  UNL     1       2.446  15.932  19.711  1.00  0.00    -0.388 OA
ATOM     14  H4  UNL     1       2.757  16.086  20.596  1.00  0.00     0.210 HD
ENDBRANCH   4  13
TORSDOF 5
ENDMDL
