MODEL 13
REMARK VINA RESULT: -4.144177591      7.549      8.745
REMARK  5 active torsions:
REMARK  status: ('A' for Active; 'I' for Inactive)
REMARK    1  A    between atoms: O1_1  and  C1_3 
REMARK    2  A    between atoms: C1_3  and  C2_4 
REMARK    3  A    between atoms: C3_6  and  O3_7 
REMARK    4  A    between atoms: C4_9  and  O4_10 
REMARK    5  A    between atoms: C5_12  and  O5_13 
ROOT
HETATM    1  C2  UNL     1       4.993  15.451  15.985  1.00  0.00     0.179 C 
HETATM    2  O2  UNL     1       5.220  15.666  17.323  1.00  0.00    -0.349 OA
HETATM    3  C3  UNL     1       3.965  15.535  17.907  1.00  0.00     0.288 C 
HETATM    4  C4  UNL     1       3.197  14.521  17.124  1.00  0.00     0.204 C 
HETATM    5  C5  UNL     1       4.204  14.141  16.032  1.00  0.00     0.182 C 
ENDROOT
BRANCH   1   6
HETATM    6  C1  UNL     1       6.247  15.306  15.173  1.00  0.00     0.198 C 
BRANCH   6   7
HETATM    7  O1  UNL     1       7.258  16.026  15.783  1.00  0.00    -0.398 OA
ATOM      8  H1  UNL     1       7.470  16.775  15.238  1.00  0.00     0.209 HD
ENDBRANCH   6   7
ENDBRANCH   1   6
BRANCH   5   9
HETATM    9  O5  UNL     1       3.598  13.848  14.840  1.00  0.00    -0.390 OA
ATOM     10  H5  UNL     1       2.666  13.689  14.932  1.00  0.00     0.210 HD
ENDBRANCH   5   9
BRANCH   3  11
HETATM   11  O3  UNL     1       4.027  15.182  19.246  1.00  0.00    -0.369 OA
ATOM     12  H3  UNL     1       3.195  14.876  19.587  1.00  0.00     0.212 HD
ENDBRANCH   3  11
BRANCH   4  13
HETATM   13  O4  UNL     1       2.784  13.435  17.852  1.00  0.00    -0.388 OA
ATOM     14  H4  UNL     1       3.174  12.610  17.585  1.00  0.00     0.210 HD
ENDBRANCH   4  13
TORSDOF 5
ENDMDL
