MODEL 16
REMARK VINA RESULT: -4.027296052      1.482      1.960
REMARK  5 active torsions:
REMARK  status: ('A' for Active; 'I' for Inactive)
REMARK    1  A    between atoms: O1_1  and  C1_3 
REMARK    2  A    between atoms: C1_3  and  C2_4 
REMARK    3  A    between atoms: C3_6  and  O3_7 
REMARK    4  A    between atoms: C4_9  and  O4_10 
REMARK    5  A    between atoms: C5_12  and  O5_13 
ROOT
HETATM    1  C2  UNL     1       6.525   7.822  15.965  1.00  0.00     0.179 C 
HETATM    2  O2  UNL     1       7.263   8.730  15.246  1.00  0.00    -0.349 OA
HETATM    3  C3  UNL     1       8.071   9.342  16.198  1.00  0.00     0.288 C 
HETATM    4  C4  UNL     1       8.390   8.330  17.250  1.00  0.00     0.204 C 
HETATM    5  C5  UNL     1       7.629   7.100  16.741  1.00  0.00     0.182 C 
ENDROOT
BRANCH   1   6
HETATM    6  C1  UNL     1       5.742   6.866  15.112  1.00  0.00     0.198 C 
BRANCH   6   7
HETATM    7  O1  UNL     1       6.403   5.651  15.085  1.00  0.00    -0.398 OA
ATOM      8  H1  UNL     1       6.024   5.113  14.400  1.00  0.00     0.209 HD
ENDBRANCH   6   7
ENDBRANCH   1   6
BRANCH   5   9
HETATM    9  O5  UNL     1       7.139   6.329  17.761  1.00  0.00    -0.390 OA
ATOM     10  H5  UNL     1       7.801   5.770  18.148  1.00  0.00     0.210 HD
ENDBRANCH   5   9
BRANCH   3  11
HETATM   11  O3  UNL     1       9.231   9.876  15.658  1.00  0.00    -0.369 OA
ATOM     12  H3  UNL     1       9.069  10.637  15.113  1.00  0.00     0.212 HD
ENDBRANCH   3  11
BRANCH   4  13
HETATM   13  O4  UNL     1       9.729   8.083  17.413  1.00  0.00    -0.388 OA
ATOM     14  H4  UNL     1      10.280   8.856  17.371  1.00  0.00     0.210 HD
ENDBRANCH   4  13
TORSDOF 5
ENDMDL
