MODEL 19
REMARK VINA RESULT: -3.996466393      4.780      5.600
REMARK  5 active torsions:
REMARK  status: ('A' for Active; 'I' for Inactive)
REMARK    1  A    between atoms: O1_1  and  C1_3 
REMARK    2  A    between atoms: C1_3  and  C2_4 
REMARK    3  A    between atoms: C3_6  and  O3_7 
REMARK    4  A    between atoms: C4_9  and  O4_10 
REMARK    5  A    between atoms: C5_12  and  O5_13 
ROOT
HETATM    1  C2  UNL     1       4.410  10.972  14.125  1.00  0.00     0.179 C 
HETATM    2  O2  UNL     1       5.497  10.382  14.722  1.00  0.00    -0.349 OA
HETATM    3  C3  UNL     1       6.080   9.634  13.706  1.00  0.00     0.288 C 
HETATM    4  C4  UNL     1       5.855  10.355  12.417  1.00  0.00     0.204 C 
HETATM    5  C5  UNL     1       5.057  11.580  12.879  1.00  0.00     0.182 C 
ENDROOT
BRANCH   1   6
HETATM    6  C1  UNL     1       3.751  12.025  14.968  1.00  0.00     0.198 C 
BRANCH   6   7
HETATM    7  O1  UNL     1       4.293  13.256  14.644  1.00  0.00    -0.398 OA
ATOM      8  H1  UNL     1       4.527  13.253  13.723  1.00  0.00     0.209 HD
ENDBRANCH   6   7
ENDBRANCH   1   6
BRANCH   5   9
HETATM    9  O5  UNL     1       4.136  11.985  11.951  1.00  0.00    -0.390 OA
ATOM     10  H5  UNL     1       4.235  11.539  11.118  1.00  0.00     0.210 HD
ENDBRANCH   5   9
BRANCH   3  11
HETATM   11  O3  UNL     1       7.431   9.402  13.914  1.00  0.00    -0.369 OA
ATOM     12  H3  UNL     1       7.630   9.146  14.807  1.00  0.00     0.212 HD
ENDBRANCH   3  11
BRANCH   4  13
HETATM   13  O4  UNL     1       7.003  10.701  11.752  1.00  0.00    -0.388 OA
ATOM     14  H4  UNL     1       7.091  11.631  11.577  1.00  0.00     0.210 HD
ENDBRANCH   4  13
TORSDOF 5
ENDMDL
