MODEL 1
REMARK VINA RESULT: -5.382910135      0.000      0.000
REMARK  5 active torsions:
REMARK  status: ('A' for Active; 'I' for Inactive)
REMARK    1  A    between atoms: O1_1  and  C1_3 
REMARK    2  A    between atoms: C1_3  and  C2_4 
REMARK    3  A    between atoms: C3_6  and  O3_7 
REMARK    4  A    between atoms: C4_9  and  O4_10 
REMARK    5  A    between atoms: C5_12  and  O5_13 
ROOT
HETATM    1  C2  UNL     1       7.186   7.428  15.885  1.00  0.00     0.179 C 
HETATM    2  O2  UNL     1       7.984   7.238  14.783  1.00  0.00    -0.349 OA
HETATM    3  C3  UNL     1       8.512   8.497  14.525  1.00  0.00     0.288 C 
HETATM    4  C4  UNL     1       8.679   9.204  15.830  1.00  0.00     0.204 C 
HETATM    5  C5  UNL     1       8.152   8.158  16.821  1.00  0.00     0.182 C 
ENDROOT
BRANCH   1   6
HETATM    6  C1  UNL     1       6.688   6.152  16.501  1.00  0.00     0.198 C 
BRANCH   6   7
HETATM    7  O1  UNL     1       7.218   6.037  17.773  1.00  0.00    -0.398 OA
ATOM      8  H1  UNL     1       7.405   5.121  17.944  1.00  0.00     0.209 HD
ENDBRANCH   6   7
ENDBRANCH   1   6
BRANCH   5   9
HETATM    9  O5  UNL     1       7.518   8.726  17.893  1.00  0.00    -0.390 OA
ATOM     10  H5  UNL     1       8.035   9.409  18.304  1.00  0.00     0.210 HD
ENDBRANCH   5   9
BRANCH   3  11
HETATM   11  O3  UNL     1       9.713   8.447  13.833  1.00  0.00    -0.369 OA
ATOM     12  H3  UNL     1       9.732   9.030  13.083  1.00  0.00     0.212 HD
ENDBRANCH   3  11
BRANCH   4  13
HETATM   13  O4  UNL     1       9.967   9.583  16.111  1.00  0.00    -0.388 OA
ATOM     14  H4  UNL     1      10.041  10.288  16.744  1.00  0.00     0.210 HD
ENDBRANCH   4  13
TORSDOF 5
ENDMDL
