MODEL 19
REMARK VINA RESULT: -1.980836096      1.422      4.576
REMARK  3 active torsions:
REMARK  status: ('A' for Active; 'I' for Inactive)
REMARK    1  A    between atoms: O1_2  and  C2_3 
REMARK    2  A    between atoms: C4_5  and  C5_6 
REMARK    3  A    between atoms: C8_11  and  O4_12 
ROOT
HETATM    1  C2  UNL     1      36.142  -4.450  10.885  1.00  0.00     0.102 A 
HETATM    2  C3  UNL     1      36.343  -3.525  11.887  1.00  0.00     0.058 A 
HETATM    3  C4  UNL     1      37.334  -2.565  11.866  1.00  0.00     0.043 A 
HETATM    4  C6  UNL     1      38.193  -2.522  10.766  1.00  0.00     0.021 A 
HETATM    5  C7  UNL     1      37.990  -3.446   9.768  1.00  0.00     0.040 A 
HETATM    6  C8  UNL     1      36.990  -4.404   9.802  1.00  0.00     0.099 A 
ENDROOT
BRANCH   3   7
HETATM    7  C5  UNL     1      37.504  -1.607  12.955  1.00  0.00     0.209 C 
HETATM    8  O2  UNL     1      36.672  -1.641  13.889  1.00  0.00    -0.644 OA
HETATM    9  O3  UNL     1      38.516  -0.674  13.018  1.00  0.00    -0.644 OA
ENDBRANCH   3   7
BRANCH   1  10
HETATM   10  O1  UNL     1      35.134  -5.388  10.957  1.00  0.00    -0.353 OA
HETATM   11  C1  UNL     1      34.814  -6.103  12.117  1.00  0.00     0.210 C 
ENDBRANCH   1  10
BRANCH   6  12
HETATM   12  O4  UNL     1      36.808  -5.326   8.779  1.00  0.00    -0.358 OA
ATOM     13  H4  UNL     1      37.541  -5.517   8.206  1.00  0.00     0.217 HD
ENDBRANCH   6  12
TORSDOF 3
ENDMDL
