MODEL 5
REMARK VINA RESULT: -5.626417368      0.733      1.004
REMARK  3 active torsions:
REMARK  status: ('A' for Active; 'I' for Inactive)
REMARK    1  A    between atoms: O1_2  and  C2_3 
REMARK    2  A    between atoms: C4_5  and  C5_6 
REMARK    3  A    between atoms: C8_11  and  O4_12 
ROOT
HETATM    1  C2  UNL     1      36.664  -2.572  12.558  1.00  0.00     0.102 A 
HETATM    2  C3  UNL     1      37.218  -3.200  11.464  1.00  0.00     0.058 A 
HETATM    3  C4  UNL     1      36.626  -4.249  10.792  1.00  0.00     0.043 A 
HETATM    4  C6  UNL     1      35.389  -4.713  11.244  1.00  0.00     0.021 A 
HETATM    5  C7  UNL     1      34.839  -4.085  12.337  1.00  0.00     0.040 A 
HETATM    6  C8  UNL     1      35.444  -3.032  13.000  1.00  0.00     0.099 A 
ENDROOT
BRANCH   3   7
HETATM    7  C5  UNL     1      37.257  -4.879   9.635  1.00  0.00     0.209 C 
HETATM    8  O2  UNL     1      38.123  -5.755   9.855  1.00  0.00    -0.644 OA
HETATM    9  O3  UNL     1      36.962  -4.571   8.325  1.00  0.00    -0.644 OA
ENDBRANCH   3   7
BRANCH   1  10
HETATM   10  O1  UNL     1      37.299  -1.526  13.192  1.00  0.00    -0.353 OA
HETATM   11  C1  UNL     1      38.687  -1.344  13.199  1.00  0.00     0.210 C 
ENDBRANCH   1  10
BRANCH   6  12
HETATM   12  O4  UNL     1      34.865  -2.416  14.103  1.00  0.00    -0.358 OA
ATOM     13  H4  UNL     1      33.924  -2.483  14.217  1.00  0.00     0.217 HD
ENDBRANCH   6  12
TORSDOF 3
ENDMDL
