MODEL 15
REMARK VINA RESULT: -2.345587165      1.456      4.667
REMARK  3 active torsions:
REMARK  status: ('A' for Active; 'I' for Inactive)
REMARK    1  A    between atoms: O1_2  and  C2_3 
REMARK    2  A    between atoms: C4_5  and  C5_6 
REMARK    3  A    between atoms: C8_11  and  O4_12 
ROOT
HETATM    1  C2  UNL     1      36.986  -3.966  10.113  1.00  0.00     0.102 A 
HETATM    2  C3  UNL     1      36.696  -4.278  11.424  1.00  0.00     0.058 A 
HETATM    3  C4  UNL     1      36.656  -3.355  12.448  1.00  0.00     0.043 A 
HETATM    4  C6  UNL     1      36.928  -2.018  12.148  1.00  0.00     0.021 A 
HETATM    5  C7  UNL     1      37.217  -1.710  10.840  1.00  0.00     0.040 A 
HETATM    6  C8  UNL     1      37.253  -2.647   9.822  1.00  0.00     0.099 A 
ENDROOT
BRANCH   3   7
HETATM    7  C5  UNL     1      36.343  -3.740  13.822  1.00  0.00     0.209 C 
HETATM    8  O2  UNL     1      37.297  -4.064  14.563  1.00  0.00    -0.644 OA
HETATM    9  O3  UNL     1      35.070  -3.769  14.350  1.00  0.00    -0.644 OA
ENDBRANCH   3   7
BRANCH   1  10
HETATM   10  O1  UNL     1      37.011  -4.929   9.127  1.00  0.00    -0.353 OA
HETATM   11  C1  UNL     1      37.821  -6.069   9.170  1.00  0.00     0.210 C 
ENDBRANCH   1  10
BRANCH   6  12
HETATM   12  O4  UNL     1      37.548  -2.306   8.507  1.00  0.00    -0.358 OA
ATOM     13  H4  UNL     1      37.746  -1.399   8.308  1.00  0.00     0.217 HD
ENDBRANCH   6  12
TORSDOF 3
ENDMDL
