MODEL 14
REMARK VINA RESULT: -2.552555765      1.708      4.618
REMARK  3 active torsions:
REMARK  status: ('A' for Active; 'I' for Inactive)
REMARK    1  A    between atoms: O1_2  and  C2_3 
REMARK    2  A    between atoms: C4_5  and  C5_6 
REMARK    3  A    between atoms: C8_11  and  O4_12 
ROOT
HETATM    1  C2  UNL     1      36.045  -3.483  12.363  1.00  0.00     0.102 A 
HETATM    2  C3  UNL     1      36.657  -2.952  13.477  1.00  0.00     0.058 A 
HETATM    3  C4  UNL     1      37.771  -2.139  13.434  1.00  0.00     0.043 A 
HETATM    4  C6  UNL     1      38.320  -1.831  12.188  1.00  0.00     0.021 A 
HETATM    5  C7  UNL     1      37.706  -2.362  11.078  1.00  0.00     0.040 A 
HETATM    6  C8  UNL     1      36.588  -3.177  11.136  1.00  0.00     0.099 A 
ENDROOT
BRANCH   3   7
HETATM    7  C5  UNL     1      38.382  -1.602  14.647  1.00  0.00     0.209 C 
HETATM    8  O2  UNL     1      39.090  -2.376  15.329  1.00  0.00    -0.644 OA
HETATM    9  O3  UNL     1      38.228  -0.305  15.086  1.00  0.00    -0.644 OA
ENDBRANCH   3   7
BRANCH   1  10
HETATM   10  O1  UNL     1      34.932  -4.291  12.464  1.00  0.00    -0.353 OA
HETATM   11  C1  UNL     1      34.922  -5.651  12.136  1.00  0.00     0.210 C 
ENDBRANCH   1  10
BRANCH   6  12
HETATM   12  O4  UNL     1      35.989  -3.700   9.997  1.00  0.00    -0.358 OA
ATOM     13  H4  UNL     1      36.306  -3.417   9.148  1.00  0.00     0.217 HD
ENDBRANCH   6  12
TORSDOF 3
ENDMDL
