MODEL 1
REMARK VINA RESULT: -6.926186237      0.000      0.000
REMARK  3 active torsions:
REMARK  status: ('A' for Active; 'I' for Inactive)
REMARK    1  A    between atoms: O1_2  and  C2_3 
REMARK    2  A    between atoms: C4_5  and  C5_6 
REMARK    3  A    between atoms: C8_11  and  O4_12 
ROOT
HETATM    1  C2  UNL     1      36.632  -2.403  12.932  1.00  0.00     0.102 A 
HETATM    2  C3  UNL     1      37.271  -2.791  11.775  1.00  0.00     0.058 A 
HETATM    3  C4  UNL     1      36.795  -3.759  10.915  1.00  0.00     0.043 A 
HETATM    4  C6  UNL     1      35.591  -4.392  11.232  1.00  0.00     0.021 A 
HETATM    5  C7  UNL     1      34.956  -4.003  12.387  1.00  0.00     0.040 A 
HETATM    6  C8  UNL     1      35.446  -3.029  13.240  1.00  0.00     0.099 A 
ENDROOT
BRANCH   3   7
HETATM    7  C5  UNL     1      37.512  -4.133   9.700  1.00  0.00     0.209 C 
HETATM    8  O2  UNL     1      37.962  -3.209   8.987  1.00  0.00    -0.644 OA
HETATM    9  O3  UNL     1      37.723  -5.432   9.290  1.00  0.00    -0.644 OA
ENDBRANCH   3   7
BRANCH   1  10
HETATM   10  O1  UNL     1      37.154  -1.427  13.756  1.00  0.00    -0.353 OA
HETATM   11  C1  UNL     1      38.387  -0.802  13.541  1.00  0.00     0.210 C 
ENDBRANCH   1  10
BRANCH   6  12
HETATM   12  O4  UNL     1      34.782  -2.656  14.403  1.00  0.00    -0.358 OA
ATOM     13  H4  UNL     1      33.918  -2.269  14.326  1.00  0.00     0.217 HD
ENDBRANCH   6  12
TORSDOF 3
ENDMDL
