MODEL 2
REMARK VINA RESULT: -8.539760106      2.342      6.894
REMARK  4 active torsions:
REMARK  status: ('A' for Active; 'I' for Inactive)
REMARK    1  A    between atoms: C6_6  and  O1_7 
REMARK    2  A    between atoms: C14_16  and  O2_17 
REMARK    3  A    between atoms: C16_20  and  O3_21 
REMARK    4  A    between atoms: C18_24  and  O4_25 
ROOT
HETATM    1  C1  UNL     1      -7.438   2.269   3.852  1.00  0.00     0.040 C 
HETATM    2  C2  UNL     1      -8.859   1.831   3.679  1.00  0.00     0.127 C 
HETATM    3  C3  UNL     1      -9.018   0.519   4.474  1.00  0.00     0.032 C 
HETATM    4  C4  UNL     1      -9.494  -0.580   3.521  1.00  0.00     0.005 C 
HETATM    5  C5  UNL     1     -10.670  -0.078   2.681  1.00  0.00     0.032 C 
HETATM    6  C6  UNL     1     -10.406  -0.231   1.230  1.00  0.00     0.118 C 
HETATM    7  C7  UNL     1     -10.598   0.977   0.380  1.00  0.00     0.032 C 
HETATM    8  C8  UNL     1     -11.547   1.997   0.881  1.00  0.00     0.006 C 
HETATM    9  C9  UNL     1     -10.958   3.377   1.081  1.00  0.00     0.027 C 
HETATM   10  C10 UNL     1     -11.976   4.213   1.759  1.00  0.00    -0.026 C 
HETATM   11  C11 UNL     1     -11.794   5.198   2.602  1.00  0.00     0.008 C 
HETATM   12  C12 UNL     1     -10.604   5.803   3.164  1.00  0.00    -0.016 A 
HETATM   13  C13 UNL     1     -10.378   7.137   2.743  1.00  0.00     0.049 A 
HETATM   14  C14 UNL     1      -9.317   7.855   3.237  1.00  0.00     0.069 A 
HETATM   15  C15 UNL     1      -8.444   7.308   4.153  1.00  0.00     0.074 A 
HETATM   16  C16 UNL     1      -8.636   6.013   4.586  1.00  0.00     0.084 A 
HETATM   17  C17 UNL     1      -9.721   5.259   4.087  1.00  0.00     0.065 A 
HETATM   18  C18 UNL     1      -9.816   3.928   4.688  1.00  0.00     0.192 C 
HETATM   19  O5  UNL     1      -9.848   2.705   4.099  1.00  0.00    -0.325 OA
ENDROOT
BRANCH   6  20
HETATM   20  O1  UNL     1      -9.073  -0.668   1.045  1.00  0.00    -0.396 OA
ATOM     21  H1  UNL     1      -8.910  -0.786   0.116  1.00  0.00     0.210 HD
ENDBRANCH   6  20
BRANCH  18  22
HETATM   22  O4  UNL     1      -9.880   3.961   6.007  1.00  0.00    -0.340 OA
ATOM     23  H4  UNL     1     -10.498   3.335   6.364  1.00  0.00     0.220 HD
ENDBRANCH  18  22
BRANCH  16  24
HETATM   24  O3  UNL     1      -7.729   5.526   5.509  1.00  0.00    -0.360 OA
ATOM     25  H3  UNL     1      -8.058   4.896   6.139  1.00  0.00     0.217 HD
ENDBRANCH  16  24
BRANCH  14  26
HETATM   26  O2  UNL     1      -9.109   9.179   2.804  1.00  0.00    -0.361 OA
ATOM     27  H2  UNL     1      -8.361   9.668   3.126  1.00  0.00     0.217 HD
ENDBRANCH  14  26
TORSDOF 4
ENDMDL
