MODEL 6
REMARK VINA RESULT: -6.779041959      2.404      5.857
REMARK  4 active torsions:
REMARK  status: ('A' for Active; 'I' for Inactive)
REMARK    1  A    between atoms: C6_6  and  O1_7 
REMARK    2  A    between atoms: C14_16  and  O2_17 
REMARK    3  A    between atoms: C16_20  and  O3_21 
REMARK    4  A    between atoms: C18_24  and  O4_25 
ROOT
HETATM    1  C1  UNL     1     -11.476   1.706   3.198  1.00  0.00     0.040 C 
HETATM    2  C2  UNL     1     -10.087   1.400   3.662  1.00  0.00     0.127 C 
HETATM    3  C3  UNL     1      -9.722   0.016   3.086  1.00  0.00     0.032 C 
HETATM    4  C4  UNL     1      -9.363  -0.921   4.242  1.00  0.00     0.005 C 
HETATM    5  C5  UNL     1      -8.381  -0.236   5.193  1.00  0.00     0.032 C 
HETATM    6  C6  UNL     1      -8.888  -0.230   6.587  1.00  0.00     0.118 C 
HETATM    7  C7  UNL     1      -8.912   1.082   7.290  1.00  0.00     0.032 C 
HETATM    8  C8  UNL     1      -7.944   2.102   6.824  1.00  0.00     0.006 C 
HETATM    9  C9  UNL     1      -8.560   3.400   6.348  1.00  0.00     0.027 C 
HETATM   10  C10 UNL     1      -7.484   4.221   5.746  1.00  0.00    -0.026 C 
HETATM   11  C11 UNL     1      -7.566   5.081   4.762  1.00  0.00     0.008 C 
HETATM   12  C12 UNL     1      -8.670   5.523   3.933  1.00  0.00    -0.016 A 
HETATM   13  C13 UNL     1      -9.036   6.877   4.131  1.00  0.00     0.049 A 
HETATM   14  C14 UNL     1     -10.029   7.450   3.376  1.00  0.00     0.069 A 
HETATM   15  C15 UNL     1     -10.698   6.733   2.407  1.00  0.00     0.074 A 
HETATM   16  C16 UNL     1     -10.366   5.413   2.187  1.00  0.00     0.084 A 
HETATM   17  C17 UNL     1      -9.347   4.807   2.956  1.00  0.00     0.065 A 
HETATM   18  C18 UNL     1      -9.078   3.424   2.560  1.00  0.00     0.192 C 
HETATM   19  O5  UNL     1      -9.087   2.287   3.303  1.00  0.00    -0.325 OA
ENDROOT
BRANCH   6  20
HETATM   20  O1  UNL     1     -10.208  -0.740   6.602  1.00  0.00    -0.396 OA
ATOM     21  H1  UNL     1     -10.219  -1.559   7.085  1.00  0.00     0.210 HD
ENDBRANCH   6  20
BRANCH  18  22
HETATM   22  O4  UNL     1      -8.786   3.302   1.278  1.00  0.00    -0.340 OA
ATOM     23  H4  UNL     1      -8.085   2.681   1.116  1.00  0.00     0.220 HD
ENDBRANCH  18  22
BRANCH  16  24
HETATM   24  O3  UNL     1     -11.070   4.752   1.198  1.00  0.00    -0.360 OA
ATOM     25  H3  UNL     1     -11.366   3.872   1.400  1.00  0.00     0.217 HD
ENDBRANCH  16  24
BRANCH  14  26
HETATM   26  O2  UNL     1     -10.379   8.798   3.590  1.00  0.00    -0.361 OA
ATOM     27  H2  UNL     1     -10.302   9.172   4.459  1.00  0.00     0.217 HD
ENDBRANCH  14  26
TORSDOF 4
ENDMDL
