MODEL 5
REMARK VINA RESULT: -7.530500280      2.190      3.075
REMARK  4 active torsions:
REMARK  status: ('A' for Active; 'I' for Inactive)
REMARK    1  A    between atoms: C6_6  and  O1_7 
REMARK    2  A    between atoms: C14_16  and  O2_17 
REMARK    3  A    between atoms: C16_20  and  O3_21 
REMARK    4  A    between atoms: C18_24  and  O4_25 
ROOT
HETATM    1  C1  UNL     1      -8.925   5.002   3.394  1.00  0.00     0.040 C 
HETATM    2  C2  UNL     1      -9.344   3.988   4.413  1.00  0.00     0.127 C 
HETATM    3  C3  UNL     1      -9.435   4.729   5.763  1.00  0.00     0.032 C 
HETATM    4  C4  UNL     1      -8.502   4.044   6.765  1.00  0.00     0.005 C 
HETATM    5  C5  UNL     1      -8.716   2.530   6.737  1.00  0.00     0.032 C 
HETATM    6  C6  UNL     1      -7.447   1.805   6.482  1.00  0.00     0.118 C 
HETATM    7  C7  UNL     1      -7.452   0.805   5.378  1.00  0.00     0.032 C 
HETATM    8  C8  UNL     1      -8.760   0.200   5.037  1.00  0.00     0.006 C 
HETATM    9  C9  UNL     1      -9.206   0.400   3.605  1.00  0.00     0.027 C 
HETATM   10  C10 UNL     1     -10.598  -0.092   3.488  1.00  0.00    -0.026 C 
HETATM   11  C11 UNL     1     -11.554   0.340   2.704  1.00  0.00     0.008 C 
HETATM   12  C12 UNL     1     -11.613   1.402   1.720  1.00  0.00    -0.016 A 
HETATM   13  C13 UNL     1     -11.771   0.949   0.387  1.00  0.00     0.049 A 
HETATM   14  C14 UNL     1     -11.898   1.845  -0.645  1.00  0.00     0.069 A 
HETATM   15  C15 UNL     1     -11.876   3.205  -0.422  1.00  0.00     0.074 A 
HETATM   16  C16 UNL     1     -11.726   3.681   0.864  1.00  0.00     0.084 A 
HETATM   17  C17 UNL     1     -11.593   2.773   1.938  1.00  0.00     0.065 A 
HETATM   18  C18 UNL     1     -11.500   3.437   3.239  1.00  0.00     0.192 C 
HETATM   19  O5  UNL     1     -10.548   3.338   4.203  1.00  0.00    -0.325 OA
ENDROOT
BRANCH   6  20
HETATM   20  O1  UNL     1      -6.427   2.743   6.195  1.00  0.00    -0.396 OA
ATOM     21  H1  UNL     1      -6.640   3.197   5.388  1.00  0.00     0.210 HD
ENDBRANCH   6  20
BRANCH  18  22
HETATM   22  O4  UNL     1     -12.515   4.247   3.478  1.00  0.00    -0.340 OA
ATOM     23  H4  UNL     1     -13.164   3.866   4.059  1.00  0.00     0.220 HD
ENDBRANCH  18  22
BRANCH  16  24
HETATM   24  O3  UNL     1     -11.719   5.054   1.021  1.00  0.00    -0.360 OA
ATOM     25  H3  UNL     1     -11.677   5.382   1.912  1.00  0.00     0.217 HD
ENDBRANCH  16  24
BRANCH  14  26
HETATM   26  O2  UNL     1     -12.052   1.374  -1.964  1.00  0.00    -0.361 OA
ATOM     27  H2  UNL     1     -12.325   1.973  -2.649  1.00  0.00     0.217 HD
ENDBRANCH  14  26
TORSDOF 4
ENDMDL
