MODEL 2
REMARK VINA RESULT: -7.365657448      2.042      5.827
REMARK  10 active torsions:
REMARK  status: ('A' for Active; 'I' for Inactive)
REMARK       I    between atoms: C2_2  and  N1_4 
REMARK    1  A    between atoms: N1_4  and  C3_6 
REMARK    2  A    between atoms: C4_7  and  O2_8 
REMARK    3  A    between atoms: C6_11  and  O3_12 
REMARK    4  A    between atoms: C6_11  and  C7_14 
REMARK    5  A    between atoms: C8_18  and  C9_19 
REMARK    6  A    between atoms: C9_19  and  O7_20 
REMARK    7  A    between atoms: C9_19  and  C10_22 
REMARK    8  A    between atoms: C10_22  and  O8_23 
REMARK    9  A    between atoms: C10_22  and  C11_25 
REMARK   10  A    between atoms: C11_25  and  O9_26 
ROOT
HETATM    1  C3  UNL     1       7.132  37.517  -2.048  1.00  0.00     0.145 C 
HETATM    2  C4  UNL     1       6.512  36.735  -0.882  1.00  0.00     0.149 C 
HETATM    3  C5  UNL     1       7.434  36.990   0.307  1.00  0.00     0.114 C 
HETATM    4  C6  UNL     1       7.422  38.483   0.557  1.00  0.00     0.256 C 
HETATM    5  O6  UNL     1       7.997  39.106  -0.565  1.00  0.00    -0.336 OA
HETATM    6  C8  UNL     1       7.127  38.951  -1.621  1.00  0.00     0.182 C 
ENDROOT
BRANCH   6   7
HETATM    7  C9  UNL     1       7.433  39.921  -2.718  1.00  0.00     0.180 C 
BRANCH   7   8
HETATM    8  O7  UNL     1       8.779  39.922  -3.048  1.00  0.00    -0.390 OA
ATOM      9  H7  UNL     1       9.183  40.767  -2.890  1.00  0.00     0.210 HD
ENDBRANCH   7   8
BRANCH   7  10
HETATM   10  C10 UNL     1       7.048  41.308  -2.205  1.00  0.00     0.173 C 
BRANCH  10  11
HETATM   11  O8  UNL     1       8.126  41.776  -1.435  1.00  0.00    -0.391 OA
ATOM     12  H8  UNL     1       8.427  42.581  -1.839  1.00  0.00     0.210 HD
ENDBRANCH  10  11
BRANCH  10  13
HETATM   13  C11 UNL     1       5.840  41.216  -1.303  1.00  0.00     0.198 C 
BRANCH  13  14
HETATM   14  O9  UNL     1       6.223  41.711  -0.055  1.00  0.00    -0.398 OA
ATOM     15  H9  UNL     1       5.676  41.284   0.594  1.00  0.00     0.209 HD
ENDBRANCH  13  14
ENDBRANCH  10  13
ENDBRANCH   7  10
ENDBRANCH   6   7
BRANCH   1  16
HETATM   16  N1  UNL     1       6.437  37.271  -3.282  1.00  0.00    -0.352 N 
HETATM   17  C2  UNL     1       7.142  37.081  -4.501  1.00  0.00     0.214 C 
HETATM   18  C1  UNL     1       6.445  36.825  -5.788  1.00  0.00     0.117 C 
HETATM   19  O1  UNL     1       8.399  37.126  -4.528  1.00  0.00    -0.274 OA
ATOM     20  H1  UNL     1       5.418  37.232  -3.282  1.00  0.00     0.163 HD
ENDBRANCH   1  16
BRANCH   2  21
HETATM   21  O2  UNL     1       6.373  35.403  -1.163  1.00  0.00    -0.393 OA
ATOM     22  H2  UNL     1       6.862  34.852  -0.563  1.00  0.00     0.210 HD
ENDBRANCH   2  21
BRANCH   4  23
HETATM   23  O3  UNL     1       6.095  38.883   0.723  1.00  0.00    -0.357 OA
ATOM     24  H3  UNL     1       5.851  39.412  -0.028  1.00  0.00     0.213 HD
ENDBRANCH   4  23
BRANCH   4  25
HETATM   25  C7  UNL     1       8.211  38.740   1.777  1.00  0.00     0.238 C 
HETATM   26  O4  UNL     1       7.997  39.801   2.416  1.00  0.00    -0.644 OA
HETATM   27  O5  UNL     1       9.176  37.882   2.263  1.00  0.00    -0.644 OA
ENDBRANCH   4  25
TORSDOF 10
ENDMDL
