MODEL 4
REMARK VINA RESULT: -7.334646019      1.770      4.705
REMARK  10 active torsions:
REMARK  status: ('A' for Active; 'I' for Inactive)
REMARK       I    between atoms: C2_2  and  N1_4 
REMARK    1  A    between atoms: N1_4  and  C3_6 
REMARK    2  A    between atoms: C4_7  and  O2_8 
REMARK    3  A    between atoms: C6_11  and  O3_12 
REMARK    4  A    between atoms: C6_11  and  C7_14 
REMARK    5  A    between atoms: C8_18  and  C9_19 
REMARK    6  A    between atoms: C9_19  and  O7_20 
REMARK    7  A    between atoms: C9_19  and  C10_22 
REMARK    8  A    between atoms: C10_22  and  O8_23 
REMARK    9  A    between atoms: C10_22  and  C11_25 
REMARK   10  A    between atoms: C11_25  and  O9_26 
ROOT
HETATM    1  C3  UNL     1       7.611  38.197  -0.927  1.00  0.00     0.145 C 
HETATM    2  C4  UNL     1       7.933  38.117   0.572  1.00  0.00     0.149 C 
HETATM    3  C5  UNL     1       7.091  36.960   1.101  1.00  0.00     0.114 C 
HETATM    4  C6  UNL     1       7.537  35.718   0.359  1.00  0.00     0.256 C 
HETATM    5  O6  UNL     1       7.209  35.894  -0.997  1.00  0.00    -0.336 OA
HETATM    6  C8  UNL     1       8.028  36.880  -1.501  1.00  0.00     0.182 C 
ENDROOT
BRANCH   6   7
HETATM    7  C9  UNL     1       8.059  36.843  -2.996  1.00  0.00     0.180 C 
BRANCH   7   8
HETATM    8  O7  UNL     1       8.785  37.897  -3.526  1.00  0.00    -0.390 OA
ATOM      9  H7  UNL     1       9.656  37.628  -3.797  1.00  0.00     0.210 HD
ENDBRANCH   7   8
BRANCH   7  10
HETATM   10  C10 UNL     1       6.611  36.950  -3.473  1.00  0.00     0.173 C 
BRANCH  10  11
HETATM   11  O8  UNL     1       6.068  35.655  -3.435  1.00  0.00    -0.391 OA
ATOM     12  H8  UNL     1       5.197  35.707  -3.810  1.00  0.00     0.210 HD
ENDBRANCH  10  11
BRANCH  10  13
HETATM   13  C11 UNL     1       6.564  37.431  -4.904  1.00  0.00     0.198 C 
BRANCH  13  14
HETATM   14  O9  UNL     1       5.218  37.587  -5.240  1.00  0.00    -0.398 OA
ATOM     15  H9  UNL     1       4.922  38.394  -4.836  1.00  0.00     0.209 HD
ENDBRANCH  13  14
ENDBRANCH  10  13
ENDBRANCH   7  10
ENDBRANCH   6   7
BRANCH   1  16
HETATM   16  N1  UNL     1       8.242  39.331  -1.545  1.00  0.00    -0.352 N 
HETATM   17  C2  UNL     1       7.557  40.568  -1.691  1.00  0.00     0.214 C 
HETATM   18  C1  UNL     1       8.188  41.753  -2.326  1.00  0.00     0.117 C 
HETATM   19  O1  UNL     1       6.374  40.698  -1.281  1.00  0.00    -0.274 OA
ATOM     20  H1  UNL     1       9.199  39.247  -1.886  1.00  0.00     0.163 HD
ENDBRANCH   1  16
BRANCH   2  21
HETATM   21  O2  UNL     1       7.680  39.293   1.224  1.00  0.00    -0.393 OA
ATOM     22  H2  UNL     1       8.419  39.890   1.195  1.00  0.00     0.210 HD
ENDBRANCH   2  21
BRANCH   4  23
HETATM   23  O3  UNL     1       8.917  35.588   0.525  1.00  0.00    -0.357 OA
ATOM     24  H3  UNL     1       9.091  35.453   1.449  1.00  0.00     0.213 HD
ENDBRANCH   4  23
BRANCH   4  25
HETATM   25  C7  UNL     1       6.821  34.567   0.939  1.00  0.00     0.238 C 
HETATM   26  O4  UNL     1       6.758  33.502   0.273  1.00  0.00    -0.644 OA
HETATM   27  O5  UNL     1       6.211  34.585   2.177  1.00  0.00    -0.644 OA
ENDBRANCH   4  25
TORSDOF 10
ENDMDL
