MODEL 3
REMARK VINA RESULT: -7.361095468      1.980      4.703
REMARK  10 active torsions:
REMARK  status: ('A' for Active; 'I' for Inactive)
REMARK       I    between atoms: C2_2  and  N1_4 
REMARK    1  A    between atoms: N1_4  and  C3_6 
REMARK    2  A    between atoms: C4_7  and  O2_8 
REMARK    3  A    between atoms: C6_11  and  O3_12 
REMARK    4  A    between atoms: C6_11  and  C7_14 
REMARK    5  A    between atoms: C8_18  and  C9_19 
REMARK    6  A    between atoms: C9_19  and  O7_20 
REMARK    7  A    between atoms: C9_19  and  C10_22 
REMARK    8  A    between atoms: C10_22  and  O8_23 
REMARK    9  A    between atoms: C10_22  and  C11_25 
REMARK   10  A    between atoms: C11_25  and  O9_26 
ROOT
HETATM    1  C3  UNL     1       7.133  37.993  -2.364  1.00  0.00     0.145 C 
HETATM    2  C4  UNL     1       8.065  39.161  -2.014  1.00  0.00     0.149 C 
HETATM    3  C5  UNL     1       7.484  39.769  -0.741  1.00  0.00     0.114 C 
HETATM    4  C6  UNL     1       7.516  38.684   0.315  1.00  0.00     0.256 C 
HETATM    5  O6  UNL     1       6.644  37.662  -0.101  1.00  0.00    -0.336 OA
HETATM    6  C8  UNL     1       7.207  37.054  -1.201  1.00  0.00     0.182 C 
ENDROOT
BRANCH   6   7
HETATM    7  C9  UNL     1       6.590  35.715  -1.451  1.00  0.00     0.180 C 
BRANCH   7   8
HETATM    8  O7  UNL     1       5.302  35.822  -1.951  1.00  0.00    -0.390 OA
ATOM      9  H7  UNL     1       4.750  35.102  -1.669  1.00  0.00     0.210 HD
ENDBRANCH   7   8
BRANCH   7  10
HETATM   10  C10 UNL     1       6.540  34.990  -0.106  1.00  0.00     0.173 C 
BRANCH  10  11
HETATM   11  O8  UNL     1       7.810  35.124   0.480  1.00  0.00    -0.391 OA
ATOM     12  H8  UNL     1       7.695  35.616   1.284  1.00  0.00     0.210 HD
ENDBRANCH  10  11
BRANCH  10  13
HETATM   13  C11 UNL     1       6.279  33.517  -0.314  1.00  0.00     0.198 C 
BRANCH  13  14
HETATM   14  O9  UNL     1       6.040  32.962   0.945  1.00  0.00    -0.398 OA
ATOM     15  H9  UNL     1       6.685  33.329   1.537  1.00  0.00     0.209 HD
ENDBRANCH  13  14
ENDBRANCH  10  13
ENDBRANCH   7  10
ENDBRANCH   6   7
BRANCH   1  16
HETATM   16  N1  UNL     1       7.483  37.393  -3.623  1.00  0.00    -0.352 N 
HETATM   17  C2  UNL     1       6.535  37.279  -4.675  1.00  0.00     0.214 C 
HETATM   18  C1  UNL     1       6.874  36.664  -5.984  1.00  0.00     0.117 C 
HETATM   19  O1  UNL     1       5.360  37.704  -4.528  1.00  0.00    -0.274 OA
ATOM     20  H1  UNL     1       8.431  37.042  -3.763  1.00  0.00     0.163 HD
ENDBRANCH   1  16
BRANCH   2  21
HETATM   21  O2  UNL     1       8.167  40.070  -3.032  1.00  0.00    -0.393 OA
ATOM     22  H2  UNL     1       8.819  40.738  -2.858  1.00  0.00     0.210 HD
ENDBRANCH   2  21
BRANCH   4  23
HETATM   23  O3  UNL     1       8.825  38.213   0.412  1.00  0.00    -0.357 OA
ATOM     24  H3  UNL     1       8.867  37.606   1.142  1.00  0.00     0.213 HD
ENDBRANCH   4  23
BRANCH   4  25
HETATM   25  C7  UNL     1       7.071  39.284   1.587  1.00  0.00     0.238 C 
HETATM   26  O4  UNL     1       7.935  39.801   2.340  1.00  0.00    -0.644 OA
HETATM   27  O5  UNL     1       5.757  39.312   2.006  1.00  0.00    -0.644 OA
ENDBRANCH   4  25
TORSDOF 10
ENDMDL
