MODEL 17
REMARK VINA RESULT: -6.776452269      0.991      1.430
REMARK  10 active torsions:
REMARK  status: ('A' for Active; 'I' for Inactive)
REMARK       I    between atoms: C2_2  and  N1_4 
REMARK    1  A    between atoms: N1_4  and  C3_6 
REMARK    2  A    between atoms: C4_7  and  O2_8 
REMARK    3  A    between atoms: C6_11  and  O3_12 
REMARK    4  A    between atoms: C6_11  and  C7_14 
REMARK    5  A    between atoms: C8_18  and  C9_19 
REMARK    6  A    between atoms: C9_19  and  O7_20 
REMARK    7  A    between atoms: C9_19  and  C10_22 
REMARK    8  A    between atoms: C10_22  and  O8_23 
REMARK    9  A    between atoms: C10_22  and  C11_25 
REMARK   10  A    between atoms: C11_25  and  O9_26 
ROOT
HETATM    1  C3  UNL     1       6.631  38.503  -0.696  1.00  0.00     0.145 C 
HETATM    2  C4  UNL     1       6.391  39.458  -1.872  1.00  0.00     0.149 C 
HETATM    3  C5  UNL     1       7.379  39.021  -2.951  1.00  0.00     0.114 C 
HETATM    4  C6  UNL     1       7.035  37.590  -3.305  1.00  0.00     0.256 C 
HETATM    5  O6  UNL     1       7.277  36.802  -2.165  1.00  0.00    -0.336 OA
HETATM    6  C8  UNL     1       6.333  37.133  -1.219  1.00  0.00     0.182 C 
ENDROOT
BRANCH   6   7
HETATM    7  C9  UNL     1       6.236  36.079  -0.163  1.00  0.00     0.180 C 
BRANCH   7   8
HETATM    8  O7  UNL     1       5.899  36.611   1.072  1.00  0.00    -0.390 OA
ATOM      9  H7  UNL     1       6.663  36.760   1.615  1.00  0.00     0.210 HD
ENDBRANCH   7   8
BRANCH   7  10
HETATM   10  C10 UNL     1       7.613  35.424  -0.061  1.00  0.00     0.173 C 
BRANCH  10  11
HETATM   11  O8  UNL     1       7.461  34.267   0.722  1.00  0.00    -0.391 OA
ATOM     12  H8  UNL     1       6.719  33.789   0.372  1.00  0.00     0.210 HD
ENDBRANCH  10  11
BRANCH  10  13
HETATM   13  C11 UNL     1       8.578  36.342   0.652  1.00  0.00     0.198 C 
BRANCH  13  14
HETATM   14  O9  UNL     1       9.649  36.563  -0.216  1.00  0.00    -0.398 OA
ATOM     15  H9  UNL     1      10.405  36.766   0.321  1.00  0.00     0.209 HD
ENDBRANCH  13  14
ENDBRANCH  10  13
ENDBRANCH   7  10
ENDBRANCH   6   7
BRANCH   1  16
HETATM   16  N1  UNL     1       5.852  38.872   0.455  1.00  0.00    -0.352 N 
HETATM   17  C2  UNL     1       6.414  39.638   1.512  1.00  0.00     0.214 C 
HETATM   18  C1  UNL     1       5.629  40.031   2.710  1.00  0.00     0.117 C 
HETATM   19  O1  UNL     1       7.615  40.011   1.465  1.00  0.00    -0.274 OA
ATOM     20  H1  UNL     1       4.877  38.578   0.514  1.00  0.00     0.163 HD
ENDBRANCH   1  16
BRANCH   2  21
HETATM   21  O2  UNL     1       6.545  40.771  -1.519  1.00  0.00    -0.393 OA
ATOM     22  H2  UNL     1       5.734  41.163  -1.218  1.00  0.00     0.210 HD
ENDBRANCH   2  21
BRANCH   4  23
HETATM   23  O3  UNL     1       5.688  37.545  -3.664  1.00  0.00    -0.357 OA
ATOM     24  H3  UNL     1       5.566  36.815  -4.260  1.00  0.00     0.213 HD
ENDBRANCH   4  23
BRANCH   4  25
HETATM   25  C7  UNL     1       7.899  37.187  -4.429  1.00  0.00     0.238 C 
HETATM   26  O4  UNL     1       7.412  37.184  -5.589  1.00  0.00    -0.644 OA
HETATM   27  O5  UNL     1       9.218  36.807  -4.288  1.00  0.00    -0.644 OA
ENDBRANCH   4  25
TORSDOF 10
ENDMDL
