MODEL 11
REMARK VINA RESULT: -6.370309306      2.175      2.836
REMARK  2 active torsions:
REMARK  status: ('A' for Active; 'I' for Inactive)
REMARK       I    between atoms: N3_4  and  C2_6 
REMARK    1  A    between atoms: C2_6  and  C3_8 
REMARK    2  A    between atoms: C5_13  and  N5_14 
ROOT
HETATM    1  C3  UNL     1     -29.120 -17.270  -3.569  1.00  0.00     0.144 A 
HETATM    2  N4  UNL     1     -29.235 -16.752  -2.343  1.00  0.00    -0.337 N 
ATOM      3  H4  UNL     1     -29.883 -17.186  -1.686  1.00  0.00     0.167 HD
HETATM    4  C4  UNL     1     -28.514 -15.659  -1.935  1.00  0.00     0.148 A 
HETATM    5 CL1  UNL     1     -28.766 -15.023  -0.323  1.00  0.00    -0.060 Cl
HETATM    6  C5  UNL     1     -27.640 -15.052  -2.783  1.00  0.00     0.147 A 
HETATM    7  N6  UNL     1     -27.548 -15.618  -4.047  1.00  0.00    -0.326 N 
ATOM      8  H6  UNL     1     -26.904 -15.190  -4.712  1.00  0.00     0.168 HD
HETATM    9  C12 UNL     1     -28.235 -16.666  -4.447  1.00  0.00     0.150 A 
HETATM   10  N7  UNL     1     -28.130 -17.238  -5.755  1.00  0.00    -0.080 NA
ENDROOT
BRANCH   1  11
HETATM   11  C2  UNL     1     -29.895 -18.430  -3.980  1.00  0.00     0.277 C 
HETATM   12  N3  UNL     1     -30.592 -18.352  -5.233  1.00  0.00    -0.298 N 
HETATM   13  C1  UNL     1     -31.753 -18.875  -5.347  1.00  0.00     0.203 C 
ATOM     14  H3  UNL     1     -30.162 -17.880  -6.030  1.00  0.00     0.171 HD
HETATM   15  N1  UNL     1     -32.430 -18.794  -6.581  1.00  0.00    -0.066 NA
HETATM   16  N2  UNL     1     -32.348 -19.528  -4.245  1.00  0.00    -0.066 NA
HETATM   17  O1  UNL     1     -29.944 -19.455  -3.254  1.00  0.00    -0.265 OA
ENDBRANCH   1  11
BRANCH   6  18
HETATM   18  N5  UNL     1     -26.816 -13.959  -2.493  1.00  0.00    -0.344 N 
HETATM   19  C6  UNL     1     -27.287 -12.696  -3.095  1.00  0.00     0.130 C 
HETATM   20  C7  UNL     1     -28.226 -12.115  -2.047  1.00  0.00     0.020 C 
HETATM   21  C8  UNL     1     -27.386 -11.684  -0.869  1.00  0.00     0.002 C 
HETATM   22  C9  UNL     1     -27.005 -12.875  -0.024  1.00  0.00     0.005 C 
HETATM   23  C10 UNL     1     -25.658 -13.433  -0.398  1.00  0.00     0.045 C 
HETATM   24  C11 UNL     1     -25.644 -14.100  -1.737  1.00  0.00     0.065 C 
ENDBRANCH   6  18
TORSDOF 2
ENDMDL
