MODEL 4
REMARK VINA RESULT: -6.607500587      2.048      2.629
REMARK  2 active torsions:
REMARK  status: ('A' for Active; 'I' for Inactive)
REMARK       I    between atoms: N3_4  and  C2_6 
REMARK    1  A    between atoms: C2_6  and  C3_8 
REMARK    2  A    between atoms: C5_13  and  N5_14 
ROOT
HETATM    1  C3  UNL     1     -28.934 -15.103  -2.506  1.00  0.00     0.144 A 
HETATM    2  N4  UNL     1     -29.557 -13.970  -2.171  1.00  0.00    -0.337 N 
ATOM      3  H4  UNL     1     -30.046 -13.446  -2.896  1.00  0.00     0.167 HD
HETATM    4  C4  UNL     1     -29.563 -13.485  -0.888  1.00  0.00     0.148 A 
HETATM    5 CL1  UNL     1     -30.368 -11.966  -0.553  1.00  0.00    -0.060 Cl
HETATM    6  C5  UNL     1     -28.921 -14.155   0.108  1.00  0.00     0.147 A 
HETATM    7  N6  UNL     1     -28.286 -15.326  -0.278  1.00  0.00    -0.326 N 
ATOM      8  H6  UNL     1     -27.793 -15.857   0.440  1.00  0.00     0.168 HD
HETATM    9  C12 UNL     1     -28.275 -15.799  -1.506  1.00  0.00     0.150 A 
HETATM   10  N7  UNL     1     -27.614 -17.010  -1.889  1.00  0.00    -0.080 NA
ENDROOT
BRANCH   1  11
HETATM   11  C2  UNL     1     -28.940 -15.599  -3.873  1.00  0.00     0.277 C 
HETATM   12  N3  UNL     1     -29.592 -16.855  -4.119  1.00  0.00    -0.298 N 
HETATM   13  C1  UNL     1     -29.088 -17.676  -4.960  1.00  0.00     0.203 C 
ATOM     14  H3  UNL     1     -30.452 -17.091  -3.625  1.00  0.00     0.171 HD
HETATM   15  N1  UNL     1     -29.733 -18.907  -5.196  1.00  0.00    -0.066 NA
HETATM   16  N2  UNL     1     -27.896 -17.350  -5.644  1.00  0.00    -0.066 NA
HETATM   17  O1  UNL     1     -28.391 -14.942  -4.793  1.00  0.00    -0.265 OA
ENDBRANCH   1  11
BRANCH   6  18
HETATM   18  N5  UNL     1     -28.876 -13.800   1.460  1.00  0.00    -0.344 N 
HETATM   19  C6  UNL     1     -30.192 -13.419   2.010  1.00  0.00     0.130 C 
HETATM   20  C7  UNL     1     -30.784 -14.734   2.497  1.00  0.00     0.020 C 
HETATM   21  C8  UNL     1     -29.986 -15.177   3.699  1.00  0.00     0.002 C 
HETATM   22  C9  UNL     1     -28.680 -15.800   3.269  1.00  0.00     0.005 C 
HETATM   23  C10 UNL     1     -27.550 -14.806   3.260  1.00  0.00     0.045 C 
HETATM   24  C11 UNL     1     -27.672 -13.780   2.177  1.00  0.00     0.065 C 
ENDBRANCH   6  18
TORSDOF 2
ENDMDL
