MODEL 5
REMARK VINA RESULT: -6.461511028      4.918      6.933
REMARK  2 active torsions:
REMARK  status: ('A' for Active; 'I' for Inactive)
REMARK       I    between atoms: N3_4  and  C2_6 
REMARK    1  A    between atoms: C2_6  and  C3_8 
REMARK    2  A    between atoms: C5_13  and  N5_14 
ROOT
HETATM    1  C3  UNL     1     -23.256 -13.818  -4.107  1.00  0.00     0.144 A 
HETATM    2  N4  UNL     1     -23.984 -13.310  -3.110  1.00  0.00    -0.337 N 
ATOM      3  H4  UNL     1     -23.525 -12.718  -2.419  1.00  0.00     0.167 HD
HETATM    4  C4  UNL     1     -25.328 -13.556  -2.979  1.00  0.00     0.148 A 
HETATM    5 CL1  UNL     1     -26.191 -12.884  -1.612  1.00  0.00    -0.060 Cl
HETATM    6  C5  UNL     1     -25.977 -14.342  -3.881  1.00  0.00     0.147 A 
HETATM    7  N6  UNL     1     -25.187 -14.851  -4.902  1.00  0.00    -0.326 N 
ATOM      8  H6  UNL     1     -25.637 -15.446  -5.598  1.00  0.00     0.168 HD
HETATM    9  C12 UNL     1     -23.899 -14.621  -5.035  1.00  0.00     0.150 A 
HETATM   10  N7  UNL     1     -23.097 -15.154  -6.094  1.00  0.00    -0.080 NA
ENDROOT
BRANCH   1  11
HETATM   11  C2  UNL     1     -21.832 -13.544  -4.225  1.00  0.00     0.277 C 
HETATM   12  N3  UNL     1     -21.414 -12.650  -5.269  1.00  0.00    -0.298 N 
HETATM   13  C1  UNL     1     -20.331 -12.883  -5.906  1.00  0.00     0.203 C 
ATOM     14  H3  UNL     1     -21.979 -11.833  -5.500  1.00  0.00     0.171 HD
HETATM   15  N1  UNL     1     -19.927 -12.001  -6.929  1.00  0.00    -0.066 NA
HETATM   16  N2  UNL     1     -19.548 -14.015  -5.586  1.00  0.00    -0.066 NA
HETATM   17  O1  UNL     1     -21.011 -14.077  -3.437  1.00  0.00    -0.265 OA
ENDBRANCH   1  11
BRANCH   6  18
HETATM   18  N5  UNL     1     -27.342 -14.647  -3.895  1.00  0.00    -0.344 N 
HETATM   19  C6  UNL     1     -27.619 -16.096  -3.847  1.00  0.00     0.130 C 
HETATM   20  C7  UNL     1     -27.684 -16.412  -2.360  1.00  0.00     0.020 C 
HETATM   21  C8  UNL     1     -28.935 -15.769  -1.810  1.00  0.00     0.002 C 
HETATM   22  C9  UNL     1     -28.723 -14.290  -1.597  1.00  0.00     0.005 C 
HETATM   23  C10 UNL     1     -29.180 -13.473  -2.776  1.00  0.00     0.045 C 
HETATM   24  C11 UNL     1     -28.319 -13.646  -3.987  1.00  0.00     0.065 C 
ENDBRANCH   6  18
TORSDOF 2
ENDMDL
