MODEL 6
REMARK VINA RESULT: -6.421374517      3.883      5.629
REMARK  2 active torsions:
REMARK  status: ('A' for Active; 'I' for Inactive)
REMARK       I    between atoms: N3_4  and  C2_6 
REMARK    1  A    between atoms: C2_6  and  C3_8 
REMARK    2  A    between atoms: C5_13  and  N5_14 
ROOT
HETATM    1  C3  UNL     1     -25.147 -14.352  -4.406  1.00  0.00     0.144 A 
HETATM    2  N4  UNL     1     -25.970 -15.404  -4.425  1.00  0.00    -0.337 N 
ATOM      3  H4  UNL     1     -25.764 -16.176  -5.059  1.00  0.00     0.167 HD
HETATM    4  C4  UNL     1     -27.080 -15.486  -3.623  1.00  0.00     0.148 A 
HETATM    5 CL1  UNL     1     -28.125 -16.886  -3.752  1.00  0.00    -0.060 Cl
HETATM    6  C5  UNL     1     -27.388 -14.477  -2.764  1.00  0.00     0.147 A 
HETATM    7  N6  UNL     1     -26.511 -13.401  -2.773  1.00  0.00    -0.326 N 
ATOM      8  H6  UNL     1     -26.709 -12.624  -2.142  1.00  0.00     0.168 HD
HETATM    9  C12 UNL     1     -25.444 -13.315  -3.537  1.00  0.00     0.150 A 
HETATM   10  N7  UNL     1     -24.549 -12.197  -3.535  1.00  0.00    -0.080 NA
ENDROOT
BRANCH   1  11
HETATM   11  C2  UNL     1     -23.976 -14.287  -5.264  1.00  0.00     0.277 C 
HETATM   12  N3  UNL     1     -22.726 -14.734  -4.715  1.00  0.00    -0.298 N 
HETATM   13  C1  UNL     1     -21.648 -14.112  -5.005  1.00  0.00     0.203 C 
ATOM     14  H3  UNL     1     -22.699 -15.544  -4.096  1.00  0.00     0.171 HD
HETATM   15  N1  UNL     1     -20.425 -14.556  -4.462  1.00  0.00    -0.066 NA
HETATM   16  N2  UNL     1     -21.684 -12.989  -5.862  1.00  0.00    -0.066 NA
HETATM   17  O1  UNL     1     -24.069 -13.852  -6.440  1.00  0.00    -0.265 OA
ENDBRANCH   1  11
BRANCH   6  18
HETATM   18  N5  UNL     1     -28.460 -14.441  -1.866  1.00  0.00    -0.344 N 
HETATM   19  C6  UNL     1     -28.185 -15.143  -0.597  1.00  0.00     0.130 C 
HETATM   20  C7  UNL     1     -27.561 -14.074   0.289  1.00  0.00     0.020 C 
HETATM   21  C8  UNL     1     -28.642 -13.078   0.634  1.00  0.00     0.002 C 
HETATM   22  C9  UNL     1     -28.883 -12.135  -0.519  1.00  0.00     0.005 C 
HETATM   23  C10 UNL     1     -30.007 -12.596  -1.408  1.00  0.00     0.045 C 
HETATM   24  C11 UNL     1     -29.675 -13.825  -2.195  1.00  0.00     0.065 C 
ENDBRANCH   6  18
TORSDOF 2
ENDMDL
