MODEL 2
REMARK VINA RESULT: -7.801564983      1.420      1.947
REMARK  3 active torsions:
REMARK  status: ('A' for Active; 'I' for Inactive)
REMARK    1  A    between atoms: C3_4  and  C4_5 
REMARK    2  A    between atoms: C5_8  and  C6_9 
REMARK       I    between atoms: C6_9  and  N3_11 
REMARK    3  A    between atoms: C9_20  and  N8_21 
ROOT
HETATM    1  C4  UNL     1     -26.646 -15.932  -2.985  1.00  0.00     0.090 A 
HETATM    2  N2  UNL     1     -25.751 -15.596  -3.969  1.00  0.00    -0.345 N 
ATOM      3  H2  UNL     1     -25.956 -15.874  -4.929  1.00  0.00     0.166 HD
HETATM    4  C5  UNL     1     -24.617 -14.919  -3.726  1.00  0.00     0.143 A 
HETATM    5  C8  UNL     1     -24.316 -14.531  -2.434  1.00  0.00     0.150 A 
HETATM    6  N6  UNL     1     -23.110 -13.815  -2.184  1.00  0.00    -0.080 NA
HETATM    7  N7  UNL     1     -25.182 -14.856  -1.492  1.00  0.00    -0.327 N 
ATOM      8  H7  UNL     1     -24.966 -14.573  -0.535  1.00  0.00     0.168 HD
HETATM    9  C9  UNL     1     -26.359 -15.550  -1.703  1.00  0.00     0.133 A 
ENDROOT
BRANCH   1  10
HETATM   10  C3  UNL     1     -27.839 -16.676  -3.322  1.00  0.00     0.028 A 
HETATM   11  C2  UNL     1     -28.401 -17.736  -2.683  1.00  0.00     0.124 A 
HETATM   12  N1  UNL     1     -29.501 -18.105  -3.344  1.00  0.00    -0.307 N 
HETATM   13  C1  UNL     1     -30.412 -19.208  -2.995  1.00  0.00     0.177 C 
HETATM   14  N9  UNL     1     -29.652 -17.303  -4.391  1.00  0.00    -0.310 N 
HETATM   15  C16 UNL     1     -28.667 -16.424  -4.415  1.00  0.00     0.122 A 
ATOM     16  H9  UNL     1     -30.410 -17.358  -5.071  1.00  0.00     0.186 HD
ENDBRANCH   1  10
BRANCH   9  17
HETATM   17  N8  UNL     1     -27.190 -15.712  -0.574  1.00  0.00    -0.365 N 
HETATM   18  C10 UNL     1     -26.635 -16.608   0.436  1.00  0.00     0.124 C 
HETATM   19  C11 UNL     1     -27.721 -17.555   0.855  1.00  0.00     0.020 C 
HETATM   20  C12 UNL     1     -28.884 -16.933   1.554  1.00  0.00     0.002 C 
HETATM   21  C13 UNL     1     -28.581 -15.572   2.066  1.00  0.00     0.002 C 
HETATM   22  C14 UNL     1     -28.488 -14.481   1.073  1.00  0.00     0.020 C 
HETATM   23  C15 UNL     1     -28.420 -15.022  -0.376  1.00  0.00     0.124 C 
ENDBRANCH   9  17
BRANCH   4  24
HETATM   24  C6  UNL     1     -23.703 -14.592  -4.828  1.00  0.00     0.277 C 
HETATM   25  O1  UNL     1     -24.166 -13.946  -5.822  1.00  0.00    -0.266 OA
HETATM   26  N3  UNL     1     -22.357 -14.978  -4.794  1.00  0.00    -0.298 N 
HETATM   27  C7  UNL     1     -21.431 -14.393  -5.474  1.00  0.00     0.203 C 
ATOM     28  H3  UNL     1     -22.095 -15.764  -4.199  1.00  0.00     0.171 HD
HETATM   29  N4  UNL     1     -20.087 -14.849  -5.382  1.00  0.00    -0.066 NA
HETATM   30  N5  UNL     1     -21.728 -13.291  -6.319  1.00  0.00    -0.066 NA
ENDBRANCH   4  24
TORSDOF 3
ENDMDL
