MODEL 3
REMARK VINA RESULT: -7.706537912      2.271      6.444
REMARK  3 active torsions:
REMARK  status: ('A' for Active; 'I' for Inactive)
REMARK    1  A    between atoms: C3_4  and  C4_5 
REMARK    2  A    between atoms: C5_8  and  C6_9 
REMARK       I    between atoms: C6_9  and  N3_11 
REMARK    3  A    between atoms: C9_20  and  N8_21 
ROOT
HETATM    1  C4  UNL     1     -25.591 -14.437  -3.739  1.00  0.00     0.090 A 
HETATM    2  N2  UNL     1     -26.473 -15.394  -4.174  1.00  0.00    -0.345 N 
ATOM      3  H2  UNL     1     -26.155 -16.069  -4.869  1.00  0.00     0.166 HD
HETATM    4  C5  UNL     1     -27.737 -15.480  -3.728  1.00  0.00     0.143 A 
HETATM    5  C8  UNL     1     -28.193 -14.576  -2.787  1.00  0.00     0.150 A 
HETATM    6  N6  UNL     1     -29.535 -14.674  -2.319  1.00  0.00    -0.080 NA
HETATM    7  N7  UNL     1     -27.338 -13.659  -2.371  1.00  0.00    -0.327 N 
ATOM      8  H7  UNL     1     -27.668 -12.988  -1.676  1.00  0.00     0.168 HD
HETATM    9  C9  UNL     1     -26.031 -13.539  -2.805  1.00  0.00     0.133 A 
ENDROOT
BRANCH   1  10
HETATM   10  C3  UNL     1     -24.249 -14.398  -4.278  1.00  0.00     0.028 A 
HETATM   11  C2  UNL     1     -23.059 -14.474  -3.627  1.00  0.00     0.124 A 
HETATM   12  N1  UNL     1     -22.072 -14.400  -4.524  1.00  0.00    -0.307 N 
HETATM   13  C1  UNL     1     -20.625 -14.444  -4.250  1.00  0.00     0.177 C 
HETATM   14  N9  UNL     1     -22.608 -14.277  -5.732  1.00  0.00    -0.310 N 
HETATM   15  C16 UNL     1     -23.924 -14.272  -5.628  1.00  0.00     0.122 A 
ATOM     16  H9  UNL     1     -22.085 -14.200  -6.604  1.00  0.00     0.186 HD
ENDBRANCH   1  10
BRANCH   9  17
HETATM   17  N8  UNL     1     -25.256 -12.549  -2.164  1.00  0.00    -0.365 N 
HETATM   18  C10 UNL     1     -25.194 -11.290  -2.900  1.00  0.00     0.124 C 
HETATM   19  C11 UNL     1     -23.760 -10.848  -2.931  1.00  0.00     0.020 C 
HETATM   20  C12 UNL     1     -23.166 -10.498  -1.606  1.00  0.00     0.002 C 
HETATM   21  C13 UNL     1     -24.196 -10.261  -0.563  1.00  0.00     0.002 C 
HETATM   22  C14 UNL     1     -24.901 -11.445  -0.028  1.00  0.00     0.020 C 
HETATM   23  C15 UNL     1     -24.648 -12.707  -0.887  1.00  0.00     0.124 C 
ENDBRANCH   9  17
BRANCH   4  24
HETATM   24  C6  UNL     1     -28.628 -16.530  -4.236  1.00  0.00     0.277 C 
HETATM   25  O1  UNL     1     -28.760 -16.648  -5.497  1.00  0.00    -0.266 OA
HETATM   26  N3  UNL     1     -29.320 -17.381  -3.366  1.00  0.00    -0.298 N 
HETATM   27  C7  UNL     1     -29.761 -18.544  -3.706  1.00  0.00     0.203 C 
ATOM     28  H3  UNL     1     -29.484 -17.064  -2.410  1.00  0.00     0.171 HD
HETATM   29  N4  UNL     1     -30.455 -19.345  -2.758  1.00  0.00    -0.066 NA
HETATM   30  N5  UNL     1     -29.564 -19.045  -5.020  1.00  0.00    -0.066 NA
ENDBRANCH   4  24
TORSDOF 3
ENDMDL
