MODEL 1
REMARK VINA RESULT: -7.832676816      0.000      0.000
REMARK  3 active torsions:
REMARK  status: ('A' for Active; 'I' for Inactive)
REMARK    1  A    between atoms: C3_4  and  C4_5 
REMARK    2  A    between atoms: C5_8  and  C6_9 
REMARK       I    between atoms: C6_9  and  N3_11 
REMARK    3  A    between atoms: C9_20  and  N8_21 
ROOT
HETATM    1  C4  UNL     1     -26.931 -15.273  -2.957  1.00  0.00     0.090 A 
HETATM    2  N2  UNL     1     -25.872 -15.267  -3.830  1.00  0.00    -0.345 N 
ATOM      3  H2  UNL     1     -25.738 -16.075  -4.437  1.00  0.00     0.166 HD
HETATM    4  C5  UNL     1     -25.003 -14.247  -3.919  1.00  0.00     0.143 A 
HETATM    5  C8  UNL     1     -25.163 -13.141  -3.106  1.00  0.00     0.150 A 
HETATM    6  N6  UNL     1     -24.236 -12.063  -3.205  1.00  0.00    -0.080 NA
HETATM    7  N7  UNL     1     -26.185 -13.152  -2.269  1.00  0.00    -0.327 N 
ATOM      8  H7  UNL     1     -26.308 -12.338  -1.665  1.00  0.00     0.168 HD
HETATM    9  C9  UNL     1     -27.100 -14.182  -2.150  1.00  0.00     0.133 A 
ENDROOT
BRANCH   1  10
HETATM   10  C3  UNL     1     -27.816 -16.416  -2.908  1.00  0.00     0.028 A 
HETATM   11  C2  UNL     1     -28.683 -16.873  -3.849  1.00  0.00     0.124 A 
HETATM   12  N1  UNL     1     -29.295 -17.963  -3.378  1.00  0.00    -0.307 N 
HETATM   13  C1  UNL     1     -30.309 -18.775  -4.072  1.00  0.00     0.177 C 
HETATM   14  N9  UNL     1     -28.837 -18.209  -2.157  1.00  0.00    -0.310 N 
HETATM   15  C16 UNL     1     -27.939 -17.296  -1.834  1.00  0.00     0.122 A 
ATOM     16  H9  UNL     1     -29.131 -18.983  -1.561  1.00  0.00     0.186 HD
ENDBRANCH   1  10
BRANCH   9  17
HETATM   17  N8  UNL     1     -28.172 -13.953  -1.262  1.00  0.00    -0.365 N 
HETATM   18  C10 UNL     1     -27.747 -13.630   0.096  1.00  0.00     0.124 C 
HETATM   19  C11 UNL     1     -28.566 -14.459   1.042  1.00  0.00     0.020 C 
HETATM   20  C12 UNL     1     -30.028 -14.157   1.062  1.00  0.00     0.002 C 
HETATM   21  C13 UNL     1     -30.348 -12.840   0.456  1.00  0.00     0.002 C 
HETATM   22  C14 UNL     1     -30.261 -12.734  -1.016  1.00  0.00     0.020 C 
HETATM   23  C15 UNL     1     -29.544 -13.954  -1.643  1.00  0.00     0.124 C 
ENDBRANCH   9  17
BRANCH   4  24
HETATM   24  C6  UNL     1     -23.891 -14.307  -4.876  1.00  0.00     0.277 C 
HETATM   25  O1  UNL     1     -24.125 -13.997  -6.088  1.00  0.00    -0.266 OA
HETATM   26  N3  UNL     1     -22.607 -14.694  -4.475  1.00  0.00    -0.298 N 
HETATM   27  C7  UNL     1     -21.534 -14.376  -5.114  1.00  0.00     0.203 C 
ATOM     28  H3  UNL     1     -22.515 -15.258  -3.630  1.00  0.00     0.171 HD
HETATM   29  N4  UNL     1     -20.267 -14.812  -4.637  1.00  0.00    -0.066 NA
HETATM   30  N5  UNL     1     -21.592 -13.591  -6.296  1.00  0.00    -0.066 NA
ENDBRANCH   4  24
TORSDOF 3
ENDMDL
