MODEL 5
REMARK VINA RESULT: -8.249681396      2.813      6.635
REMARK  2 active torsions:
REMARK  status: ('A' for Active; 'I' for Inactive)
REMARK       I    between atoms: N3_4  and  C2_6 
REMARK    1  A    between atoms: C2_6  and  C3_8 
REMARK    2  A    between atoms: C13_21  and  N5_22 
ROOT
HETATM    1  C3  UNL     1      29.644  16.249 -11.218  1.00  0.00     0.143 A 
HETATM    2  N4  UNL     1      29.444  15.566 -12.341  1.00  0.00    -0.344 N 
ATOM      3  H4  UNL     1      30.250  15.239 -12.873  1.00  0.00     0.166 HD
HETATM    4  C4  UNL     1      28.169  15.285 -12.810  1.00  0.00     0.111 A 
HETATM    5  C5  UNL     1      28.087  14.615 -14.078  1.00  0.00     0.107 A 
HETATM    6  C6  UNL     1      27.033  14.469 -14.916  1.00  0.00     0.054 A 
HETATM    7  C7  UNL     1      27.458  13.741 -16.030  1.00  0.00     0.001 A 
HETATM    8  C8  UNL     1      26.868  13.292 -17.175  1.00  0.00     0.014 A 
HETATM    9  C9  UNL     1      27.575  12.569 -18.130  1.00  0.00     0.001 A 
HETATM   10  C10 UNL     1      28.919  12.321 -17.871  1.00  0.00     0.003 A 
HETATM   11  C11 UNL     1      29.530  12.764 -16.723  1.00  0.00     0.038 A 
HETATM   12  C12 UNL     1      28.793  13.480 -15.799  1.00  0.00     0.086 A 
HETATM   13  O2  UNL     1      29.132  14.004 -14.648  1.00  0.00    -0.307 OA
HETATM   14  C13 UNL     1      27.079  15.704 -12.122  1.00  0.00     0.134 A 
HETATM   15  N6  UNL     1      27.317  16.412 -10.961  1.00  0.00    -0.327 N 
ATOM     16  H6  UNL     1      26.518  16.743 -10.422  1.00  0.00     0.168 HD
HETATM   17  C20 UNL     1      28.545  16.684 -10.509  1.00  0.00     0.150 A 
HETATM   18  N7  UNL     1      28.788  17.412  -9.315  1.00  0.00    -0.080 NA
ENDROOT
BRANCH  14  19
HETATM   19  N5  UNL     1      25.761  15.403 -12.489  1.00  0.00    -0.365 N 
HETATM   20  C14 UNL     1      25.272  14.124 -12.002  1.00  0.00     0.124 C 
HETATM   21  C15 UNL     1      24.463  14.241 -10.733  1.00  0.00     0.020 C 
HETATM   22  C16 UNL     1      24.028  15.641 -10.410  1.00  0.00     0.002 C 
HETATM   23  C17 UNL     1      23.326  16.362 -11.506  1.00  0.00     0.002 C 
HETATM   24  C18 UNL     1      24.244  17.232 -12.334  1.00  0.00     0.020 C 
HETATM   25  C19 UNL     1      24.984  16.340 -13.271  1.00  0.00     0.124 C 
ENDBRANCH  14  19
BRANCH   1  26
HETATM   26  C2  UNL     1      31.009  16.529 -10.751  1.00  0.00     0.277 C 
HETATM   27  N3  UNL     1      31.937  17.209 -11.569  1.00  0.00    -0.298 N 
HETATM   28  C1  UNL     1      32.918  17.865 -11.086  1.00  0.00     0.203 C 
ATOM     29  H3  UNL     1      31.818  17.175 -12.581  1.00  0.00     0.171 HD
HETATM   30  N1  UNL     1      33.083  17.911  -9.663  1.00  0.00    -0.066 NA
HETATM   31  N2  UNL     1      33.839  18.541 -11.926  1.00  0.00    -0.066 NA
HETATM   32  O1  UNL     1      31.349  16.160  -9.613  1.00  0.00    -0.266 OA
ENDBRANCH   1  26
TORSDOF 2
ENDMDL
