MODEL 1
REMARK VINA RESULT: -8.585556737      0.000      0.000
REMARK  2 active torsions:
REMARK  status: ('A' for Active; 'I' for Inactive)
REMARK       I    between atoms: N3_4  and  C2_6 
REMARK    1  A    between atoms: C2_6  and  C3_8 
REMARK    2  A    between atoms: C13_21  and  N5_22 
ROOT
HETATM    1  C3  UNL     1      26.952  13.917 -15.006  1.00  0.00     0.143 A 
HETATM    2  N4  UNL     1      27.739  14.533 -14.128  1.00  0.00    -0.344 N 
ATOM      3  H4  UNL     1      28.736  14.611 -14.326  1.00  0.00     0.166 HD
HETATM    4  C4  UNL     1      27.241  15.074 -12.951  1.00  0.00     0.111 A 
HETATM    5  C5  UNL     1      28.206  15.636 -12.047  1.00  0.00     0.107 A 
HETATM    6  C6  UNL     1      28.083  15.963 -10.739  1.00  0.00     0.054 A 
HETATM    7  C7  UNL     1      29.306  16.471 -10.298  1.00  0.00     0.001 A 
HETATM    8  C8  UNL     1      29.784  16.952  -9.115  1.00  0.00     0.014 A 
HETATM    9  C9  UNL     1      31.094  17.402  -8.980  1.00  0.00     0.001 A 
HETATM   10  C10 UNL     1      31.905  17.339 -10.108  1.00  0.00     0.003 A 
HETATM   11  C11 UNL     1      31.441  16.858 -11.309  1.00  0.00     0.038 A 
HETATM   12  C12 UNL     1      30.134  16.421 -11.401  1.00  0.00     0.086 A 
HETATM   13  O2  UNL     1      29.460  15.928 -12.410  1.00  0.00    -0.307 OA
HETATM   14  C13 UNL     1      25.920  14.989 -12.664  1.00  0.00     0.134 A 
HETATM   15  N6  UNL     1      25.127  14.343 -13.593  1.00  0.00    -0.327 N 
ATOM     16  H6  UNL     1      24.129  14.260 -13.404  1.00  0.00     0.168 HD
HETATM   17  C20 UNL     1      25.606  13.821 -14.726  1.00  0.00     0.150 A 
HETATM   18  N7  UNL     1      24.790  13.157 -15.679  1.00  0.00    -0.080 NA
ENDROOT
BRANCH  14  19
HETATM   19  N5  UNL     1      25.328  15.568 -11.534  1.00  0.00    -0.365 N 
HETATM   20  C14 UNL     1      25.000  16.976 -11.674  1.00  0.00     0.124 C 
HETATM   21  C15 UNL     1      23.559  17.216 -12.053  1.00  0.00     0.020 C 
HETATM   22  C16 UNL     1      22.670  16.020 -11.876  1.00  0.00     0.002 C 
HETATM   23  C17 UNL     1      22.723  15.375 -10.536  1.00  0.00     0.002 C 
HETATM   24  C18 UNL     1      23.685  14.211 -10.469  1.00  0.00     0.020 C 
HETATM   25  C19 UNL     1      25.062  14.772 -10.355  1.00  0.00     0.124 C 
ENDBRANCH  14  19
BRANCH   1  26
HETATM   26  C2  UNL     1      27.513  13.356 -16.242  1.00  0.00     0.277 C 
HETATM   27  N3  UNL     1      27.346  11.994 -16.569  1.00  0.00    -0.298 N 
HETATM   28  C1  UNL     1      27.389  11.571 -17.771  1.00  0.00     0.203 C 
ATOM     29  H3  UNL     1      27.183  11.324 -15.817  1.00  0.00     0.171 HD
HETATM   30  N1  UNL     1      27.618  12.514 -18.826  1.00  0.00    -0.066 NA
HETATM   31  N2  UNL     1      27.218  10.196 -18.077  1.00  0.00    -0.066 NA
HETATM   32  O1  UNL     1      28.147  14.099 -17.013  1.00  0.00    -0.266 OA
ENDBRANCH   1  26
TORSDOF 2
ENDMDL
