MODEL 9
REMARK VINA RESULT: -8.064222571      3.033      6.640
REMARK  2 active torsions:
REMARK  status: ('A' for Active; 'I' for Inactive)
REMARK       I    between atoms: N3_4  and  C2_6 
REMARK    1  A    between atoms: C2_6  and  C3_8 
REMARK    2  A    between atoms: C13_21  and  N5_22 
ROOT
HETATM    1  C3  UNL     1      29.666  16.480 -11.212  1.00  0.00     0.143 A 
HETATM    2  N4  UNL     1      29.402  16.167 -12.476  1.00  0.00    -0.344 N 
ATOM      3  H4  UNL     1      30.175  16.064 -13.134  1.00  0.00     0.166 HD
HETATM    4  C4  UNL     1      28.104  15.976 -12.928  1.00  0.00     0.111 A 
HETATM    5  C5  UNL     1      27.946  15.727 -14.335  1.00  0.00     0.107 A 
HETATM    6  C6  UNL     1      26.837  15.789 -15.108  1.00  0.00     0.054 A 
HETATM    7  C7  UNL     1      27.197  15.465 -16.417  1.00  0.00     0.001 A 
HETATM    8  C8  UNL     1      26.536  15.361 -17.606  1.00  0.00     0.014 A 
HETATM    9  C9  UNL     1      27.190  15.007 -18.782  1.00  0.00     0.001 A 
HETATM   10  C10 UNL     1      28.556  14.764 -18.698  1.00  0.00     0.003 A 
HETATM   11  C11 UNL     1      29.240  14.863 -17.510  1.00  0.00     0.038 A 
HETATM   12  C12 UNL     1      28.553  15.218 -16.364  1.00  0.00     0.086 A 
HETATM   13  O2  UNL     1      28.963  15.378 -15.131  1.00  0.00    -0.307 OA
HETATM   14  C13 UNL     1      27.057  16.103 -12.077  1.00  0.00     0.134 A 
HETATM   15  N6  UNL     1      27.362  16.429 -10.770  1.00  0.00    -0.327 N 
ATOM     16  H6  UNL     1      26.596  16.534 -10.105  1.00  0.00     0.168 HD
HETATM   17  C20 UNL     1      28.611  16.614 -10.335  1.00  0.00     0.150 A 
HETATM   18  N7  UNL     1      28.923  16.950  -8.991  1.00  0.00    -0.080 NA
ENDROOT
BRANCH  14  19
HETATM   19  N5  UNL     1      25.726  15.858 -12.436  1.00  0.00    -0.365 N 
HETATM   20  C14 UNL     1      25.345  14.456 -12.441  1.00  0.00     0.124 C 
HETATM   21  C15 UNL     1      24.658  14.022 -11.169  1.00  0.00     0.020 C 
HETATM   22  C16 UNL     1      24.192  15.157 -10.305  1.00  0.00     0.002 C 
HETATM   23  C17 UNL     1      23.355  16.180 -10.988  1.00  0.00     0.002 C 
HETATM   24  C18 UNL     1      24.148  17.368 -11.484  1.00  0.00     0.020 C 
HETATM   25  C19 UNL     1      24.834  16.956 -12.742  1.00  0.00     0.124 C 
ENDBRANCH  14  19
BRANCH   1  26
HETATM   26  C2  UNL     1      31.053  16.675 -10.768  1.00  0.00     0.277 C 
HETATM   27  N3  UNL     1      31.993  17.346 -11.579  1.00  0.00    -0.298 N 
HETATM   28  C1  UNL     1      33.015  17.934 -11.094  1.00  0.00     0.203 C 
ATOM     29  H3  UNL     1      31.849  17.363 -12.588  1.00  0.00     0.171 HD
HETATM   30  N1  UNL     1      33.216  17.910  -9.674  1.00  0.00    -0.066 NA
HETATM   31  N2  UNL     1      33.948  18.603 -11.927  1.00  0.00    -0.066 NA
HETATM   32  O1  UNL     1      31.402  16.240  -9.656  1.00  0.00    -0.266 OA
ENDBRANCH   1  26
TORSDOF 2
ENDMDL
