MODEL 2
REMARK VINA RESULT: -8.474079654      2.449      5.599
REMARK  2 active torsions:
REMARK  status: ('A' for Active; 'I' for Inactive)
REMARK       I    between atoms: N3_4  and  C2_6 
REMARK    1  A    between atoms: C2_6  and  C3_8 
REMARK    2  A    between atoms: C13_21  and  N5_22 
ROOT
HETATM    1  C3  UNL     1      24.938  14.482 -11.635  1.00  0.00     0.143 A 
HETATM    2  N4  UNL     1      26.144  14.936 -11.306  1.00  0.00    -0.344 N 
ATOM      3  H4  UNL     1      26.343  15.150 -10.329  1.00  0.00     0.166 HD
HETATM    4  C4  UNL     1      27.139  15.128 -12.254  1.00  0.00     0.111 A 
HETATM    5  C5  UNL     1      28.367  15.704 -11.784  1.00  0.00     0.107 A 
HETATM    6  C6  UNL     1      29.383  16.268 -12.479  1.00  0.00     0.054 A 
HETATM    7  C7  UNL     1      30.356  16.688 -11.570  1.00  0.00     0.001 A 
HETATM    8  C8  UNL     1      31.569  17.305 -11.665  1.00  0.00     0.014 A 
HETATM    9  C9  UNL     1      32.332  17.604 -10.541  1.00  0.00     0.001 A 
HETATM   10  C10 UNL     1      31.804  17.247  -9.304  1.00  0.00     0.003 A 
HETATM   11  C11 UNL     1      30.585  16.624  -9.188  1.00  0.00     0.038 A 
HETATM   12  C12 UNL     1      29.858  16.345 -10.329  1.00  0.00     0.086 A 
HETATM   13  O2  UNL     1      28.692  15.770 -10.488  1.00  0.00    -0.307 OA
HETATM   14  C13 UNL     1      26.903  14.849 -13.559  1.00  0.00     0.134 A 
HETATM   15  N6  UNL     1      25.642  14.380 -13.871  1.00  0.00    -0.327 N 
ATOM     16  H6  UNL     1      25.433  14.163 -14.846  1.00  0.00     0.168 HD
HETATM   17  C20 UNL     1      24.683  14.196 -12.959  1.00  0.00     0.150 A 
HETATM   18  N7  UNL     1      23.387  13.714 -13.282  1.00  0.00    -0.080 NA
ENDROOT
BRANCH  14  19
HETATM   19  N5  UNL     1      27.872  14.948 -14.565  1.00  0.00    -0.365 N 
HETATM   20  C14 UNL     1      28.740  13.790 -14.690  1.00  0.00     0.124 C 
HETATM   21  C15 UNL     1      28.299  12.830 -15.769  1.00  0.00     0.020 C 
HETATM   22  C16 UNL     1      27.288  13.399 -16.721  1.00  0.00     0.002 C 
HETATM   23  C17 UNL     1      27.654  14.700 -17.342  1.00  0.00     0.002 C 
HETATM   24  C18 UNL     1      27.090  15.894 -16.607  1.00  0.00     0.020 C 
HETATM   25  C19 UNL     1      27.941  16.125 -15.405  1.00  0.00     0.124 C 
ENDBRANCH  14  19
BRANCH   1  26
HETATM   26  C2  UNL     1      23.908  14.291 -10.605  1.00  0.00     0.277 C 
HETATM   27  N3  UNL     1      23.470  13.001 -10.238  1.00  0.00    -0.298 N 
HETATM   28  C1  UNL     1      22.962  12.753  -9.095  1.00  0.00     0.203 C 
ATOM     29  H3  UNL     1      23.563  12.240 -10.910  1.00  0.00     0.171 HD
HETATM   30  N1  UNL     1      22.831  13.824  -8.151  1.00  0.00    -0.066 NA
HETATM   31  N2  UNL     1      22.527  11.449  -8.747  1.00  0.00    -0.066 NA
HETATM   32  O1  UNL     1      23.416  15.289 -10.046  1.00  0.00    -0.266 OA
ENDBRANCH   1  26
TORSDOF 2
ENDMDL
