MODEL 3
REMARK VINA RESULT: -8.399218694      3.215      7.242
REMARK  2 active torsions:
REMARK  status: ('A' for Active; 'I' for Inactive)
REMARK       I    between atoms: N3_4  and  C2_6 
REMARK    1  A    between atoms: C2_6  and  C3_8 
REMARK    2  A    between atoms: C13_21  and  N5_22 
ROOT
HETATM    1  C3  UNL     1      28.057  16.359 -10.497  1.00  0.00     0.143 A 
HETATM    2  N4  UNL     1      26.962  15.697 -10.134  1.00  0.00    -0.344 N 
ATOM      3  H4  UNL     1      26.855  15.413  -9.160  1.00  0.00     0.166 HD
HETATM    4  C4  UNL     1      25.962  15.381 -11.042  1.00  0.00     0.111 A 
HETATM    5  C5  UNL     1      24.873  14.589 -10.543  1.00  0.00     0.107 A 
HETATM    6  C6  UNL     1      23.927  13.892 -11.217  1.00  0.00     0.054 A 
HETATM    7  C7  UNL     1      23.088  13.279 -10.284  1.00  0.00     0.001 A 
HETATM    8  C8  UNL     1      21.990  12.472 -10.353  1.00  0.00     0.014 A 
HETATM    9  C9  UNL     1      21.350  12.004  -9.209  1.00  0.00     0.001 A 
HETATM   10  C10 UNL     1      21.879  12.393  -7.983  1.00  0.00     0.003 A 
HETATM   11  C11 UNL     1      22.984  13.205  -7.894  1.00  0.00     0.038 A 
HETATM   12  C12 UNL     1      23.591  13.648  -9.053  1.00  0.00     0.086 A 
HETATM   13  O2  UNL     1      24.635  14.416  -9.238  1.00  0.00    -0.307 OA
HETATM   14  C13 UNL     1      26.076  15.748 -12.342  1.00  0.00     0.134 A 
HETATM   15  N6  UNL     1      27.224  16.434 -12.690  1.00  0.00    -0.327 N 
ATOM     16  H6  UNL     1      27.341  16.722 -13.661  1.00  0.00     0.168 HD
HETATM   17  C20 UNL     1      28.188  16.737 -11.816  1.00  0.00     0.150 A 
HETATM   18  N7  UNL     1      29.367  17.442 -12.176  1.00  0.00    -0.080 NA
ENDROOT
BRANCH  14  19
HETATM   19  N5  UNL     1      25.083  15.531 -13.304  1.00  0.00    -0.365 N 
HETATM   20  C14 UNL     1      24.064  16.564 -13.371  1.00  0.00     0.124 C 
HETATM   21  C15 UNL     1      24.321  17.584 -14.453  1.00  0.00     0.020 C 
HETATM   22  C16 UNL     1      25.354  17.165 -15.459  1.00  0.00     0.002 C 
HETATM   23  C17 UNL     1      25.135  15.832 -16.084  1.00  0.00     0.002 C 
HETATM   24  C18 UNL     1      25.887  14.717 -15.394  1.00  0.00     0.020 C 
HETATM   25  C19 UNL     1      25.131  14.363 -14.158  1.00  0.00     0.124 C 
ENDBRANCH  14  19
BRANCH   1  26
HETATM   26  C2  UNL     1      29.097  16.676  -9.509  1.00  0.00     0.277 C 
HETATM   27  N3  UNL     1      30.446  16.832  -9.891  1.00  0.00    -0.298 N 
HETATM   28  C1  UNL     1      31.270  17.530  -9.212  1.00  0.00     0.203 C 
ATOM     29  H3  UNL     1      30.774  16.371 -10.739  1.00  0.00     0.171 HD
HETATM   30  N1  UNL     1      30.807  18.178  -8.020  1.00  0.00    -0.066 NA
HETATM   31  N2  UNL     1      32.622  17.674  -9.615  1.00  0.00    -0.066 NA
HETATM   32  O1  UNL     1      28.778  16.810  -8.313  1.00  0.00    -0.266 OA
ENDBRANCH   1  26
TORSDOF 2
ENDMDL
