MODEL 5
REMARK VINA RESULT: -7.364692382      2.698      6.343
REMARK  3 active torsions:
REMARK  status: ('A' for Active; 'I' for Inactive)
REMARK       I    between atoms: N3_4  and  C2_6 
REMARK    1  A    between atoms: C2_6  and  C3_8 
REMARK    2  A    between atoms: C4_11  and  C5_12 
REMARK    3  A    between atoms: C9_17  and  N5_18 
ROOT
HETATM    1  C3  UNL     1     -27.826 -15.528  -3.564  1.00  0.00     0.143 A 
HETATM    2  N4  UNL     1     -26.623 -15.283  -4.137  1.00  0.00    -0.344 N 
ATOM      3  H4  UNL     1     -26.341 -15.821  -4.956  1.00  0.00     0.166 HD
HETATM    4  C4  UNL     1     -25.782 -14.335  -3.642  1.00  0.00     0.111 A 
HETATM    5  C9  UNL     1     -26.184 -13.625  -2.538  1.00  0.00     0.134 A 
HETATM    6  N6  UNL     1     -27.406 -13.882  -1.966  1.00  0.00    -0.327 N 
ATOM      7  H6  UNL     1     -27.691 -13.347  -1.146  1.00  0.00     0.168 HD
HETATM    8  C16 UNL     1     -28.232 -14.814  -2.452  1.00  0.00     0.150 A 
HETATM    9  N7  UNL     1     -29.497 -15.073  -1.852  1.00  0.00    -0.080 NA
ENDROOT
BRANCH   1  10
HETATM   10  C2  UNL     1     -28.719 -16.546  -4.101  1.00  0.00     0.277 C 
HETATM   11  N3  UNL     1     -29.409 -17.457  -3.262  1.00  0.00    -0.298 N 
HETATM   12  C1  UNL     1     -29.898 -18.554  -3.710  1.00  0.00     0.203 C 
ATOM     13  H3  UNL     1     -29.520 -17.233  -2.273  1.00  0.00     0.171 HD
HETATM   14  N1  UNL     1     -29.735 -18.852  -5.089  1.00  0.00    -0.066 NA
HETATM   15  N2  UNL     1     -30.582 -19.453  -2.871  1.00  0.00    -0.066 NA
HETATM   16  O1  UNL     1     -28.894 -16.633  -5.337  1.00  0.00    -0.266 OA
ENDBRANCH   1  10
BRANCH   4  17
HETATM   17  C5  UNL     1     -24.506 -14.066  -4.293  1.00  0.00     0.105 A 
HETATM   18  C6  UNL     1     -23.353 -14.835  -4.073  1.00  0.00     0.041 A 
HETATM   19  C7  UNL     1     -22.331 -14.319  -4.834  1.00  0.00     0.027 A 
HETATM   20  C8  UNL     1     -22.890 -13.247  -5.498  1.00  0.00     0.142 A 
HETATM   21  O2  UNL     1     -24.129 -13.162  -5.142  1.00  0.00    -0.320 OA
ENDBRANCH   4  17
BRANCH   5  22
HETATM   22  N5  UNL     1     -25.328 -12.648  -1.968  1.00  0.00    -0.365 N 
HETATM   23  C10 UNL     1     -25.638 -11.251  -2.156  1.00  0.00     0.124 C 
HETATM   24  C11 UNL     1     -24.761 -10.764  -3.304  1.00  0.00     0.020 C 
HETATM   25  C12 UNL     1     -23.361 -10.461  -2.822  1.00  0.00     0.002 C 
HETATM   26  C13 UNL     1     -22.632 -11.702  -2.377  1.00  0.00     0.002 C 
HETATM   27  C14 UNL     1     -23.117 -12.181  -1.010  1.00  0.00     0.020 C 
HETATM   28  C15 UNL     1     -24.208 -13.198  -1.243  1.00  0.00     0.124 C 
ENDBRANCH   5  22
TORSDOF 3
ENDMDL
