MODEL 1
REMARK VINA RESULT: -7.869623108      0.000      0.000
REMARK  3 active torsions:
REMARK  status: ('A' for Active; 'I' for Inactive)
REMARK       I    between atoms: N3_4  and  C2_6 
REMARK    1  A    between atoms: C2_6  and  C3_8 
REMARK    2  A    between atoms: C4_11  and  C5_12 
REMARK    3  A    between atoms: C9_17  and  N5_18 
ROOT
HETATM    1  C3  UNL     1     -24.972 -14.679  -3.857  1.00  0.00     0.143 A 
HETATM    2  N4  UNL     1     -25.986 -15.534  -4.133  1.00  0.00    -0.344 N 
ATOM      3  H4  UNL     1     -26.019 -15.992  -5.044  1.00  0.00     0.166 HD
HETATM    4  C4  UNL     1     -26.960 -15.796  -3.220  1.00  0.00     0.111 A 
HETATM    5  C9  UNL     1     -26.893 -15.167  -2.001  1.00  0.00     0.134 A 
HETATM    6  N6  UNL     1     -25.860 -14.302  -1.734  1.00  0.00    -0.327 N 
ATOM      7  H6  UNL     1     -25.823 -13.842  -0.825  1.00  0.00     0.168 HD
HETATM    8  C16 UNL     1     -24.902 -14.045  -2.631  1.00  0.00     0.150 A 
HETATM    9  N7  UNL     1     -23.836 -13.147  -2.343  1.00  0.00    -0.080 NA
ENDROOT
BRANCH   1  10
HETATM   10  C2  UNL     1     -23.933 -14.405  -4.841  1.00  0.00     0.277 C 
HETATM   11  N3  UNL     1     -22.594 -14.835  -4.658  1.00  0.00    -0.298 N 
HETATM   12  C1  UNL     1     -21.620 -14.313  -5.308  1.00  0.00     0.203 C 
ATOM     13  H3  UNL     1     -22.400 -15.582  -3.990  1.00  0.00     0.171 HD
HETATM   14  N1  UNL     1     -21.905 -13.275  -6.233  1.00  0.00    -0.066 NA
HETATM   15  N2  UNL     1     -20.294 -14.746  -5.120  1.00  0.00    -0.066 NA
HETATM   16  O1  UNL     1     -24.212 -13.773  -5.884  1.00  0.00    -0.266 OA
ENDBRANCH   1  10
BRANCH   4  17
HETATM   17  C5  UNL     1     -28.024 -16.744  -3.526  1.00  0.00     0.105 A 
HETATM   18  C6  UNL     1     -28.872 -16.617  -4.637  1.00  0.00     0.041 A 
HETATM   19  C7  UNL     1     -29.759 -17.667  -4.633  1.00  0.00     0.027 A 
HETATM   20  C8  UNL     1     -29.426 -18.408  -3.518  1.00  0.00     0.142 A 
HETATM   21  O2  UNL     1     -28.431 -17.824  -2.936  1.00  0.00    -0.320 OA
ENDBRANCH   4  17
BRANCH   5  22
HETATM   22  N5  UNL     1     -27.902 -15.385  -1.030  1.00  0.00    -0.365 N 
HETATM   23  C10 UNL     1     -29.159 -14.688  -1.157  1.00  0.00     0.124 C 
HETATM   24  C11 UNL     1     -29.084 -13.487  -0.220  1.00  0.00     0.020 C 
HETATM   25  C12 UNL     1     -29.376 -13.897   1.205  1.00  0.00     0.002 C 
HETATM   26  C13 UNL     1     -28.308 -14.799   1.767  1.00  0.00     0.002 C 
HETATM   27  C14 UNL     1     -28.424 -16.220   1.219  1.00  0.00     0.020 C 
HETATM   28  C15 UNL     1     -27.529 -16.317   0.007  1.00  0.00     0.124 C 
ENDBRANCH   5  22
TORSDOF 3
ENDMDL
