MODEL 6
REMARK VINA RESULT: -7.088188909      3.629      6.569
REMARK  3 active torsions:
REMARK  status: ('A' for Active; 'I' for Inactive)
REMARK       I    between atoms: N3_4  and  C2_6 
REMARK    1  A    between atoms: C2_6  and  C3_8 
REMARK    2  A    between atoms: C4_11  and  C5_12 
REMARK    3  A    between atoms: C9_17  and  N5_18 
ROOT
HETATM    1  C3  UNL     1     -29.286 -17.632  -2.711  1.00  0.00     0.143 A 
HETATM    2  N4  UNL     1     -29.187 -17.593  -1.360  1.00  0.00    -0.344 N 
ATOM      3  H4  UNL     1     -29.730 -18.251  -0.800  1.00  0.00     0.166 HD
HETATM    4  C4  UNL     1     -28.381 -16.694  -0.734  1.00  0.00     0.111 A 
HETATM    5  C9  UNL     1     -27.663 -15.817  -1.510  1.00  0.00     0.134 A 
HETATM    6  N6  UNL     1     -27.771 -15.868  -2.878  1.00  0.00    -0.327 N 
ATOM      7  H6  UNL     1     -27.231 -15.211  -3.441  1.00  0.00     0.168 HD
HETATM    8  C16 UNL     1     -28.563 -16.751  -3.493  1.00  0.00     0.150 A 
HETATM    9  N7  UNL     1     -28.667 -16.795  -4.912  1.00  0.00    -0.080 NA
ENDROOT
BRANCH   1  10
HETATM   10  C2  UNL     1     -30.152 -18.599  -3.371  1.00  0.00     0.277 C 
HETATM   11  N3  UNL     1     -30.738 -18.340  -4.637  1.00  0.00    -0.298 N 
HETATM   12  C1  UNL     1     -31.756 -18.995  -5.059  1.00  0.00     0.203 C 
ATOM     13  H3  UNL     1     -30.337 -17.612  -5.229  1.00  0.00     0.171 HD
HETATM   14  N1  UNL     1     -32.304 -20.004  -4.224  1.00  0.00    -0.066 NA
HETATM   15  N2  UNL     1     -32.331 -18.731  -6.316  1.00  0.00    -0.066 NA
HETATM   16  O1  UNL     1     -30.399 -19.695  -2.821  1.00  0.00    -0.266 OA
ENDBRANCH   1  10
BRANCH   4  17
HETATM   17  C5  UNL     1     -28.266 -16.689   0.719  1.00  0.00     0.105 A 
HETATM   18  C6  UNL     1     -27.355 -17.492   1.422  1.00  0.00     0.041 A 
HETATM   19  C7  UNL     1     -27.504 -17.249   2.766  1.00  0.00     0.027 A 
HETATM   20  C8  UNL     1     -28.504 -16.303   2.847  1.00  0.00     0.142 A 
HETATM   21  O2  UNL     1     -28.891 -16.031   1.645  1.00  0.00    -0.320 OA
ENDBRANCH   4  17
BRANCH   5  22
HETATM   22  N5  UNL     1     -26.832 -14.842  -0.901  1.00  0.00    -0.365 N 
HETATM   23  C10 UNL     1     -27.421 -13.604  -0.451  1.00  0.00     0.124 C 
HETATM   24  C11 UNL     1     -27.143 -12.573  -1.540  1.00  0.00     0.020 C 
HETATM   25  C12 UNL     1     -25.737 -12.030  -1.421  1.00  0.00     0.002 C 
HETATM   26  C13 UNL     1     -24.696 -13.079  -1.712  1.00  0.00     0.002 C 
HETATM   27  C14 UNL     1     -24.535 -14.052  -0.545  1.00  0.00     0.020 C 
HETATM   28  C15 UNL     1     -25.445 -15.230  -0.803  1.00  0.00     0.124 C 
ENDBRANCH   5  22
TORSDOF 3
ENDMDL
