MODEL 2
REMARK VINA RESULT: -7.506772535      2.757      6.141
REMARK  3 active torsions:
REMARK  status: ('A' for Active; 'I' for Inactive)
REMARK       I    between atoms: N3_4  and  C2_6 
REMARK    1  A    between atoms: C2_6  and  C3_8 
REMARK    2  A    between atoms: C4_11  and  C5_12 
REMARK    3  A    between atoms: C9_17  and  N5_18 
ROOT
HETATM    1  C3  UNL     1     -27.707 -15.500  -3.618  1.00  0.00     0.143 A 
HETATM    2  N4  UNL     1     -26.432 -15.404  -4.068  1.00  0.00    -0.344 N 
ATOM      3  H4  UNL     1     -26.099 -16.065  -4.770  1.00  0.00     0.166 HD
HETATM    4  C4  UNL     1     -25.587 -14.445  -3.602  1.00  0.00     0.111 A 
HETATM    5  C9  UNL     1     -26.059 -13.568  -2.656  1.00  0.00     0.134 A 
HETATM    6  N6  UNL     1     -27.353 -13.676  -2.209  1.00  0.00    -0.327 N 
ATOM      7  H6  UNL     1     -27.690 -13.018  -1.507  1.00  0.00     0.168 HD
HETATM    8  C16 UNL     1     -28.184 -14.618  -2.667  1.00  0.00     0.150 A 
HETATM    9  N7  UNL     1     -29.523 -14.721  -2.196  1.00  0.00    -0.080 NA
ENDROOT
BRANCH   1  10
HETATM   10  C2  UNL     1     -28.604 -16.530  -4.123  1.00  0.00     0.277 C 
HETATM   11  N3  UNL     1     -29.303 -17.408  -3.256  1.00  0.00    -0.298 N 
HETATM   12  C1  UNL     1     -29.797 -18.517  -3.668  1.00  0.00     0.203 C 
ATOM     13  H3  UNL     1     -29.416 -17.149  -2.275  1.00  0.00     0.171 HD
HETATM   14  N1  UNL     1     -29.630 -18.864  -5.035  1.00  0.00    -0.066 NA
HETATM   15  N2  UNL     1     -30.489 -19.382  -2.800  1.00  0.00    -0.066 NA
HETATM   16  O1  UNL     1     -28.775 -16.660  -5.356  1.00  0.00    -0.266 OA
ENDBRANCH   1  10
BRANCH   4  17
HETATM   17  C5  UNL     1     -24.229 -14.340  -4.122  1.00  0.00     0.105 A 
HETATM   18  C6  UNL     1     -23.929 -14.325  -5.492  1.00  0.00     0.041 A 
HETATM   19  C7  UNL     1     -22.567 -14.218  -5.641  1.00  0.00     0.027 A 
HETATM   20  C8  UNL     1     -22.072 -14.169  -4.354  1.00  0.00     0.142 A 
HETATM   21  O2  UNL     1     -23.074 -14.244  -3.541  1.00  0.00    -0.320 OA
ENDBRANCH   4  17
BRANCH   5  22
HETATM   22  N5  UNL     1     -25.205 -12.572  -2.119  1.00  0.00    -0.365 N 
HETATM   23  C10 UNL     1     -24.513 -12.836  -0.881  1.00  0.00     0.124 C 
HETATM   24  C11 UNL     1     -25.323 -12.160   0.220  1.00  0.00     0.020 C 
HETATM   25  C12 UNL     1     -25.018 -10.681   0.283  1.00  0.00     0.002 C 
HETATM   26  C13 UNL     1     -25.492  -9.950  -0.946  1.00  0.00     0.002 C 
HETATM   27  C14 UNL     1     -24.572 -10.200  -2.140  1.00  0.00     0.020 C 
HETATM   28  C15 UNL     1     -25.134 -11.369  -2.914  1.00  0.00     0.124 C 
ENDBRANCH   5  22
TORSDOF 3
ENDMDL
