MODEL 1
REMARK VINA RESULT: -8.510672552      0.000      0.000
REMARK  3 active torsions:
REMARK  status: ('A' for Active; 'I' for Inactive)
REMARK       I    between atoms: C1_2  and  N3_6 
REMARK       I    between atoms: N3_6  and  C2_8 
REMARK    1  A    between atoms: C2_8  and  C3_10 
REMARK    2  A    between atoms: C4_13  and  C5_14 
REMARK    3  A    between atoms: C9_19  and  N5_20 
ROOT
HETATM    1  C3  UNL     1      -0.678  34.192  25.094  1.00  0.00     0.143 A 
HETATM    2  N4  UNL     1      -0.777  33.595  26.278  1.00  0.00    -0.345 N 
ATOM      3  H4  UNL     1      -1.240  34.078  27.048  1.00  0.00     0.166 HD
HETATM    4  C4  UNL     1      -0.265  32.335  26.481  1.00  0.00     0.089 A 
HETATM    5  C9  UNL     1       0.347  31.714  25.427  1.00  0.00     0.133 A 
HETATM    6  N6  UNL     1       0.431  32.359  24.222  1.00  0.00    -0.327 N 
ATOM      7  H6  UNL     1       0.891  31.888  23.442  1.00  0.00     0.168 HD
HETATM    8  C16 UNL     1      -0.061  33.570  24.034  1.00  0.00     0.150 A 
HETATM    9  N7  UNL     1       0.002  34.279  22.802  1.00  0.00    -0.080 NA
ENDROOT
BRANCH   1  10
HETATM   10  C2  UNL     1      -1.241  35.550  24.916  1.00  0.00     0.278 C 
HETATM   11  N3  UNL     1      -0.969  36.568  25.849  1.00  0.00    -0.296 N 
HETATM   12  C1  UNL     1      -1.467  37.890  25.752  1.00  0.00     0.188 C 
ATOM     13  H3  UNL     1      -0.376  36.338  26.646  1.00  0.00     0.171 HD
HETATM   14  N1  UNL     1      -1.099  38.821  26.791  1.00  0.00    -0.064 NA
HETATM   15  N2  UNL     1      -2.218  38.278  24.790  1.00  0.00    -0.373 N 
ATOM     16  H22 UNL     1      -2.576  39.230  24.720  1.00  0.00     0.158 HD
ATOM     17  H21 UNL     1      -2.478  37.619  24.056  1.00  0.00     0.158 HD
HETATM   18  O1  UNL     1      -1.955  35.782  23.933  1.00  0.00    -0.265 OA
ENDBRANCH   1  10
BRANCH   4  19
HETATM   19  C5  UNL     1      -0.353  31.760  27.823  1.00  0.00     0.018 A 
HETATM   20  C6  UNL     1      -1.170  30.850  28.412  1.00  0.00     0.040 A 
HETATM   21  C7  UNL     1      -0.763  30.677  29.745  1.00  0.00     0.142 A 
HETATM   22  O2  UNL     1       0.257  31.455  29.941  1.00  0.00    -0.334 OA
HETATM   23  C8  UNL     1       0.545  32.118  28.849  1.00  0.00     0.155 A 
ENDBRANCH   4  19
BRANCH   5  24
HETATM   24  N5  UNL     1       0.889  30.389  25.507  1.00  0.00    -0.365 N 
HETATM   25  C10 UNL     1       2.216  30.341  26.025  1.00  0.00     0.124 C 
HETATM   26  C11 UNL     1       2.985  29.119  25.647  1.00  0.00     0.020 C 
HETATM   27  C12 UNL     1       2.189  27.847  25.794  1.00  0.00     0.002 C 
HETATM   28  C13 UNL     1       1.091  27.941  26.794  1.00  0.00     0.002 C 
HETATM   29  C14 UNL     1      -0.201  28.278  26.098  1.00  0.00     0.020 C 
HETATM   30  C15 UNL     1       0.029  29.317  25.054  1.00  0.00     0.124 C 
ENDBRANCH   5  24
TORSDOF 3
ENDMDL
