MODEL 4
REMARK VINA RESULT: -7.912827847      3.319      5.345
REMARK  3 active torsions:
REMARK  status: ('A' for Active; 'I' for Inactive)
REMARK       I    between atoms: C1_2  and  N3_6 
REMARK       I    between atoms: N3_6  and  C2_8 
REMARK    1  A    between atoms: C2_8  and  C3_10 
REMARK    2  A    between atoms: C4_13  and  C5_14 
REMARK    3  A    between atoms: C9_19  and  N5_20 
ROOT
HETATM    1  C3  UNL     1       0.607  32.464  26.791  1.00  0.00     0.143 A 
HETATM    2  N4  UNL     1       1.763  31.808  26.850  1.00  0.00    -0.345 N 
ATOM      3  H4  UNL     1       2.184  31.453  25.992  1.00  0.00     0.166 HD
HETATM    4  C4  UNL     1       2.398  31.601  28.052  1.00  0.00     0.089 A 
HETATM    5  C9  UNL     1       1.807  32.091  29.183  1.00  0.00     0.133 A 
HETATM    6  N6  UNL     1       0.617  32.762  29.085  1.00  0.00    -0.327 N 
ATOM      7  H6  UNL     1       0.183  33.123  29.934  1.00  0.00     0.168 HD
HETATM    8  C16 UNL     1       0.011  32.957  27.928  1.00  0.00     0.150 A 
HETATM    9  N7  UNL     1      -1.224  33.647  27.776  1.00  0.00    -0.080 NA
ENDROOT
BRANCH   1  10
HETATM   10  C2  UNL     1      -0.046  32.667  25.478  1.00  0.00     0.278 C 
HETATM   11  N3  UNL     1      -0.389  33.960  25.038  1.00  0.00    -0.296 N 
HETATM   12  C1  UNL     1      -1.014  34.240  23.799  1.00  0.00     0.188 C 
ATOM     13  H3  UNL     1      -0.172  34.745  25.652  1.00  0.00     0.171 HD
HETATM   14  N1  UNL     1      -1.302  35.620  23.492  1.00  0.00    -0.064 NA
HETATM   15  N2  UNL     1      -1.325  33.325  22.959  1.00  0.00    -0.373 N 
ATOM     16  H22 UNL     1      -1.775  33.527  22.067  1.00  0.00     0.158 HD
ATOM     17  H21 UNL     1      -1.121  32.349  23.176  1.00  0.00     0.158 HD
HETATM   18  O1  UNL     1      -0.289  31.684  24.767  1.00  0.00    -0.265 OA
ENDBRANCH   1  10
BRANCH   4  19
HETATM   19  C5  UNL     1       3.634  30.818  28.055  1.00  0.00     0.018 A 
HETATM   20  C6  UNL     1       3.915  29.492  28.116  1.00  0.00     0.040 A 
HETATM   21  C7  UNL     1       5.309  29.325  28.067  1.00  0.00     0.142 A 
HETATM   22  O2  UNL     1       5.836  30.508  27.981  1.00  0.00    -0.334 OA
HETATM   23  C8  UNL     1       4.903  31.426  27.970  1.00  0.00     0.155 A 
ENDBRANCH   4  19
BRANCH   5  24
HETATM   24  N5  UNL     1       2.389  31.966  30.488  1.00  0.00    -0.365 N 
HETATM   25  C10 UNL     1       2.046  30.756  31.157  1.00  0.00     0.124 C 
HETATM   26  C11 UNL     1       2.175  30.811  32.643  1.00  0.00     0.020 C 
HETATM   27  C12 UNL     1       3.453  31.463  33.105  1.00  0.00     0.002 C 
HETATM   28  C13 UNL     1       4.559  31.381  32.113  1.00  0.00     0.002 C 
HETATM   29  C14 UNL     1       4.600  32.643  31.293  1.00  0.00     0.020 C 
HETATM   30  C15 UNL     1       3.219  33.068  30.927  1.00  0.00     0.124 C 
ENDBRANCH   5  24
TORSDOF 3
ENDMDL
