MODEL 5
REMARK VINA RESULT: -7.855630461      2.472      4.050
REMARK  3 active torsions:
REMARK  status: ('A' for Active; 'I' for Inactive)
REMARK       I    between atoms: C1_2  and  N3_6 
REMARK       I    between atoms: N3_6  and  C2_8 
REMARK    1  A    between atoms: C2_8  and  C3_10 
REMARK    2  A    between atoms: C4_13  and  C5_14 
REMARK    3  A    between atoms: C9_19  and  N5_20 
ROOT
HETATM    1  C3  UNL     1       0.307  31.818  24.943  1.00  0.00     0.143 A 
HETATM    2  N4  UNL     1      -0.202  30.676  24.488  1.00  0.00    -0.345 N 
ATOM      3  H4  UNL     1      -0.933  30.698  23.778  1.00  0.00     0.166 HD
HETATM    4  C4  UNL     1       0.244  29.465  24.963  1.00  0.00     0.089 A 
HETATM    5  C9  UNL     1       1.226  29.470  25.914  1.00  0.00     0.133 A 
HETATM    6  N6  UNL     1       1.726  30.665  26.359  1.00  0.00    -0.327 N 
ATOM      7  H6  UNL     1       2.458  30.659  27.070  1.00  0.00     0.168 HD
HETATM    8  C16 UNL     1       1.294  31.825  25.901  1.00  0.00     0.150 A 
HETATM    9  N7  UNL     1       1.782  33.090  26.331  1.00  0.00    -0.080 NA
ENDROOT
BRANCH   1  10
HETATM   10  C2  UNL     1      -0.199  33.102  24.408  1.00  0.00     0.278 C 
HETATM   11  N3  UNL     1      -0.722  34.083  25.271  1.00  0.00    -0.296 N 
HETATM   12  C1  UNL     1      -1.225  35.336  24.841  1.00  0.00     0.188 C 
ATOM     13  H3  UNL     1      -0.740  33.879  26.270  1.00  0.00     0.171 HD
HETATM   14  N1  UNL     1      -1.729  36.236  25.850  1.00  0.00    -0.064 NA
HETATM   15  N2  UNL     1      -1.245  35.687  23.611  1.00  0.00    -0.373 N 
ATOM     16  H22 UNL     1      -1.607  36.589  23.301  1.00  0.00     0.158 HD
ATOM     17  H21 UNL     1      -0.889  35.051  22.897  1.00  0.00     0.158 HD
HETATM   18  O1  UNL     1      -0.158  33.306  23.189  1.00  0.00    -0.265 OA
ENDBRANCH   1  10
BRANCH   4  19
HETATM   19  C5  UNL     1      -0.400  28.248  24.467  1.00  0.00     0.018 A 
HETATM   20  C6  UNL     1      -1.077  27.228  25.053  1.00  0.00     0.040 A 
HETATM   21  C7  UNL     1      -1.484  26.328  24.056  1.00  0.00     0.142 A 
HETATM   22  O2  UNL     1      -1.065  26.794  22.919  1.00  0.00    -0.334 OA
HETATM   23  C8  UNL     1      -0.421  27.920  23.096  1.00  0.00     0.155 A 
ENDBRANCH   4  19
BRANCH   5  24
HETATM   24  N5  UNL     1       1.793  28.272  26.461  1.00  0.00    -0.365 N 
HETATM   25  C10 UNL     1       1.242  27.897  27.721  1.00  0.00     0.124 C 
HETATM   26  C11 UNL     1       2.120  27.013  28.542  1.00  0.00     0.020 C 
HETATM   27  C12 UNL     1       2.741  25.890  27.751  1.00  0.00     0.002 C 
HETATM   28  C13 UNL     1       1.959  25.505  26.545  1.00  0.00     0.002 C 
HETATM   29  C14 UNL     1       2.507  26.217  25.337  1.00  0.00     0.020 C 
HETATM   30  C15 UNL     1       2.826  27.634  25.671  1.00  0.00     0.124 C 
ENDBRANCH   5  24
TORSDOF 3
ENDMDL
