MODEL 2
REMARK VINA RESULT: -8.497754884      0.535      1.359
REMARK  3 active torsions:
REMARK  status: ('A' for Active; 'I' for Inactive)
REMARK       I    between atoms: C1_2  and  N3_6 
REMARK       I    between atoms: N3_6  and  C2_8 
REMARK    1  A    between atoms: C2_8  and  C3_10 
REMARK    2  A    between atoms: C4_13  and  C5_14 
REMARK    3  A    between atoms: C9_19  and  N5_20 
ROOT
HETATM    1  C3  UNL     1      -0.808  34.133  25.378  1.00  0.00     0.143 A 
HETATM    2  N4  UNL     1      -0.975  33.644  26.604  1.00  0.00    -0.345 N 
ATOM      3  H4  UNL     1      -1.429  34.216  27.316  1.00  0.00     0.166 HD
HETATM    4  C4  UNL     1      -0.546  32.378  26.925  1.00  0.00     0.089 A 
HETATM    5  C9  UNL     1       0.056  31.636  25.946  1.00  0.00     0.133 A 
HETATM    6  N6  UNL     1       0.212  32.173  24.695  1.00  0.00    -0.327 N 
ATOM      7  H6  UNL     1       0.664  31.612  23.972  1.00  0.00     0.168 HD
HETATM    8  C16 UNL     1      -0.201  33.390  24.393  1.00  0.00     0.150 A 
HETATM    9  N7  UNL     1      -0.062  33.988  23.109  1.00  0.00    -0.080 NA
ENDROOT
BRANCH   1  10
HETATM   10  C2  UNL     1      -1.283  35.501  25.071  1.00  0.00     0.278 C 
HETATM   11  N3  UNL     1      -1.041  36.563  25.963  1.00  0.00    -0.296 N 
HETATM   12  C1  UNL     1      -1.460  37.898  25.744  1.00  0.00     0.188 C 
ATOM     13  H3  UNL     1      -0.531  36.356  26.822  1.00  0.00     0.171 HD
HETATM   14  N1  UNL     1      -1.135  38.874  26.756  1.00  0.00    -0.064 NA
HETATM   15  N2  UNL     1      -2.104  38.258  24.699  1.00  0.00    -0.373 N 
ATOM     16  H22 UNL     1      -2.406  39.219  24.542  1.00  0.00     0.158 HD
ATOM     17  H21 UNL     1      -2.334  37.567  23.984  1.00  0.00     0.158 HD
HETATM   18  O1  UNL     1      -1.898  35.703  24.017  1.00  0.00    -0.265 OA
ENDBRANCH   1  10
BRANCH   4  19
HETATM   19  C5  UNL     1      -0.705  31.923  28.307  1.00  0.00     0.018 A 
HETATM   20  C6  UNL     1      -1.624  31.163  28.954  1.00  0.00     0.040 A 
HETATM   21  C7  UNL     1      -1.245  31.049  30.301  1.00  0.00     0.142 A 
HETATM   22  O2  UNL     1      -0.141  31.716  30.449  1.00  0.00    -0.334 OA
HETATM   23  C8  UNL     1       0.226  32.253  29.313  1.00  0.00     0.155 A 
ENDBRANCH   4  19
BRANCH   5  24
HETATM   24  N5  UNL     1       0.516  30.294  26.152  1.00  0.00    -0.365 N 
HETATM   25  C10 UNL     1      -0.465  29.300  25.864  1.00  0.00     0.124 C 
HETATM   26  C11 UNL     1      -0.233  27.988  26.537  1.00  0.00     0.020 C 
HETATM   27  C12 UNL     1       1.199  27.523  26.457  1.00  0.00     0.002 C 
HETATM   28  C13 UNL     1       1.942  28.076  25.293  1.00  0.00     0.002 C 
HETATM   29  C14 UNL     1       2.710  29.300  25.716  1.00  0.00     0.020 C 
HETATM   30  C15 UNL     1       1.879  30.147  26.617  1.00  0.00     0.124 C 
ENDBRANCH   5  24
TORSDOF 3
ENDMDL
