MODEL 3
REMARK VINA RESULT: -8.112907612      3.467      6.692
REMARK  3 active torsions:
REMARK  status: ('A' for Active; 'I' for Inactive)
REMARK       I    between atoms: C1_2  and  N3_6 
REMARK       I    between atoms: N3_6  and  C2_8 
REMARK    1  A    between atoms: C2_8  and  C3_10 
REMARK    2  A    between atoms: C4_13  and  C5_14 
REMARK    3  A    between atoms: C9_19  and  N5_20 
ROOT
HETATM    1  C3  UNL     1       0.191  28.996  24.915  1.00  0.00     0.143 A 
HETATM    2  N4  UNL     1      -0.252  30.240  25.071  1.00  0.00    -0.345 N 
ATOM      3  H4  UNL     1      -1.062  30.555  24.537  1.00  0.00     0.166 HD
HETATM    4  C4  UNL     1       0.366  31.108  25.940  1.00  0.00     0.089 A 
HETATM    5  C9  UNL     1       1.448  30.652  26.641  1.00  0.00     0.133 A 
HETATM    6  N6  UNL     1       1.877  29.365  26.455  1.00  0.00    -0.327 N 
ATOM      7  H6  UNL     1       2.686  29.035  26.982  1.00  0.00     0.168 HD
HETATM    8  C16 UNL     1       1.281  28.536  25.618  1.00  0.00     0.150 A 
HETATM    9  N7  UNL     1       1.689  27.192  25.393  1.00  0.00    -0.080 NA
ENDROOT
BRANCH   1  10
HETATM   10  C2  UNL     1      -0.501  28.091  23.969  1.00  0.00     0.278 C 
HETATM   11  N3  UNL     1      -1.356  27.077  24.441  1.00  0.00    -0.296 N 
HETATM   12  C1  UNL     1      -2.054  26.172  23.605  1.00  0.00     0.188 C 
ATOM     13  H3  UNL     1      -1.480  26.989  25.449  1.00  0.00     0.171 HD
HETATM   14  N1  UNL     1      -2.894  25.186  24.242  1.00  0.00    -0.064 NA
HETATM   15  N2  UNL     1      -1.966  26.201  22.329  1.00  0.00    -0.373 N 
ATOM     16  H22 UNL     1      -2.469  25.550  21.727  1.00  0.00     0.158 HD
ATOM     17  H21 UNL     1      -1.373  26.898  21.879  1.00  0.00     0.158 HD
HETATM   18  O1  UNL     1      -0.320  28.236  22.755  1.00  0.00    -0.265 OA
ENDBRANCH   1  10
BRANCH   4  19
HETATM   19  C5  UNL     1      -0.134  32.481  26.018  1.00  0.00     0.018 A 
HETATM   20  C6  UNL     1      -0.968  33.139  26.863  1.00  0.00     0.040 A 
HETATM   21  C7  UNL     1      -1.070  34.475  26.443  1.00  0.00     0.142 A 
HETATM   22  O2  UNL     1      -0.325  34.606  25.389  1.00  0.00    -0.334 OA
HETATM   23  C8  UNL     1       0.251  33.469  25.089  1.00  0.00     0.155 A 
ENDBRANCH   4  19
BRANCH   5  24
HETATM   24  N5  UNL     1       2.154  31.453  27.598  1.00  0.00    -0.365 N 
HETATM   25  C10 UNL     1       1.660  31.325  28.930  1.00  0.00     0.124 C 
HETATM   26  C11 UNL     1       1.986  32.476  29.824  1.00  0.00     0.020 C 
HETATM   27  C12 UNL     1       3.418  32.932  29.708  1.00  0.00     0.002 C 
HETATM   28  C13 UNL     1       4.348  31.869  29.243  1.00  0.00     0.002 C 
HETATM   29  C14 UNL     1       4.540  31.978  27.753  1.00  0.00     0.020 C 
HETATM   30  C15 UNL     1       3.239  32.260  27.083  1.00  0.00     0.124 C 
ENDBRANCH   5  24
TORSDOF 3
ENDMDL
