MODEL 9
REMARK VINA RESULT: -7.742183295      1.229      1.569
REMARK  3 active torsions:
REMARK  status: ('A' for Active; 'I' for Inactive)
REMARK       I    between atoms: C1_2  and  N3_6 
REMARK       I    between atoms: N3_6  and  C2_8 
REMARK    1  A    between atoms: C2_8  and  C3_10 
REMARK    2  A    between atoms: C4_13  and  C5_14 
REMARK    3  A    between atoms: C9_19  and  N5_20 
ROOT
HETATM    1  C3  UNL     1      -0.783  34.194  25.783  1.00  0.00     0.143 A 
HETATM    2  N4  UNL     1      -0.549  33.980  27.075  1.00  0.00    -0.345 N 
ATOM      3  H4  UNL     1      -0.698  34.735  27.744  1.00  0.00     0.166 HD
HETATM    4  C4  UNL     1      -0.108  32.757  27.521  1.00  0.00     0.089 A 
HETATM    5  C9  UNL     1       0.081  31.767  26.597  1.00  0.00     0.133 A 
HETATM    6  N6  UNL     1      -0.170  32.023  25.275  1.00  0.00    -0.327 N 
ATOM      7  H6  UNL     1      -0.026  31.278  24.593  1.00  0.00     0.168 HD
HETATM    8  C16 UNL     1      -0.592  33.200  24.852  1.00  0.00     0.150 A 
HETATM    9  N7  UNL     1      -0.867  33.512  23.491  1.00  0.00    -0.080 NA
ENDROOT
BRANCH   1  10
HETATM   10  C2  UNL     1      -1.256  35.526  25.341  1.00  0.00     0.278 C 
HETATM   11  N3  UNL     1      -1.035  36.667  26.136  1.00  0.00    -0.296 N 
HETATM   12  C1  UNL     1      -1.454  37.974  25.786  1.00  0.00     0.188 C 
ATOM     13  H3  UNL     1      -0.541  36.543  27.019  1.00  0.00     0.171 HD
HETATM   14  N1  UNL     1      -1.152  39.041  26.709  1.00  0.00    -0.064 NA
HETATM   15  N2  UNL     1      -2.079  38.232  24.700  1.00  0.00    -0.373 N 
ATOM     16  H22 UNL     1      -2.381  39.173  24.448  1.00  0.00     0.158 HD
ATOM     17  H21 UNL     1      -2.292  37.477  24.048  1.00  0.00     0.158 HD
HETATM   18  O1  UNL     1      -1.851  35.626  24.261  1.00  0.00    -0.265 OA
ENDBRANCH   1  10
BRANCH   4  19
HETATM   19  C5  UNL     1       0.190  32.607  28.946  1.00  0.00     0.018 A 
HETATM   20  C6  UNL     1       1.326  32.401  29.659  1.00  0.00     0.040 A 
HETATM   21  C7  UNL     1       0.997  32.352  31.023  1.00  0.00     0.142 A 
HETATM   22  O2  UNL     1      -0.287  32.523  31.117  1.00  0.00    -0.334 OA
HETATM   23  C8  UNL     1      -0.817  32.677  29.930  1.00  0.00     0.155 A 
ENDBRANCH   4  19
BRANCH   5  24
HETATM   24  N5  UNL     1       0.506  30.442  26.945  1.00  0.00    -0.365 N 
HETATM   25  C10 UNL     1       1.898  30.213  26.740  1.00  0.00     0.124 C 
HETATM   26  C11 UNL     1       2.272  28.776  26.582  1.00  0.00     0.020 C 
HETATM   27  C12 UNL     1       1.612  27.875  27.594  1.00  0.00     0.002 C 
HETATM   28  C13 UNL     1       1.234  28.568  28.855  1.00  0.00     0.002 C 
HETATM   29  C14 UNL     1      -0.208  28.996  28.786  1.00  0.00     0.020 C 
HETATM   30  C15 UNL     1      -0.521  29.549  27.438  1.00  0.00     0.124 C 
ENDBRANCH   5  24
TORSDOF 3
ENDMDL
