MODEL 6
REMARK VINA RESULT: -7.236947275      4.076      7.162
REMARK  3 active torsions:
REMARK  status: ('A' for Active; 'I' for Inactive)
REMARK       I    between atoms: N3_4  and  C2_6 
REMARK    1  A    between atoms: C2_6  and  C3_8 
REMARK    2  A    between atoms: C4_11  and  C5_12 
REMARK    3  A    between atoms: C9_20  and  N7_21 
ROOT
HETATM    1  C3  UNL     1     -23.692 -13.398  -4.847  1.00  0.00     0.143 A 
HETATM    2  N4  UNL     1     -24.312 -12.682  -3.899  1.00  0.00    -0.345 N 
ATOM      3  H4  UNL     1     -24.068 -11.703  -3.753  1.00  0.00     0.166 HD
HETATM    4  C4  UNL     1     -25.279 -13.276  -3.124  1.00  0.00     0.090 A 
HETATM    5  C9  UNL     1     -25.586 -14.591  -3.340  1.00  0.00     0.133 A 
HETATM    6  N8  UNL     1     -24.940 -15.313  -4.319  1.00  0.00    -0.327 N 
ATOM      7  H8  UNL     1     -25.176 -16.293  -4.474  1.00  0.00     0.168 HD
HETATM    8  C16 UNL     1     -24.004 -14.722  -5.064  1.00  0.00     0.150 A 
HETATM    9  N9  UNL     1     -23.297 -15.431  -6.102  1.00  0.00    -0.080 NA
ENDROOT
BRANCH   4  10
HETATM   10  C5  UNL     1     -25.946 -12.492  -2.096  1.00  0.00     0.025 A 
HETATM   11  C6  UNL     1     -25.239 -12.286  -0.905  1.00  0.00     0.104 A 
HETATM   12  N5  UNL     1     -25.772 -11.546   0.077  1.00  0.00    -0.361 N 
HETATM   13  C7  UNL     1     -26.991 -11.006  -0.091  1.00  0.00     0.180 A 
ATOM     14  H5  UNL     1     -25.257 -11.395   0.945  1.00  0.00     0.166 HD
HETATM   15  N6  UNL     1     -27.675 -11.201  -1.235  1.00  0.00    -0.361 N 
HETATM   16  C8  UNL     1     -27.194 -11.934  -2.258  1.00  0.00     0.104 A 
ATOM     17  H6  UNL     1     -28.597 -10.775  -1.331  1.00  0.00     0.166 HD
ENDBRANCH   4  10
BRANCH   5  18
HETATM   18  N7  UNL     1     -26.544 -15.267  -2.535  1.00  0.00    -0.365 N 
HETATM   19  C10 UNL     1     -26.068 -15.685  -1.250  1.00  0.00     0.124 C 
HETATM   20  C11 UNL     1     -27.037 -16.497  -0.446  1.00  0.00     0.020 C 
HETATM   21  C12 UNL     1     -27.858 -17.466  -1.251  1.00  0.00     0.002 C 
HETATM   22  C13 UNL     1     -29.189 -16.819  -1.668  1.00  0.00     0.002 C 
HETATM   23  C14 UNL     1     -28.909 -15.391  -2.117  1.00  0.00     0.020 C 
HETATM   24  C15 UNL     1     -27.827 -15.444  -3.141  1.00  0.00     0.124 C 
ENDBRANCH   5  18
BRANCH   1  25
HETATM   25  C2  UNL     1     -22.663 -12.781  -5.677  1.00  0.00     0.277 C 
HETATM   26  N3  UNL     1     -21.355 -13.321  -5.687  1.00  0.00    -0.298 N 
HETATM   27  C1  UNL     1     -20.356 -12.613  -6.072  1.00  0.00     0.203 C 
ATOM     28  H3  UNL     1     -21.204 -14.283  -5.386  1.00  0.00     0.171 HD
HETATM   29  N1  UNL     1     -20.558 -11.247  -6.501  1.00  0.00    -0.066 NA
HETATM   30  N2  UNL     1     -19.026 -13.070  -6.115  1.00  0.00    -0.066 NA
HETATM   31  O1  UNL     1     -22.901 -11.784  -6.381  1.00  0.00    -0.266 OA
ENDBRANCH   1  25
TORSDOF 3
ENDMDL
