MODEL 3
REMARK VINA RESULT: -7.358655595      2.305      4.375
REMARK  3 active torsions:
REMARK  status: ('A' for Active; 'I' for Inactive)
REMARK       I    between atoms: N3_4  and  C2_6 
REMARK    1  A    between atoms: C2_6  and  C3_8 
REMARK    2  A    between atoms: C4_11  and  C5_12 
REMARK    3  A    between atoms: C9_20  and  N7_21 
ROOT
HETATM    1  C3  UNL     1     -28.309 -15.426  -2.104  1.00  0.00     0.143 A 
HETATM    2  N4  UNL     1     -28.509 -14.112  -1.933  1.00  0.00    -0.345 N 
ATOM      3  H4  UNL     1     -28.822 -13.535  -2.714  1.00  0.00     0.166 HD
HETATM    4  C4  UNL     1     -28.290 -13.546  -0.699  1.00  0.00     0.090 A 
HETATM    5  C9  UNL     1     -27.869 -14.343   0.329  1.00  0.00     0.133 A 
HETATM    6  N8  UNL     1     -27.668 -15.692   0.137  1.00  0.00    -0.327 N 
ATOM      7  H8  UNL     1     -27.354 -16.280   0.910  1.00  0.00     0.168 HD
HETATM    8  C16 UNL     1     -27.885 -16.226  -1.066  1.00  0.00     0.150 A 
HETATM    9  N9  UNL     1     -27.690 -17.633  -1.322  1.00  0.00    -0.080 NA
ENDROOT
BRANCH   4  10
HETATM   10  C5  UNL     1     -28.509 -12.119  -0.523  1.00  0.00     0.025 A 
HETATM   11  C6  UNL     1     -27.418 -11.280  -0.780  1.00  0.00     0.104 A 
HETATM   12  N5  UNL     1     -27.549  -9.951  -0.672  1.00  0.00    -0.361 N 
HETATM   13  C7  UNL     1     -28.737  -9.432  -0.315  1.00  0.00     0.180 A 
ATOM     14  H5  UNL     1     -26.755  -9.338  -0.859  1.00  0.00     0.166 HD
HETATM   15  N6  UNL     1     -29.789 -10.235  -0.068  1.00  0.00    -0.361 N 
HETATM   16  C8  UNL     1     -29.721 -11.577  -0.159  1.00  0.00     0.104 A 
ATOM     17  H6  UNL     1     -30.676  -9.808   0.199  1.00  0.00     0.166 HD
ENDBRANCH   4  10
BRANCH   5  18
HETATM   18  N7  UNL     1     -27.581 -13.802   1.612  1.00  0.00    -0.365 N 
HETATM   19  C10 UNL     1     -26.220 -13.402   1.809  1.00  0.00     0.124 C 
HETATM   20  C11 UNL     1     -25.887 -12.938   3.194  1.00  0.00     0.020 C 
HETATM   21  C12 UNL     1     -26.568 -13.709   4.291  1.00  0.00     0.002 C 
HETATM   22  C13 UNL     1     -27.886 -13.021   4.686  1.00  0.00     0.002 C 
HETATM   23  C14 UNL     1     -28.596 -12.576   3.415  1.00  0.00     0.020 C 
HETATM   24  C15 UNL     1     -28.690 -13.759   2.514  1.00  0.00     0.124 C 
ENDBRANCH   5  18
BRANCH   1  25
HETATM   25  C2  UNL     1     -28.536 -16.039  -3.408  1.00  0.00     0.277 C 
HETATM   26  N3  UNL     1     -29.450 -17.112  -3.528  1.00  0.00    -0.298 N 
HETATM   27  C1  UNL     1     -29.394 -17.914  -4.528  1.00  0.00     0.203 C 
ATOM     28  H3  UNL     1     -30.162 -17.251  -2.811  1.00  0.00     0.171 HD
HETATM   29  N1  UNL     1     -28.388 -17.728  -5.550  1.00  0.00    -0.066 NA
HETATM   30  N2  UNL     1     -30.262 -19.003  -4.726  1.00  0.00    -0.066 NA
HETATM   31  O1  UNL     1     -27.942 -15.646  -4.428  1.00  0.00    -0.266 OA
ENDBRANCH   1  25
TORSDOF 3
ENDMDL
