MODEL 5
REMARK VINA RESULT: -7.243386909      3.271      6.650
REMARK  3 active torsions:
REMARK  status: ('A' for Active; 'I' for Inactive)
REMARK       I    between atoms: N3_4  and  C2_6 
REMARK    1  A    between atoms: C2_6  and  C3_8 
REMARK    2  A    between atoms: C4_11  and  C5_12 
REMARK    3  A    between atoms: C9_20  and  N7_21 
ROOT
HETATM    1  C3  UNL     1     -24.691 -13.889  -3.972  1.00  0.00     0.143 A 
HETATM    2  N4  UNL     1     -25.570 -14.897  -3.894  1.00  0.00    -0.345 N 
ATOM      3  H4  UNL     1     -25.457 -15.724  -4.480  1.00  0.00     0.166 HD
HETATM    4  C4  UNL     1     -26.626 -14.811  -3.017  1.00  0.00     0.090 A 
HETATM    5  C9  UNL     1     -26.754 -13.690  -2.244  1.00  0.00     0.133 A 
HETATM    6  N8  UNL     1     -25.842 -12.662  -2.337  1.00  0.00    -0.327 N 
ATOM      7  H8  UNL     1     -25.945 -11.830  -1.755  1.00  0.00     0.168 HD
HETATM    8  C16 UNL     1     -24.822 -12.762  -3.192  1.00  0.00     0.150 A 
HETATM    9  N9  UNL     1     -23.839 -11.715  -3.329  1.00  0.00    -0.080 NA
ENDROOT
BRANCH   4  10
HETATM   10  C5  UNL     1     -27.576 -15.909  -2.939  1.00  0.00     0.025 A 
HETATM   11  C6  UNL     1     -28.506 -16.010  -3.980  1.00  0.00     0.104 A 
HETATM   12  N5  UNL     1     -29.393 -17.015  -3.997  1.00  0.00    -0.361 N 
HETATM   13  C7  UNL     1     -29.382 -17.923  -3.006  1.00  0.00     0.180 A 
ATOM     14  H5  UNL     1     -30.072 -17.090  -4.756  1.00  0.00     0.166 HD
HETATM   15  N6  UNL     1     -28.488 -17.830  -2.003  1.00  0.00    -0.361 N 
HETATM   16  C8  UNL     1     -27.572 -16.844  -1.929  1.00  0.00     0.104 A 
ATOM     17  H6  UNL     1     -28.506 -18.536  -1.267  1.00  0.00     0.166 HD
ENDBRANCH   4  10
BRANCH   5  18
HETATM   18  N7  UNL     1     -27.854 -13.528  -1.356  1.00  0.00    -0.365 N 
HETATM   19  C10 UNL     1     -29.058 -13.050  -1.966  1.00  0.00     0.124 C 
HETATM   20  C11 UNL     1     -30.183 -12.769  -1.017  1.00  0.00     0.020 C 
HETATM   21  C12 UNL     1     -29.759 -12.164   0.293  1.00  0.00     0.002 C 
HETATM   22  C13 UNL     1     -29.531 -13.266   1.340  1.00  0.00     0.002 C 
HETATM   23  C14 UNL     1     -28.788 -14.416   0.674  1.00  0.00     0.020 C 
HETATM   24  C15 UNL     1     -27.580 -13.848   0.010  1.00  0.00     0.124 C 
ENDBRANCH   5  18
BRANCH   1  25
HETATM   25  C2  UNL     1     -23.567 -13.966  -4.899  1.00  0.00     0.277 C 
HETATM   26  N3  UNL     1     -22.334 -14.504  -4.461  1.00  0.00    -0.298 N 
HETATM   27  C1  UNL     1     -21.244 -14.242  -5.087  1.00  0.00     0.203 C 
ATOM     28  H3  UNL     1     -22.310 -15.107  -3.639  1.00  0.00     0.171 HD
HETATM   29  N1  UNL     1     -21.266 -13.387  -6.252  1.00  0.00    -0.066 NA
HETATM   30  N2  UNL     1     -19.978 -14.733  -4.721  1.00  0.00    -0.066 NA
HETATM   31  O1  UNL     1     -23.659 -13.568  -6.074  1.00  0.00    -0.266 OA
ENDBRANCH   1  25
TORSDOF 3
ENDMDL
