MODEL 7
REMARK VINA RESULT: -7.217826797      0.913      1.160
REMARK  3 active torsions:
REMARK  status: ('A' for Active; 'I' for Inactive)
REMARK       I    between atoms: N3_4  and  C2_6 
REMARK    1  A    between atoms: C2_6  and  C3_8 
REMARK    2  A    between atoms: C4_11  and  C5_12 
REMARK    3  A    between atoms: C9_20  and  N7_21 
ROOT
HETATM    1  C3  UNL     1     -28.913 -17.318  -3.193  1.00  0.00     0.143 A 
HETATM    2  N4  UNL     1     -28.561 -17.182  -1.907  1.00  0.00    -0.345 N 
ATOM      3  H4  UNL     1     -28.933 -17.819  -1.203  1.00  0.00     0.166 HD
HETATM    4  C4  UNL     1     -27.694 -16.179  -1.543  1.00  0.00     0.090 A 
HETATM    5  C9  UNL     1     -27.211 -15.339  -2.508  1.00  0.00     0.133 A 
HETATM    6  N8  UNL     1     -27.583 -15.492  -3.825  1.00  0.00    -0.327 N 
ATOM      7  H8  UNL     1     -27.217 -14.860  -4.538  1.00  0.00     0.168 HD
HETATM    8  C16 UNL     1     -28.425 -16.471  -4.163  1.00  0.00     0.150 A 
HETATM    9  N9  UNL     1     -28.846 -16.675  -5.527  1.00  0.00    -0.080 NA
ENDROOT
BRANCH   4  10
HETATM   10  C5  UNL     1     -27.317 -16.039  -0.145  1.00  0.00     0.025 A 
HETATM   11  C6  UNL     1     -26.179 -16.738   0.272  1.00  0.00     0.104 A 
HETATM   12  N5  UNL     1     -25.749 -16.634   1.537  1.00  0.00    -0.361 N 
HETATM   13  C7  UNL     1     -26.420 -15.852   2.400  1.00  0.00     0.180 A 
ATOM     14  H5  UNL     1     -24.919 -17.143   1.843  1.00  0.00     0.166 HD
HETATM   15  N6  UNL     1     -27.515 -15.176   2.003  1.00  0.00    -0.361 N 
HETATM   16  C8  UNL     1     -27.998 -15.240   0.746  1.00  0.00     0.104 A 
ATOM     17  H6  UNL     1     -28.000 -14.590   2.683  1.00  0.00     0.166 HD
ENDBRANCH   4  10
BRANCH   5  18
HETATM   18  N7  UNL     1     -26.350 -14.256  -2.179  1.00  0.00    -0.365 N 
HETATM   19  C10 UNL     1     -27.015 -13.023  -1.881  1.00  0.00     0.124 C 
HETATM   20  C11 UNL     1     -26.109 -11.852  -1.646  1.00  0.00     0.020 C 
HETATM   21  C12 UNL     1     -24.899 -11.811  -2.538  1.00  0.00     0.002 C 
HETATM   22  C13 UNL     1     -23.709 -12.503  -1.853  1.00  0.00     0.002 C 
HETATM   23  C14 UNL     1     -24.211 -13.778  -1.189  1.00  0.00     0.020 C 
HETATM   24  C15 UNL     1     -24.953 -14.560  -2.218  1.00  0.00     0.124 C 
ENDBRANCH   5  18
BRANCH   1  25
HETATM   25  C2  UNL     1     -29.833 -18.376  -3.594  1.00  0.00     0.277 C 
HETATM   26  N3  UNL     1     -30.578 -18.242  -4.789  1.00  0.00    -0.298 N 
HETATM   27  C1  UNL     1     -31.647 -18.927  -4.977  1.00  0.00     0.203 C 
ATOM     28  H3  UNL     1     -30.263 -17.593  -5.509  1.00  0.00     0.171 HD
HETATM   29  N1  UNL     1     -32.105 -19.849  -3.961  1.00  0.00    -0.066 NA
HETATM   30  N2  UNL     1     -32.446 -18.855  -6.133  1.00  0.00    -0.066 NA
HETATM   31  O1  UNL     1     -29.987 -19.404  -2.910  1.00  0.00    -0.266 OA
ENDBRANCH   1  25
TORSDOF 3
ENDMDL
