MODEL 3
REMARK VINA RESULT: -8.207640851      1.086      1.228
REMARK  5 active torsions:
REMARK  status: ('A' for Active; 'I' for Inactive)
REMARK    1  A    between atoms: O1_2  and  C2_3 
REMARK    2  A    between atoms: C4_7  and  C5_8 
REMARK    3  A    between atoms: C6_11  and  C7_12 
REMARK       I    between atoms: C7_12  and  N3_14 
REMARK    4  A    between atoms: C10_23  and  N8_24 
REMARK    5  A    between atoms: C17_31  and  O3_32 
ROOT
HETATM    1  C5  UNL     1     -26.831 -15.109  -3.083  1.00  0.00     0.093 A 
HETATM    2  N2  UNL     1     -25.733 -15.147  -3.877  1.00  0.00    -0.345 N 
ATOM      3  H2  UNL     1     -25.584 -15.959  -4.475  1.00  0.00     0.166 HD
HETATM    4  C6  UNL     1     -24.835 -14.149  -3.902  1.00  0.00     0.143 A 
HETATM    5  C9  UNL     1     -25.021 -13.045  -3.100  1.00  0.00     0.150 A 
HETATM    6  N6  UNL     1     -24.065 -11.963  -3.116  1.00  0.00    -0.080 NA
HETATM    7  N7  UNL     1     -26.105 -13.003  -2.312  1.00  0.00    -0.327 N 
ATOM      8  H7  UNL     1     -26.248 -12.188  -1.714  1.00  0.00     0.168 HD
HETATM    9  C10 UNL     1     -27.017 -14.006  -2.281  1.00  0.00     0.133 A 
ENDROOT
BRANCH   1  10
HETATM   10  C4  UNL     1     -27.828 -16.166  -3.033  1.00  0.00     0.061 A 
HETATM   11  C3  UNL     1     -28.810 -16.273  -3.987  1.00  0.00     0.110 A 
HETATM   12  N1  UNL     1     -29.703 -17.272  -3.878  1.00  0.00    -0.331 N 
HETATM   13  C2  UNL     1     -29.686 -18.173  -2.885  1.00  0.00     0.224 A 
ATOM     14  H1  UNL     1     -30.431 -17.349  -4.588  1.00  0.00     0.168 HD
HETATM   15  N9  UNL     1     -28.706 -18.054  -1.947  1.00  0.00    -0.302 N 
HETATM   16  C17 UNL     1     -27.789 -17.087  -1.993  1.00  0.00     0.159 A 
ATOM     17  H9  UNL     1     -28.672 -18.728  -1.182  1.00  0.00     0.171 HD
BRANCH  13  18
HETATM   18  O1  UNL     1     -30.623 -19.198  -2.799  1.00  0.00    -0.327 OA
HETATM   19  C1  UNL     1     -31.684 -19.233  -3.748  1.00  0.00     0.213 C 
ENDBRANCH  13  18
BRANCH  16  20
HETATM   20  O3  UNL     1     -26.781 -16.965  -1.029  1.00  0.00    -0.340 OA
HETATM   21  C18 UNL     1     -26.969 -17.625   0.231  1.00  0.00     0.211 C 
ENDBRANCH  16  20
ENDBRANCH   1  10
BRANCH   9  22
HETATM   22  N8  UNL     1     -28.122 -13.849  -1.410  1.00  0.00    -0.365 N 
HETATM   23  C11 UNL     1     -29.397 -13.574  -2.013  1.00  0.00     0.124 C 
HETATM   24  C12 UNL     1     -29.885 -12.195  -1.652  1.00  0.00     0.020 C 
HETATM   25  C13 UNL     1     -29.404 -11.739  -0.301  1.00  0.00     0.002 C 
HETATM   26  C14 UNL     1     -29.799 -12.656   0.813  1.00  0.00     0.002 C 
HETATM   27  C15 UNL     1     -29.099 -13.967   0.817  1.00  0.00     0.020 C 
HETATM   28  C16 UNL     1     -27.829 -13.984  -0.006  1.00  0.00     0.124 C 
ENDBRANCH   9  22
BRANCH   4  29
HETATM   29  C7  UNL     1     -23.669 -14.218  -4.771  1.00  0.00     0.277 C 
HETATM   30  O2  UNL     1     -22.906 -15.219  -4.729  1.00  0.00    -0.266 OA
HETATM   31  N3  UNL     1     -23.422 -13.123  -5.665  1.00  0.00    -0.298 N 
HETATM   32  C8  UNL     1     -22.250 -12.617  -5.807  1.00  0.00     0.203 C 
ATOM     33  H3  UNL     1     -24.198 -12.735  -6.201  1.00  0.00     0.171 HD
HETATM   34  N4  UNL     1     -21.972 -11.537  -6.679  1.00  0.00    -0.066 NA
HETATM   35  N5  UNL     1     -21.173 -13.157  -5.056  1.00  0.00    -0.066 NA
ENDBRANCH   4  29
TORSDOF 5
ENDMDL
