MODEL 1
REMARK VINA RESULT: -8.922960284      0.000      0.000
REMARK  5 active torsions:
REMARK  status: ('A' for Active; 'I' for Inactive)
REMARK    1  A    between atoms: O1_2  and  C2_3 
REMARK    2  A    between atoms: C4_7  and  C5_8 
REMARK    3  A    between atoms: C6_11  and  C7_12 
REMARK       I    between atoms: C7_12  and  N3_14 
REMARK    4  A    between atoms: C10_23  and  N8_24 
REMARK    5  A    between atoms: C17_31  and  O3_32 
ROOT
HETATM    1  C5  UNL     1     -26.971 -14.905  -2.848  1.00  0.00     0.093 A 
HETATM    2  N2  UNL     1     -25.856 -14.848  -3.617  1.00  0.00    -0.345 N 
ATOM      3  H2  UNL     1     -25.638 -15.634  -4.229  1.00  0.00     0.166 HD
HETATM    4  C6  UNL     1     -25.030 -13.790  -3.598  1.00  0.00     0.143 A 
HETATM    5  C9  UNL     1     -25.310 -12.721  -2.776  1.00  0.00     0.150 A 
HETATM    6  N6  UNL     1     -24.432 -11.576  -2.745  1.00  0.00    -0.080 NA
HETATM    7  N7  UNL     1     -26.411 -12.773  -2.012  1.00  0.00    -0.327 N 
ATOM      8  H7  UNL     1     -26.624 -11.985  -1.400  1.00  0.00     0.168 HD
HETATM    9  C10 UNL     1     -27.251 -13.838  -2.026  1.00  0.00     0.133 A 
ENDROOT
BRANCH   1  10
HETATM   10  C4  UNL     1     -27.893 -16.030  -2.846  1.00  0.00     0.061 A 
HETATM   11  C3  UNL     1     -28.896 -16.139  -3.778  1.00  0.00     0.110 A 
HETATM   12  N1  UNL     1     -29.715 -17.203  -3.715  1.00  0.00    -0.331 N 
HETATM   13  C2  UNL     1     -29.606 -18.167  -2.789  1.00  0.00     0.224 A 
ATOM     14  H1  UNL     1     -30.459 -17.281  -4.408  1.00  0.00     0.168 HD
HETATM   15  N9  UNL     1     -28.606 -18.045  -1.872  1.00  0.00    -0.302 N 
HETATM   16  C17 UNL     1     -27.758 -17.016  -1.875  1.00  0.00     0.159 A 
ATOM     17  H9  UNL     1     -28.502 -18.766  -1.158  1.00  0.00     0.171 HD
BRANCH  13  18
HETATM   18  O1  UNL     1     -30.469 -19.258  -2.749  1.00  0.00    -0.327 OA
HETATM   19  C1  UNL     1     -31.612 -19.253  -3.598  1.00  0.00     0.213 C 
ENDBRANCH  13  18
BRANCH  16  20
HETATM   20  O3  UNL     1     -26.730 -16.890  -0.933  1.00  0.00    -0.340 OA
HETATM   21  C18 UNL     1     -26.867 -17.590   0.312  1.00  0.00     0.211 C 
ENDBRANCH  16  20
ENDBRANCH   1  10
BRANCH   9  22
HETATM   22  N8  UNL     1     -28.384 -13.779  -1.178  1.00  0.00    -0.365 N 
HETATM   23  C11 UNL     1     -29.650 -13.495  -1.795  1.00  0.00     0.124 C 
HETATM   24  C12 UNL     1     -30.189 -12.162  -1.345  1.00  0.00     0.020 C 
HETATM   25  C13 UNL     1     -29.758 -11.797   0.050  1.00  0.00     0.002 C 
HETATM   26  C14 UNL     1     -30.155 -12.807   1.080  1.00  0.00     0.002 C 
HETATM   27  C15 UNL     1     -29.415 -14.094   1.004  1.00  0.00     0.020 C 
HETATM   28  C16 UNL     1     -28.124 -14.012   0.219  1.00  0.00     0.124 C 
ENDBRANCH   9  22
BRANCH   4  29
HETATM   29  C7  UNL     1     -23.843 -13.757  -4.440  1.00  0.00     0.277 C 
HETATM   30  O2  UNL     1     -23.954 -13.742  -5.695  1.00  0.00    -0.266 OA
HETATM   31  N3  UNL     1     -22.558 -13.742  -3.801  1.00  0.00    -0.298 N 
HETATM   32  C8  UNL     1     -21.595 -14.493  -4.201  1.00  0.00     0.203 C 
ATOM     33  H3  UNL     1     -22.405 -13.120  -3.008  1.00  0.00     0.171 HD
HETATM   34  N4  UNL     1     -20.317 -14.504  -3.594  1.00  0.00    -0.066 NA
HETATM   35  N5  UNL     1     -21.812 -15.361  -5.303  1.00  0.00    -0.066 NA
ENDBRANCH   4  29
TORSDOF 5
ENDMDL
