MODEL 7
REMARK VINA RESULT: -7.501304025      2.830      6.451
REMARK  5 active torsions:
REMARK  status: ('A' for Active; 'I' for Inactive)
REMARK    1  A    between atoms: O1_2  and  C2_3 
REMARK    2  A    between atoms: C4_7  and  C5_8 
REMARK    3  A    between atoms: C6_11  and  C7_12 
REMARK       I    between atoms: C7_12  and  N3_14 
REMARK    4  A    between atoms: C10_23  and  N8_24 
REMARK    5  A    between atoms: C17_31  and  O3_32 
ROOT
HETATM    1  C5  UNL     1     -28.273 -16.026  -1.487  1.00  0.00     0.093 A 
HETATM    2  N2  UNL     1     -28.990 -17.041  -2.028  1.00  0.00    -0.345 N 
ATOM      3  H2  UNL     1     -29.689 -17.511  -1.454  1.00  0.00     0.166 HD
HETATM    4  C6  UNL     1     -28.807 -17.448  -3.295  1.00  0.00     0.143 A 
HETATM    5  C9  UNL     1     -27.865 -16.823  -4.082  1.00  0.00     0.150 A 
HETATM    6  N6  UNL     1     -27.657 -17.249  -5.445  1.00  0.00    -0.080 NA
HETATM    7  N7  UNL     1     -27.153 -15.819  -3.551  1.00  0.00    -0.327 N 
ATOM      8  H7  UNL     1     -26.452 -15.353  -4.128  1.00  0.00     0.168 HD
HETATM    9  C10 UNL     1     -27.331 -15.402  -2.273  1.00  0.00     0.133 A 
ENDROOT
BRANCH   1  10
HETATM   10  C4  UNL     1     -28.446 -15.553  -0.123  1.00  0.00     0.061 A 
HETATM   11  C3  UNL     1     -28.998 -14.324   0.147  1.00  0.00     0.110 A 
HETATM   12  N1  UNL     1     -29.125 -13.948   1.431  1.00  0.00    -0.331 N 
HETATM   13  C2  UNL     1     -28.742 -14.709   2.467  1.00  0.00     0.224 A 
ATOM     14  H1  UNL     1     -29.535 -13.035   1.629  1.00  0.00     0.168 HD
HETATM   15  N9  UNL     1     -28.197 -15.925   2.183  1.00  0.00    -0.302 N 
HETATM   16  C17 UNL     1     -28.040 -16.361   0.932  1.00  0.00     0.159 A 
ATOM     17  H9  UNL     1     -27.897 -16.522   2.954  1.00  0.00     0.171 HD
BRANCH  13  18
HETATM   18  O1  UNL     1     -28.887 -14.293   3.786  1.00  0.00    -0.327 OA
HETATM   19  C1  UNL     1     -28.561 -12.946   4.116  1.00  0.00     0.213 C 
ENDBRANCH  13  18
BRANCH  16  20
HETATM   20  O3  UNL     1     -27.480 -17.611   0.641  1.00  0.00    -0.340 OA
HETATM   21  C18 UNL     1     -26.108 -17.834   0.994  1.00  0.00     0.211 C 
ENDBRANCH  16  20
ENDBRANCH   1  10
BRANCH   9  22
HETATM   22  N8  UNL     1     -26.522 -14.330  -1.823  1.00  0.00    -0.365 N 
HETATM   23  C11 UNL     1     -26.906 -13.006  -2.226  1.00  0.00     0.124 C 
HETATM   24  C12 UNL     1     -25.880 -12.396  -3.145  1.00  0.00     0.020 C 
HETATM   25  C13 UNL     1     -24.485 -12.893  -2.877  1.00  0.00     0.002 C 
HETATM   26  C14 UNL     1     -24.025 -12.650  -1.474  1.00  0.00     0.002 C 
HETATM   27  C15 UNL     1     -24.703 -13.482  -0.446  1.00  0.00     0.020 C 
HETATM   28  C16 UNL     1     -25.396 -14.704  -1.007  1.00  0.00     0.124 C 
ENDBRANCH   9  22
BRANCH   4  29
HETATM   29  C7  UNL     1     -29.597 -18.539  -3.847  1.00  0.00     0.277 C 
HETATM   30  O2  UNL     1     -29.428 -18.904  -5.040  1.00  0.00    -0.266 OA
HETATM   31  N3  UNL     1     -30.561 -19.177  -2.996  1.00  0.00    -0.298 N 
HETATM   32  C8  UNL     1     -31.750 -19.444  -3.403  1.00  0.00     0.203 C 
ATOM     33  H3  UNL     1     -30.296 -19.424  -2.043  1.00  0.00     0.171 HD
HETATM   34  N4  UNL     1     -32.725 -20.071  -2.591  1.00  0.00    -0.066 NA
HETATM   35  N5  UNL     1     -32.117 -19.096  -4.730  1.00  0.00    -0.066 NA
ENDBRANCH   4  29
TORSDOF 5
ENDMDL
