MODEL 2
REMARK VINA RESULT: -8.231169890      0.958      1.728
REMARK  5 active torsions:
REMARK  status: ('A' for Active; 'I' for Inactive)
REMARK    1  A    between atoms: O1_2  and  C2_3 
REMARK    2  A    between atoms: C4_7  and  C5_8 
REMARK    3  A    between atoms: C6_11  and  C7_12 
REMARK       I    between atoms: C7_12  and  N3_14 
REMARK    4  A    between atoms: C10_23  and  N8_24 
REMARK    5  A    between atoms: C17_31  and  O3_32 
ROOT
HETATM    1  C5  UNL     1     -27.024 -15.029  -2.655  1.00  0.00     0.093 A 
HETATM    2  N2  UNL     1     -25.926 -14.979  -3.448  1.00  0.00    -0.345 N 
ATOM      3  H2  UNL     1     -25.693 -15.791  -4.019  1.00  0.00     0.166 HD
HETATM    4  C6  UNL     1     -25.137 -13.894  -3.507  1.00  0.00     0.143 A 
HETATM    5  C9  UNL     1     -25.439 -12.789  -2.742  1.00  0.00     0.150 A 
HETATM    6  N6  UNL     1     -24.600 -11.616  -2.795  1.00  0.00    -0.080 NA
HETATM    7  N7  UNL     1     -26.523 -12.834  -1.954  1.00  0.00    -0.327 N 
ATOM      8  H7  UNL     1     -26.752 -12.020  -1.384  1.00  0.00     0.168 HD
HETATM    9  C10 UNL     1     -27.326 -13.925  -1.889  1.00  0.00     0.133 A 
ENDROOT
BRANCH   1  10
HETATM   10  C4  UNL     1     -27.906 -16.182  -2.568  1.00  0.00     0.061 A 
HETATM   11  C3  UNL     1     -28.011 -16.921  -1.415  1.00  0.00     0.110 A 
HETATM   12  N1  UNL     1     -28.844 -17.977  -1.406  1.00  0.00    -0.331 N 
HETATM   13  C2  UNL     1     -29.579 -18.348  -2.464  1.00  0.00     0.224 A 
ATOM     14  H1  UNL     1     -28.920 -18.524  -0.548  1.00  0.00     0.168 HD
HETATM   15  N9  UNL     1     -29.464 -17.605  -3.599  1.00  0.00    -0.302 N 
HETATM   16  C17 UNL     1     -28.658 -16.546  -3.679  1.00  0.00     0.159 A 
ATOM     17  H9  UNL     1     -30.014 -17.867  -4.417  1.00  0.00     0.171 HD
BRANCH  13  18
HETATM   18  O1  UNL     1     -30.433 -19.446  -2.424  1.00  0.00    -0.327 OA
HETATM   19  C1  UNL     1     -31.639 -19.400  -3.180  1.00  0.00     0.213 C 
ENDBRANCH  13  18
BRANCH  16  20
HETATM   20  O3  UNL     1     -28.540 -15.781  -4.846  1.00  0.00    -0.340 OA
HETATM   21  C18 UNL     1     -28.904 -16.392  -6.092  1.00  0.00     0.211 C 
ENDBRANCH  16  20
ENDBRANCH   1  10
BRANCH   9  22
HETATM   22  N8  UNL     1     -28.444 -13.856  -1.023  1.00  0.00    -0.365 N 
HETATM   23  C11 UNL     1     -29.733 -13.679  -1.631  1.00  0.00     0.124 C 
HETATM   24  C12 UNL     1     -30.328 -12.343  -1.271  1.00  0.00     0.020 C 
HETATM   25  C13 UNL     1     -29.889 -11.853   0.082  1.00  0.00     0.002 C 
HETATM   26  C14 UNL     1     -30.218 -12.799   1.194  1.00  0.00     0.002 C 
HETATM   27  C15 UNL     1     -29.418 -14.051   1.199  1.00  0.00     0.020 C 
HETATM   28  C16 UNL     1     -28.147 -13.969   0.382  1.00  0.00     0.124 C 
ENDBRANCH   9  22
BRANCH   4  29
HETATM   29  C7  UNL     1     -23.968 -13.871  -4.374  1.00  0.00     0.277 C 
HETATM   30  O2  UNL     1     -24.104 -13.922  -5.625  1.00  0.00    -0.266 OA
HETATM   31  N3  UNL     1     -22.672 -13.788  -3.762  1.00  0.00    -0.298 N 
HETATM   32  C8  UNL     1     -21.695 -14.530  -4.144  1.00  0.00     0.203 C 
ATOM     33  H3  UNL     1     -22.522 -13.122  -3.005  1.00  0.00     0.171 HD
HETATM   34  N4  UNL     1     -20.406 -14.475  -3.564  1.00  0.00    -0.066 NA
HETATM   35  N5  UNL     1     -21.908 -15.459  -5.197  1.00  0.00    -0.066 NA
ENDBRANCH   4  29
TORSDOF 5
ENDMDL
