MODEL 13
REMARK VINA RESULT: -7.280582578      3.489      6.463
REMARK  5 active torsions:
REMARK  status: ('A' for Active; 'I' for Inactive)
REMARK    1  A    between atoms: O1_2  and  C2_3 
REMARK    2  A    between atoms: C4_7  and  C5_8 
REMARK    3  A    between atoms: C6_11  and  C7_12 
REMARK       I    between atoms: C7_12  and  N3_14 
REMARK    4  A    between atoms: C10_23  and  N8_24 
REMARK    5  A    between atoms: C17_31  and  O3_32 
ROOT
HETATM    1  C5  UNL     1     -28.660 -16.237  -0.385  1.00  0.00     0.093 A 
HETATM    2  N2  UNL     1     -29.178 -17.286  -1.070  1.00  0.00    -0.345 N 
ATOM      3  H2  UNL     1     -29.515 -18.096  -0.551  1.00  0.00     0.166 HD
HETATM    4  C6  UNL     1     -29.261 -17.292  -2.410  1.00  0.00     0.143 A 
HETATM    5  C9  UNL     1     -28.809 -16.205  -3.126  1.00  0.00     0.150 A 
HETATM    6  N6  UNL     1     -28.892 -16.197  -4.567  1.00  0.00    -0.080 NA
HETATM    7  N7  UNL     1     -28.295 -15.166  -2.453  1.00  0.00    -0.327 N 
ATOM      8  H7  UNL     1     -27.958 -14.358  -2.977  1.00  0.00     0.168 HD
HETATM    9  C10 UNL     1     -28.208 -15.151  -1.100  1.00  0.00     0.133 A 
ENDROOT
BRANCH   1  10
HETATM   10  C4  UNL     1     -28.560 -16.190   1.065  1.00  0.00     0.061 A 
HETATM   11  C3  UNL     1     -29.400 -15.407   1.819  1.00  0.00     0.110 A 
HETATM   12  N1  UNL     1     -29.249 -15.409   3.155  1.00  0.00    -0.331 N 
HETATM   13  C2  UNL     1     -28.320 -16.135   3.793  1.00  0.00     0.224 A 
ATOM     14  H1  UNL     1     -29.874 -14.827   3.712  1.00  0.00     0.168 HD
HETATM   15  N9  UNL     1     -27.495 -16.906   3.032  1.00  0.00    -0.302 N 
HETATM   16  C17 UNL     1     -27.588 -16.952   1.703  1.00  0.00     0.159 A 
ATOM     17  H9  UNL     1     -26.780 -17.468   3.495  1.00  0.00     0.171 HD
BRANCH  13  18
HETATM   18  O1  UNL     1     -28.188 -16.117   5.179  1.00  0.00    -0.327 OA
HETATM   19  C1  UNL     1     -27.997 -17.351   5.862  1.00  0.00     0.213 C 
ENDBRANCH  13  18
BRANCH  16  20
HETATM   20  O3  UNL     1     -26.739 -17.745   0.920  1.00  0.00    -0.340 OA
HETATM   21  C18 UNL     1     -25.734 -18.520   1.588  1.00  0.00     0.211 C 
ENDBRANCH  16  20
ENDBRANCH   1  10
BRANCH   9  22
HETATM   22  N8  UNL     1     -27.649 -13.997  -0.499  1.00  0.00    -0.365 N 
HETATM   23  C11 UNL     1     -28.516 -12.864  -0.325  1.00  0.00     0.124 C 
HETATM   24  C12 UNL     1     -28.077 -11.705  -1.181  1.00  0.00     0.020 C 
HETATM   25  C13 UNL     1     -26.591 -11.682  -1.417  1.00  0.00     0.002 C 
HETATM   26  C14 UNL     1     -25.787 -11.632  -0.156  1.00  0.00     0.002 C 
HETATM   27  C15 UNL     1     -25.812 -12.883   0.645  1.00  0.00     0.020 C 
HETATM   28  C16 UNL     1     -26.260 -14.100  -0.134  1.00  0.00     0.124 C 
ENDBRANCH   9  22
BRANCH   4  29
HETATM   29  C7  UNL     1     -29.827 -18.433  -3.115  1.00  0.00     0.277 C 
HETATM   30  O2  UNL     1     -29.332 -18.812  -4.210  1.00  0.00    -0.266 OA
HETATM   31  N3  UNL     1     -30.952 -19.104  -2.528  1.00  0.00    -0.298 N 
HETATM   32  C8  UNL     1     -31.977 -19.440  -3.224  1.00  0.00     0.203 C 
ATOM     33  H3  UNL     1     -30.936 -19.319  -1.531  1.00  0.00     0.171 HD
HETATM   34  N4  UNL     1     -33.103 -20.102  -2.678  1.00  0.00    -0.066 NA
HETATM   35  N5  UNL     1     -31.996 -19.137  -4.611  1.00  0.00    -0.066 NA
ENDBRANCH   4  29
TORSDOF 5
ENDMDL
