MODEL 2
REMARK VINA RESULT: -7.350997091      0.893      7.218
REMARK  0 active torsions:
REMARK  status: ('A' for Active; 'I' for Inactive)
ROOT
HETATM    1  C1  UNL     1     -12.304  -6.248  24.179  1.00  0.00     0.156 C 
HETATM    2  N1  UNL     1     -13.544  -6.601  23.568  1.00  0.00    -0.359 N 
HETATM    3  C2  UNL     1     -14.704  -6.311  24.256  1.00  0.00     0.106 A 
HETATM    4  C3  UNL     1     -15.946  -6.659  23.873  1.00  0.00     0.027 A 
HETATM    5  C4  UNL     1     -17.032  -6.319  24.632  1.00  0.00     0.117 A 
HETATM    6  C5  UNL     1     -18.285  -6.699  24.197  1.00  0.00     0.105 A 
HETATM    7  C6  UNL     1     -18.461  -7.403  23.032  1.00  0.00     0.040 A 
HETATM    8  C7  UNL     1     -17.339  -7.747  22.261  1.00  0.00     0.016 A 
HETATM    9  C8  UNL     1     -16.099  -7.355  22.719  1.00  0.00    -0.009 A 
HETATM   10  C9  UNL     1     -14.982  -7.676  21.981  1.00  0.00     0.003 A 
HETATM   11  C10 UNL     1     -15.121  -8.395  20.820  1.00  0.00     0.015 A 
HETATM   12  C11 UNL     1     -14.016  -8.727  20.093  1.00  0.00     0.013 A 
HETATM   13  C12 UNL     1     -12.750  -8.364  20.478  1.00  0.00    -0.021 A 
HETATM   14  C13 UNL     1     -11.667  -8.686  19.704  1.00  0.00     0.052 A 
HETATM   15  C14 UNL     1     -10.408  -8.291  20.070  1.00  0.00     0.105 A 
HETATM   16  C15 UNL     1     -10.237  -7.571  21.211  1.00  0.00     0.105 A 
HETATM   17  C16 UNL     1     -11.332  -7.227  22.025  1.00  0.00     0.054 A 
HETATM   18  C17 UNL     1     -12.579  -7.629  21.660  1.00  0.00     0.005 A 
HETATM   19  C18 UNL     1     -13.690  -7.280  22.430  1.00  0.00     0.056 A 
HETATM   20  O1  UNL     1      -8.895  -7.296  21.355  1.00  0.00    -0.323 OA
HETATM   21  C19 UNL     1      -8.127  -8.070  20.418  1.00  0.00     0.352 C 
HETATM   22  O2  UNL     1      -9.128  -8.461  19.504  1.00  0.00    -0.323 OA
HETATM   23  O3  UNL     1     -19.226  -6.247  25.122  1.00  0.00    -0.323 OA
HETATM   24  C20 UNL     1     -18.560  -5.436  26.044  1.00  0.00     0.352 C 
HETATM   25  O4  UNL     1     -17.184  -5.625  25.836  1.00  0.00    -0.322 OA
ENDROOT
TORSDOF 0
ENDMDL
