MODEL 1
REMARK VINA RESULT: -7.393153732      0.000      0.000
REMARK  0 active torsions:
REMARK  status: ('A' for Active; 'I' for Inactive)
ROOT
HETATM    1  C1  UNL     1     -12.613  -5.993  25.178  1.00  0.00     0.156 C 
HETATM    2  N1  UNL     1     -12.813  -6.646  23.926  1.00  0.00    -0.359 N 
HETATM    3  C2  UNL     1     -11.700  -6.909  23.154  1.00  0.00     0.106 A 
HETATM    4  C3  UNL     1     -11.716  -7.427  21.913  1.00  0.00     0.027 A 
HETATM    5  C4  UNL     1     -10.549  -7.649  21.234  1.00  0.00     0.117 A 
HETATM    6  C5  UNL     1     -10.618  -8.183  19.964  1.00  0.00     0.105 A 
HETATM    7  C6  UNL     1     -11.818  -8.493  19.376  1.00  0.00     0.040 A 
HETATM    8  C7  UNL     1     -13.009  -8.262  20.082  1.00  0.00     0.016 A 
HETATM    9  C8  UNL     1     -12.912  -7.728  21.349  1.00  0.00    -0.009 A 
HETATM   10  C9  UNL     1     -14.064  -7.493  22.066  1.00  0.00     0.003 A 
HETATM   11  C10 UNL     1     -15.283  -7.775  21.500  1.00  0.00     0.015 A 
HETATM   12  C11 UNL     1     -16.427  -7.532  22.201  1.00  0.00     0.013 A 
HETATM   13  C12 UNL     1     -16.411  -7.012  23.470  1.00  0.00    -0.021 A 
HETATM   14  C13 UNL     1     -17.579  -6.813  24.156  1.00  0.00     0.052 A 
HETATM   15  C14 UNL     1     -17.561  -6.329  25.437  1.00  0.00     0.105 A 
HETATM   16  C15 UNL     1     -16.370  -6.045  26.029  1.00  0.00     0.105 A 
HETATM   17  C16 UNL     1     -15.155  -6.240  25.347  1.00  0.00     0.054 A 
HETATM   18  C17 UNL     1     -15.180  -6.714  24.073  1.00  0.00     0.005 A 
HETATM   19  C18 UNL     1     -13.991  -6.945  23.378  1.00  0.00     0.056 A 
HETATM   20  O1  UNL     1     -16.616  -5.581  27.302  1.00  0.00    -0.323 OA
HETATM   21  C19 UNL     1     -18.018  -5.310  27.469  1.00  0.00     0.352 C 
HETATM   22  O2  UNL     1     -18.563  -6.023  26.380  1.00  0.00    -0.323 OA
HETATM   23  O3  UNL     1      -9.318  -8.318  19.473  1.00  0.00    -0.323 OA
HETATM   24  C20 UNL     1      -8.438  -8.022  20.518  1.00  0.00     0.352 C 
HETATM   25  O4  UNL     1      -9.202  -7.446  21.546  1.00  0.00    -0.322 OA
ENDROOT
TORSDOF 0
ENDMDL
