MODEL 3
REMARK VINA RESULT: -6.773874594      7.006      9.770
REMARK  0 active torsions:
REMARK  status: ('A' for Active; 'I' for Inactive)
ROOT
HETATM    1  C1  UNL     1      -9.752  -7.439  30.123  1.00  0.00     0.156 C 
HETATM    2  N1  UNL     1     -10.438  -6.229  29.806  1.00  0.00    -0.359 N 
HETATM    3  C2  UNL     1     -11.134  -6.178  28.616  1.00  0.00     0.106 A 
HETATM    4  C3  UNL     1     -11.752  -5.092  28.120  1.00  0.00     0.027 A 
HETATM    5  C4  UNL     1     -12.417  -5.150  26.926  1.00  0.00     0.117 A 
HETATM    6  C5  UNL     1     -13.035  -4.009  26.459  1.00  0.00     0.105 A 
HETATM    7  C6  UNL     1     -12.996  -2.830  27.160  1.00  0.00     0.040 A 
HETATM    8  C7  UNL     1     -12.311  -2.780  28.384  1.00  0.00     0.016 A 
HETATM    9  C8  UNL     1     -11.703  -3.936  28.827  1.00  0.00    -0.009 A 
HETATM   10  C9  UNL     1     -11.026  -3.917  30.026  1.00  0.00     0.003 A 
HETATM   11  C10 UNL     1     -10.952  -2.749  30.744  1.00  0.00     0.015 A 
HETATM   12  C11 UNL     1     -10.271  -2.722  31.925  1.00  0.00     0.013 A 
HETATM   13  C12 UNL     1      -9.649  -3.832  32.437  1.00  0.00    -0.021 A 
HETATM   14  C13 UNL     1      -9.004  -3.776  33.643  1.00  0.00     0.052 A 
HETATM   15  C14 UNL     1      -8.414  -4.893  34.171  1.00  0.00     0.105 A 
HETATM   16  C15 UNL     1      -8.475  -6.068  33.488  1.00  0.00     0.105 A 
HETATM   17  C16 UNL     1      -9.131  -6.154  32.246  1.00  0.00     0.054 A 
HETATM   18  C17 UNL     1      -9.708  -5.039  31.724  1.00  0.00     0.005 A 
HETATM   19  C18 UNL     1     -10.391  -5.096  30.508  1.00  0.00     0.056 A 
HETATM   20  O1  UNL     1      -7.819  -7.032  34.221  1.00  0.00    -0.323 OA
HETATM   21  C19 UNL     1      -7.085  -6.423  35.297  1.00  0.00     0.352 C 
HETATM   22  O2  UNL     1      -7.695  -5.152  35.356  1.00  0.00    -0.323 OA
HETATM   23  O3  UNL     1     -13.642  -4.307  25.238  1.00  0.00    -0.323 OA
HETATM   24  C20 UNL     1     -13.539  -5.686  25.038  1.00  0.00     0.352 C 
HETATM   25  O4  UNL     1     -12.634  -6.171  25.996  1.00  0.00    -0.322 OA
ENDROOT
TORSDOF 0
ENDMDL
