MODEL 3
REMARK VINA RESULT: -8.887631000      1.232      1.848
REMARK  3 active torsions:
REMARK  status: ('A' for Active; 'I' for Inactive)
REMARK       I    between atoms: N3_4  and  C2_6 
REMARK    1  A    between atoms: C2_6  and  C3_8 
REMARK    2  A    between atoms: C4_11  and  C5_12 
REMARK    3  A    between atoms: C13_22  and  N5_23 
ROOT
HETATM    1  C3  UNL     1       0.210 -27.792 -24.355  1.00  0.00     0.143 A 
HETATM    2  N4  UNL     1      -0.047 -29.096 -24.225  1.00  0.00    -0.344 N 
ATOM      3  H4  UNL     1      -0.754 -29.392 -23.551  1.00  0.00     0.166 HD
HETATM    4  C4  UNL     1       0.601 -30.050 -24.959  1.00  0.00     0.111 A 
HETATM    5  C13 UNL     1       1.557 -29.642 -25.866  1.00  0.00     0.135 A 
HETATM    6  N6  UNL     1       1.796 -28.298 -25.977  1.00  0.00    -0.327 N 
ATOM      7  H6  UNL     1       2.500 -27.990 -26.648  1.00  0.00     0.168 HD
HETATM    8  C20 UNL     1       1.165 -27.366 -25.262  1.00  0.00     0.150 A 
HETATM    9  N7  UNL     1       1.459 -25.988 -25.425  1.00  0.00    -0.080 NA
ENDROOT
BRANCH   4  10
HETATM   10  C5  UNL     1       0.236 -31.445 -24.800  1.00  0.00     0.107 A 
HETATM   11  C6  UNL     1      -0.352 -32.209 -25.794  1.00  0.00     0.057 A 
HETATM   12  C7  UNL     1      -0.564 -33.486 -25.306  1.00  0.00     0.039 A 
HETATM   13  C8  UNL     1      -1.096 -34.647 -25.809  1.00  0.00     0.129 A 
HETATM   14  C12 UNL     1      -0.077 -33.419 -23.994  1.00  0.00     0.089 A 
HETATM   15  F1  UNL     1      -1.556 -34.679 -27.074  1.00  0.00    -0.205 F 
HETATM   16  C9  UNL     1      -1.171 -35.788 -25.048  1.00  0.00     0.043 A 
HETATM   17  C10 UNL     1      -0.700 -35.759 -23.749  1.00  0.00     0.006 A 
HETATM   18  C11 UNL     1      -0.160 -34.572 -23.248  1.00  0.00     0.038 A 
HETATM   19  O2  UNL     1       0.371 -32.209 -23.770  1.00  0.00    -0.307 OA
ENDBRANCH   4  10
BRANCH   5  20
HETATM   20  N5  UNL     1       2.312 -30.528 -26.634  1.00  0.00    -0.356 N 
HETATM   21  C14 UNL     1       3.340 -31.346 -25.964  1.00  0.00     0.204 C 
HETATM   22  C15 UNL     1       3.878 -32.231 -26.944  1.00  0.00    -0.163 C 
HETATM   23  C16 UNL     1       4.228 -33.008 -28.055  1.00  0.00     0.081 C 
HETATM   24  C17 UNL     1       3.331 -32.504 -29.245  1.00  0.00     0.013 C 
HETATM   25  C18 UNL     1       2.052 -31.870 -28.753  1.00  0.00     0.021 C 
HETATM   26  C19 UNL     1       2.029 -30.577 -28.048  1.00  0.00     0.125 C 
ENDBRANCH   5  20
BRANCH   1  27
HETATM   27  C2  UNL     1      -0.497 -26.775 -23.556  1.00  0.00     0.277 C 
HETATM   28  N3  UNL     1      -1.525 -26.049 -24.196  1.00  0.00    -0.298 N 
HETATM   29  C1  UNL     1      -2.030 -24.964 -23.710  1.00  0.00     0.203 C 
ATOM     30  H3  UNL     1      -1.885 -26.398 -25.084  1.00  0.00     0.171 HD
HETATM   31  N1  UNL     1      -1.537 -24.483 -22.488  1.00  0.00    -0.066 NA
HETATM   32  N2  UNL     1      -3.063 -24.244 -24.366  1.00  0.00    -0.066 NA
HETATM   33  O1  UNL     1      -0.174 -26.586 -22.351  1.00  0.00    -0.266 OA
ENDBRANCH   1  27
TORSDOF 3
ENDMDL
