MODEL 2
REMARK VINA RESULT: -8.980371160      0.382      1.093
REMARK  3 active torsions:
REMARK  status: ('A' for Active; 'I' for Inactive)
REMARK       I    between atoms: N3_4  and  C2_6 
REMARK    1  A    between atoms: C2_6  and  C3_8 
REMARK    2  A    between atoms: C4_11  and  C5_12 
REMARK    3  A    between atoms: C13_22  and  N5_23 
ROOT
HETATM    1  C3  UNL     1       0.438 -28.142 -24.285  1.00  0.00     0.143 A 
HETATM    2  N4  UNL     1       0.086 -29.430 -24.305  1.00  0.00    -0.344 N 
ATOM      3  H4  UNL     1      -0.636 -29.751 -23.660  1.00  0.00     0.166 HD
HETATM    4  C4  UNL     1       0.658 -30.335 -25.156  1.00  0.00     0.111 A 
HETATM    5  C13 UNL     1       1.635 -29.894 -26.023  1.00  0.00     0.135 A 
HETATM    6  N6  UNL     1       1.973 -28.566 -25.978  1.00  0.00    -0.327 N 
ATOM      7  H6  UNL     1       2.693 -28.234 -26.619  1.00  0.00     0.168 HD
HETATM    8  C20 UNL     1       1.416 -27.682 -25.150  1.00  0.00     0.150 A 
HETATM    9  N7  UNL     1       1.811 -26.320 -25.154  1.00  0.00    -0.080 NA
ENDROOT
BRANCH   4  10
HETATM   10  C5  UNL     1       0.191 -31.708 -25.156  1.00  0.00     0.107 A 
HETATM   11  C6  UNL     1       0.395 -32.595 -24.112  1.00  0.00     0.057 A 
HETATM   12  C7  UNL     1      -0.178 -33.810 -24.443  1.00  0.00     0.039 A 
HETATM   13  C8  UNL     1      -0.296 -35.032 -23.829  1.00  0.00     0.129 A 
HETATM   14  C12 UNL     1      -0.715 -33.582 -25.717  1.00  0.00     0.089 A 
HETATM   15  F1  UNL     1       0.230 -35.220 -22.605  1.00  0.00    -0.205 F 
HETATM   16  C9  UNL     1      -0.946 -36.079 -24.439  1.00  0.00     0.043 A 
HETATM   17  C10 UNL     1      -1.487 -35.890 -25.696  1.00  0.00     0.006 A 
HETATM   18  C11 UNL     1      -1.361 -34.642 -26.311  1.00  0.00     0.038 A 
HETATM   19  O2  UNL     1      -0.464 -32.345 -26.067  1.00  0.00    -0.307 OA
ENDBRANCH   4  10
BRANCH   5  20
HETATM   20  N5  UNL     1       2.319 -30.735 -26.900  1.00  0.00    -0.356 N 
HETATM   21  C14 UNL     1       3.498 -31.468 -26.402  1.00  0.00     0.204 C 
HETATM   22  C15 UNL     1       3.933 -32.327 -27.454  1.00  0.00    -0.163 C 
HETATM   23  C16 UNL     1       4.154 -33.094 -28.604  1.00  0.00     0.081 C 
HETATM   24  C17 UNL     1       3.042 -32.673 -29.635  1.00  0.00     0.013 C 
HETATM   25  C18 UNL     1       1.817 -32.124 -28.944  1.00  0.00     0.021 C 
HETATM   26  C19 UNL     1       1.815 -30.825 -28.249  1.00  0.00     0.125 C 
ENDBRANCH   5  20
BRANCH   1  27
HETATM   27  C2  UNL     1      -0.188 -27.177 -23.362  1.00  0.00     0.277 C 
HETATM   28  N3  UNL     1      -1.249 -26.395 -23.866  1.00  0.00    -0.298 N 
HETATM   29  C1  UNL     1      -1.696 -25.342 -23.264  1.00  0.00     0.203 C 
ATOM     30  H3  UNL     1      -1.683 -26.674 -24.745  1.00  0.00     0.171 HD
HETATM   31  N1  UNL     1      -1.102 -24.958 -22.054  1.00  0.00    -0.066 NA
HETATM   32  N2  UNL     1      -2.764 -24.565 -23.784  1.00  0.00    -0.066 NA
HETATM   33  O1  UNL     1       0.232 -27.081 -22.175  1.00  0.00    -0.266 OA
ENDBRANCH   1  27
TORSDOF 3
ENDMDL
