MODEL 1
REMARK VINA RESULT: -8.983145283      0.000      0.000
REMARK  3 active torsions:
REMARK  status: ('A' for Active; 'I' for Inactive)
REMARK       I    between atoms: N3_4  and  C2_6 
REMARK    1  A    between atoms: C2_6  and  C3_8 
REMARK    2  A    between atoms: C4_11  and  C5_12 
REMARK    3  A    between atoms: C13_22  and  N5_23 
ROOT
HETATM    1  C3  UNL     1       0.297 -28.421 -24.415  1.00  0.00     0.143 A 
HETATM    2  N4  UNL     1      -0.016 -29.720 -24.385  1.00  0.00    -0.344 N 
ATOM      3  H4  UNL     1      -0.680 -30.048 -23.684  1.00  0.00     0.166 HD
HETATM    4  C4  UNL     1       0.521 -30.625 -25.258  1.00  0.00     0.111 A 
HETATM    5  C13 UNL     1       1.420 -30.173 -26.201  1.00  0.00     0.135 A 
HETATM    6  N6  UNL     1       1.719 -28.836 -26.206  1.00  0.00    -0.327 N 
ATOM      7  H6  UNL     1       2.381 -28.496 -26.903  1.00  0.00     0.168 HD
HETATM    8  C20 UNL     1       1.196 -27.951 -25.356  1.00  0.00     0.150 A 
HETATM    9  N7  UNL     1       1.548 -26.579 -25.414  1.00  0.00    -0.080 NA
ENDROOT
BRANCH   4  10
HETATM   10  C5  UNL     1       0.097 -32.011 -25.199  1.00  0.00     0.107 A 
HETATM   11  C6  UNL     1       0.318 -32.842 -24.113  1.00  0.00     0.057 A 
HETATM   12  C7  UNL     1      -0.213 -34.088 -24.392  1.00  0.00     0.039 A 
HETATM   13  C8  UNL     1      -0.300 -35.284 -23.724  1.00  0.00     0.129 A 
HETATM   14  C12 UNL     1      -0.743 -33.937 -25.681  1.00  0.00     0.089 A 
HETATM   15  F1  UNL     1       0.220 -35.399 -22.488  1.00  0.00    -0.205 F 
HETATM   16  C9  UNL     1      -0.909 -36.378 -24.290  1.00  0.00     0.043 A 
HETATM   17  C10 UNL     1      -1.443 -36.264 -25.560  1.00  0.00     0.006 A 
HETATM   18  C11 UNL     1      -1.350 -35.042 -26.231  1.00  0.00     0.038 A 
HETATM   19  O2  UNL     1      -0.528 -32.709 -26.085  1.00  0.00    -0.307 OA
ENDBRANCH   4  10
BRANCH   5  20
HETATM   20  N5  UNL     1       2.064 -31.012 -27.109  1.00  0.00    -0.356 N 
HETATM   21  C14 UNL     1       1.483 -31.176 -28.456  1.00  0.00     0.204 C 
HETATM   22  C15 UNL     1       2.387 -31.984 -29.207  1.00  0.00    -0.163 C 
HETATM   23  C16 UNL     1       3.422 -32.758 -29.746  1.00  0.00     0.081 C 
HETATM   24  C17 UNL     1       4.478 -32.943 -28.594  1.00  0.00     0.013 C 
HETATM   25  C18 UNL     1       4.404 -31.826 -27.581  1.00  0.00     0.021 C 
HETATM   26  C19 UNL     1       3.267 -31.669 -26.657  1.00  0.00     0.125 C 
ENDBRANCH   5  20
BRANCH   1  27
HETATM   27  C2  UNL     1      -0.290 -27.456 -23.467  1.00  0.00     0.277 C 
HETATM   28  N3  UNL     1      -1.300 -26.602 -23.957  1.00  0.00    -0.298 N 
HETATM   29  C1  UNL     1      -1.700 -25.548 -23.325  1.00  0.00     0.203 C 
ATOM     30  H3  UNL     1      -1.736 -26.827 -24.851  1.00  0.00     0.171 HD
HETATM   31  N1  UNL     1      -1.104 -25.237 -22.095  1.00  0.00    -0.066 NA
HETATM   32  N2  UNL     1      -2.717 -24.697 -23.832  1.00  0.00    -0.066 NA
HETATM   33  O1  UNL     1       0.116 -27.423 -22.272  1.00  0.00    -0.266 OA
ENDBRANCH   1  27
TORSDOF 3
ENDMDL
