MODEL 5
REMARK VINA RESULT: -8.678829458      3.324      5.638
REMARK  4 active torsions:
REMARK  status: ('A' for Active; 'I' for Inactive)
REMARK    1  A    between atoms: S1_2  and  N1_4 
REMARK    2  A    between atoms: S1_2  and  C7_14 
REMARK    3  A    between atoms: N1_4  and  C1_6 
REMARK    4  A    between atoms: C1_6  and  C2_7 
ROOT
HETATM    1  O1  UNL     1     -26.210  25.836  96.410  1.00  0.00    -0.200 OA
HETATM    2  S1  UNL     1     -26.457  26.608  95.133  1.00  0.00     0.260 S 
HETATM    3  O2  UNL     1     -26.303  25.674  93.938  1.00  0.00    -0.200 OA
ENDROOT
BRANCH   2   4
HETATM    4  N1  UNL     1     -25.185  27.746  95.010  1.00  0.00    -0.310 N 
ATOM      5  H1  UNL     1     -25.335  28.742  95.170  1.00  0.00     0.172 HD
BRANCH   4   6
HETATM    6  C1  UNL     1     -23.911  27.227  94.672  1.00  0.00     0.189 C 
BRANCH   6   7
HETATM    7  C2  UNL     1     -23.733  27.093  93.182  1.00  0.00     0.027 A 
HETATM    8  C3  UNL     1     -23.831  28.127  92.308  1.00  0.00     0.027 A 
HETATM    9  C4  UNL     1     -23.661  27.964  90.939  1.00  0.00     0.003 A 
HETATM   10  C5  UNL     1     -23.384  26.689  90.492  1.00  0.00     0.017 A 
HETATM   11  C6  UNL     1     -23.286  25.642  91.385  1.00  0.00     0.088 A 
HETATM   12  N2  UNL     1     -23.460  25.863  92.695  1.00  0.00    -0.368 N 
ATOM     13  H2  UNL     1     -23.385  25.079  93.343  1.00  0.00     0.165 HD
ENDBRANCH   6   7
ENDBRANCH   4   6
ENDBRANCH   2   4
BRANCH   2  14
HETATM   14  C7  UNL     1     -27.997  27.387  95.129  1.00  0.00     0.090 A 
HETATM   15  C8  UNL     1     -28.809  27.320  96.236  1.00  0.00     0.027 A 
HETATM   16  C9  UNL     1     -30.026  27.975  96.221  1.00  0.00     0.021 A 
HETATM   17  C10 UNL     1     -30.414  28.686  95.110  1.00  0.00     0.022 A 
HETATM   18 BR1  UNL     1     -32.093  29.585  95.098  1.00  0.00    -0.050 Br
HETATM   19  C11 UNL     1     -29.589  28.744  94.013  1.00  0.00    -0.007 A 
HETATM   20  C12 UNL     1     -29.962  29.465  92.878  1.00  0.00     0.013 A 
HETATM   21  C16 UNL     1     -28.361  28.104  93.980  1.00  0.00    -0.001 A 
HETATM   22  C13 UNL     1     -29.175  29.565  91.753  1.00  0.00     0.001 A 
HETATM   23  C14 UNL     1     -27.948  28.900  91.777  1.00  0.00     0.001 A 
HETATM   24  C15 UNL     1     -27.547  28.181  92.874  1.00  0.00     0.014 A 
ENDBRANCH   2  14
TORSDOF 4
ENDMDL
