MODEL 9
REMARK VINA RESULT: -8.221348330      2.688      4.761
REMARK  4 active torsions:
REMARK  status: ('A' for Active; 'I' for Inactive)
REMARK    1  A    between atoms: S1_2  and  N1_4 
REMARK    2  A    between atoms: S1_2  and  C7_14 
REMARK    3  A    between atoms: N1_4  and  C1_6 
REMARK    4  A    between atoms: C1_6  and  C2_7 
ROOT
HETATM    1  O1  UNL     1     -29.102  25.332  96.691  1.00  0.00    -0.200 OA
HETATM    2  S1  UNL     1     -27.946  25.626  95.762  1.00  0.00     0.260 S 
HETATM    3  O2  UNL     1     -27.318  24.317  95.301  1.00  0.00    -0.200 OA
ENDROOT
BRANCH   2   4
HETATM    4  N1  UNL     1     -26.758  26.411  96.712  1.00  0.00    -0.310 N 
ATOM      5  H1  UNL     1     -27.005  26.998  97.508  1.00  0.00     0.172 HD
BRANCH   4   6
HETATM    6  C1  UNL     1     -25.411  26.198  96.330  1.00  0.00     0.189 C 
BRANCH   6   7
HETATM    7  C2  UNL     1     -25.032  27.013  95.120  1.00  0.00     0.027 A 
HETATM    8  C3  UNL     1     -25.286  28.339  94.986  1.00  0.00     0.027 A 
HETATM    9  C4  UNL     1     -24.921  29.057  93.854  1.00  0.00     0.003 A 
HETATM   10  C5  UNL     1     -24.281  28.359  92.852  1.00  0.00     0.017 A 
HETATM   11  C6  UNL     1     -24.026  27.011  92.993  1.00  0.00     0.088 A 
HETATM   12  N2  UNL     1     -24.402  26.373  94.110  1.00  0.00    -0.368 N 
ATOM     13  H2  UNL     1     -24.208  25.376  94.200  1.00  0.00     0.165 HD
ENDBRANCH   6   7
ENDBRANCH   4   6
ENDBRANCH   2   4
BRANCH   2  14
HETATM   14  C7  UNL     1     -28.420  26.604  94.420  1.00  0.00     0.090 A 
HETATM   15  C8  UNL     1     -27.927  26.342  93.164  1.00  0.00     0.027 A 
HETATM   16  C9  UNL     1     -28.343  27.120  92.100  1.00  0.00     0.021 A 
HETATM   17  C10 UNL     1     -29.241  28.142  92.301  1.00  0.00     0.022 A 
HETATM   18 BR1  UNL     1     -29.806  29.209  90.829  1.00  0.00    -0.050 Br
HETATM   19  C11 UNL     1     -29.724  28.389  93.562  1.00  0.00    -0.007 A 
HETATM   20  C12 UNL     1     -30.640  29.418  93.785  1.00  0.00     0.013 A 
HETATM   21  C16 UNL     1     -29.338  27.638  94.660  1.00  0.00    -0.001 A 
HETATM   22  C13 UNL     1     -31.164  29.708  95.026  1.00  0.00     0.001 A 
HETATM   23  C14 UNL     1     -30.740  28.917  96.094  1.00  0.00     0.001 A 
HETATM   24  C15 UNL     1     -29.840  27.897  95.914  1.00  0.00     0.014 A 
ENDBRANCH   2  14
TORSDOF 4
ENDMDL
