MODEL 1
REMARK VINA RESULT: -9.508558667      0.000      0.000
REMARK  4 active torsions:
REMARK  status: ('A' for Active; 'I' for Inactive)
REMARK    1  A    between atoms: S1_2  and  N1_4 
REMARK    2  A    between atoms: S1_2  and  C7_14 
REMARK    3  A    between atoms: N1_4  and  C1_6 
REMARK    4  A    between atoms: C1_6  and  C2_7 
ROOT
HETATM    1  O1  UNL     1     -29.410  24.197  94.277  1.00  0.00    -0.200 OA
HETATM    2  S1  UNL     1     -28.459  25.286  94.719  1.00  0.00     0.260 S 
HETATM    3  O2  UNL     1     -28.050  25.046  96.167  1.00  0.00    -0.200 OA
ENDROOT
BRANCH   2   4
HETATM    4  N1  UNL     1     -29.363  26.739  94.718  1.00  0.00    -0.310 N 
ATOM      5  H1  UNL     1     -29.316  27.404  95.489  1.00  0.00     0.172 HD
BRANCH   4   6
HETATM    6  C1  UNL     1     -30.182  26.965  93.584  1.00  0.00     0.189 C 
BRANCH   6   7
HETATM    7  C2  UNL     1     -29.738  28.172  92.799  1.00  0.00     0.027 A 
HETATM    8  C3  UNL     1     -29.065  29.223  93.334  1.00  0.00     0.027 A 
HETATM    9  C4  UNL     1     -28.673  30.320  92.578  1.00  0.00     0.003 A 
HETATM   10  C5  UNL     1     -28.998  30.301  91.238  1.00  0.00     0.017 A 
HETATM   11  C6  UNL     1     -29.681  29.232  90.699  1.00  0.00     0.088 A 
HETATM   12  N2  UNL     1     -30.033  28.202  91.481  1.00  0.00    -0.368 N 
ATOM     13  H2  UNL     1     -30.539  27.418  91.069  1.00  0.00     0.165 HD
ENDBRANCH   6   7
ENDBRANCH   4   6
ENDBRANCH   2   4
BRANCH   2  14
HETATM   14  C7  UNL     1     -27.080  25.406  93.687  1.00  0.00     0.090 A 
HETATM   15  C8  UNL     1     -26.890  24.493  92.676  1.00  0.00     0.027 A 
HETATM   16  C9  UNL     1     -25.794  24.625  91.844  1.00  0.00     0.021 A 
HETATM   17  C10 UNL     1     -24.908  25.661  92.029  1.00  0.00     0.022 A 
HETATM   18 BR1  UNL     1     -23.401  25.834  90.878  1.00  0.00    -0.050 Br
HETATM   19  C11 UNL     1     -25.114  26.566  93.042  1.00  0.00    -0.007 A 
HETATM   20  C12 UNL     1     -24.231  27.627  93.240  1.00  0.00     0.013 A 
HETATM   21  C16 UNL     1     -26.197  26.475  93.901  1.00  0.00    -0.001 A 
HETATM   22  C13 UNL     1     -24.389  28.567  94.234  1.00  0.00     0.001 A 
HETATM   23  C14 UNL     1     -25.499  28.426  95.069  1.00  0.00     0.001 A 
HETATM   24  C15 UNL     1     -26.389  27.395  94.905  1.00  0.00     0.014 A 
ENDBRANCH   2  14
TORSDOF 4
ENDMDL
