MODEL 3
REMARK VINA RESULT: -9.366087328      0.574      1.009
REMARK  4 active torsions:
REMARK  status: ('A' for Active; 'I' for Inactive)
REMARK    1  A    between atoms: S1_2  and  N1_4 
REMARK    2  A    between atoms: S1_2  and  C7_14 
REMARK    3  A    between atoms: N1_4  and  C1_6 
REMARK    4  A    between atoms: C1_6  and  C2_7 
ROOT
HETATM    1  O1  UNL     1     -29.400  24.221  94.317  1.00  0.00    -0.200 OA
HETATM    2  S1  UNL     1     -28.428  25.294  94.751  1.00  0.00     0.260 S 
HETATM    3  O2  UNL     1     -27.992  25.033  96.188  1.00  0.00    -0.200 OA
ENDROOT
BRANCH   2   4
HETATM    4  N1  UNL     1     -29.316  26.757  94.786  1.00  0.00    -0.310 N 
ATOM      5  H1  UNL     1     -29.199  27.442  95.532  1.00  0.00     0.172 HD
BRANCH   4   6
HETATM    6  C1  UNL     1     -30.224  26.963  93.719  1.00  0.00     0.189 C 
BRANCH   6   7
HETATM    7  C2  UNL     1     -29.797  28.098  92.825  1.00  0.00     0.027 A 
HETATM    8  C3  UNL     1     -30.027  28.143  91.488  1.00  0.00     0.027 A 
HETATM    9  C4  UNL     1     -29.617  29.208  90.696  1.00  0.00     0.003 A 
HETATM   10  C5  UNL     1     -28.954  30.238  91.331  1.00  0.00     0.017 A 
HETATM   11  C6  UNL     1     -28.722  30.188  92.689  1.00  0.00     0.088 A 
HETATM   12  N2  UNL     1     -29.143  29.132  93.400  1.00  0.00    -0.368 N 
ATOM     13  H2  UNL     1     -28.964  29.108  94.404  1.00  0.00     0.165 HD
ENDBRANCH   6   7
ENDBRANCH   4   6
ENDBRANCH   2   4
BRANCH   2  14
HETATM   14  C7  UNL     1     -27.070  25.412  93.693  1.00  0.00     0.090 A 
HETATM   15  C8  UNL     1     -26.900  24.498  92.679  1.00  0.00     0.027 A 
HETATM   16  C9  UNL     1     -25.821  24.628  91.826  1.00  0.00     0.021 A 
HETATM   17  C10 UNL     1     -24.930  25.663  91.992  1.00  0.00     0.022 A 
HETATM   18 BR1  UNL     1     -23.446  25.833  90.812  1.00  0.00    -0.050 Br
HETATM   19  C11 UNL     1     -25.115  26.567  93.009  1.00  0.00    -0.007 A 
HETATM   20  C12 UNL     1     -24.226  27.627  93.190  1.00  0.00     0.013 A 
HETATM   21  C16 UNL     1     -26.180  26.479  93.890  1.00  0.00    -0.001 A 
HETATM   22  C13 UNL     1     -24.363  28.568  94.187  1.00  0.00     0.001 A 
HETATM   23  C14 UNL     1     -25.456  28.429  95.043  1.00  0.00     0.001 A 
HETATM   24  C15 UNL     1     -26.351  27.400  94.896  1.00  0.00     0.014 A 
ENDBRANCH   2  14
TORSDOF 4
ENDMDL
