MODEL 8
REMARK VINA RESULT: -8.236328989      3.470      5.142
REMARK  4 active torsions:
REMARK  status: ('A' for Active; 'I' for Inactive)
REMARK    1  A    between atoms: S1_2  and  N1_4 
REMARK    2  A    between atoms: S1_2  and  C7_14 
REMARK    3  A    between atoms: N1_4  and  C1_6 
REMARK    4  A    between atoms: C1_6  and  C2_7 
ROOT
HETATM    1  O1  UNL     1     -23.835  27.924  91.647  1.00  0.00    -0.200 OA
HETATM    2  S1  UNL     1     -24.384  27.432  92.967  1.00  0.00     0.260 S 
HETATM    3  O2  UNL     1     -23.500  27.933  94.103  1.00  0.00    -0.200 OA
ENDROOT
BRANCH   2   4
HETATM    4  N1  UNL     1     -24.212  25.729  92.951  1.00  0.00    -0.310 N 
ATOM      5  H1  UNL     1     -23.553  25.248  93.562  1.00  0.00     0.172 HD
BRANCH   4   6
HETATM    6  C1  UNL     1     -25.039  25.026  92.041  1.00  0.00     0.189 C 
BRANCH   6   7
HETATM    7  C2  UNL     1     -26.408  24.760  92.611  1.00  0.00     0.027 A 
HETATM    8  C3  UNL     1     -27.569  25.084  91.987  1.00  0.00     0.027 A 
HETATM    9  C4  UNL     1     -28.814  24.824  92.545  1.00  0.00     0.003 A 
HETATM   10  C5  UNL     1     -28.827  24.211  93.781  1.00  0.00     0.017 A 
HETATM   11  C6  UNL     1     -27.645  23.884  94.411  1.00  0.00     0.088 A 
HETATM   12  N2  UNL     1     -26.474  24.162  93.821  1.00  0.00    -0.368 N 
ATOM     13  H2  UNL     1     -25.608  23.914  94.299  1.00  0.00     0.165 HD
ENDBRANCH   6   7
ENDBRANCH   4   6
ENDBRANCH   2   4
BRANCH   2  14
HETATM   14  C7  UNL     1     -26.030  27.893  93.201  1.00  0.00     0.090 A 
HETATM   15  C8  UNL     1     -26.720  28.531  92.197  1.00  0.00     0.027 A 
HETATM   16  C9  UNL     1     -28.046  28.866  92.395  1.00  0.00     0.021 A 
HETATM   17  C10 UNL     1     -28.665  28.561  93.585  1.00  0.00     0.022 A 
HETATM   18 BR1  UNL     1     -30.492  29.027  93.850  1.00  0.00    -0.050 Br
HETATM   19  C11 UNL     1     -27.961  27.922  94.577  1.00  0.00    -0.007 A 
HETATM   20  C12 UNL     1     -28.573  27.598  95.789  1.00  0.00     0.013 A 
HETATM   21  C16 UNL     1     -26.631  27.567  94.426  1.00  0.00    -0.001 A 
HETATM   22  C13 UNL     1     -27.921  26.953  96.816  1.00  0.00     0.001 A 
HETATM   23  C14 UNL     1     -26.582  26.618  96.606  1.00  0.00     0.001 A 
HETATM   24  C15 UNL     1     -25.947  26.921  95.429  1.00  0.00     0.014 A 
ENDBRANCH   2  14
TORSDOF 4
ENDMDL
