MODEL 3
REMARK VINA RESULT: -8.152969087      3.669      9.405
REMARK  7 active torsions:
REMARK  status: ('A' for Active; 'I' for Inactive)
REMARK    1  A    between atoms: N1_2  and  N2_4 
REMARK    2  A    between atoms: N3_8  and  C5_9 
REMARK    3  A    between atoms: C5_9  and  C6_10 
REMARK       I    between atoms: C6_10  and  N4_12 
REMARK    4  A    between atoms: N4_12  and  C7_14 
REMARK    5  A    between atoms: C11_18  and  C12_19 
REMARK    6  A    between atoms: C18_29  and  C19_30 
REMARK    7  A    between atoms: C19_30  and  C20_31 
ROOT
HETATM    1  N2  UNL     1      -6.284  30.047  50.627  1.00  0.00    -0.291 N 
ATOM      2  H2  UNL     1      -6.735  30.696  49.981  1.00  0.00     0.188 HD
HETATM    3  C3  UNL     1      -6.476  28.773  50.492  1.00  0.00     0.110 C 
HETATM    4  C4  UNL     1      -7.378  28.468  49.344  1.00  0.00     0.203 C 
HETATM    5  N3  UNL     1      -7.679  27.038  49.314  1.00  0.00    -0.336 N 
HETATM    6  C17 UNL     1      -6.785  25.965  49.557  1.00  0.00     0.226 C 
HETATM    7  O2  UNL     1      -7.215  24.789  49.408  1.00  0.00    -0.273 OA
HETATM    8  C18 UNL     1      -5.369  26.106  49.976  1.00  0.00     0.100 C 
HETATM    9  C26 UNL     1      -5.275  26.644  51.340  1.00  0.00     0.135 C 
HETATM   10  N7  UNL     1      -5.818  27.980  51.421  1.00  0.00    -0.377 N 
ATOM     11  H7  UNL     1      -5.696  28.423  52.332  1.00  0.00     0.160 HD
ENDROOT
BRANCH   5  12
HETATM   12  C5  UNL     1      -9.044  26.671  49.015  1.00  0.00     0.229 C 
BRANCH  12  13
HETATM   13  C6  UNL     1      -9.850  26.278  50.173  1.00  0.00     0.240 C 
HETATM   14  O1  UNL     1     -10.520  27.151  50.743  1.00  0.00    -0.271 OA
HETATM   15  N4  UNL     1      -9.870  24.946  50.637  1.00  0.00    -0.326 N 
ATOM     16  H4  UNL     1      -9.293  24.279  50.126  1.00  0.00     0.169 HD
BRANCH  15  17
HETATM   17  C7  UNL     1     -10.601  24.435  51.731  1.00  0.00     0.035 A 
HETATM   18  C8  UNL     1     -10.440  25.047  52.967  1.00  0.00     0.029 A 
HETATM   19  C9  UNL     1     -11.136  24.550  54.039  1.00  0.00     0.003 A 
HETATM   20  C10 UNL     1     -11.985  23.463  53.910  1.00  0.00     0.012 A 
HETATM   21  C11 UNL     1     -12.149  22.854  52.701  1.00  0.00    -0.021 A 
HETATM   22  C16 UNL     1     -11.450  23.343  51.596  1.00  0.00     0.042 A 
BRANCH  21  23
HETATM   23  C12 UNL     1     -13.048  21.696  52.529  1.00  0.00     0.008 A 
HETATM   24  C13 UNL     1     -14.067  21.531  51.616  1.00  0.00     0.120 A 
HETATM   25  N5  UNL     1     -14.608  20.320  51.833  1.00  0.00    -0.310 N 
HETATM   26  N6  UNL     1     -13.989  19.716  52.829  1.00  0.00    -0.307 N 
ATOM     27  H5  UNL     1     -15.386  19.925  51.304  1.00  0.00     0.186 HD
HETATM   28  C14 UNL     1     -14.298  18.387  53.353  1.00  0.00     0.177 C 
HETATM   29  C15 UNL     1     -13.019  20.539  53.282  1.00  0.00     0.123 A 
ENDBRANCH  21  23
ENDBRANCH  15  17
ENDBRANCH  12  13
ENDBRANCH   5  12
BRANCH   8  30
HETATM   30  C19 UNL     1      -4.540  24.934  49.598  1.00  0.00     0.058 C 
BRANCH  30  31
HETATM   31  C20 UNL     1      -3.423  25.365  48.740  1.00  0.00    -0.014 A 
HETATM   32  C21 UNL     1      -2.221  25.831  49.215  1.00  0.00     0.042 A 
HETATM   33 CL1  UNL     1      -1.929  25.787  50.945  1.00  0.00    -0.084 Cl
HETATM   34  C22 UNL     1      -1.216  26.282  48.363  1.00  0.00     0.024 A 
HETATM   35  C23 UNL     1      -1.381  26.279  46.995  1.00  0.00     0.003 A 
HETATM   36  C24 UNL     1      -2.580  25.813  46.503  1.00  0.00     0.024 A 
HETATM   37  C25 UNL     1      -3.573  25.369  47.346  1.00  0.00     0.042 A 
HETATM   38 CL2  UNL     1      -5.115  24.769  46.715  1.00  0.00    -0.084 Cl
ENDBRANCH  30  31
ENDBRANCH   8  30
BRANCH   1  39
HETATM   39  N1  UNL     1      -5.459  30.549  51.658  1.00  0.00    -0.335 N 
HETATM   40  C1  UNL     1      -6.103  30.912  52.921  1.00  0.00     0.170 C 
HETATM   41  C2  UNL     1      -4.042  30.719  51.532  1.00  0.00     0.170 C 
ENDBRANCH   1  39
TORSDOF 7
ENDMDL
