MODEL 10
REMARK VINA RESULT: -7.822425733      4.916     11.755
REMARK  7 active torsions:
REMARK  status: ('A' for Active; 'I' for Inactive)
REMARK    1  A    between atoms: N1_2  and  N2_4 
REMARK    2  A    between atoms: N3_8  and  C5_9 
REMARK    3  A    between atoms: C5_9  and  C6_10 
REMARK       I    between atoms: C6_10  and  N4_12 
REMARK    4  A    between atoms: N4_12  and  C7_14 
REMARK    5  A    between atoms: C11_18  and  C12_19 
REMARK    6  A    between atoms: C18_29  and  C19_30 
REMARK    7  A    between atoms: C19_30  and  C20_31 
ROOT
HETATM    1  N2  UNL     1     -13.199  23.779  53.587  1.00  0.00    -0.291 N 
ATOM      2  H2  UNL     1     -13.600  23.256  54.366  1.00  0.00     0.188 HD
HETATM    3  C3  UNL     1     -12.907  25.032  53.740  1.00  0.00     0.110 C 
HETATM    4  C4  UNL     1     -13.232  25.511  55.115  1.00  0.00     0.203 C 
HETATM    5  N3  UNL     1     -13.021  26.955  55.201  1.00  0.00    -0.336 N 
HETATM    6  C17 UNL     1     -11.956  27.705  54.640  1.00  0.00     0.226 C 
HETATM    7  O2  UNL     1     -11.904  28.939  54.889  1.00  0.00    -0.273 OA
HETATM    8  C18 UNL     1     -10.885  27.155  53.773  1.00  0.00     0.100 C 
HETATM    9  C26 UNL     1     -11.424  26.732  52.474  1.00  0.00     0.135 C 
HETATM   10  N7  UNL     1     -12.370  25.649  52.620  1.00  0.00    -0.377 N 
ATOM     11  H7  UNL     1     -12.704  25.268  51.735  1.00  0.00     0.160 HD
ENDROOT
BRANCH   5  12
HETATM   12  C5  UNL     1     -14.013  27.710  55.931  1.00  0.00     0.229 C 
BRANCH  12  13
HETATM   13  C6  UNL     1     -14.509  27.070  57.150  1.00  0.00     0.240 C 
HETATM   14  O1  UNL     1     -13.769  27.052  58.144  1.00  0.00    -0.271 OA
HETATM   15  N4  UNL     1     -15.791  26.486  57.206  1.00  0.00    -0.326 N 
ATOM     16  H4  UNL     1     -16.348  26.531  56.352  1.00  0.00     0.169 HD
BRANCH  15  17
HETATM   17  C7  UNL     1     -16.391  25.845  58.311  1.00  0.00     0.035 A 
HETATM   18  C8  UNL     1     -17.570  26.378  58.814  1.00  0.00     0.029 A 
HETATM   19  C9  UNL     1     -18.155  25.771  59.895  1.00  0.00     0.003 A 
HETATM   20  C10 UNL     1     -17.595  24.650  60.485  1.00  0.00     0.012 A 
HETATM   21  C11 UNL     1     -16.436  24.119  60.001  1.00  0.00    -0.021 A 
HETATM   22  C16 UNL     1     -15.824  24.722  58.900  1.00  0.00     0.042 A 
BRANCH  21  23
HETATM   23  C12 UNL     1     -15.815  22.924  60.605  1.00  0.00     0.008 A 
HETATM   24  C13 UNL     1     -14.479  22.683  60.844  1.00  0.00     0.120 A 
HETATM   25  N5  UNL     1     -14.387  21.465  61.406  1.00  0.00    -0.310 N 
HETATM   26  N6  UNL     1     -15.585  20.930  61.534  1.00  0.00    -0.307 N 
ATOM     27  H5  UNL     1     -13.514  21.020  61.694  1.00  0.00     0.186 HD
HETATM   28  C14 UNL     1     -15.882  19.616  62.102  1.00  0.00     0.177 C 
HETATM   29  C15 UNL     1     -16.491  21.805  61.048  1.00  0.00     0.123 A 
ENDBRANCH  21  23
ENDBRANCH  15  17
ENDBRANCH  12  13
ENDBRANCH   5  12
BRANCH   8  30
HETATM   30  C19 UNL     1      -9.642  27.968  53.814  1.00  0.00     0.058 C 
BRANCH  30  31
HETATM   31  C20 UNL     1      -9.252  28.357  52.449  1.00  0.00    -0.014 A 
HETATM   32  C21 UNL     1      -9.633  29.530  51.842  1.00  0.00     0.042 A 
HETATM   33 CL1  UNL     1     -10.523  30.712  52.787  1.00  0.00    -0.084 Cl
HETATM   34  C22 UNL     1      -9.286  29.827  50.527  1.00  0.00     0.024 A 
HETATM   35  C23 UNL     1      -8.538  28.953  49.768  1.00  0.00     0.003 A 
HETATM   36  C24 UNL     1      -8.147  27.774  50.361  1.00  0.00     0.024 A 
HETATM   37  C25 UNL     1      -8.492  27.481  51.662  1.00  0.00     0.042 A 
HETATM   38 CL2  UNL     1      -7.990  25.965  52.427  1.00  0.00    -0.084 Cl
ENDBRANCH  30  31
ENDBRANCH   8  30
BRANCH   1  39
HETATM   39  N1  UNL     1     -12.970  23.128  52.354  1.00  0.00    -0.335 N 
HETATM   40  C1  UNL     1     -11.650  22.534  52.141  1.00  0.00     0.170 C 
HETATM   41  C2  UNL     1     -13.950  23.022  51.315  1.00  0.00     0.170 C 
ENDBRANCH   1  39
TORSDOF 7
ENDMDL
