MODEL 4
REMARK VINA RESULT: -8.092642122      1.759      2.840
REMARK  7 active torsions:
REMARK  status: ('A' for Active; 'I' for Inactive)
REMARK    1  A    between atoms: N1_2  and  N2_4 
REMARK    2  A    between atoms: N3_8  and  C5_9 
REMARK    3  A    between atoms: C5_9  and  C6_10 
REMARK       I    between atoms: C6_10  and  N4_12 
REMARK    4  A    between atoms: N4_12  and  C7_14 
REMARK    5  A    between atoms: C11_18  and  C12_19 
REMARK    6  A    between atoms: C18_29  and  C19_30 
REMARK    7  A    between atoms: C19_30  and  C20_31 
ROOT
HETATM    1  N2  UNL     1     -12.084  28.097  54.220  1.00  0.00    -0.291 N 
ATOM      2  H2  UNL     1     -11.426  28.844  54.443  1.00  0.00     0.188 HD
HETATM    3  C3  UNL     1     -11.798  27.253  53.279  1.00  0.00     0.110 C 
HETATM    4  C4  UNL     1     -10.476  27.547  52.655  1.00  0.00     0.203 C 
HETATM    5  N3  UNL     1     -10.258  26.664  51.511  1.00  0.00    -0.336 N 
HETATM    6  C17 UNL     1     -10.568  25.282  51.419  1.00  0.00     0.226 C 
HETATM    7  O2  UNL     1     -10.233  24.668  50.370  1.00  0.00    -0.273 OA
HETATM    8  C18 UNL     1     -11.261  24.488  52.462  1.00  0.00     0.100 C 
HETATM    9  C26 UNL     1     -12.662  24.910  52.601  1.00  0.00     0.135 C 
HETATM   10  N7  UNL     1     -12.760  26.278  53.055  1.00  0.00    -0.377 N 
ATOM     11  H7  UNL     1     -13.714  26.585  53.247  1.00  0.00     0.160 HD
ENDROOT
BRANCH   5  12
HETATM   12  C5  UNL     1      -9.671  27.262  50.334  1.00  0.00     0.229 C 
BRANCH  12  13
HETATM   13  C6  UNL     1      -8.255  26.959  50.124  1.00  0.00     0.240 C 
HETATM   14  O1  UNL     1      -7.418  27.574  50.801  1.00  0.00    -0.271 OA
HETATM   15  N4  UNL     1      -7.840  25.996  49.180  1.00  0.00    -0.326 N 
ATOM     16  H4  UNL     1      -8.578  25.529  48.654  1.00  0.00     0.169 HD
BRANCH  15  17
HETATM   17  C7  UNL     1      -6.516  25.607  48.883  1.00  0.00     0.035 A 
HETATM   18  C8  UNL     1      -5.975  26.008  47.669  1.00  0.00     0.029 A 
HETATM   19  C9  UNL     1      -4.694  25.625  47.364  1.00  0.00     0.003 A 
HETATM   20  C10 UNL     1      -3.943  24.856  48.237  1.00  0.00     0.012 A 
HETATM   21  C11 UNL     1      -4.464  24.456  49.431  1.00  0.00    -0.021 A 
HETATM   22  C16 UNL     1      -5.768  24.834  49.762  1.00  0.00     0.042 A 
BRANCH  21  23
HETATM   23  C12 UNL     1      -3.689  23.638  50.385  1.00  0.00     0.008 A 
HETATM   24  C13 UNL     1      -2.361  23.274  50.318  1.00  0.00     0.120 A 
HETATM   25  N5  UNL     1      -2.095  22.529  51.405  1.00  0.00    -0.310 N 
HETATM   26  N6  UNL     1      -3.177  22.404  52.148  1.00  0.00    -0.307 N 
ATOM     27  H5  UNL     1      -1.187  22.118  51.623  1.00  0.00     0.186 HD
HETATM   28  C14 UNL     1      -3.275  21.665  53.406  1.00  0.00     0.177 C 
HETATM   29  C15 UNL     1      -4.181  23.077  51.547  1.00  0.00     0.123 A 
ENDBRANCH  21  23
ENDBRANCH  15  17
ENDBRANCH  12  13
ENDBRANCH   5  12
BRANCH   8  30
HETATM   30  C19 UNL     1     -10.944  23.039  52.384  1.00  0.00     0.058 C 
BRANCH  30  31
HETATM   31  C20 UNL     1     -11.315  22.376  53.645  1.00  0.00    -0.014 A 
HETATM   32  C21 UNL     1     -10.728  22.642  54.859  1.00  0.00     0.042 A 
HETATM   33 CL1  UNL     1      -9.559  23.948  54.956  1.00  0.00    -0.084 Cl
HETATM   34  C22 UNL     1     -11.073  21.947  56.014  1.00  0.00     0.024 A 
HETATM   35  C23 UNL     1     -12.029  20.953  55.994  1.00  0.00     0.003 A 
HETATM   36  C24 UNL     1     -12.628  20.675  54.786  1.00  0.00     0.024 A 
HETATM   37  C25 UNL     1     -12.284  21.363  53.644  1.00  0.00     0.042 A 
HETATM   38 CL2  UNL     1     -13.054  21.007  52.090  1.00  0.00    -0.084 Cl
ENDBRANCH  30  31
ENDBRANCH   8  30
BRANCH   1  39
HETATM   39  N1  UNL     1     -13.295  27.996  54.939  1.00  0.00    -0.335 N 
HETATM   40  C1  UNL     1     -13.250  27.343  56.248  1.00  0.00     0.170 C 
HETATM   41  C2  UNL     1     -14.551  28.492  54.459  1.00  0.00     0.170 C 
ENDBRANCH   1  39
TORSDOF 7
ENDMDL
