MODEL 8
REMARK VINA RESULT: -7.930269264      6.142     11.740
REMARK  7 active torsions:
REMARK  status: ('A' for Active; 'I' for Inactive)
REMARK    1  A    between atoms: N1_2  and  N2_4 
REMARK    2  A    between atoms: N3_8  and  C5_9 
REMARK    3  A    between atoms: C5_9  and  C6_10 
REMARK       I    between atoms: C6_10  and  N4_12 
REMARK    4  A    between atoms: N4_12  and  C7_14 
REMARK    5  A    between atoms: C11_18  and  C12_19 
REMARK    6  A    between atoms: C18_29  and  C19_30 
REMARK    7  A    between atoms: C19_30  and  C20_31 
ROOT
HETATM    1  N2  UNL     1     -12.735  26.600  56.075  1.00  0.00    -0.291 N 
ATOM      2  H2  UNL     1     -13.489  26.634  56.762  1.00  0.00     0.188 HD
HETATM    3  C3  UNL     1     -12.010  25.531  55.973  1.00  0.00     0.110 C 
HETATM    4  C4  UNL     1     -12.438  24.478  56.940  1.00  0.00     0.203 C 
HETATM    5  N3  UNL     1     -11.510  23.350  56.890  1.00  0.00    -0.336 N 
HETATM    6  C17 UNL     1     -10.919  22.772  55.737  1.00  0.00     0.226 C 
HETATM    7  O2  UNL     1     -10.199  21.748  55.890  1.00  0.00    -0.273 OA
HETATM    8  C18 UNL     1     -11.076  23.273  54.350  1.00  0.00     0.100 C 
HETATM    9  C26 UNL     1     -10.409  24.572  54.181  1.00  0.00     0.135 C 
HETATM   10  N7  UNL     1     -11.013  25.589  55.011  1.00  0.00    -0.377 N 
ATOM     11  H7  UNL     1     -10.635  26.525  54.861  1.00  0.00     0.160 HD
ENDROOT
BRANCH   5  12
HETATM   12  C5  UNL     1     -11.140  22.760  58.156  1.00  0.00     0.229 C 
BRANCH  12  13
HETATM   13  C6  UNL     1     -12.173  22.815  59.192  1.00  0.00     0.240 C 
HETATM   14  O1  UNL     1     -11.879  23.320  60.285  1.00  0.00    -0.271 OA
HETATM   15  N4  UNL     1     -13.470  22.310  58.965  1.00  0.00    -0.326 N 
ATOM     16  H4  UNL     1     -13.645  21.904  58.046  1.00  0.00     0.169 HD
BRANCH  15  17
HETATM   17  C7  UNL     1     -14.554  22.304  59.870  1.00  0.00     0.035 A 
HETATM   18  C8  UNL     1     -14.862  21.111  60.511  1.00  0.00     0.029 A 
HETATM   19  C9  UNL     1     -15.921  21.090  61.382  1.00  0.00     0.003 A 
HETATM   20  C10 UNL     1     -16.676  22.225  61.629  1.00  0.00     0.012 A 
HETATM   21  C11 UNL     1     -16.383  23.400  61.004  1.00  0.00    -0.021 A 
HETATM   22  C16 UNL     1     -15.309  23.444  60.112  1.00  0.00     0.042 A 
BRANCH  21  23
HETATM   23  C12 UNL     1     -17.167  24.627  61.246  1.00  0.00     0.008 A 
HETATM   24  C13 UNL     1     -16.955  25.604  62.196  1.00  0.00     0.120 A 
HETATM   25  N5  UNL     1     -17.920  26.528  62.041  1.00  0.00    -0.310 N 
HETATM   26  N6  UNL     1     -18.722  26.189  61.052  1.00  0.00    -0.307 N 
ATOM     27  H5  UNL     1     -18.016  27.371  62.608  1.00  0.00     0.186 HD
HETATM   28  C14 UNL     1     -19.884  26.946  60.589  1.00  0.00     0.177 C 
HETATM   29  C15 UNL     1     -18.286  25.018  60.539  1.00  0.00     0.123 A 
ENDBRANCH  21  23
ENDBRANCH  15  17
ENDBRANCH  12  13
ENDBRANCH   5  12
BRANCH   8  30
HETATM   30  C19 UNL     1     -10.870  22.213  53.331  1.00  0.00     0.058 C 
BRANCH  30  31
HETATM   31  C20 UNL     1     -12.102  22.026  52.547  1.00  0.00    -0.014 A 
HETATM   32  C21 UNL     1     -13.085  21.116  52.858  1.00  0.00     0.042 A 
HETATM   33 CL1  UNL     1     -12.945  20.211  54.356  1.00  0.00    -0.084 Cl
HETATM   34  C22 UNL     1     -14.205  20.936  52.052  1.00  0.00     0.024 A 
HETATM   35  C23 UNL     1     -14.384  21.668  50.897  1.00  0.00     0.003 A 
HETATM   36  C24 UNL     1     -13.409  22.584  50.572  1.00  0.00     0.024 A 
HETATM   37  C25 UNL     1     -12.300  22.761  51.370  1.00  0.00     0.042 A 
HETATM   38 CL2  UNL     1     -11.047  23.940  50.953  1.00  0.00    -0.084 Cl
ENDBRANCH  30  31
ENDBRANCH   8  30
BRANCH   1  39
HETATM   39  N1  UNL     1     -12.493  27.719  55.247  1.00  0.00    -0.335 N 
HETATM   40  C1  UNL     1     -13.335  27.874  54.061  1.00  0.00     0.170 C 
HETATM   41  C2  UNL     1     -11.479  28.697  55.506  1.00  0.00     0.170 C 
ENDBRANCH   1  39
TORSDOF 7
ENDMDL
