MODEL 5
REMARK VINA RESULT: -7.977550138      2.040      3.031
REMARK  7 active torsions:
REMARK  status: ('A' for Active; 'I' for Inactive)
REMARK    1  A    between atoms: N1_2  and  N2_4 
REMARK    2  A    between atoms: N3_8  and  C5_9 
REMARK    3  A    between atoms: C5_9  and  C6_10 
REMARK       I    between atoms: C6_10  and  N4_12 
REMARK    4  A    between atoms: N4_12  and  C7_14 
REMARK    5  A    between atoms: C11_18  and  C12_19 
REMARK    6  A    between atoms: C18_29  and  C19_30 
REMARK    7  A    between atoms: C19_30  and  C20_31 
ROOT
HETATM    1  N2  UNL     1     -12.427  27.115  54.825  1.00  0.00    -0.291 N 
ATOM      2  H2  UNL     1     -11.781  27.778  55.254  1.00  0.00     0.188 HD
HETATM    3  C3  UNL     1     -12.099  26.530  53.716  1.00  0.00     0.110 C 
HETATM    4  C4  UNL     1     -10.752  26.961  53.240  1.00  0.00     0.203 C 
HETATM    5  N3  UNL     1     -10.484  26.388  51.923  1.00  0.00    -0.336 N 
HETATM    6  C17 UNL     1     -10.785  25.076  51.476  1.00  0.00     0.226 C 
HETATM    7  O2  UNL     1     -10.403  24.740  50.323  1.00  0.00    -0.273 OA
HETATM    8  C18 UNL     1     -11.519  24.052  52.258  1.00  0.00     0.100 C 
HETATM    9  C26 UNL     1     -12.926  24.436  52.440  1.00  0.00     0.135 C 
HETATM   10  N7  UNL     1     -13.047  25.649  53.216  1.00  0.00    -0.377 N 
ATOM     11  H7  UNL     1     -14.009  25.905  53.438  1.00  0.00     0.160 HD
ENDROOT
BRANCH   5  12
HETATM   12  C5  UNL     1      -9.850  27.257  50.958  1.00  0.00     0.229 C 
BRANCH  12  13
HETATM   13  C6  UNL     1      -8.440  26.966  50.692  1.00  0.00     0.240 C 
HETATM   14  O1  UNL     1      -7.588  27.461  51.444  1.00  0.00    -0.271 OA
HETATM   15  N4  UNL     1      -8.048  26.146  49.613  1.00  0.00    -0.326 N 
ATOM     16  H4  UNL     1      -8.798  25.774  49.031  1.00  0.00     0.169 HD
BRANCH  15  17
HETATM   17  C7  UNL     1      -6.733  25.784  49.250  1.00  0.00     0.035 A 
HETATM   18  C8  UNL     1      -6.222  26.288  48.061  1.00  0.00     0.029 A 
HETATM   19  C9  UNL     1      -4.951  25.933  47.692  1.00  0.00     0.003 A 
HETATM   20  C10 UNL     1      -4.179  25.091  48.475  1.00  0.00     0.012 A 
HETATM   21  C11 UNL     1      -4.670  24.590  49.644  1.00  0.00    -0.021 A 
HETATM   22  C16 UNL     1      -5.964  24.938  50.039  1.00  0.00     0.042 A 
BRANCH  21  23
HETATM   23  C12 UNL     1      -3.873  23.692  50.503  1.00  0.00     0.008 A 
HETATM   24  C13 UNL     1      -2.595  23.219  50.293  1.00  0.00     0.120 A 
HETATM   25  N5  UNL     1      -2.282  22.435  51.339  1.00  0.00    -0.310 N 
HETATM   26  N6  UNL     1      -3.287  22.389  52.191  1.00  0.00    -0.307 N 
ATOM     27  H5  UNL     1      -1.395  21.946  51.457  1.00  0.00     0.186 HD
HETATM   28  C14 UNL     1      -3.316  21.638  53.446  1.00  0.00     0.177 C 
HETATM   29  C15 UNL     1      -4.287  23.155  51.705  1.00  0.00     0.123 A 
ENDBRANCH  21  23
ENDBRANCH  15  17
ENDBRANCH  12  13
ENDBRANCH   5  12
BRANCH   8  30
HETATM   30  C19 UNL     1     -11.193  22.666  51.835  1.00  0.00     0.058 C 
BRANCH  30  31
HETATM   31  C20 UNL     1     -11.995  21.704  52.610  1.00  0.00    -0.014 A 
HETATM   32  C21 UNL     1     -11.665  21.261  53.868  1.00  0.00     0.042 A 
HETATM   33 CL1  UNL     1     -10.282  21.980  54.674  1.00  0.00    -0.084 Cl
HETATM   34  C22 UNL     1     -12.426  20.305  54.537  1.00  0.00     0.024 A 
HETATM   35  C23 UNL     1     -13.554  19.757  53.964  1.00  0.00     0.003 A 
HETATM   36  C24 UNL     1     -13.899  20.192  52.704  1.00  0.00     0.024 A 
HETATM   37  C25 UNL     1     -13.145  21.136  52.043  1.00  0.00     0.042 A 
HETATM   38 CL2  UNL     1     -13.588  21.696  50.423  1.00  0.00    -0.084 Cl
ENDBRANCH  30  31
ENDBRANCH   8  30
BRANCH   1  39
HETATM   39  N1  UNL     1     -13.667  26.846  55.445  1.00  0.00    -0.335 N 
HETATM   40  C1  UNL     1     -13.705  25.776  56.442  1.00  0.00     0.170 C 
HETATM   41  C2  UNL     1     -14.876  27.558  55.151  1.00  0.00     0.170 C 
ENDBRANCH   1  39
TORSDOF 7
ENDMDL
