MODEL 1
REMARK VINA RESULT: -9.538018192      0.000      0.000
REMARK  6 active torsions:
REMARK  status: ('A' for Active; 'I' for Inactive)
REMARK    1  A    between atoms: C5_6  and  O1_7 
REMARK    2  A    between atoms: O1_7  and  C6_8 
REMARK    3  A    between atoms: C6_8  and  C7_10 
REMARK    4  A    between atoms: C7_10  and  C8_11 
REMARK    5  A    between atoms: C7_10  and  C9_14 
REMARK    6  A    between atoms: C8_11  and  O3_12 
ROOT
HETATM    1  O1  UNL     1     184.206  27.729 524.882  1.00  0.00    -0.315 OA
ENDROOT
BRANCH   1   2
HETATM    2  C5  UNL     1     182.811  27.610 524.572  1.00  0.00     0.136 C 
HETATM    3  C4  UNL     1     182.099  27.225 525.811  1.00  0.00     0.069 C 
HETATM    4  C3  UNL     1     180.853  27.993 526.103  1.00  0.00     0.224 C 
HETATM    5  N1  UNL     1     180.173  28.332 524.871  1.00  0.00    -0.061 N 
HETATM    6  C18 UNL     1     181.230  29.322 526.705  1.00  0.00     0.184 A 
HETATM    7  C1  UNL     1     178.870  28.904 525.123  1.00  0.00     0.273 C 
HETATM    8  C2  UNL     1     180.015  27.230 523.977  1.00  0.00     0.273 C 
HETATM    9  C16 UNL     1     181.033  29.374 524.357  1.00  0.00     0.224 C 
HETATM   10  C15 UNL     1     182.381  28.883 523.933  1.00  0.00     0.069 C 
HETATM   11  C17 UNL     1     181.214  30.296 525.533  1.00  0.00     0.184 A 
HETATM   12  O4  UNL     1     180.294  30.334 526.552  1.00  0.00    -0.371 OA
ENDBRANCH   1   2
BRANCH   1  13
HETATM   13  C6  UNL     1     185.175  26.960 524.312  1.00  0.00     0.270 C 
HETATM   14  O2  UNL     1     185.143  26.784 523.064  1.00  0.00    -0.264 OA
BRANCH  13  15
HETATM   15  C7  UNL     1     186.280  26.306 525.061  1.00  0.00     0.142 C 
BRANCH  15  16
HETATM   16  C8  UNL     1     186.073  24.805 525.141  1.00  0.00     0.183 C 
BRANCH  16  17
HETATM   17  O3  UNL     1     184.759  24.472 524.819  1.00  0.00    -0.400 OA
ATOM     18  H3  UNL     1     184.284  24.192 525.593  1.00  0.00     0.209 HD
ENDBRANCH  16  17
ENDBRANCH  15  16
BRANCH  15  19
HETATM   19  C9  UNL     1     186.515  26.910 526.375  1.00  0.00    -0.043 A 
HETATM   20  C10 UNL     1     187.173  28.113 526.517  1.00  0.00     0.008 A 
HETATM   21  C11 UNL     1     187.423  28.726 527.708  1.00  0.00     0.001 A 
HETATM   22  C12 UNL     1     186.981  28.086 528.853  1.00  0.00     0.000 A 
HETATM   23  C13 UNL     1     186.319  26.881 528.757  1.00  0.00     0.001 A 
HETATM   24  C14 UNL     1     186.085  26.292 527.531  1.00  0.00     0.008 A 
ENDBRANCH  15  19
ENDBRANCH  13  15
ENDBRANCH   1  13
TORSDOF 6
ENDMDL
