MODEL 15
REMARK VINA RESULT: -7.569101990      2.128      6.367
REMARK  6 active torsions:
REMARK  status: ('A' for Active; 'I' for Inactive)
REMARK    1  A    between atoms: C5_6  and  O1_7 
REMARK    2  A    between atoms: O1_7  and  C6_8 
REMARK    3  A    between atoms: C6_8  and  C7_10 
REMARK    4  A    between atoms: C7_10  and  C8_11 
REMARK    5  A    between atoms: C7_10  and  C9_14 
REMARK    6  A    between atoms: C8_11  and  O3_12 
ROOT
HETATM    1  O1  UNL     1     183.087  28.314 526.627  1.00  0.00    -0.315 OA
ENDROOT
BRANCH   1   2
HETATM    2  C5  UNL     1     184.066  27.292 526.860  1.00  0.00     0.136 C 
HETATM    3  C4  UNL     1     183.591  26.047 526.217  1.00  0.00     0.069 C 
HETATM    4  C3  UNL     1     184.606  25.311 525.407  1.00  0.00     0.224 C 
HETATM    5  N1  UNL     1     185.916  25.443 526.007  1.00  0.00    -0.061 N 
HETATM    6  C18 UNL     1     184.736  25.983 524.064  1.00  0.00     0.184 A 
HETATM    7  C1  UNL     1     186.885  24.587 525.361  1.00  0.00     0.273 C 
HETATM    8  C2  UNL     1     185.938  25.169 527.409  1.00  0.00     0.273 C 
HETATM    9  C16 UNL     1     186.235  26.814 525.682  1.00  0.00     0.224 C 
HETATM   10  C15 UNL     1     185.381  27.814 526.396  1.00  0.00     0.069 C 
HETATM   11  C17 UNL     1     185.939  26.906 524.209  1.00  0.00     0.184 A 
HETATM   12  O4  UNL     1     185.945  25.787 523.413  1.00  0.00    -0.371 OA
ENDBRANCH   1   2
BRANCH   1  13
HETATM   13  C6  UNL     1     183.314  29.418 525.863  1.00  0.00     0.270 C 
HETATM   14  O2  UNL     1     184.328  30.123 526.117  1.00  0.00    -0.264 OA
BRANCH  13  15
HETATM   15  C7  UNL     1     182.447  29.858 524.740  1.00  0.00     0.142 C 
BRANCH  15  16
HETATM   16  C8  UNL     1     182.129  31.339 524.841  1.00  0.00     0.183 C 
BRANCH  16  17
HETATM   17  O3  UNL     1     181.721  31.667 526.133  1.00  0.00    -0.400 OA
ATOM     18  H3  UNL     1     182.189  32.432 526.448  1.00  0.00     0.209 HD
ENDBRANCH  16  17
ENDBRANCH  15  16
BRANCH  15  19
HETATM   19  C9  UNL     1     181.243  29.037 524.592  1.00  0.00    -0.043 A 
HETATM   20  C10 UNL     1     180.005  29.477 525.010  1.00  0.00     0.008 A 
HETATM   21  C11 UNL     1     178.849  28.763 524.902  1.00  0.00     0.001 A 
HETATM   22  C12 UNL     1     178.934  27.506 524.331  1.00  0.00     0.000 A 
HETATM   23  C13 UNL     1     180.151  27.026 523.899  1.00  0.00     0.001 A 
HETATM   24  C14 UNL     1     181.300  27.779 524.026  1.00  0.00     0.008 A 
ENDBRANCH  15  19
ENDBRANCH  13  15
ENDBRANCH   1  13
TORSDOF 6
ENDMDL
