MODEL 3
REMARK VINA RESULT: -9.235892188      1.274      2.250
REMARK  6 active torsions:
REMARK  status: ('A' for Active; 'I' for Inactive)
REMARK    1  A    between atoms: C5_6  and  O1_7 
REMARK    2  A    between atoms: O1_7  and  C6_8 
REMARK    3  A    between atoms: C6_8  and  C7_10 
REMARK    4  A    between atoms: C7_10  and  C8_11 
REMARK    5  A    between atoms: C7_10  and  C9_14 
REMARK    6  A    between atoms: C8_11  and  O3_12 
ROOT
HETATM    1  O1  UNL     1     183.789  26.373 524.765  1.00  0.00    -0.315 OA
ENDROOT
BRANCH   1   2
HETATM    2  C5  UNL     1     183.518  27.757 525.019  1.00  0.00     0.136 C 
HETATM    3  C4  UNL     1     182.819  28.311 523.839  1.00  0.00     0.069 C 
HETATM    4  C3  UNL     1     181.617  29.146 524.133  1.00  0.00     0.224 C 
HETATM    5  N1  UNL     1     181.813  29.890 525.359  1.00  0.00    -0.061 N 
HETATM    6  C18 UNL     1     180.452  28.236 524.424  1.00  0.00     0.184 A 
HETATM    7  C1  UNL     1     180.754  30.850 525.572  1.00  0.00     0.273 C 
HETATM    8  C2  UNL     1     183.064  30.576 525.425  1.00  0.00     0.273 C 
HETATM    9  C16 UNL     1     181.677  28.841 526.345  1.00  0.00     0.224 C 
HETATM   10  C15 UNL     1     182.792  27.844 526.316  1.00  0.00     0.069 C 
HETATM   11  C17 UNL     1     180.406  28.141 525.944  1.00  0.00     0.184 A 
HETATM   12  O4  UNL     1     179.445  28.785 525.203  1.00  0.00    -0.371 OA
ENDBRANCH   1   2
BRANCH   1  13
HETATM   13  C6  UNL     1     185.029  25.817 524.852  1.00  0.00     0.270 C 
HETATM   14  O2  UNL     1     185.638  25.544 523.783  1.00  0.00    -0.264 OA
BRANCH  13  15
HETATM   15  C7  UNL     1     185.725  25.506 526.128  1.00  0.00     0.142 C 
BRANCH  15  16
HETATM   16  C8  UNL     1     184.860  24.640 527.026  1.00  0.00     0.183 C 
BRANCH  16  17
HETATM   17  O3  UNL     1     183.668  24.306 526.386  1.00  0.00    -0.400 OA
ATOM     18  H3  UNL     1     182.961  24.868 526.680  1.00  0.00     0.209 HD
ENDBRANCH  16  17
ENDBRANCH  15  16
BRANCH  15  19
HETATM   19  C9  UNL     1     186.222  26.701 526.814  1.00  0.00    -0.043 A 
HETATM   20  C10 UNL     1     186.067  26.878 528.173  1.00  0.00     0.008 A 
HETATM   21  C11 UNL     1     186.505  27.965 528.869  1.00  0.00     0.001 A 
HETATM   22  C12 UNL     1     187.150  28.958 528.152  1.00  0.00     0.000 A 
HETATM   23  C13 UNL     1     187.326  28.821 526.791  1.00  0.00     0.001 A 
HETATM   24  C14 UNL     1     186.867  27.706 526.122  1.00  0.00     0.008 A 
ENDBRANCH  15  19
ENDBRANCH  13  15
ENDBRANCH   1  13
TORSDOF 6
ENDMDL
