MODEL 16
REMARK VINA RESULT: -7.526141636      2.298      6.538
REMARK  6 active torsions:
REMARK  status: ('A' for Active; 'I' for Inactive)
REMARK    1  A    between atoms: C5_6  and  O1_7 
REMARK    2  A    between atoms: O1_7  and  C6_8 
REMARK    3  A    between atoms: C6_8  and  C7_10 
REMARK    4  A    between atoms: C7_10  and  C8_11 
REMARK    5  A    between atoms: C7_10  and  C9_14 
REMARK    6  A    between atoms: C8_11  and  O3_12 
ROOT
HETATM    1  O1  UNL     1     183.404  28.321 526.049  1.00  0.00    -0.315 OA
ENDROOT
BRANCH   1   2
HETATM    2  C5  UNL     1     184.230  27.339 525.408  1.00  0.00     0.136 C 
HETATM    3  C4  UNL     1     185.641  27.642 525.738  1.00  0.00     0.069 C 
HETATM    4  C3  UNL     1     186.468  26.475 526.164  1.00  0.00     0.224 C 
HETATM    5  N1  UNL     1     186.060  25.285 525.450  1.00  0.00    -0.061 N 
HETATM    6  C18 UNL     1     186.172  26.170 527.610  1.00  0.00     0.184 A 
HETATM    7  C1  UNL     1     186.963  24.183 525.693  1.00  0.00     0.273 C 
HETATM    8  C2  UNL     1     185.945  25.469 524.038  1.00  0.00     0.273 C 
HETATM    9  C16 UNL     1     184.801  24.990 526.097  1.00  0.00     0.224 C 
HETATM   10  C15 UNL     1     183.732  25.997 525.814  1.00  0.00     0.069 C 
HETATM   11  C17 UNL     1     185.135  25.054 527.564  1.00  0.00     0.184 A 
HETATM   12  O4  UNL     1     186.421  24.865 528.007  1.00  0.00    -0.371 OA
ENDBRANCH   1   2
BRANCH   1  13
HETATM   13  C6  UNL     1     183.281  29.605 525.613  1.00  0.00     0.270 C 
HETATM   14  O2  UNL     1     184.070  30.472 526.074  1.00  0.00    -0.264 OA
BRANCH  13  15
HETATM   15  C7  UNL     1     182.273  30.064 524.622  1.00  0.00     0.142 C 
BRANCH  15  16
HETATM   16  C8  UNL     1     181.876  31.508 524.874  1.00  0.00     0.183 C 
BRANCH  16  17
HETATM   17  O3  UNL     1     181.508  31.691 526.206  1.00  0.00    -0.400 OA
ATOM     18  H3  UNL     1     181.704  30.915 526.718  1.00  0.00     0.209 HD
ENDBRANCH  16  17
ENDBRANCH  15  16
BRANCH  15  19
HETATM   19  C9  UNL     1     181.114  29.174 524.531  1.00  0.00    -0.043 A 
HETATM   20  C10 UNL     1     179.874  29.540 525.012  1.00  0.00     0.008 A 
HETATM   21  C11 UNL     1     178.759  28.758 524.958  1.00  0.00     0.001 A 
HETATM   22  C12 UNL     1     178.889  27.509 524.377  1.00  0.00     0.000 A 
HETATM   23  C13 UNL     1     180.110  27.103 523.883  1.00  0.00     0.001 A 
HETATM   24  C14 UNL     1     181.217  27.923 523.956  1.00  0.00     0.008 A 
ENDBRANCH  15  19
ENDBRANCH  13  15
ENDBRANCH   1  13
TORSDOF 6
ENDMDL
