MODEL 4
REMARK VINA RESULT: -9.162093313      1.190      1.635
REMARK  6 active torsions:
REMARK  status: ('A' for Active; 'I' for Inactive)
REMARK    1  A    between atoms: C5_6  and  O1_7 
REMARK    2  A    between atoms: O1_7  and  C6_8 
REMARK    3  A    between atoms: C6_8  and  C7_10 
REMARK    4  A    between atoms: C7_10  and  C8_11 
REMARK    5  A    between atoms: C7_10  and  C9_14 
REMARK    6  A    between atoms: C8_11  and  O3_12 
ROOT
HETATM    1  O1  UNL     1     183.508  26.025 525.307  1.00  0.00    -0.315 OA
ENDROOT
BRANCH   1   2
HETATM    2  C5  UNL     1     182.469  26.850 525.850  1.00  0.00     0.136 C 
HETATM    3  C4  UNL     1     183.098  28.055 526.432  1.00  0.00     0.069 C 
HETATM    4  C3  UNL     1     182.449  29.354 526.084  1.00  0.00     0.224 C 
HETATM    5  N1  UNL     1     181.016  29.183 525.973  1.00  0.00    -0.061 N 
HETATM    6  C18 UNL     1     182.889  29.763 524.702  1.00  0.00     0.184 A 
HETATM    7  C1  UNL     1     180.340  30.452 525.829  1.00  0.00     0.273 C 
HETATM    8  C2  UNL     1     180.432  28.483 527.073  1.00  0.00     0.273 C 
HETATM    9  C16 UNL     1     180.917  28.472 524.719  1.00  0.00     0.224 C 
HETATM   10  C15 UNL     1     181.469  27.083 524.772  1.00  0.00     0.069 C 
HETATM   11  C17 UNL     1     181.772  29.285 523.783  1.00  0.00     0.184 A 
HETATM   12  O4  UNL     1     182.025  30.612 524.027  1.00  0.00    -0.371 OA
ENDBRANCH   1   2
BRANCH   1  13
HETATM   13  C6  UNL     1     184.578  26.512 524.619  1.00  0.00     0.270 C 
HETATM   14  O2  UNL     1     184.365  27.144 523.550  1.00  0.00    -0.264 OA
BRANCH  13  15
HETATM   15  C7  UNL     1     185.994  26.352 525.041  1.00  0.00     0.142 C 
BRANCH  15  16
HETATM   16  C8  UNL     1     186.437  24.904 524.932  1.00  0.00     0.183 C 
BRANCH  16  17
HETATM   17  O3  UNL     1     185.533  24.170 524.167  1.00  0.00    -0.400 OA
ATOM     18  H3  UNL     1     185.337  23.339 524.585  1.00  0.00     0.209 HD
ENDBRANCH  16  17
ENDBRANCH  15  16
BRANCH  15  19
HETATM   19  C9  UNL     1     186.264  26.921 526.364  1.00  0.00    -0.043 A 
HETATM   20  C10 UNL     1     186.748  28.203 526.521  1.00  0.00     0.008 A 
HETATM   21  C11 UNL     1     187.019  28.789 527.721  1.00  0.00     0.001 A 
HETATM   22  C12 UNL     1     186.789  28.036 528.859  1.00  0.00     0.000 A 
HETATM   23  C13 UNL     1     186.305  26.750 528.748  1.00  0.00     0.001 A 
HETATM   24  C14 UNL     1     186.043  26.191 527.514  1.00  0.00     0.008 A 
ENDBRANCH  15  19
ENDBRANCH  13  15
ENDBRANCH   1  13
TORSDOF 6
ENDMDL
