MODEL 14
REMARK VINA RESULT: -7.597224693      1.609      1.978
REMARK  6 active torsions:
REMARK  status: ('A' for Active; 'I' for Inactive)
REMARK    1  A    between atoms: C5_6  and  O1_7 
REMARK    2  A    between atoms: O1_7  and  C6_8 
REMARK    3  A    between atoms: C6_8  and  C7_10 
REMARK    4  A    between atoms: C7_10  and  C8_11 
REMARK    5  A    between atoms: C7_10  and  C9_14 
REMARK    6  A    between atoms: C8_11  and  O3_12 
ROOT
HETATM    1  O1  UNL     1     183.505  26.404 524.778  1.00  0.00    -0.315 OA
ENDROOT
BRANCH   1   2
HETATM    2  C5  UNL     1     182.223  27.041 524.704  1.00  0.00     0.136 C 
HETATM    3  C4  UNL     1     181.848  27.476 526.068  1.00  0.00     0.069 C 
HETATM    4  C3  UNL     1     181.319  28.867 526.178  1.00  0.00     0.224 C 
HETATM    5  N1  UNL     1     180.551  29.206 525.000  1.00  0.00    -0.061 N 
HETATM    6  C18 UNL     1     182.478  29.831 526.164  1.00  0.00     0.184 A 
HETATM    7  C1  UNL     1     179.866  30.469 525.156  1.00  0.00     0.273 C 
HETATM    8  C2  UNL     1     179.590  28.215 524.633  1.00  0.00     0.273 C 
HETATM    9  C16 UNL     1     181.602  29.380 524.023  1.00  0.00     0.224 C 
HETATM   10  C15 UNL     1     182.310  28.109 523.671  1.00  0.00     0.069 C 
HETATM   11  C17 UNL     1     182.581  30.290 524.715  1.00  0.00     0.184 A 
HETATM   12  O4  UNL     1     182.181  31.116 525.736  1.00  0.00    -0.371 OA
ENDBRANCH   1   2
BRANCH   1  13
HETATM   13  C6  UNL     1     183.836  25.479 525.721  1.00  0.00     0.270 C 
HETATM   14  O2  UNL     1     182.969  24.628 526.055  1.00  0.00    -0.264 OA
BRANCH  13  15
HETATM   15  C7  UNL     1     185.160  25.398 526.393  1.00  0.00     0.142 C 
BRANCH  15  16
HETATM   16  C8  UNL     1     185.076  24.580 527.669  1.00  0.00     0.183 C 
BRANCH  16  17
HETATM   17  O3  UNL     1     185.958  25.073 528.628  1.00  0.00    -0.400 OA
ATOM     18  H3  UNL     1     185.952  26.024 528.633  1.00  0.00     0.209 HD
ENDBRANCH  16  17
ENDBRANCH  15  16
BRANCH  15  19
HETATM   19  C9  UNL     1     185.772  26.711 526.610  1.00  0.00    -0.043 A 
HETATM   20  C10 UNL     1     186.947  27.078 525.987  1.00  0.00     0.008 A 
HETATM   21  C11 UNL     1     187.566  28.282 526.147  1.00  0.00     0.001 A 
HETATM   22  C12 UNL     1     186.966  29.194 526.997  1.00  0.00     0.000 A 
HETATM   23  C13 UNL     1     185.791  28.868 527.639  1.00  0.00     0.001 A 
HETATM   24  C14 UNL     1     185.194  27.638 527.452  1.00  0.00     0.008 A 
ENDBRANCH  15  19
ENDBRANCH  13  15
ENDBRANCH   1  13
TORSDOF 6
ENDMDL
