MODEL 13
REMARK VINA RESULT: -7.643547957      2.346      6.302
REMARK  6 active torsions:
REMARK  status: ('A' for Active; 'I' for Inactive)
REMARK    1  A    between atoms: C5_6  and  O1_7 
REMARK    2  A    between atoms: O1_7  and  C6_8 
REMARK    3  A    between atoms: C6_8  and  C7_10 
REMARK    4  A    between atoms: C7_10  and  C8_11 
REMARK    5  A    between atoms: C7_10  and  C9_14 
REMARK    6  A    between atoms: C8_11  and  O3_12 
ROOT
HETATM    1  O1  UNL     1     182.573  27.977 525.531  1.00  0.00    -0.315 OA
ENDROOT
BRANCH   1   2
HETATM    2  C5  UNL     1     183.574  27.123 524.961  1.00  0.00     0.136 C 
HETATM    3  C4  UNL     1     184.896  27.740 525.206  1.00  0.00     0.069 C 
HETATM    4  C3  UNL     1     185.954  26.817 525.714  1.00  0.00     0.224 C 
HETATM    5  N1  UNL     1     185.789  25.501 525.138  1.00  0.00    -0.061 N 
HETATM    6  C18 UNL     1     185.750  26.611 527.193  1.00  0.00     0.184 A 
HETATM    7  C1  UNL     1     186.904  24.638 525.456  1.00  0.00     0.273 C 
HETATM    8  C2  UNL     1     185.617  25.509 523.720  1.00  0.00     0.273 C 
HETATM    9  C16 UNL     1     184.630  25.025 525.858  1.00  0.00     0.224 C 
HETATM   10  C15 UNL     1     183.371  25.757 525.516  1.00  0.00     0.069 C 
HETATM   11  C17 UNL     1     184.966  25.308 527.297  1.00  0.00     0.184 A 
HETATM   12  O4  UNL     1     186.270  25.433 527.709  1.00  0.00    -0.371 OA
ENDBRANCH   1   2
BRANCH   1  13
HETATM   13  C6  UNL     1     181.553  28.526 524.816  1.00  0.00     0.270 C 
HETATM   14  O2  UNL     1     181.010  27.831 523.916  1.00  0.00    -0.264 OA
BRANCH  13  15
HETATM   15  C7  UNL     1     181.025  29.900 525.022  1.00  0.00     0.142 C 
BRANCH  15  16
HETATM   16  C8  UNL     1     182.107  30.941 524.797  1.00  0.00     0.183 C 
BRANCH  16  17
HETATM   17  O3  UNL     1     183.125  30.803 525.738  1.00  0.00    -0.400 OA
ATOM     18  H3  UNL     1     183.712  30.096 525.496  1.00  0.00     0.209 HD
ENDBRANCH  16  17
ENDBRANCH  15  16
BRANCH  15  19
HETATM   19  C9  UNL     1     180.350  30.066 526.312  1.00  0.00    -0.043 A 
HETATM   20  C10 UNL     1     179.907  28.986 527.046  1.00  0.00     0.008 A 
HETATM   21  C11 UNL     1     179.273  29.072 528.249  1.00  0.00     0.001 A 
HETATM   22  C12 UNL     1     179.063  30.339 528.763  1.00  0.00     0.000 A 
HETATM   23  C13 UNL     1     179.489  31.447 528.062  1.00  0.00     0.001 A 
HETATM   24  C14 UNL     1     180.127  31.318 526.846  1.00  0.00     0.008 A 
ENDBRANCH  15  19
ENDBRANCH  13  15
ENDBRANCH   1  13
TORSDOF 6
ENDMDL
