MODEL 2
REMARK VINA RESULT: -9.523397722      0.987      1.831
REMARK  6 active torsions:
REMARK  status: ('A' for Active; 'I' for Inactive)
REMARK    1  A    between atoms: C5_6  and  O1_7 
REMARK    2  A    between atoms: O1_7  and  C6_8 
REMARK    3  A    between atoms: C6_8  and  C7_10 
REMARK    4  A    between atoms: C7_10  and  C8_11 
REMARK    5  A    between atoms: C7_10  and  C9_14 
REMARK    6  A    between atoms: C8_11  and  O3_12 
ROOT
HETATM    1  O1  UNL     1     183.999  26.895 524.532  1.00  0.00    -0.315 OA
ENDROOT
BRANCH   1   2
HETATM    2  C5  UNL     1     183.537  28.222 524.818  1.00  0.00     0.136 C 
HETATM    3  C4  UNL     1     182.573  28.608 523.764  1.00  0.00     0.069 C 
HETATM    4  C3  UNL     1     181.308  29.236 524.246  1.00  0.00     0.224 C 
HETATM    5  N1  UNL     1     181.566  30.044 525.418  1.00  0.00    -0.061 N 
HETATM    6  C18 UNL     1     180.380  28.152 524.730  1.00  0.00     0.184 A 
HETATM    7  C1  UNL     1     180.406  30.819 525.796  1.00  0.00     0.273 C 
HETATM    8  C2  UNL     1     182.674  30.935 525.273  1.00  0.00     0.273 C 
HETATM    9  C16 UNL     1     181.774  29.023 526.420  1.00  0.00     0.224 C 
HETATM   10  C15 UNL     1     183.025  28.229 526.215  1.00  0.00     0.069 C 
HETATM   11  C17 UNL     1     180.595  28.105 526.238  1.00  0.00     0.184 A 
HETATM   12  O4  UNL     1     179.432  28.550 525.660  1.00  0.00    -0.371 OA
ENDBRANCH   1   2
BRANCH   1  13
HETATM   13  C6  UNL     1     185.238  26.615 524.039  1.00  0.00     0.270 C 
HETATM   14  O2  UNL     1     185.434  26.753 522.802  1.00  0.00    -0.264 OA
BRANCH  13  15
HETATM   15  C7  UNL     1     186.387  26.156 524.861  1.00  0.00     0.142 C 
BRANCH  15  16
HETATM   16  C8  UNL     1     186.374  24.647 525.025  1.00  0.00     0.183 C 
BRANCH  16  17
HETATM   17  O3  UNL     1     185.441  24.067 524.167  1.00  0.00    -0.400 OA
ATOM     18  H3  UNL     1     185.844  23.380 523.648  1.00  0.00     0.209 HD
ENDBRANCH  16  17
ENDBRANCH  15  16
BRANCH  15  19
HETATM   19  C9  UNL     1     186.490  26.857 526.143  1.00  0.00    -0.043 A 
HETATM   20  C10 UNL     1     186.991  28.138 526.235  1.00  0.00     0.008 A 
HETATM   21  C11 UNL     1     187.113  28.843 527.395  1.00  0.00     0.001 A 
HETATM   22  C12 UNL     1     186.700  28.221 528.559  1.00  0.00     0.000 A 
HETATM   23  C13 UNL     1     186.192  26.940 528.513  1.00  0.00     0.001 A 
HETATM   24  C14 UNL     1     186.086  26.258 527.319  1.00  0.00     0.008 A 
ENDBRANCH  15  19
ENDBRANCH  13  15
ENDBRANCH   1  13
TORSDOF 6
ENDMDL
