MODEL 1
REMARK VINA RESULT: -9.576995387      0.000      0.000
REMARK  9 active torsions:
REMARK  status: ('A' for Active; 'I' for Inactive)
REMARK    1  A    between atoms: O1_2  and  C2_3 
REMARK    2  A    between atoms: C5_6  and  C6_7 
REMARK    3  A    between atoms: C6_7  and  S1_8 
REMARK    4  A    between atoms: C6_7  and  C10_18 
REMARK    5  A    between atoms: C6_7  and  C16_24 
REMARK    6  A    between atoms: S1_8  and  C7_9 
REMARK    7  A    between atoms: C7_9  and  C8_10 
REMARK    8  A    between atoms: C8_10  and  N1_11 
REMARK    9  A    between atoms: C8_10  and  C9_15 
ROOT
HETATM    1  C6  UNL     1      40.801  -6.849  19.523  1.00  0.00     0.089 C 
ENDROOT
BRANCH   1   2
HETATM    2  C5  UNL     1      40.061  -5.568  19.628  1.00  0.00    -0.030 A 
HETATM    3  C4  UNL     1      40.472  -4.537  20.439  1.00  0.00     0.012 A 
HETATM    4  C3  UNL     1      39.763  -3.358  20.526  1.00  0.00     0.037 A 
HETATM    5  C2  UNL     1      38.610  -3.181  19.795  1.00  0.00     0.068 A 
HETATM    6  C23 UNL     1      38.204  -4.224  18.981  1.00  0.00     0.037 A 
HETATM    7  C22 UNL     1      38.898  -5.403  18.882  1.00  0.00     0.012 A 
BRANCH   5   8
HETATM    8  O1  UNL     1      37.837  -2.049  19.814  1.00  0.00    -0.356 OA
HETATM    9  C1  UNL     1      37.956  -0.957  20.669  1.00  0.00     0.210 C 
ENDBRANCH   5   8
ENDBRANCH   1   2
BRANCH   1  10
HETATM   10  S1  UNL     1      40.049  -8.122  20.575  1.00  0.00    -0.141 SA
BRANCH  10  11
HETATM   11  C7  UNL     1      39.042  -7.484  21.899  1.00  0.00     0.119 C 
BRANCH  11  12
HETATM   12  C8  UNL     1      39.504  -8.189  23.183  1.00  0.00     0.292 C 
BRANCH  12  13
HETATM   13  N1  UNL     1      38.329  -8.762  23.812  1.00  0.00    -0.065 N 
ATOM     14  H13 UNL     1      37.520  -8.791  23.192  1.00  0.00     0.275 HD
ATOM     15  H12 UNL     1      38.411  -9.767  23.968  1.00  0.00     0.275 HD
ATOM     16  H11 UNL     1      38.154  -8.239  24.670  1.00  0.00     0.275 HD
ENDBRANCH  12  13
BRANCH  12  17
HETATM   17  C9  UNL     1      40.139  -7.252  24.120  1.00  0.00     0.205 C 
HETATM   18  O2  UNL     1      41.295  -7.500  24.597  1.00  0.00    -0.646 OA
HETATM   19  O3  UNL     1      39.522  -6.066  24.530  1.00  0.00    -0.646 OA
ENDBRANCH  12  17
ENDBRANCH  11  12
ENDBRANCH  10  11
ENDBRANCH   1  10
BRANCH   1  20
HETATM   20  C10 UNL     1      42.160  -6.649  20.070  1.00  0.00    -0.030 A 
HETATM   21  C11 UNL     1      42.479  -7.276  21.249  1.00  0.00     0.009 A 
HETATM   22  C12 UNL     1      43.727  -7.141  21.812  1.00  0.00     0.001 A 
HETATM   23  C13 UNL     1      44.671  -6.367  21.183  1.00  0.00     0.000 A 
HETATM   24  C14 UNL     1      44.390  -5.717  19.991  1.00  0.00     0.001 A 
HETATM   25  C15 UNL     1      43.113  -5.879  19.454  1.00  0.00     0.009 A 
ENDBRANCH   1  20
BRANCH   1  26
HETATM   26  C16 UNL     1      40.811  -7.231  18.100  1.00  0.00    -0.030 A 
HETATM   27  C17 UNL     1      40.402  -8.509  17.752  1.00  0.00     0.009 A 
HETATM   28  C18 UNL     1      40.361  -8.965  16.462  1.00  0.00     0.001 A 
HETATM   29  C19 UNL     1      40.745  -8.125  15.426  1.00  0.00     0.000 A 
HETATM   30  C20 UNL     1      41.153  -6.857  15.733  1.00  0.00     0.001 A 
HETATM   31  C21 UNL     1      41.187  -6.411  17.057  1.00  0.00     0.009 A 
ENDBRANCH   1  26
TORSDOF 9
ENDMDL
