MODEL 2
REMARK VINA RESULT: -9.298790802      1.274      5.062
REMARK  9 active torsions:
REMARK  status: ('A' for Active; 'I' for Inactive)
REMARK    1  A    between atoms: O1_2  and  C2_3 
REMARK    2  A    between atoms: C5_6  and  C6_7 
REMARK    3  A    between atoms: C6_7  and  S1_8 
REMARK    4  A    between atoms: C6_7  and  C10_18 
REMARK    5  A    between atoms: C6_7  and  C16_24 
REMARK    6  A    between atoms: S1_8  and  C7_9 
REMARK    7  A    between atoms: C7_9  and  C8_10 
REMARK    8  A    between atoms: C8_10  and  N1_11 
REMARK    9  A    between atoms: C8_10  and  C9_15 
ROOT
HETATM    1  C6  UNL     1      40.753  -6.742  19.342  1.00  0.00     0.089 C 
ENDROOT
BRANCH   1   2
HETATM    2  C5  UNL     1      42.138  -6.693  19.870  1.00  0.00    -0.030 A 
HETATM    3  C4  UNL     1      43.049  -5.741  19.477  1.00  0.00     0.012 A 
HETATM    4  C3  UNL     1      44.334  -5.720  19.976  1.00  0.00     0.037 A 
HETATM    5  C2  UNL     1      44.744  -6.664  20.892  1.00  0.00     0.068 A 
HETATM    6  C23 UNL     1      43.819  -7.617  21.282  1.00  0.00     0.037 A 
HETATM    7  C22 UNL     1      42.537  -7.652  20.796  1.00  0.00     0.012 A 
BRANCH   5   8
HETATM    8  O1  UNL     1      45.997  -6.726  21.444  1.00  0.00    -0.356 OA
HETATM    9  C1  UNL     1      46.660  -7.857  21.911  1.00  0.00     0.210 C 
ENDBRANCH   5   8
ENDBRANCH   1   2
BRANCH   1  10
HETATM   10  S1  UNL     1      39.818  -8.101  20.098  1.00  0.00    -0.141 SA
BRANCH  10  11
HETATM   11  C7  UNL     1      38.917  -7.649  21.567  1.00  0.00     0.119 C 
BRANCH  11  12
HETATM   12  C8  UNL     1      39.648  -8.301  22.750  1.00  0.00     0.292 C 
BRANCH  12  13
HETATM   13  N1  UNL     1      38.659  -9.029  23.524  1.00  0.00    -0.065 N 
ATOM     14  H13 UNL     1      37.921  -8.430  23.892  1.00  0.00     0.275 HD
ATOM     15  H12 UNL     1      38.068  -9.630  22.950  1.00  0.00     0.275 HD
ATOM     16  H11 UNL     1      39.157  -9.540  24.253  1.00  0.00     0.275 HD
ENDBRANCH  12  13
BRANCH  12  17
HETATM   17  C9  UNL     1      40.287  -7.299  23.613  1.00  0.00     0.205 C 
HETATM   18  O2  UNL     1      39.789  -6.131  23.725  1.00  0.00    -0.646 OA
HETATM   19  O3  UNL     1      41.452  -7.567  24.340  1.00  0.00    -0.646 OA
ENDBRANCH  12  17
ENDBRANCH  11  12
ENDBRANCH  10  11
ENDBRANCH   1  10
BRANCH   1  20
HETATM   20  C10 UNL     1      40.813  -7.069  17.902  1.00  0.00    -0.030 A 
HETATM   21  C11 UNL     1      40.391  -8.313  17.505  1.00  0.00     0.009 A 
HETATM   22  C12 UNL     1      40.412  -8.682  16.180  1.00  0.00     0.001 A 
HETATM   23  C13 UNL     1      40.861  -7.790  15.237  1.00  0.00     0.000 A 
HETATM   24  C14 UNL     1      41.295  -6.524  15.596  1.00  0.00     0.001 A 
HETATM   25  C15 UNL     1      41.258  -6.189  16.949  1.00  0.00     0.009 A 
ENDBRANCH   1  20
BRANCH   1  26
HETATM   26  C16 UNL     1      40.141  -5.427  19.603  1.00  0.00    -0.030 A 
HETATM   27  C17 UNL     1      39.034  -5.049  18.858  1.00  0.00     0.009 A 
HETATM   28  C18 UNL     1      38.383  -3.857  19.024  1.00  0.00     0.001 A 
HETATM   29  C19 UNL     1      38.831  -2.958  19.981  1.00  0.00     0.000 A 
HETATM   30  C20 UNL     1      39.920  -3.299  20.734  1.00  0.00     0.001 A 
HETATM   31  C21 UNL     1      40.571  -4.522  20.549  1.00  0.00     0.009 A 
ENDBRANCH   1  26
TORSDOF 9
ENDMDL
