MODEL 3
REMARK VINA RESULT: -9.238604628      0.195      1.673
REMARK  9 active torsions:
REMARK  status: ('A' for Active; 'I' for Inactive)
REMARK    1  A    between atoms: O1_2  and  C2_3 
REMARK    2  A    between atoms: C5_6  and  C6_7 
REMARK    3  A    between atoms: C6_7  and  S1_8 
REMARK    4  A    between atoms: C6_7  and  C10_18 
REMARK    5  A    between atoms: C6_7  and  C16_24 
REMARK    6  A    between atoms: S1_8  and  C7_9 
REMARK    7  A    between atoms: C7_9  and  C8_10 
REMARK    8  A    between atoms: C8_10  and  N1_11 
REMARK    9  A    between atoms: C8_10  and  C9_15 
ROOT
HETATM    1  C6  UNL     1      40.672  -6.854  19.588  1.00  0.00     0.089 C 
ENDROOT
BRANCH   1   2
HETATM    2  C5  UNL     1      39.919  -5.576  19.625  1.00  0.00    -0.030 A 
HETATM    3  C4  UNL     1      38.795  -5.355  18.864  1.00  0.00     0.012 A 
HETATM    4  C3  UNL     1      38.116  -4.156  18.909  1.00  0.00     0.037 A 
HETATM    5  C2  UNL     1      38.552  -3.136  19.726  1.00  0.00     0.068 A 
HETATM    6  C23 UNL     1      39.683  -3.369  20.488  1.00  0.00     0.037 A 
HETATM    7  C22 UNL     1      40.370  -4.555  20.455  1.00  0.00     0.012 A 
BRANCH   5   8
HETATM    8  O1  UNL     1      37.947  -1.911  19.839  1.00  0.00    -0.356 OA
HETATM    9  C1  UNL     1      38.172  -0.943  20.814  1.00  0.00     0.210 C 
ENDBRANCH   5   8
ENDBRANCH   1   2
BRANCH   1  10
HETATM   10  S1  UNL     1      39.922  -8.080  20.696  1.00  0.00    -0.141 SA
BRANCH  10  11
HETATM   11  C7  UNL     1      38.964  -7.383  22.027  1.00  0.00     0.119 C 
BRANCH  11  12
HETATM   12  C8  UNL     1      39.389  -8.117  23.307  1.00  0.00     0.292 C 
BRANCH  12  13
HETATM   13  N1  UNL     1      38.195  -8.699  23.892  1.00  0.00    -0.065 N 
ATOM     14  H13 UNL     1      37.821  -8.149  24.664  1.00  0.00     0.275 HD
ATOM     15  H12 UNL     1      37.381  -8.637  23.279  1.00  0.00     0.275 HD
ATOM     16  H11 UNL     1      38.420  -9.658  24.158  1.00  0.00     0.275 HD
ENDBRANCH  12  13
BRANCH  12  17
HETATM   17  C9  UNL     1      40.001  -7.203  24.280  1.00  0.00     0.205 C 
HETATM   18  O2  UNL     1      39.345  -6.208  24.732  1.00  0.00    -0.646 OA
HETATM   19  O3  UNL     1      41.307  -7.371  24.751  1.00  0.00    -0.646 OA
ENDBRANCH  12  17
ENDBRANCH  11  12
ENDBRANCH  10  11
ENDBRANCH   1  10
BRANCH   1  20
HETATM   20  C10 UNL     1      42.024  -6.615  20.134  1.00  0.00    -0.030 A 
HETATM   21  C11 UNL     1      42.912  -5.901  19.369  1.00  0.00     0.009 A 
HETATM   22  C12 UNL     1      44.185  -5.636  19.818  1.00  0.00     0.001 A 
HETATM   23  C13 UNL     1      44.575  -6.092  21.054  1.00  0.00     0.000 A 
HETATM   24  C14 UNL     1      43.709  -6.816  21.857  1.00  0.00     0.001 A 
HETATM   25  C15 UNL     1      42.428  -7.064  21.366  1.00  0.00     0.009 A 
ENDBRANCH   1  20
BRANCH   1  26
HETATM   26  C16 UNL     1      40.695  -7.305  18.186  1.00  0.00    -0.030 A 
HETATM   27  C17 UNL     1      41.119  -6.416  17.209  1.00  0.00     0.009 A 
HETATM   28  C18 UNL     1      41.190  -6.733  15.879  1.00  0.00     0.001 A 
HETATM   29  C19 UNL     1      40.825  -8.003  15.456  1.00  0.00     0.000 A 
HETATM   30  C20 UNL     1      40.402  -8.904  16.393  1.00  0.00     0.001 A 
HETATM   31  C21 UNL     1      40.338  -8.561  17.746  1.00  0.00     0.009 A 
ENDBRANCH   1  26
TORSDOF 9
ENDMDL
