MODEL 6
REMARK VINA RESULT: -8.936936702      2.538      5.095
REMARK  9 active torsions:
REMARK  status: ('A' for Active; 'I' for Inactive)
REMARK    1  A    between atoms: O1_2  and  C2_3 
REMARK    2  A    between atoms: C5_6  and  C6_7 
REMARK    3  A    between atoms: C6_7  and  S1_8 
REMARK    4  A    between atoms: C6_7  and  C10_18 
REMARK    5  A    between atoms: C6_7  and  C16_24 
REMARK    6  A    between atoms: S1_8  and  C7_9 
REMARK    7  A    between atoms: C7_9  and  C8_10 
REMARK    8  A    between atoms: C8_10  and  N1_11 
REMARK    9  A    between atoms: C8_10  and  C9_15 
ROOT
HETATM    1  C6  UNL     1      40.647  -6.012  19.609  1.00  0.00     0.089 C 
ENDROOT
BRANCH   1   2
HETATM    2  C5  UNL     1      40.328  -6.910  20.746  1.00  0.00    -0.030 A 
HETATM    3  C4  UNL     1      40.934  -8.131  20.920  1.00  0.00     0.012 A 
HETATM    4  C3  UNL     1      40.616  -8.952  21.981  1.00  0.00     0.037 A 
HETATM    5  C2  UNL     1      39.670  -8.566  22.904  1.00  0.00     0.068 A 
HETATM    6  C23 UNL     1      39.066  -7.334  22.721  1.00  0.00     0.037 A 
HETATM    7  C22 UNL     1      39.371  -6.505  21.672  1.00  0.00     0.012 A 
BRANCH   5   8
HETATM    8  O1  UNL     1      39.286  -9.310  23.990  1.00  0.00    -0.356 OA
HETATM    9  C1  UNL     1      38.065  -9.264  24.658  1.00  0.00     0.210 C 
ENDBRANCH   5   8
ENDBRANCH   1   2
BRANCH   1  10
HETATM   10  S1  UNL     1      42.313  -5.313  19.783  1.00  0.00    -0.141 SA
BRANCH  10  11
HETATM   11  C7  UNL     1      43.194  -5.858  21.232  1.00  0.00     0.119 C 
BRANCH  11  12
HETATM   12  C8  UNL     1      44.523  -6.453  20.743  1.00  0.00     0.292 C 
BRANCH  12  13
HETATM   13  N1  UNL     1      44.230  -7.749  20.160  1.00  0.00    -0.065 N 
ATOM     14  H13 UNL     1      44.401  -7.782  19.155  1.00  0.00     0.275 HD
ATOM     15  H12 UNL     1      44.900  -8.469  20.432  1.00  0.00     0.275 HD
ATOM     16  H11 UNL     1      43.269  -7.986  20.408  1.00  0.00     0.275 HD
ENDBRANCH  12  13
BRANCH  12  17
HETATM   17  C9  UNL     1      45.479  -6.629  21.844  1.00  0.00     0.205 C 
HETATM   18  O2  UNL     1      46.390  -7.518  21.772  1.00  0.00    -0.646 OA
HETATM   19  O3  UNL     1      45.440  -5.849  23.004  1.00  0.00    -0.646 OA
ENDBRANCH  12  17
ENDBRANCH  11  12
ENDBRANCH  10  11
ENDBRANCH   1  10
BRANCH   1  20
HETATM   20  C10 UNL     1      39.734  -4.851  19.660  1.00  0.00    -0.030 A 
HETATM   21  C11 UNL     1      40.066  -3.805  20.484  1.00  0.00     0.009 A 
HETATM   22  C12 UNL     1      39.267  -2.689  20.575  1.00  0.00     0.001 A 
HETATM   23  C13 UNL     1      38.117  -2.619  19.826  1.00  0.00     0.000 A 
HETATM   24  C14 UNL     1      37.746  -3.653  18.982  1.00  0.00     0.001 A 
HETATM   25  C15 UNL     1      38.583  -4.766  18.919  1.00  0.00     0.009 A 
ENDBRANCH   1  20
BRANCH   1  26
HETATM   26  C16 UNL     1      40.496  -6.802  18.375  1.00  0.00    -0.030 A 
HETATM   27  C17 UNL     1      41.296  -6.494  17.285  1.00  0.00     0.009 A 
HETATM   28  C18 UNL     1      41.246  -7.168  16.096  1.00  0.00     0.001 A 
HETATM   29  C19 UNL     1      40.357  -8.222  15.942  1.00  0.00     0.000 A 
HETATM   30  C20 UNL     1      39.553  -8.554  16.997  1.00  0.00     0.001 A 
HETATM   31  C21 UNL     1      39.620  -7.853  18.204  1.00  0.00     0.009 A 
ENDBRANCH   1  26
TORSDOF 9
ENDMDL
