MODEL 4
REMARK VINA RESULT: -8.978273506      2.595      4.797
REMARK  9 active torsions:
REMARK  status: ('A' for Active; 'I' for Inactive)
REMARK    1  A    between atoms: O1_2  and  C2_3 
REMARK    2  A    between atoms: C5_6  and  C6_7 
REMARK    3  A    between atoms: C6_7  and  S1_8 
REMARK    4  A    between atoms: C6_7  and  C10_18 
REMARK    5  A    between atoms: C6_7  and  C16_24 
REMARK    6  A    between atoms: S1_8  and  C7_9 
REMARK    7  A    between atoms: C7_9  and  C8_10 
REMARK    8  A    between atoms: C8_10  and  N1_11 
REMARK    9  A    between atoms: C8_10  and  C9_15 
ROOT
HETATM    1  C6  UNL     1      40.321  -6.675  20.760  1.00  0.00     0.089 C 
ENDROOT
BRANCH   1   2
HETATM    2  C5  UNL     1      39.685  -5.353  20.543  1.00  0.00    -0.030 A 
HETATM    3  C4  UNL     1      39.979  -4.253  21.313  1.00  0.00     0.012 A 
HETATM    4  C3  UNL     1      39.370  -3.035  21.097  1.00  0.00     0.037 A 
HETATM    5  C2  UNL     1      38.440  -2.888  20.092  1.00  0.00     0.068 A 
HETATM    6  C23 UNL     1      38.152  -4.000  19.321  1.00  0.00     0.037 A 
HETATM    7  C22 UNL     1      38.748  -5.219  19.523  1.00  0.00     0.012 A 
BRANCH   5   8
HETATM    8  O1  UNL     1      37.781  -1.721  19.800  1.00  0.00    -0.356 OA
HETATM    9  C1  UNL     1      37.513  -0.662  20.663  1.00  0.00     0.210 C 
ENDBRANCH   5   8
ENDBRANCH   1   2
BRANCH   1  10
HETATM   10  S1  UNL     1      39.642  -7.917  19.623  1.00  0.00    -0.141 SA
BRANCH  10  11
HETATM   11  C7  UNL     1      40.822  -8.581  18.466  1.00  0.00     0.119 C 
BRANCH  11  12
HETATM   12  C8  UNL     1      40.087  -8.735  17.126  1.00  0.00     0.292 C 
BRANCH  12  13
HETATM   13  N1  UNL     1      40.367 -10.069  16.628  1.00  0.00    -0.065 N 
ATOM     14  H13 UNL     1      40.660 -10.714  17.360  1.00  0.00     0.275 HD
ATOM     15  H12 UNL     1      39.527 -10.570  16.338  1.00  0.00     0.275 HD
ATOM     16  H11 UNL     1      41.054  -9.978  15.879  1.00  0.00     0.275 HD
ENDBRANCH  12  13
BRANCH  12  17
HETATM   17  C9  UNL     1      40.545  -7.749  16.138  1.00  0.00     0.205 C 
HETATM   18  O2  UNL     1      40.589  -8.049  14.900  1.00  0.00    -0.646 OA
HETATM   19  O3  UNL     1      40.948  -6.459  16.495  1.00  0.00    -0.646 OA
ENDBRANCH  12  17
ENDBRANCH  11  12
ENDBRANCH  10  11
ENDBRANCH   1  10
BRANCH   1  20
HETATM   20  C10 UNL     1      39.959  -7.151  22.112  1.00  0.00    -0.030 A 
HETATM   21  C11 UNL     1      39.676  -8.485  22.272  1.00  0.00     0.009 A 
HETATM   22  C12 UNL     1      39.340  -8.999  23.503  1.00  0.00     0.001 A 
HETATM   23  C13 UNL     1      39.287  -8.163  24.591  1.00  0.00     0.000 A 
HETATM   24  C14 UNL     1      39.565  -6.811  24.473  1.00  0.00     0.001 A 
HETATM   25  C15 UNL     1      39.902  -6.330  23.208  1.00  0.00     0.009 A 
ENDBRANCH   1  20
BRANCH   1  26
HETATM   26  C16 UNL     1      41.773  -6.493  20.590  1.00  0.00    -0.030 A 
HETATM   27  C17 UNL     1      42.633  -7.220  21.400  1.00  0.00     0.009 A 
HETATM   28  C18 UNL     1      43.997  -7.136  21.321  1.00  0.00     0.001 A 
HETATM   29  C19 UNL     1      44.579  -6.288  20.389  1.00  0.00     0.000 A 
HETATM   30  C20 UNL     1      43.760  -5.557  19.574  1.00  0.00     0.001 A 
HETATM   31  C21 UNL     1      42.369  -5.657  19.671  1.00  0.00     0.009 A 
ENDBRANCH   1  26
TORSDOF 9
ENDMDL
