MODEL 5
REMARK VINA RESULT: -8.030477616      3.726      5.384
REMARK  10 active torsions:
REMARK  status: ('A' for Active; 'I' for Inactive)
REMARK    1  A    between atoms: N4_17  and  C9_18 
REMARK    2  A    between atoms: C9_18  and  C10_19 
REMARK    3  A    between atoms: C10_19  and  O3_20 
REMARK    4  A    between atoms: C10_19  and  C11_22 
REMARK    5  A    between atoms: C11_22  and  O4_23 
REMARK    6  A    between atoms: C11_22  and  C12_25 
REMARK    7  A    between atoms: C12_25  and  O5_26 
REMARK    8  A    between atoms: C12_25  and  C13_28 
REMARK    9  A    between atoms: C13_28  and  O6_29 
REMARK   10  A    between atoms: O6_29  and  P1_30 
ROOT
HETATM    1  C1  UNL     1       3.093  23.688  16.805  1.00  0.00     0.049 C 
HETATM    2  C2  UNL     1       2.997  23.660  15.326  1.00  0.00    -0.054 A 
HETATM    3  C3  UNL     1       3.962  23.036  14.565  1.00  0.00     0.039 A 
HETATM    4  C4  UNL     1       3.896  22.995  13.180  1.00  0.00     0.060 A 
HETATM    5  N1  UNL     1       4.864  22.367  12.490  1.00  0.00    -0.347 N 
ATOM      6  H1  UNL     1       5.638  21.931  12.991  1.00  0.00     0.166 HD
HETATM    7  C5  UNL     1       4.823  22.307  11.154  1.00  0.00     0.146 A 
HETATM    8  C6  UNL     1       5.805  21.666  10.389  1.00  0.00     0.280 A 
HETATM    9  O1  UNL     1       6.753  21.132  10.994  1.00  0.00    -0.265 OA
HETATM   10  N2  UNL     1       5.699  21.645   9.037  1.00  0.00    -0.273 N 
ATOM     11  H2  UNL     1       6.412  21.179   8.476  1.00  0.00     0.173 HD
HETATM   12  C7  UNL     1       4.653  22.239   8.435  1.00  0.00     0.328 A 
HETATM   13  O2  UNL     1       4.614  22.182   7.178  1.00  0.00    -0.247 OA
HETATM   14  N3  UNL     1       3.673  22.875   9.142  1.00  0.00    -0.292 N 
ATOM     15  H3  UNL     1       2.898  23.311   8.641  1.00  0.00     0.172 HD
HETATM   16  C8  UNL     1       3.707  22.939  10.481  1.00  0.00     0.145 A 
HETATM   17  N4  UNL     1       2.745  23.567  11.225  1.00  0.00    -0.327 N 
HETATM   18  C14 UNL     1       2.802  23.617  12.566  1.00  0.00     0.063 A 
HETATM   19  C15 UNL     1       1.830  24.244  13.321  1.00  0.00     0.039 A 
HETATM   20  C16 UNL     1       1.925  24.266  14.699  1.00  0.00    -0.054 A 
HETATM   21  C17 UNL     1       0.890  24.936  15.526  1.00  0.00     0.049 C 
ENDROOT
BRANCH  17  22
HETATM   22  C9  UNL     1       1.651  24.181  10.504  1.00  0.00     0.165 C 
BRANCH  22  23
HETATM   23  C10 UNL     1       0.635  23.080  10.170  1.00  0.00     0.167 C 
BRANCH  23  24
HETATM   24  O3  UNL     1       1.094  21.812  10.395  1.00  0.00    -0.391 OA
ATOM     25  H3  UNL     1       1.020  21.235   9.644  1.00  0.00     0.210 HD
ENDBRANCH  23  24
BRANCH  23  26
HETATM   26  C11 UNL     1      -0.003  23.234   8.865  1.00  0.00     0.179 C 
BRANCH  26  27
HETATM   27  O4  UNL     1      -1.307  23.715   9.013  1.00  0.00    -0.390 OA
ATOM     28  H4  UNL     1      -1.742  23.275   9.735  1.00  0.00     0.210 HD
ENDBRANCH  26  27
BRANCH  26  29
HETATM   29  C12 UNL     1       0.040  22.196   7.833  1.00  0.00     0.173 C 
BRANCH  29  30
HETATM   30  O5  UNL     1       1.432  22.126   7.454  1.00  0.00    -0.391 OA
ATOM     31  H5  UNL     1       1.732  21.298   7.812  1.00  0.00     0.210 HD
ENDBRANCH  29  30
BRANCH  29  32
HETATM   32  C13 UNL     1      -0.623  22.543   6.504  1.00  0.00     0.217 C 
BRANCH  32  33
HETATM   33  O6  UNL     1       0.397  22.847   5.553  1.00  0.00    -0.280 OA
BRANCH  33  34
HETATM   34  P1  UNL     1      -0.187  22.621   3.992  1.00  0.00     0.422 P 
HETATM   35  O7  UNL     1       0.972  22.514   3.059  1.00  0.00    -0.617 OA
HETATM   36  O8  UNL     1      -1.173  23.898   3.496  1.00  0.00    -0.617 OA
HETATM   37  O9  UNL     1      -1.093  21.189   3.869  1.00  0.00    -0.617 OA
ENDBRANCH  33  34
ENDBRANCH  32  33
ENDBRANCH  29  32
ENDBRANCH  26  29
ENDBRANCH  23  26
ENDBRANCH  22  23
ENDBRANCH  17  22
TORSDOF 10
ENDMDL
