MODEL 14
REMARK VINA RESULT: -7.778732682      1.921      4.625
REMARK  10 active torsions:
REMARK  status: ('A' for Active; 'I' for Inactive)
REMARK    1  A    between atoms: N4_17  and  C9_18 
REMARK    2  A    between atoms: C9_18  and  C10_19 
REMARK    3  A    between atoms: C10_19  and  O3_20 
REMARK    4  A    between atoms: C10_19  and  C11_22 
REMARK    5  A    between atoms: C11_22  and  O4_23 
REMARK    6  A    between atoms: C11_22  and  C12_25 
REMARK    7  A    between atoms: C12_25  and  O5_26 
REMARK    8  A    between atoms: C12_25  and  C13_28 
REMARK    9  A    between atoms: C13_28  and  O6_29 
REMARK   10  A    between atoms: O6_29  and  P1_30 
ROOT
HETATM    1  C1  UNL     1       4.798  21.089   7.765  1.00  0.00     0.049 C 
HETATM    2  C2  UNL     1       4.210  21.669   8.997  1.00  0.00    -0.054 A 
HETATM    3  C3  UNL     1       4.883  21.609  10.198  1.00  0.00     0.039 A 
HETATM    4  C4  UNL     1       4.356  22.143  11.365  1.00  0.00     0.060 A 
HETATM    5  N1  UNL     1       5.061  22.060  12.507  1.00  0.00    -0.347 N 
ATOM      6  H1  UNL     1       5.972  21.602  12.505  1.00  0.00     0.166 HD
HETATM    7  C5  UNL     1       4.580  22.571  13.647  1.00  0.00     0.146 A 
HETATM    8  C6  UNL     1       5.273  22.511  14.861  1.00  0.00     0.280 A 
HETATM    9  O1  UNL     1       6.386  21.954  14.866  1.00  0.00    -0.265 OA
HETATM   10  N2  UNL     1       4.723  23.051  15.978  1.00  0.00    -0.273 N 
ATOM     11  H2  UNL     1       5.225  23.009  16.865  1.00  0.00     0.173 HD
HETATM   12  C7  UNL     1       3.517  23.642  15.916  1.00  0.00     0.328 A 
HETATM   13  O2  UNL     1       3.064  24.123  16.987  1.00  0.00    -0.247 OA
HETATM   14  N3  UNL     1       2.806  23.723  14.752  1.00  0.00    -0.292 N 
ATOM     15  H3  UNL     1       1.895  24.181  14.754  1.00  0.00     0.172 HD
HETATM   16  C8  UNL     1       3.282  23.213  13.606  1.00  0.00     0.145 A 
HETATM   17  N4  UNL     1       2.601  23.273  12.421  1.00  0.00    -0.327 N 
HETATM   18  C14 UNL     1       3.099  22.755  11.287  1.00  0.00     0.063 A 
HETATM   19  C15 UNL     1       2.418  22.820  10.087  1.00  0.00     0.039 A 
HETATM   20  C16 UNL     1       2.971  22.278   8.942  1.00  0.00    -0.054 A 
HETATM   21  C17 UNL     1       2.254  22.339   7.644  1.00  0.00     0.049 C 
ENDROOT
BRANCH  17  22
HETATM   22  C9  UNL     1       1.310  23.926  12.435  1.00  0.00     0.165 C 
BRANCH  22  23
HETATM   23  C10 UNL     1       1.540  25.424  12.190  1.00  0.00     0.167 C 
BRANCH  23  24
HETATM   24  O3  UNL     1       1.679  26.160  13.334  1.00  0.00    -0.391 OA
ATOM     25  H3  UNL     1       2.552  26.510  13.464  1.00  0.00     0.210 HD
ENDBRANCH  23  24
BRANCH  23  26
HETATM   26  C11 UNL     1       0.609  26.021  11.235  1.00  0.00     0.179 C 
BRANCH  26  27
HETATM   27  O4  UNL     1       1.288  26.879  10.365  1.00  0.00    -0.390 OA
ATOM     28  H4  UNL     1       1.965  26.405   9.894  1.00  0.00     0.210 HD
ENDBRANCH  26  27
BRANCH  26  29
HETATM   29  C12 UNL     1      -0.668  26.613  11.636  1.00  0.00     0.173 C 
BRANCH  29  30
HETATM   30  O5  UNL     1      -0.297  27.777  12.408  1.00  0.00    -0.391 OA
ATOM     31  H5  UNL     1      -0.930  27.800  13.117  1.00  0.00     0.210 HD
ENDBRANCH  29  30
BRANCH  29  32
HETATM   32  C13 UNL     1      -1.487  25.820  12.651  1.00  0.00     0.217 C 
BRANCH  32  33
HETATM   33  O6  UNL     1      -1.290  26.397  13.941  1.00  0.00    -0.280 OA
BRANCH  33  34
HETATM   34  P1  UNL     1      -1.377  25.202  15.122  1.00  0.00     0.422 P 
HETATM   35  O7  UNL     1       0.008  24.759  15.457  1.00  0.00    -0.617 OA
HETATM   36  O8  UNL     1      -2.268  23.865  14.604  1.00  0.00    -0.617 OA
HETATM   37  O9  UNL     1      -2.099  25.785  16.545  1.00  0.00    -0.617 OA
ENDBRANCH  33  34
ENDBRANCH  32  33
ENDBRANCH  29  32
ENDBRANCH  26  29
ENDBRANCH  23  26
ENDBRANCH  22  23
ENDBRANCH  17  22
TORSDOF 10
ENDMDL
