MODEL 9
REMARK VINA RESULT: -7.920914281      1.702      4.504
REMARK  10 active torsions:
REMARK  status: ('A' for Active; 'I' for Inactive)
REMARK    1  A    between atoms: N4_17  and  C9_18 
REMARK    2  A    between atoms: C9_18  and  C10_19 
REMARK    3  A    between atoms: C10_19  and  O3_20 
REMARK    4  A    between atoms: C10_19  and  C11_22 
REMARK    5  A    between atoms: C11_22  and  O4_23 
REMARK    6  A    between atoms: C11_22  and  C12_25 
REMARK    7  A    between atoms: C12_25  and  O5_26 
REMARK    8  A    between atoms: C12_25  and  C13_28 
REMARK    9  A    between atoms: C13_28  and  O6_29 
REMARK   10  A    between atoms: O6_29  and  P1_30 
ROOT
HETATM    1  C1  UNL     1       5.057  21.020   7.657  1.00  0.00     0.049 C 
HETATM    2  C2  UNL     1       4.398  21.634   8.835  1.00  0.00    -0.054 A 
HETATM    3  C3  UNL     1       4.971  21.560  10.086  1.00  0.00     0.039 A 
HETATM    4  C4  UNL     1       4.376  22.124  11.204  1.00  0.00     0.060 A 
HETATM    5  N1  UNL     1       4.985  22.025  12.399  1.00  0.00    -0.347 N 
ATOM      6  H1  UNL     1       5.876  21.533  12.472  1.00  0.00     0.166 HD
HETATM    7  C5  UNL     1       4.437  22.566  13.494  1.00  0.00     0.146 A 
HETATM    8  C6  UNL     1       5.030  22.491  14.760  1.00  0.00     0.280 A 
HETATM    9  O1  UNL     1       6.116  21.892  14.856  1.00  0.00    -0.265 OA
HETATM   10  N2  UNL     1       4.416  23.062  15.826  1.00  0.00    -0.273 N 
ATOM     11  H2  UNL     1       4.845  23.010  16.750  1.00  0.00     0.173 HD
HETATM   12  C7  UNL     1       3.242  23.698  15.665  1.00  0.00     0.328 A 
HETATM   13  O2  UNL     1       2.726  24.207  16.694  1.00  0.00    -0.247 OA
HETATM   14  N3  UNL     1       2.628  23.795  14.449  1.00  0.00    -0.292 N 
ATOM     15  H3  UNL     1       1.738  24.288  14.376  1.00  0.00     0.172 HD
HETATM   16  C8  UNL     1       3.172  23.256  13.347  1.00  0.00     0.145 A 
HETATM   17  N4  UNL     1       2.589  23.332  12.112  1.00  0.00    -0.327 N 
HETATM   18  C14 UNL     1       3.154  22.784  11.023  1.00  0.00     0.063 A 
HETATM   19  C15 UNL     1       2.572  22.863   9.773  1.00  0.00     0.039 A 
HETATM   20  C16 UNL     1       3.192  22.290   8.679  1.00  0.00    -0.054 A 
HETATM   21  C17 UNL     1       2.581  22.365   7.328  1.00  0.00     0.049 C 
ENDROOT
BRANCH  17  22
HETATM   22  C9  UNL     1       1.327  24.034  12.020  1.00  0.00     0.165 C 
BRANCH  22  23
HETATM   23  C10 UNL     1       1.619  25.458  11.527  1.00  0.00     0.167 C 
BRANCH  23  24
HETATM   24  O3  UNL     1       2.190  26.267  12.469  1.00  0.00    -0.391 OA
ATOM     25  H3  UNL     1       2.828  26.878  12.119  1.00  0.00     0.210 HD
ENDBRANCH  23  24
BRANCH  23  26
HETATM   26  C11 UNL     1       0.498  26.090  10.835  1.00  0.00     0.179 C 
BRANCH  26  27
HETATM   27  O4  UNL     1       0.856  27.367  10.394  1.00  0.00    -0.390 OA
ATOM     28  H4  UNL     1       1.248  27.320   9.529  1.00  0.00     0.210 HD
ENDBRANCH  26  27
BRANCH  26  29
HETATM   29  C12 UNL     1      -0.863  26.103  11.374  1.00  0.00     0.173 C 
BRANCH  29  30
HETATM   30  O5  UNL     1      -1.711  26.086  10.204  1.00  0.00    -0.391 OA
ATOM     31  H5  UNL     1      -2.307  25.362  10.356  1.00  0.00     0.210 HD
ENDBRANCH  29  30
BRANCH  29  32
HETATM   32  C13 UNL     1      -1.303  27.395  12.054  1.00  0.00     0.217 C 
BRANCH  32  33
HETATM   33  O6  UNL     1      -0.303  27.774  12.998  1.00  0.00    -0.280 OA
BRANCH  33  34
HETATM   34  P1  UNL     1      -0.652  27.108  14.503  1.00  0.00     0.422 P 
HETATM   35  O7  UNL     1      -0.535  28.177  15.538  1.00  0.00    -0.617 OA
HETATM   36  O8  UNL     1       0.402  25.849  14.897  1.00  0.00    -0.617 OA
HETATM   37  O9  UNL     1      -2.236  26.496  14.559  1.00  0.00    -0.617 OA
ENDBRANCH  33  34
ENDBRANCH  32  33
ENDBRANCH  29  32
ENDBRANCH  26  29
ENDBRANCH  23  26
ENDBRANCH  22  23
ENDBRANCH  17  22
TORSDOF 10
ENDMDL
