MODEL 2
REMARK VINA RESULT: -9.410438786      4.438      7.348
REMARK  6 active torsions:
REMARK  status: ('A' for Active; 'I' for Inactive)
REMARK    1  A    between atoms: C2_2  and  O1_3 
REMARK    2  A    between atoms: C2_2  and  C3_5 
REMARK    3  A    between atoms: C2_2  and  C9_11 
REMARK    4  A    between atoms: C9_11  and  C10_12 
REMARK    5  A    between atoms: C9_11  and  N1_20 
REMARK    6  A    between atoms: C10_12  and  C11_13 
ROOT
HETATM    1  C9  UNL     1      25.719 -21.798 -26.242  1.00  0.00     0.056 C 
ENDROOT
BRANCH   1   2
HETATM    2  C2  UNL     1      24.313 -21.458 -26.104  1.00  0.00     0.122 C 
HETATM    3  C1  UNL     1      23.454 -21.997 -27.201  1.00  0.00     0.058 C 
BRANCH   2   4
HETATM    4  O1  UNL     1      24.284 -20.000 -26.423  1.00  0.00    -0.379 OA
ATOM      5  H1  UNL     1      25.173 -19.754 -26.197  1.00  0.00     0.211 HD
ENDBRANCH   2   4
BRANCH   2   6
HETATM    6  C3  UNL     1      23.659 -21.550 -24.802  1.00  0.00    -0.019 A 
HETATM    7  C4  UNL     1      23.714 -20.584 -23.823  1.00  0.00     0.010 A 
HETATM    8  C5  UNL     1      23.020 -20.687 -22.631  1.00  0.00     0.001 A 
HETATM    9  C6  UNL     1      22.239 -21.774 -22.375  1.00  0.00     0.000 A 
HETATM   10  C7  UNL     1      22.157 -22.758 -23.325  1.00  0.00     0.001 A 
HETATM   11  C8  UNL     1      22.863 -22.640 -24.525  1.00  0.00     0.010 A 
ENDBRANCH   2   6
ENDBRANCH   1   2
BRANCH   1  12
HETATM   12  C10 UNL     1      26.451 -22.631 -25.264  1.00  0.00     0.097 C 
BRANCH  12  13
HETATM   13  C11 UNL     1      27.241 -23.749 -25.837  1.00  0.00    -0.053 A 
HETATM   14  C12 UNL     1      26.596 -24.381 -26.933  1.00  0.00     0.009 A 
HETATM   15  C13 UNL     1      27.181 -25.420 -27.592  1.00  0.00     0.024 A 
HETATM   16  C14 UNL     1      28.424 -25.915 -27.235  1.00  0.00     0.034 A 
HETATM   17 CL1  UNL     1      29.185 -27.249 -28.076  1.00  0.00    -0.084 Cl
HETATM   18  C15 UNL     1      29.048 -25.281 -26.155  1.00  0.00     0.024 A 
HETATM   19  C16 UNL     1      28.446 -24.221 -25.488  1.00  0.00     0.009 A 
ENDBRANCH  12  13
ENDBRANCH   1  12
BRANCH   1  20
HETATM   20  N1  UNL     1      26.537 -20.814 -26.938  1.00  0.00    -0.256 N 
HETATM   21  C17 UNL     1      26.750 -20.736 -28.237  1.00  0.00     0.207 A 
HETATM   22  N2  UNL     1      27.554 -19.634 -28.398  1.00  0.00    -0.346 N 
HETATM   23  C18 UNL     1      27.799 -19.087 -27.198  1.00  0.00     0.198 A 
ATOM     24  H2  UNL     1      27.907 -19.286 -29.289  1.00  0.00     0.167 HD
HETATM   25  N3  UNL     1      27.152 -19.847 -26.299  1.00  0.00    -0.289 N 
ATOM     26  H3  UNL     1      27.140 -19.697 -25.290  1.00  0.00     0.188 HD
ENDBRANCH   1  20
TORSDOF 6
ENDMDL
