MODEL 3
REMARK VINA RESULT: -9.378489522      4.842      7.477
REMARK  6 active torsions:
REMARK  status: ('A' for Active; 'I' for Inactive)
REMARK    1  A    between atoms: C2_2  and  O1_3 
REMARK    2  A    between atoms: C2_2  and  C3_5 
REMARK    3  A    between atoms: C2_2  and  C9_11 
REMARK    4  A    between atoms: C9_11  and  C10_12 
REMARK    5  A    between atoms: C9_11  and  N1_20 
REMARK    6  A    between atoms: C10_12  and  C11_13 
ROOT
HETATM    1  C9  UNL     1      25.800 -21.779 -26.267  1.00  0.00     0.056 C 
ENDROOT
BRANCH   1   2
HETATM    2  C2  UNL     1      24.390 -21.544 -26.009  1.00  0.00     0.122 C 
HETATM    3  C1  UNL     1      23.622 -22.784 -25.688  1.00  0.00     0.058 C 
BRANCH   2   4
HETATM    4  O1  UNL     1      23.846 -21.225 -27.362  1.00  0.00    -0.379 OA
ATOM      5  H1  UNL     1      23.994 -22.050 -27.809  1.00  0.00     0.211 HD
ENDBRANCH   2   4
BRANCH   2   6
HETATM    6  C3  UNL     1      23.972 -20.414 -25.183  1.00  0.00    -0.019 A 
HETATM    7  C4  UNL     1      23.822 -19.122 -25.634  1.00  0.00     0.010 A 
HETATM    8  C5  UNL     1      23.358 -18.098 -24.828  1.00  0.00     0.001 A 
HETATM    9  C6  UNL     1      23.025 -18.336 -23.528  1.00  0.00     0.000 A 
HETATM   10  C7  UNL     1      23.160 -19.609 -23.041  1.00  0.00     0.001 A 
HETATM   11  C8  UNL     1      23.630 -20.633 -23.867  1.00  0.00     0.010 A 
ENDBRANCH   2   6
ENDBRANCH   1   2
BRANCH   1  12
HETATM   12  C10 UNL     1      26.689 -22.489 -25.322  1.00  0.00     0.097 C 
BRANCH  12  13
HETATM   13  C11 UNL     1      27.427 -23.648 -25.884  1.00  0.00    -0.053 A 
HETATM   14  C12 UNL     1      26.710 -24.321 -26.908  1.00  0.00     0.009 A 
HETATM   15  C13 UNL     1      27.239 -25.401 -27.547  1.00  0.00     0.024 A 
HETATM   16  C14 UNL     1      28.493 -25.901 -27.239  1.00  0.00     0.034 A 
HETATM   17 CL1  UNL     1      29.183 -27.288 -28.055  1.00  0.00    -0.084 Cl
HETATM   18  C15 UNL     1      29.189 -25.226 -26.230  1.00  0.00     0.024 A 
HETATM   19  C16 UNL     1      28.643 -24.124 -25.583  1.00  0.00     0.009 A 
ENDBRANCH  12  13
ENDBRANCH   1  12
BRANCH   1  20
HETATM   20  N1  UNL     1      26.462 -20.778 -27.093  1.00  0.00    -0.256 N 
HETATM   21  C17 UNL     1      27.187 -19.759 -26.675  1.00  0.00     0.207 A 
HETATM   22  N2  UNL     1      27.612 -19.135 -27.822  1.00  0.00    -0.346 N 
HETATM   23  C18 UNL     1      27.131 -19.791 -28.888  1.00  0.00     0.198 A 
ATOM     24  H2  UNL     1      28.202 -18.303 -27.858  1.00  0.00     0.167 HD
HETATM   25  N3  UNL     1      26.412 -20.817 -28.403  1.00  0.00    -0.289 N 
ATOM     26  H3  UNL     1      25.911 -21.509 -28.961  1.00  0.00     0.188 HD
ENDBRANCH   1  20
TORSDOF 6
ENDMDL
