MODEL 4
REMARK VINA RESULT: -9.270406420      4.418      7.322
REMARK  6 active torsions:
REMARK  status: ('A' for Active; 'I' for Inactive)
REMARK    1  A    between atoms: C2_2  and  O1_3 
REMARK    2  A    between atoms: C2_2  and  C3_5 
REMARK    3  A    between atoms: C2_2  and  C9_11 
REMARK    4  A    between atoms: C9_11  and  C10_12 
REMARK    5  A    between atoms: C9_11  and  N1_20 
REMARK    6  A    between atoms: C10_12  and  C11_13 
ROOT
HETATM    1  C9  UNL     1      25.583 -21.514 -26.163  1.00  0.00     0.056 C 
ENDROOT
BRANCH   1   2
HETATM    2  C2  UNL     1      24.294 -20.929 -25.836  1.00  0.00     0.122 C 
HETATM    3  C1  UNL     1      23.377 -20.803 -27.008  1.00  0.00     0.058 C 
BRANCH   2   4
HETATM    4  O1  UNL     1      24.625 -19.495 -25.589  1.00  0.00    -0.379 OA
ATOM      5  H1  UNL     1      25.420 -19.408 -26.101  1.00  0.00     0.211 HD
ENDBRANCH   2   4
BRANCH   2   6
HETATM    6  C3  UNL     1      23.584 -21.343 -24.629  1.00  0.00    -0.019 A 
HETATM    7  C4  UNL     1      23.553 -20.632 -23.451  1.00  0.00     0.010 A 
HETATM    8  C5  UNL     1      22.810 -21.032 -22.355  1.00  0.00     0.001 A 
HETATM    9  C6  UNL     1      22.064 -22.171 -22.402  1.00  0.00     0.000 A 
HETATM   10  C7  UNL     1      22.067 -22.907 -23.558  1.00  0.00     0.001 A 
HETATM   11  C8  UNL     1      22.823 -22.491 -24.656  1.00  0.00     0.010 A 
ENDBRANCH   2   6
ENDBRANCH   1   2
BRANCH   1  12
HETATM   12  C10 UNL     1      26.261 -22.511 -25.307  1.00  0.00     0.097 C 
BRANCH  12  13
HETATM   13  C11 UNL     1      26.876 -23.658 -26.022  1.00  0.00    -0.053 A 
HETATM   14  C12 UNL     1      28.141 -24.028 -25.494  1.00  0.00     0.009 A 
HETATM   15  C13 UNL     1      28.847 -25.069 -26.017  1.00  0.00     0.024 A 
HETATM   16  C14 UNL     1      28.377 -25.818 -27.083  1.00  0.00     0.034 A 
HETATM   17 CL1  UNL     1      29.275 -27.159 -27.763  1.00  0.00    -0.084 Cl
HETATM   18  C15 UNL     1      27.128 -25.443 -27.591  1.00  0.00     0.024 A 
HETATM   19  C16 UNL     1      26.414 -24.381 -27.051  1.00  0.00     0.009 A 
ENDBRANCH  12  13
ENDBRANCH   1  12
BRANCH   1  20
HETATM   20  N1  UNL     1      26.479 -20.664 -26.936  1.00  0.00    -0.256 N 
HETATM   21  C17 UNL     1      26.575 -20.602 -28.250  1.00  0.00     0.207 A 
HETATM   22  N2  UNL     1      27.528 -19.641 -28.489  1.00  0.00    -0.346 N 
HETATM   23  C18 UNL     1      27.974 -19.161 -27.320  1.00  0.00     0.198 A 
ATOM     24  H2  UNL     1      27.845 -19.341 -29.411  1.00  0.00     0.167 HD
HETATM   25  N3  UNL     1      27.302 -19.819 -26.361  1.00  0.00    -0.289 N 
ATOM     26  H3  UNL     1      27.412 -19.685 -25.356  1.00  0.00     0.188 HD
ENDBRANCH   1  20
TORSDOF 6
ENDMDL
