MODEL 3
REMARK VINA RESULT: -9.303668150      3.663      5.600
REMARK  2 active torsions:
REMARK  status: ('A' for Active; 'I' for Inactive)
REMARK    1  A    between atoms: C2_2  and  C3_3 
REMARK    2  A    between atoms: C2_2  and  C17_22 
ROOT
HETATM    1  C3  UNL     1     -13.674  14.235 -17.211  1.00  0.00    -0.030 A 
HETATM    2  C4  UNL     1     -12.516  14.470 -16.475  1.00  0.00     0.013 A 
HETATM    3  C5  UNL     1     -11.644  15.491 -16.785  1.00  0.00     0.015 A 
HETATM    4  C6  UNL     1     -11.971  16.270 -17.858  1.00  0.00    -0.002 A 
HETATM    5  C7  UNL     1     -13.084  16.116 -18.640  1.00  0.00    -0.044 A 
HETATM    6  C8  UNL     1     -13.933  15.052 -18.266  1.00  0.00     0.020 A 
HETATM    7  C9  UNL     1     -13.422  16.928 -19.814  1.00  0.00     0.053 C 
HETATM    8  C10 UNL     1     -12.615  18.127 -20.055  1.00  0.00    -0.011 C 
HETATM    9  C11 UNL     1     -13.490  19.354 -19.695  1.00  0.00     0.020 C 
HETATM   10  C12 UNL     1     -12.318  18.290 -21.555  1.00  0.00     0.020 C 
HETATM   11  C13 UNL     1     -11.396  18.256 -19.266  1.00  0.00     0.019 A 
HETATM   12  C14 UNL     1     -10.485  19.303 -19.555  1.00  0.00     0.126 A 
HETATM   13  N1  UNL     1     -10.800  20.170 -20.624  1.00  0.00    -0.082 NA
HETATM   14  N2  UNL     1      -9.405  19.402 -18.797  1.00  0.00    -0.340 N 
ATOM     15  H2  UNL     1      -8.741  20.151 -18.992  1.00  0.00     0.167 HD
HETATM   16  C15 UNL     1      -9.141  18.563 -17.782  1.00  0.00     0.182 A 
HETATM   17  N3  UNL     1      -9.979  17.562 -17.481  1.00  0.00    -0.351 N 
ATOM     18  H3  UNL     1      -9.778  16.926 -16.709  1.00  0.00     0.166 HD
HETATM   19  C16 UNL     1     -11.111  17.415 -18.233  1.00  0.00     0.054 A 
ENDROOT
BRANCH   1  20
HETATM   20  C2  UNL     1     -14.546  13.113 -16.834  1.00  0.00    -0.053 C 
HETATM   21  C1  UNL     1     -14.864  12.955 -15.570  1.00  0.00     0.020 C 
BRANCH  20  22
HETATM   22  C17 UNL     1     -15.079  12.175 -17.840  1.00  0.00     0.022 C 
HETATM   23  C18 UNL     1     -16.590  12.190 -17.778  1.00  0.00     0.037 C 
HETATM   24  C19 UNL     1     -17.152  10.782 -17.707  1.00  0.00     0.233 C 
HETATM   25  N4  UNL     1     -16.543   9.875 -18.650  1.00  0.00    -0.075 N 
HETATM   26  C20 UNL     1     -15.117   9.770 -18.520  1.00  0.00     0.233 C 
ATOM     27  H42 UNL     1     -16.977   8.954 -18.593  1.00  0.00     0.277 HD
ATOM     28  H41 UNL     1     -16.798  10.127 -19.605  1.00  0.00     0.277 HD
HETATM   29  C21 UNL     1     -14.537  10.797 -17.581  1.00  0.00     0.037 C 
ENDBRANCH  20  22
ENDBRANCH   1  20
TORSDOF 2
ENDMDL
