MODEL 6
REMARK VINA RESULT: -9.213679523      0.695      1.077
REMARK  2 active torsions:
REMARK  status: ('A' for Active; 'I' for Inactive)
REMARK    1  A    between atoms: C2_2  and  C3_3 
REMARK    2  A    between atoms: C2_2  and  C17_22 
ROOT
HETATM    1  C3  UNL     1     -17.016  16.510 -19.001  1.00  0.00    -0.030 A 
HETATM    2  C4  UNL     1     -16.047  17.510 -19.012  1.00  0.00     0.013 A 
HETATM    3  C5  UNL     1     -14.741  17.270 -18.644  1.00  0.00     0.015 A 
HETATM    4  C6  UNL     1     -14.437  15.994 -18.265  1.00  0.00    -0.002 A 
HETATM    5  C7  UNL     1     -15.319  14.948 -18.221  1.00  0.00    -0.044 A 
HETATM    6  C8  UNL     1     -16.639  15.264 -18.611  1.00  0.00     0.020 A 
HETATM    7  C9  UNL     1     -15.005  13.584 -17.781  1.00  0.00     0.053 C 
HETATM    8  C10 UNL     1     -13.594  13.258 -17.562  1.00  0.00    -0.011 C 
HETATM    9  C11 UNL     1     -13.142  12.347 -18.731  1.00  0.00     0.020 C 
HETATM   10  C12 UNL     1     -13.427  12.387 -16.306  1.00  0.00     0.020 C 
HETATM   11  C13 UNL     1     -12.666  14.381 -17.544  1.00  0.00     0.019 A 
HETATM   12  C14 UNL     1     -11.313  14.163 -17.179  1.00  0.00     0.126 A 
HETATM   13  N1  UNL     1     -10.933  12.851 -16.826  1.00  0.00    -0.082 NA
HETATM   14  N2  UNL     1     -10.497  15.205 -17.204  1.00  0.00    -0.340 N 
ATOM     15  H2  UNL     1      -9.521  15.062 -16.945  1.00  0.00     0.167 HD
HETATM   16  C15 UNL     1     -10.892  16.439 -17.553  1.00  0.00     0.182 A 
HETATM   17  N3  UNL     1     -12.162  16.682 -17.903  1.00  0.00    -0.351 N 
ATOM     18  H3  UNL     1     -12.461  17.621 -18.169  1.00  0.00     0.166 HD
HETATM   19  C16 UNL     1     -13.047  15.641 -17.895  1.00  0.00     0.054 A 
ENDROOT
BRANCH   1  20
HETATM   20  C2  UNL     1     -18.394  16.846 -19.387  1.00  0.00    -0.053 C 
HETATM   21  C1  UNL     1     -19.021  17.799 -18.737  1.00  0.00     0.020 C 
BRANCH  20  22
HETATM   22  C17 UNL     1     -19.079  16.149 -20.492  1.00  0.00     0.022 C 
HETATM   23  C18 UNL     1     -18.148  16.072 -21.682  1.00  0.00     0.037 C 
HETATM   24  C19 UNL     1     -18.837  16.539 -22.950  1.00  0.00     0.233 C 
HETATM   25  N4  UNL     1     -20.161  15.991 -23.118  1.00  0.00    -0.075 N 
HETATM   26  C20 UNL     1     -21.050  16.271 -22.025  1.00  0.00     0.233 C 
ATOM     27  H42 UNL     1     -20.568  16.301 -24.000  1.00  0.00     0.277 HD
ATOM     28  H41 UNL     1     -20.114  14.987 -23.293  1.00  0.00     0.277 HD
HETATM   29  C21 UNL     1     -20.347  16.880 -20.839  1.00  0.00     0.037 C 
ENDBRANCH  20  22
ENDBRANCH   1  20
TORSDOF 2
ENDMDL
