MODEL 1
REMARK VINA RESULT: -9.363984936      0.000      0.000
REMARK  2 active torsions:
REMARK  status: ('A' for Active; 'I' for Inactive)
REMARK    1  A    between atoms: C2_2  and  C3_3 
REMARK    2  A    between atoms: C2_2  and  C17_22 
ROOT
HETATM    1  C3  UNL     1     -16.948  16.705 -19.044  1.00  0.00    -0.030 A 
HETATM    2  C4  UNL     1     -15.968  17.694 -18.987  1.00  0.00     0.013 A 
HETATM    3  C5  UNL     1     -14.677  17.425 -18.589  1.00  0.00     0.015 A 
HETATM    4  C6  UNL     1     -14.398  16.132 -18.251  1.00  0.00    -0.002 A 
HETATM    5  C7  UNL     1     -15.292  15.095 -18.274  1.00  0.00    -0.044 A 
HETATM    6  C8  UNL     1     -16.595  15.441 -18.692  1.00  0.00     0.020 A 
HETATM    7  C9  UNL     1     -15.005  13.712 -17.878  1.00  0.00     0.053 C 
HETATM    8  C10 UNL     1     -13.605  13.361 -17.629  1.00  0.00    -0.011 C 
HETATM    9  C11 UNL     1     -13.127  12.491 -18.818  1.00  0.00     0.020 C 
HETATM   10  C12 UNL     1     -13.485  12.441 -16.403  1.00  0.00     0.020 C 
HETATM   11  C13 UNL     1     -12.666  14.473 -17.540  1.00  0.00     0.019 A 
HETATM   12  C14 UNL     1     -11.328  14.225 -17.143  1.00  0.00     0.126 A 
HETATM   13  N1  UNL     1     -10.972  12.896 -16.829  1.00  0.00    -0.082 NA
HETATM   14  N2  UNL     1     -10.500  15.258 -17.103  1.00  0.00    -0.340 N 
ATOM     15  H2  UNL     1      -9.534  15.094 -16.820  1.00  0.00     0.167 HD
HETATM   16  C15 UNL     1     -10.872  16.509 -17.416  1.00  0.00     0.182 A 
HETATM   17  N3  UNL     1     -12.128  16.780 -17.794  1.00  0.00    -0.351 N 
ATOM     18  H3  UNL     1     -12.409  17.732 -18.033  1.00  0.00     0.166 HD
HETATM   19  C16 UNL     1     -13.024  15.749 -17.854  1.00  0.00     0.054 A 
ENDROOT
BRANCH   1  20
HETATM   20  C2  UNL     1     -18.310  17.071 -19.458  1.00  0.00    -0.053 C 
HETATM   21  C1  UNL     1     -19.071  17.736 -18.620  1.00  0.00     0.020 C 
BRANCH  20  22
HETATM   22  C17 UNL     1     -18.832  16.722 -20.793  1.00  0.00     0.022 C 
HETATM   23  C18 UNL     1     -19.401  15.321 -20.751  1.00  0.00     0.037 C 
HETATM   24  C19 UNL     1     -18.873  14.478 -21.897  1.00  0.00     0.233 C 
HETATM   25  N4  UNL     1     -18.902  15.160 -23.169  1.00  0.00    -0.075 N 
HETATM   26  C20 UNL     1     -18.174  16.398 -23.183  1.00  0.00     0.233 C 
ATOM     27  H42 UNL     1     -18.575  14.544 -23.913  1.00  0.00     0.277 HD
ATOM     28  H41 UNL     1     -19.864  15.306 -23.476  1.00  0.00     0.277 HD
HETATM   29  C21 UNL     1     -17.729  16.831 -21.809  1.00  0.00     0.037 C 
ENDBRANCH  20  22
ENDBRANCH   1  20
TORSDOF 2
ENDMDL
