MODEL 4
REMARK VINA RESULT: -9.223656579      3.488      5.575
REMARK  2 active torsions:
REMARK  status: ('A' for Active; 'I' for Inactive)
REMARK    1  A    between atoms: C2_2  and  C3_3 
REMARK    2  A    between atoms: C2_2  and  C17_22 
ROOT
HETATM    1  C3  UNL     1     -13.120  14.435 -17.516  1.00  0.00    -0.030 A 
HETATM    2  C4  UNL     1     -11.905  14.610 -16.859  1.00  0.00     0.013 A 
HETATM    3  C5  UNL     1     -11.070  15.673 -17.131  1.00  0.00     0.015 A 
HETATM    4  C6  UNL     1     -11.494  16.555 -18.083  1.00  0.00    -0.002 A 
HETATM    5  C7  UNL     1     -12.669  16.466 -18.781  1.00  0.00    -0.044 A 
HETATM    6  C8  UNL     1     -13.474  15.355 -18.453  1.00  0.00     0.020 A 
HETATM    7  C9  UNL     1     -13.111  17.392 -19.829  1.00  0.00     0.053 C 
HETATM    8  C10 UNL     1     -12.337  18.623 -20.007  1.00  0.00    -0.011 C 
HETATM    9  C11 UNL     1     -13.187  19.791 -19.447  1.00  0.00     0.020 C 
HETATM   10  C12 UNL     1     -12.171  18.948 -21.501  1.00  0.00     0.020 C 
HETATM   11  C13 UNL     1     -11.057  18.688 -19.315  1.00  0.00     0.019 A 
HETATM   12  C14 UNL     1     -10.181  19.775 -19.566  1.00  0.00     0.126 A 
HETATM   13  N1  UNL     1     -10.593  20.744 -20.506  1.00  0.00    -0.082 NA
HETATM   14  N2  UNL     1      -9.041  19.811 -18.895  1.00  0.00    -0.340 N 
ATOM     15  H2  UNL     1      -8.403  20.588 -19.065  1.00  0.00     0.167 HD
HETATM   16  C15 UNL     1      -8.686  18.874 -18.001  1.00  0.00     0.182 A 
HETATM   17  N3  UNL     1      -9.487  17.833 -17.739  1.00  0.00    -0.351 N 
ATOM     18  H3  UNL     1      -9.216  17.122 -17.059  1.00  0.00     0.166 HD
HETATM   19  C16 UNL     1     -10.677  17.748 -18.404  1.00  0.00     0.054 A 
ENDROOT
BRANCH   1  20
HETATM   20  C2  UNL     1     -13.948  13.265 -17.189  1.00  0.00    -0.053 C 
HETATM   21  C1  UNL     1     -13.458  12.346 -16.389  1.00  0.00     0.020 C 
BRANCH  20  22
HETATM   22  C17 UNL     1     -15.314  13.110 -17.724  1.00  0.00     0.022 C 
HETATM   23  C18 UNL     1     -16.112  12.224 -16.794  1.00  0.00     0.037 C 
HETATM   24  C19 UNL     1     -16.820  11.121 -17.558  1.00  0.00     0.233 C 
HETATM   25  N4  UNL     1     -17.486  11.588 -18.751  1.00  0.00    -0.075 N 
HETATM   26  C20 UNL     1     -16.617  12.256 -19.678  1.00  0.00     0.233 C 
ATOM     27  H42 UNL     1     -17.979  10.822 -19.209  1.00  0.00     0.277 HD
ATOM     28  H41 UNL     1     -18.278  12.183 -18.509  1.00  0.00     0.277 HD
HETATM   29  C21 UNL     1     -15.248  12.527 -19.109  1.00  0.00     0.037 C 
ENDBRANCH  20  22
ENDBRANCH   1  20
TORSDOF 2
ENDMDL
