MODEL 2
REMARK VINA RESULT: -9.310216900      3.126      6.474
REMARK  2 active torsions:
REMARK  status: ('A' for Active; 'I' for Inactive)
REMARK    1  A    between atoms: C2_2  and  C3_3 
REMARK    2  A    between atoms: C2_2  and  C17_22 
ROOT
HETATM    1  C3  UNL     1     -12.511  17.115 -18.036  1.00  0.00    -0.030 A 
HETATM    2  C4  UNL     1     -13.695  17.515 -18.650  1.00  0.00     0.013 A 
HETATM    3  C5  UNL     1     -14.783  16.677 -18.761  1.00  0.00     0.015 A 
HETATM    4  C6  UNL     1     -14.647  15.425 -18.236  1.00  0.00    -0.002 A 
HETATM    5  C7  UNL     1     -13.526  14.942 -17.616  1.00  0.00    -0.044 A 
HETATM    6  C8  UNL     1     -12.450  15.853 -17.537  1.00  0.00     0.020 A 
HETATM    7  C9  UNL     1     -13.363  13.586 -17.081  1.00  0.00     0.053 C 
HETATM    8  C10 UNL     1     -14.558  12.740 -17.021  1.00  0.00    -0.011 C 
HETATM    9  C11 UNL     1     -14.976  12.635 -15.533  1.00  0.00     0.020 C 
HETATM   10  C12 UNL     1     -14.222  11.297 -17.431  1.00  0.00     0.020 C 
HETATM   11  C13 UNL     1     -15.730  13.226 -17.736  1.00  0.00     0.019 A 
HETATM   12  C14 UNL     1     -16.869  12.391 -17.858  1.00  0.00     0.126 A 
HETATM   13  N1  UNL     1     -16.801  11.101 -17.288  1.00  0.00    -0.082 NA
HETATM   14  N2  UNL     1     -17.924  12.881 -18.491  1.00  0.00    -0.340 N 
ATOM     15  H2  UNL     1     -18.751  12.291 -18.585  1.00  0.00     0.167 HD
HETATM   16  C15 UNL     1     -17.957  14.117 -19.014  1.00  0.00     0.182 A 
HETATM   17  N3  UNL     1     -16.899  14.933 -18.919  1.00  0.00    -0.351 N 
ATOM     18  H3  UNL     1     -16.926  15.873 -19.317  1.00  0.00     0.166 HD
HETATM   19  C16 UNL     1     -15.784  14.477 -18.275  1.00  0.00     0.054 A 
ENDROOT
BRANCH   1  20
HETATM   20  C2  UNL     1     -11.384  18.057 -17.974  1.00  0.00    -0.053 C 
HETATM   21  C1  UNL     1     -10.252  17.657 -17.443  1.00  0.00     0.020 C 
BRANCH  20  22
HETATM   22  C17 UNL     1     -11.493  19.429 -18.504  1.00  0.00     0.022 C 
HETATM   23  C18 UNL     1     -10.700  19.528 -19.788  1.00  0.00     0.037 C 
HETATM   24  C19 UNL     1      -9.780  20.733 -19.776  1.00  0.00     0.233 C 
HETATM   25  N4  UNL     1     -10.421  21.938 -19.308  1.00  0.00    -0.075 N 
HETATM   26  C20 UNL     1     -10.987  21.823 -17.993  1.00  0.00     0.233 C 
ATOM     27  H42 UNL     1      -9.777  22.728 -19.353  1.00  0.00     0.277 HD
ATOM     28  H41 UNL     1     -11.126  22.252 -19.975  1.00  0.00     0.277 HD
HETATM   29  C21 UNL     1     -10.990  20.407 -17.478  1.00  0.00     0.037 C 
ENDBRANCH  20  22
ENDBRANCH   1  20
TORSDOF 2
ENDMDL
