MODEL 3
REMARK VINA RESULT: -7.586612080      2.986      6.523
REMARK  5 active torsions:
REMARK  status: ('A' for Active; 'I' for Inactive)
REMARK    1  A    between atoms: N1_5  and  C4_6 
REMARK    2  A    between atoms: C6_8  and  O2_9 
REMARK    3  A    between atoms: C7_11  and  C8_12 
REMARK    4  A    between atoms: C8_12  and  O3_13 
REMARK    5  A    between atoms: O3_13  and  P1_14 
ROOT
HETATM    1  C4  UNL     1      16.232 -15.823  10.217  1.00  0.00     0.235 C 
HETATM    2  C5  UNL     1      17.181 -15.783   9.051  1.00  0.00     0.088 C 
HETATM    3  C6  UNL     1      17.090 -14.310   8.641  1.00  0.00     0.153 C 
HETATM    4  C7  UNL     1      15.748 -13.926   9.189  1.00  0.00     0.177 C 
HETATM    5  O7  UNL     1      15.192 -15.025   9.792  1.00  0.00    -0.356 OA
ENDROOT
BRANCH   1   6
HETATM    6  N1  UNL     1      15.817 -17.160  10.547  1.00  0.00    -0.282 N 
HETATM    7  C3  UNL     1      15.626 -18.139   9.645  1.00  0.00     0.104 A 
HETATM    8  C2  UNL     1      15.228 -19.414   9.985  1.00  0.00     0.092 A 
HETATM    9  C1  UNL     1      15.017 -19.691  11.318  1.00  0.00     0.250 A 
HETATM   10  O1  UNL     1      14.657 -20.845  11.621  1.00  0.00    -0.268 OA
HETATM   11  N2  UNL     1      15.212 -18.700  12.220  1.00  0.00    -0.275 N 
HETATM   12  C9  UNL     1      15.604 -17.460  11.835  1.00  0.00     0.331 A 
ATOM     13  H2  UNL     1      15.061 -18.890  13.211  1.00  0.00     0.173 HD
HETATM   14  O8  UNL     1      15.759 -16.611  12.741  1.00  0.00    -0.246 OA
ENDBRANCH   1   6
BRANCH   3  15
HETATM   15  O2  UNL     1      18.135 -13.578   9.194  1.00  0.00    -0.393 OA
ATOM     16  H2  UNL     1      17.903 -12.660   9.265  1.00  0.00     0.210 HD
ENDBRANCH   3  15
BRANCH   4  17
HETATM   17  C8  UNL     1      14.905 -13.389   8.058  1.00  0.00     0.217 C 
BRANCH  17  18
HETATM   18  O3  UNL     1      14.329 -14.459   7.335  1.00  0.00    -0.280 OA
BRANCH  18  19
HETATM   19  P1  UNL     1      12.726 -14.153   6.966  1.00  0.00     0.422 P 
HETATM   20  O4  UNL     1      12.633 -13.033   5.944  1.00  0.00    -0.617 OA
HETATM   21  O5  UNL     1      11.811 -13.789   8.341  1.00  0.00    -0.617 OA
HETATM   22  O6  UNL     1      12.020 -15.527   6.240  1.00  0.00    -0.617 OA
ENDBRANCH  18  19
ENDBRANCH  17  18
ENDBRANCH   4  17
TORSDOF 5
ENDMDL
