MODEL 4
REMARK VINA RESULT: -7.569928116      2.962      6.500
REMARK  5 active torsions:
REMARK  status: ('A' for Active; 'I' for Inactive)
REMARK    1  A    between atoms: N1_5  and  C4_6 
REMARK    2  A    between atoms: C6_8  and  O2_9 
REMARK    3  A    between atoms: C7_11  and  C8_12 
REMARK    4  A    between atoms: C8_12  and  O3_13 
REMARK    5  A    between atoms: O3_13  and  P1_14 
ROOT
HETATM    1  C4  UNL     1      16.399 -15.799  10.161  1.00  0.00     0.235 C 
HETATM    2  C5  UNL     1      17.497 -15.812   9.134  1.00  0.00     0.088 C 
HETATM    3  C6  UNL     1      17.473 -14.358   8.652  1.00  0.00     0.153 C 
HETATM    4  C7  UNL     1      16.073 -13.948   8.997  1.00  0.00     0.177 C 
HETATM    5  O7  UNL     1      15.432 -15.018   9.566  1.00  0.00    -0.356 OA
ENDROOT
BRANCH   1   6
HETATM    6  N1  UNL     1      15.933 -17.119  10.490  1.00  0.00    -0.282 N 
HETATM    7  C3  UNL     1      15.740 -18.101   9.591  1.00  0.00     0.104 A 
HETATM    8  C2  UNL     1      15.292 -19.359   9.929  1.00  0.00     0.092 A 
HETATM    9  C1  UNL     1      15.031 -19.617  11.257  1.00  0.00     0.250 A 
HETATM   10  O1  UNL     1      14.627 -20.757  11.559  1.00  0.00    -0.268 OA
HETATM   11  N2  UNL     1      15.229 -18.624  12.156  1.00  0.00    -0.275 N 
HETATM   12  C9  UNL     1      15.671 -17.401  11.773  1.00  0.00     0.331 A 
ATOM     13  H2  UNL     1      15.041 -18.799  13.144  1.00  0.00     0.173 HD
HETATM   14  O8  UNL     1      15.823 -16.548  12.676  1.00  0.00    -0.246 OA
ENDBRANCH   1   6
BRANCH   3  15
HETATM   15  O2  UNL     1      18.440 -13.605   9.309  1.00  0.00    -0.393 OA
ATOM     16  H2  UNL     1      18.936 -13.080   8.692  1.00  0.00     0.210 HD
ENDBRANCH   3  15
BRANCH   4  17
HETATM   17  C8  UNL     1      15.394 -13.460   7.741  1.00  0.00     0.217 C 
BRANCH  17  18
HETATM   18  O3  UNL     1      14.122 -12.928   8.054  1.00  0.00    -0.280 OA
BRANCH  18  19
HETATM   19  P1  UNL     1      12.901 -13.774   7.283  1.00  0.00     0.422 P 
HETATM   20  O4  UNL     1      11.656 -13.795   8.154  1.00  0.00    -0.617 OA
HETATM   21  O5  UNL     1      13.372 -15.345   6.871  1.00  0.00    -0.617 OA
HETATM   22  O6  UNL     1      12.463 -12.982   5.837  1.00  0.00    -0.617 OA
ENDBRANCH  18  19
ENDBRANCH  17  18
ENDBRANCH   4  17
TORSDOF 5
ENDMDL
