MODEL 2
REMARK VINA RESULT: -7.704549493      0.191      1.057
REMARK  5 active torsions:
REMARK  status: ('A' for Active; 'I' for Inactive)
REMARK    1  A    between atoms: N1_5  and  C4_6 
REMARK    2  A    between atoms: C6_8  and  O2_9 
REMARK    3  A    between atoms: C7_11  and  C8_12 
REMARK    4  A    between atoms: C8_12  and  O3_13 
REMARK    5  A    between atoms: O3_13  and  P1_14 
ROOT
HETATM    1  C4  UNL     1      15.747 -14.784   9.691  1.00  0.00     0.235 C 
HETATM    2  C5  UNL     1      14.970 -14.863  10.977  1.00  0.00     0.088 C 
HETATM    3  C6  UNL     1      15.681 -16.020  11.685  1.00  0.00     0.153 C 
HETATM    4  C7  UNL     1      16.283 -16.759  10.528  1.00  0.00     0.177 C 
HETATM    5  O7  UNL     1      15.942 -16.110   9.370  1.00  0.00    -0.356 OA
ENDROOT
BRANCH   1   6
HETATM    6  N1  UNL     1      15.051 -14.053   8.668  1.00  0.00    -0.282 N 
HETATM    7  C3  UNL     1      13.717 -14.073   8.495  1.00  0.00     0.104 A 
HETATM    8  C2  UNL     1      13.071 -13.363   7.507  1.00  0.00     0.092 A 
HETATM    9  C1  UNL     1      13.836 -12.597   6.655  1.00  0.00     0.250 A 
HETATM   10  O1  UNL     1      13.249 -11.957   5.762  1.00  0.00    -0.268 OA
HETATM   11  N2  UNL     1      15.179 -12.582   6.836  1.00  0.00    -0.275 N 
HETATM   12  C9  UNL     1      15.768 -13.299   7.824  1.00  0.00     0.331 A 
ATOM     13  H2  UNL     1      15.760 -12.019   6.213  1.00  0.00     0.173 HD
HETATM   14  O8  UNL     1      17.014 -13.221   7.911  1.00  0.00    -0.246 OA
ENDBRANCH   1   6
BRANCH   3  15
HETATM   15  O2  UNL     1      16.630 -15.542  12.581  1.00  0.00    -0.393 OA
ATOM     16  H2  UNL     1      16.314 -14.762  13.023  1.00  0.00     0.210 HD
ENDBRANCH   3  15
BRANCH   4  17
HETATM   17  C8  UNL     1      15.795 -18.186  10.565  1.00  0.00     0.217 C 
BRANCH  17  18
HETATM   18  O3  UNL     1      16.378 -18.868  11.658  1.00  0.00    -0.280 OA
BRANCH  18  19
HETATM   19  P1  UNL     1      15.361 -20.059  12.248  1.00  0.00     0.422 P 
HETATM   20  O4  UNL     1      16.166 -21.097  13.011  1.00  0.00    -0.617 OA
HETATM   21  O5  UNL     1      14.450 -20.786  11.023  1.00  0.00    -0.617 OA
HETATM   22  O6  UNL     1      14.260 -19.387  13.365  1.00  0.00    -0.617 OA
ENDBRANCH  18  19
ENDBRANCH  17  18
ENDBRANCH   4  17
TORSDOF 5
ENDMDL
