MODEL 1
REMARK VINA RESULT: -7.815991630      0.000      0.000
REMARK  5 active torsions:
REMARK  status: ('A' for Active; 'I' for Inactive)
REMARK    1  A    between atoms: N1_5  and  C4_6 
REMARK    2  A    between atoms: C6_8  and  O2_9 
REMARK    3  A    between atoms: C7_11  and  C8_12 
REMARK    4  A    between atoms: C8_12  and  O3_13 
REMARK    5  A    between atoms: O3_13  and  P1_14 
ROOT
HETATM    1  C4  UNL     1      15.694 -14.865   9.640  1.00  0.00     0.235 C 
HETATM    2  C5  UNL     1      14.916 -14.917  10.926  1.00  0.00     0.088 C 
HETATM    3  C6  UNL     1      15.627 -16.058  11.660  1.00  0.00     0.153 C 
HETATM    4  C7  UNL     1      16.231 -16.822  10.519  1.00  0.00     0.177 C 
HETATM    5  O7  UNL     1      15.890 -16.198   9.347  1.00  0.00    -0.356 OA
ENDROOT
BRANCH   1   6
HETATM    6  N1  UNL     1      14.998 -14.157   8.600  1.00  0.00    -0.282 N 
HETATM    7  C3  UNL     1      13.712 -14.369   8.268  1.00  0.00     0.104 A 
HETATM    8  C2  UNL     1      13.065 -13.678   7.267  1.00  0.00     0.092 A 
HETATM    9  C1  UNL     1      13.778 -12.723   6.576  1.00  0.00     0.250 A 
HETATM   10  O1  UNL     1      13.190 -12.099   5.671  1.00  0.00    -0.268 OA
HETATM   11  N2  UNL     1      15.073 -12.515   6.917  1.00  0.00    -0.275 N 
HETATM   12  C9  UNL     1      15.665 -13.222   7.910  1.00  0.00     0.331 A 
ATOM     13  H2  UNL     1      15.614 -11.810   6.415  1.00  0.00     0.173 HD
HETATM   14  O8  UNL     1      16.864 -12.959   8.152  1.00  0.00    -0.246 OA
ENDBRANCH   1   6
BRANCH   3  15
HETATM   15  O2  UNL     1      16.575 -15.560  12.546  1.00  0.00    -0.393 OA
ATOM     16  H2  UNL     1      17.397 -15.392  12.101  1.00  0.00     0.210 HD
ENDBRANCH   3  15
BRANCH   4  17
HETATM   17  C8  UNL     1      15.743 -18.248  10.587  1.00  0.00     0.217 C 
BRANCH  17  18
HETATM   18  O3  UNL     1      16.341 -18.911  11.683  1.00  0.00    -0.280 OA
BRANCH  18  19
HETATM   19  P1  UNL     1      15.310 -20.051  12.344  1.00  0.00     0.422 P 
HETATM   20  O4  UNL     1      14.276 -19.368  13.222  1.00  0.00    -0.617 OA
HETATM   21  O5  UNL     1      16.143 -21.241  13.211  1.00  0.00    -0.617 OA
HETATM   22  O6  UNL     1      14.442 -20.843  11.106  1.00  0.00    -0.617 OA
ENDBRANCH  18  19
ENDBRANCH  17  18
ENDBRANCH   4  17
TORSDOF 5
ENDMDL
