MODEL 5
REMARK VINA RESULT: -7.527453603      2.969      6.605
REMARK  5 active torsions:
REMARK  status: ('A' for Active; 'I' for Inactive)
REMARK    1  A    between atoms: N1_5  and  C4_6 
REMARK    2  A    between atoms: C6_8  and  O2_9 
REMARK    3  A    between atoms: C7_11  and  C8_12 
REMARK    4  A    between atoms: C8_12  and  O3_13 
REMARK    5  A    between atoms: O3_13  and  P1_14 
ROOT
HETATM    1  C4  UNL     1      16.389 -15.828  10.145  1.00  0.00     0.235 C 
HETATM    2  C5  UNL     1      17.530 -15.854   9.166  1.00  0.00     0.088 C 
HETATM    3  C6  UNL     1      17.510 -14.414   8.645  1.00  0.00     0.153 C 
HETATM    4  C7  UNL     1      16.091 -14.013   8.917  1.00  0.00     0.177 C 
HETATM    5  O7  UNL     1      15.439 -15.076   9.488  1.00  0.00    -0.356 OA
ENDROOT
BRANCH   1   6
HETATM    6  N1  UNL     1      15.924 -17.145  10.489  1.00  0.00    -0.282 N 
HETATM    7  C3  UNL     1      15.732 -18.137   9.602  1.00  0.00     0.104 A 
HETATM    8  C2  UNL     1      15.286 -19.392   9.954  1.00  0.00     0.092 A 
HETATM    9  C1  UNL     1      15.026 -19.635  11.285  1.00  0.00     0.250 A 
HETATM   10  O1  UNL     1      14.623 -20.771  11.601  1.00  0.00    -0.268 OA
HETATM   11  N2  UNL     1      15.222 -18.630  12.173  1.00  0.00    -0.275 N 
HETATM   12  C9  UNL     1      15.663 -17.411  11.775  1.00  0.00     0.331 A 
ATOM     13  H2  UNL     1      15.035 -18.795  13.162  1.00  0.00     0.173 HD
HETATM   14  O8  UNL     1      15.814 -16.548  12.668  1.00  0.00    -0.246 OA
ENDBRANCH   1   6
BRANCH   3  15
HETATM   15  O2  UNL     1      18.438 -13.631   9.321  1.00  0.00    -0.393 OA
ATOM     16  H2  UNL     1      18.581 -12.809   8.868  1.00  0.00     0.210 HD
ENDBRANCH   3  15
BRANCH   4  17
HETATM   17  C8  UNL     1      15.462 -13.567   7.621  1.00  0.00     0.217 C 
BRANCH  17  18
HETATM   18  O3  UNL     1      14.225 -12.932   7.877  1.00  0.00    -0.280 OA
BRANCH  18  19
HETATM   19  P1  UNL     1      12.959 -13.738   7.138  1.00  0.00     0.422 P 
HETATM   20  O4  UNL     1      13.351 -15.180   6.866  1.00  0.00    -0.617 OA
HETATM   21  O5  UNL     1      12.456 -12.973   5.716  1.00  0.00    -0.617 OA
HETATM   22  O6  UNL     1      11.612 -13.795   8.184  1.00  0.00    -0.617 OA
ENDBRANCH  18  19
ENDBRANCH  17  18
ENDBRANCH   4  17
TORSDOF 5
ENDMDL
