MODEL 2
REMARK VINA RESULT: -5.579287721      1.600      3.207
REMARK  12 active torsions:
REMARK  status: ('A' for Active; 'I' for Inactive)
REMARK    1  A    between atoms: O1_1  and  C1_3 
REMARK    2  A    between atoms: C1_3  and  C2_4 
REMARK    3  A    between atoms: C3_6  and  O3_7 
REMARK    4  A    between atoms: O3_7  and  C4_8 
REMARK    5  A    between atoms: C5_9  and  C6_10 
REMARK    6  A    between atoms: C6_10  and  O4_11 
REMARK    7  A    between atoms: C7_14  and  O6_15 
REMARK    8  A    between atoms: C8_17  and  O7_18 
REMARK    9  A    between atoms: C9_20  and  O8_21 
REMARK   10  A    between atoms: C10_23  and  O9_24 
REMARK   11  A    between atoms: C11_26  and  O10_27 
REMARK   12  A    between atoms: C12_29  and  O11_30 
ROOT
HETATM    1  O3  UNL     1      -2.849 -28.767  14.240  1.00  0.00    -0.348 OA
ENDROOT
BRANCH   1   2
HETATM    2  C3  UNL     1      -1.804 -29.046  15.117  1.00  0.00     0.292 C 
HETATM    3  O2  UNL     1      -0.566 -28.937  14.524  1.00  0.00    -0.348 OA
HETATM    4  C2  UNL     1       0.351 -28.614  15.521  1.00  0.00     0.179 C 
HETATM    5  C12 UNL     1       0.254 -29.551  16.704  1.00  0.00     0.180 C 
HETATM    6  C11 UNL     1      -0.613 -30.754  16.394  1.00  0.00     0.183 C 
HETATM    7  C10 UNL     1      -1.931 -30.380  15.772  1.00  0.00     0.204 C 
BRANCH   4   8
HETATM    8  C1  UNL     1       1.761 -28.528  14.983  1.00  0.00     0.198 C 
BRANCH   8   9
HETATM    9  O1  UNL     1       2.613 -27.824  15.822  1.00  0.00    -0.398 OA
ATOM     10  H1  UNL     1       3.170 -28.392  16.340  1.00  0.00     0.209 HD
ENDBRANCH   8   9
ENDBRANCH   4   8
BRANCH   5  11
HETATM   11  O11 UNL     1       1.543 -30.045  16.943  1.00  0.00    -0.390 OA
ATOM     12  H11 UNL     1       1.501 -30.557  17.743  1.00  0.00     0.210 HD
ENDBRANCH   5  11
BRANCH   6  13
HETATM   13  O10 UNL     1      -0.870 -31.381  17.634  1.00  0.00    -0.390 OA
ATOM     14  H10 UNL     1      -0.039 -31.642  18.014  1.00  0.00     0.210 HD
ENDBRANCH   6  13
BRANCH   7  15
HETATM   15  O9  UNL     1      -2.259 -31.393  14.853  1.00  0.00    -0.388 OA
ATOM     16  H9  UNL     1      -1.735 -32.175  14.980  1.00  0.00     0.210 HD
ENDBRANCH   7  15
ENDBRANCH   1   2
BRANCH   1  17
HETATM   17  C4  UNL     1      -3.884 -28.070  14.827  1.00  0.00     0.187 C 
HETATM   18  C5  UNL     1      -5.107 -28.952  14.871  1.00  0.00     0.180 C 
HETATM   19  O5  UNL     1      -6.247 -28.280  15.282  1.00  0.00    -0.349 OA
HETATM   20  C7  UNL     1      -6.532 -27.163  14.518  1.00  0.00     0.288 C 
HETATM   21  C8  UNL     1      -5.382 -26.182  14.477  1.00  0.00     0.204 C 
HETATM   22  C9  UNL     1      -4.109 -26.814  14.017  1.00  0.00     0.183 C 
BRANCH  18  23
HETATM   23  C6  UNL     1      -5.314 -29.672  13.549  1.00  0.00     0.198 C 
BRANCH  23  24
HETATM   24  O4  UNL     1      -4.744 -30.940  13.654  1.00  0.00    -0.398 OA
ATOM     25  H4  UNL     1      -5.326 -31.560  13.230  1.00  0.00     0.209 HD
ENDBRANCH  23  24
ENDBRANCH  18  23
BRANCH  20  26
HETATM   26  O6  UNL     1      -7.612 -26.508  15.108  1.00  0.00    -0.369 OA
ATOM     27  H6  UNL     1      -7.741 -25.688  14.646  1.00  0.00     0.212 HD
ENDBRANCH  20  26
BRANCH  21  28
HETATM   28  O7  UNL     1      -5.750 -25.141  13.628  1.00  0.00    -0.388 OA
ATOM     29  H7  UNL     1      -5.189 -24.400  13.825  1.00  0.00     0.210 HD
ENDBRANCH  21  28
BRANCH  22  30
HETATM   30  O8  UNL     1      -4.050 -27.036  12.658  1.00  0.00    -0.390 OA
ATOM     31  H8  UNL     1      -3.187 -26.872  12.296  1.00  0.00     0.210 HD
ENDBRANCH  22  30
ENDBRANCH   1  17
TORSDOF 12
ENDMDL
