MODEL 1
REMARK VINA RESULT: -5.645656501      0.000      0.000
REMARK  12 active torsions:
REMARK  status: ('A' for Active; 'I' for Inactive)
REMARK    1  A    between atoms: O1_1  and  C1_3 
REMARK    2  A    between atoms: C1_3  and  C2_4 
REMARK    3  A    between atoms: C3_6  and  O3_7 
REMARK    4  A    between atoms: O3_7  and  C4_8 
REMARK    5  A    between atoms: C5_9  and  C6_10 
REMARK    6  A    between atoms: C6_10  and  O4_11 
REMARK    7  A    between atoms: C7_14  and  O6_15 
REMARK    8  A    between atoms: C8_17  and  O7_18 
REMARK    9  A    between atoms: C9_20  and  O8_21 
REMARK   10  A    between atoms: C10_23  and  O9_24 
REMARK   11  A    between atoms: C11_26  and  O10_27 
REMARK   12  A    between atoms: C12_29  and  O11_30 
ROOT
HETATM    1  O3  UNL     1      -1.560 -27.836  14.325  1.00  0.00    -0.348 OA
ENDROOT
BRANCH   1   2
HETATM    2  C3  UNL     1      -0.449 -28.408  14.938  1.00  0.00     0.292 C 
HETATM    3  O2  UNL     1      -0.747 -28.990  16.149  1.00  0.00    -0.348 OA
HETATM    4  C2  UNL     1       0.176 -30.009  16.366  1.00  0.00     0.179 C 
HETATM    5  C12 UNL     1       1.599 -29.530  16.183  1.00  0.00     0.180 C 
HETATM    6  C11 UNL     1       1.673 -28.021  16.084  1.00  0.00     0.183 C 
HETATM    7  C10 UNL     1       0.683 -27.451  15.105  1.00  0.00     0.204 C 
BRANCH   4   8
HETATM    8  C1  UNL     1      -0.028 -30.679  17.705  1.00  0.00     0.198 C 
BRANCH   8   9
HETATM    9  O1  UNL     1       0.481 -31.969  17.743  1.00  0.00    -0.398 OA
ATOM     10  H1  UNL     1       1.402 -32.007  17.514  1.00  0.00     0.209 HD
ENDBRANCH   8   9
ENDBRANCH   4   8
BRANCH   5  11
HETATM   11  O11 UNL     1       2.302 -29.885  17.343  1.00  0.00    -0.390 OA
ATOM     12  H11 UNL     1       2.956 -29.211  17.488  1.00  0.00     0.210 HD
ENDBRANCH   5  11
BRANCH   6  13
HETATM   13  O10 UNL     1       2.975 -27.723  15.623  1.00  0.00    -0.390 OA
ATOM     14  H10 UNL     1       3.159 -26.812  15.821  1.00  0.00     0.210 HD
ENDBRANCH   6  13
BRANCH   7  15
HETATM   15  O9  UNL     1       0.257 -26.212  15.619  1.00  0.00    -0.388 OA
ATOM     16  H9  UNL     1       0.956 -25.569  15.626  1.00  0.00     0.210 HD
ENDBRANCH   7  15
ENDBRANCH   1   2
BRANCH   1  17
HETATM   17  C4  UNL     1      -2.701 -28.603  14.435  1.00  0.00     0.187 C 
HETATM   18  C5  UNL     1      -2.975 -29.269  13.109  1.00  0.00     0.180 C 
HETATM   19  O5  UNL     1      -4.197 -29.920  13.070  1.00  0.00    -0.349 OA
HETATM   20  C7  UNL     1      -5.267 -29.100  13.386  1.00  0.00     0.288 C 
HETATM   21  C8  UNL     1      -5.112 -28.444  14.739  1.00  0.00     0.204 C 
HETATM   22  C9  UNL     1      -3.828 -27.692  14.865  1.00  0.00     0.183 C 
BRANCH  18  23
HETATM   23  C6  UNL     1      -2.812 -28.290  11.958  1.00  0.00     0.198 C 
BRANCH  23  24
HETATM   24  O4  UNL     1      -2.630 -29.026  10.788  1.00  0.00    -0.398 OA
ATOM     25  H4  UNL     1      -3.257 -28.717  10.145  1.00  0.00     0.209 HD
ENDBRANCH  23  24
ENDBRANCH  18  23
BRANCH  20  26
HETATM   26  O6  UNL     1      -6.411 -29.895  13.441  1.00  0.00    -0.369 OA
ATOM     27  H6  UNL     1      -7.018 -29.575  12.784  1.00  0.00     0.212 HD
ENDBRANCH  20  26
BRANCH  21  28
HETATM   28  O7  UNL     1      -6.200 -27.594  14.918  1.00  0.00    -0.388 OA
ATOM     29  H7  UNL     1      -6.288 -27.435  15.850  1.00  0.00     0.210 HD
ENDBRANCH  21  28
BRANCH  22  30
HETATM   30  O8  UNL     1      -3.817 -26.481  14.207  1.00  0.00    -0.390 OA
ATOM     31  H8  UNL     1      -3.909 -25.741  14.796  1.00  0.00     0.210 HD
ENDBRANCH  22  30
ENDBRANCH   1  17
TORSDOF 12
ENDMDL
