MODEL 8
REMARK VINA RESULT: -5.345516328      2.588      5.803
REMARK  12 active torsions:
REMARK  status: ('A' for Active; 'I' for Inactive)
REMARK    1  A    between atoms: O1_1  and  C1_3 
REMARK    2  A    between atoms: C1_3  and  C2_4 
REMARK    3  A    between atoms: C3_6  and  O3_7 
REMARK    4  A    between atoms: O3_7  and  C4_8 
REMARK    5  A    between atoms: C5_9  and  C6_10 
REMARK    6  A    between atoms: C6_10  and  O4_11 
REMARK    7  A    between atoms: C7_14  and  O6_15 
REMARK    8  A    between atoms: C8_17  and  O7_18 
REMARK    9  A    between atoms: C9_20  and  O8_21 
REMARK   10  A    between atoms: C10_23  and  O9_24 
REMARK   11  A    between atoms: C11_26  and  O10_27 
REMARK   12  A    between atoms: C12_29  and  O11_30 
ROOT
HETATM    1  O3  UNL     1       0.426 -31.362  17.015  1.00  0.00    -0.348 OA
ENDROOT
BRANCH   1   2
HETATM    2  C3  UNL     1       0.441 -30.027  16.622  1.00  0.00     0.292 C 
HETATM    3  O2  UNL     1      -0.538 -29.729  15.701  1.00  0.00    -0.348 OA
HETATM    4  C2  UNL     1      -0.853 -28.380  15.840  1.00  0.00     0.179 C 
HETATM    5  C12 UNL     1       0.382 -27.507  15.813  1.00  0.00     0.180 C 
HETATM    6  C11 UNL     1       1.605 -28.281  15.370  1.00  0.00     0.183 C 
HETATM    7  C10 UNL     1       1.768 -29.585  16.103  1.00  0.00     0.204 C 
BRANCH   4   8
HETATM    8  C1  UNL     1      -1.884 -27.935  14.829  1.00  0.00     0.198 C 
BRANCH   8   9
HETATM    9  O1  UNL     1      -1.589 -28.357  13.541  1.00  0.00    -0.398 OA
ATOM     10  H1  UNL     1      -1.505 -27.636  12.928  1.00  0.00     0.209 HD
ENDBRANCH   8   9
ENDBRANCH   4   8
BRANCH   5  11
HETATM   11  O11 UNL     1       0.164 -26.522  14.841  1.00  0.00    -0.390 OA
ATOM     12  H11 UNL     1       0.385 -25.686  15.238  1.00  0.00     0.210 HD
ENDBRANCH   5  11
BRANCH   6  13
HETATM   13  O10 UNL     1       2.717 -27.462  15.669  1.00  0.00    -0.390 OA
ATOM     14  H10 UNL     1       2.496 -26.923  16.420  1.00  0.00     0.210 HD
ENDBRANCH   6  13
BRANCH   7  15
HETATM   15  O9  UNL     1       2.315 -30.509  15.193  1.00  0.00    -0.388 OA
ATOM     16  H9  UNL     1       3.231 -30.334  15.014  1.00  0.00     0.210 HD
ENDBRANCH   7  15
ENDBRANCH   1   2
BRANCH   1  17
HETATM   17  C4  UNL     1      -0.477 -32.130  16.308  1.00  0.00     0.187 C 
HETATM   18  C5  UNL     1      -1.471 -32.730  17.272  1.00  0.00     0.180 C 
HETATM   19  O5  UNL     1      -2.310 -33.658  16.678  1.00  0.00    -0.349 OA
HETATM   20  C7  UNL     1      -1.633 -34.684  16.043  1.00  0.00     0.288 C 
HETATM   21  C8  UNL     1      -0.662 -34.177  15.001  1.00  0.00     0.204 C 
HETATM   22  C9  UNL     1       0.305 -33.184  15.558  1.00  0.00     0.183 C 
BRANCH  18  23
HETATM   23  C6  UNL     1      -0.776 -33.291  18.501  1.00  0.00     0.198 C 
BRANCH  23  24
HETATM   24  O4  UNL     1      -0.738 -32.290  19.471  1.00  0.00    -0.398 OA
ATOM     25  H4  UNL     1      -0.703 -32.708  20.323  1.00  0.00     0.209 HD
ENDBRANCH  23  24
ENDBRANCH  18  23
BRANCH  20  26
HETATM   26  O6  UNL     1      -2.576 -35.469  15.380  1.00  0.00    -0.369 OA
ATOM     27  H6  UNL     1      -2.392 -36.378  15.586  1.00  0.00     0.212 HD
ENDBRANCH  20  26
BRANCH  21  28
HETATM   28  O7  UNL     1       0.009 -35.280  14.482  1.00  0.00    -0.388 OA
ATOM     29  H7  UNL     1      -0.161 -35.304  13.548  1.00  0.00     0.210 HD
ENDBRANCH  21  28
BRANCH  22  30
HETATM   30  O8  UNL     1       1.312 -33.743  16.315  1.00  0.00    -0.390 OA
ATOM     31  H8  UNL     1       1.418 -34.674  16.156  1.00  0.00     0.210 HD
ENDBRANCH  22  30
ENDBRANCH   1  17
TORSDOF 12
ENDMDL
