MODEL 3
REMARK VINA RESULT: -5.448654047      2.633      5.881
REMARK  12 active torsions:
REMARK  status: ('A' for Active; 'I' for Inactive)
REMARK    1  A    between atoms: O1_1  and  C1_3 
REMARK    2  A    between atoms: C1_3  and  C2_4 
REMARK    3  A    between atoms: C3_6  and  O3_7 
REMARK    4  A    between atoms: O3_7  and  C4_8 
REMARK    5  A    between atoms: C5_9  and  C6_10 
REMARK    6  A    between atoms: C6_10  and  O4_11 
REMARK    7  A    between atoms: C7_14  and  O6_15 
REMARK    8  A    between atoms: C8_17  and  O7_18 
REMARK    9  A    between atoms: C9_20  and  O8_21 
REMARK   10  A    between atoms: C10_23  and  O9_24 
REMARK   11  A    between atoms: C11_26  and  O10_27 
REMARK   12  A    between atoms: C12_29  and  O11_30 
ROOT
HETATM    1  O3  UNL     1      -0.018 -31.068  15.843  1.00  0.00    -0.348 OA
ENDROOT
BRANCH   1   2
HETATM    2  C3  UNL     1      -0.126 -32.092  16.780  1.00  0.00     0.292 C 
HETATM    3  O2  UNL     1       0.552 -33.230  16.408  1.00  0.00    -0.348 OA
HETATM    4  C2  UNL     1       0.913 -33.905  17.571  1.00  0.00     0.179 C 
HETATM    5  C12 UNL     1      -0.265 -34.099  18.500  1.00  0.00     0.180 C 
HETATM    6  C11 UNL     1      -1.575 -33.761  17.820  1.00  0.00     0.183 C 
HETATM    7  C10 UNL     1      -1.540 -32.435  17.110  1.00  0.00     0.204 C 
BRANCH   4   8
HETATM    8  C1  UNL     1       1.617 -35.208  17.271  1.00  0.00     0.198 C 
BRANCH   8   9
HETATM    9  O1  UNL     1       2.797 -35.029  16.563  1.00  0.00    -0.398 OA
ATOM     10  H1  UNL     1       2.796 -35.482  15.728  1.00  0.00     0.209 HD
ENDBRANCH   8   9
ENDBRANCH   4   8
BRANCH   5  11
HETATM   11  O11 UNL     1      -0.321 -35.464  18.810  1.00  0.00    -0.390 OA
ATOM     12  H11 UNL     1      -0.899 -35.556  19.559  1.00  0.00     0.210 HD
ENDBRANCH   5  11
BRANCH   6  13
HETATM   13  O10 UNL     1      -2.542 -33.689  18.847  1.00  0.00    -0.390 OA
ATOM     14  H10 UNL     1      -2.984 -34.529  18.900  1.00  0.00     0.210 HD
ENDBRANCH   6  13
BRANCH   7  15
HETATM   15  O9  UNL     1      -2.338 -32.559  15.958  1.00  0.00    -0.388 OA
ATOM     16  H9  UNL     1      -3.163 -32.994  16.139  1.00  0.00     0.210 HD
ENDBRANCH   7  15
ENDBRANCH   1   2
BRANCH   1  17
HETATM   17  C4  UNL     1       0.251 -29.837  16.405  1.00  0.00     0.187 C 
HETATM   18  C5  UNL     1      -0.853 -28.877  16.038  1.00  0.00     0.180 C 
HETATM   19  O5  UNL     1      -0.582 -27.570  16.409  1.00  0.00    -0.349 OA
HETATM   20  C7  UNL     1       0.612 -27.091  15.901  1.00  0.00     0.288 C 
HETATM   21  C8  UNL     1       1.792 -27.955  16.283  1.00  0.00     0.204 C 
HETATM   22  C9  UNL     1       1.601 -29.385  15.896  1.00  0.00     0.183 C 
BRANCH  18  23
HETATM   23  C6  UNL     1      -1.213 -28.990  14.566  1.00  0.00     0.198 C 
BRANCH  23  24
HETATM   24  O4  UNL     1      -2.201 -29.965  14.437  1.00  0.00    -0.398 OA
ATOM     25  H4  UNL     1      -2.001 -30.486  13.668  1.00  0.00     0.209 HD
ENDBRANCH  23  24
ENDBRANCH  18  23
BRANCH  20  26
HETATM   26  O6  UNL     1       0.831 -25.828  16.449  1.00  0.00    -0.369 OA
ATOM     27  H6  UNL     1       1.112 -25.252  15.747  1.00  0.00     0.212 HD
ENDBRANCH  20  26
BRANCH  21  28
HETATM   28  O7  UNL     1       2.919 -27.423  15.662  1.00  0.00    -0.388 OA
ATOM     29  H7  UNL     1       3.471 -28.150  15.401  1.00  0.00     0.210 HD
ENDBRANCH  21  28
BRANCH  22  30
HETATM   30  O8  UNL     1       1.775 -29.632  14.552  1.00  0.00    -0.390 OA
ATOM     31  H8  UNL     1       2.206 -30.462  14.383  1.00  0.00     0.210 HD
ENDBRANCH  22  30
ENDBRANCH   1  17
TORSDOF 12
ENDMDL
