MODEL 12
REMARK VINA RESULT: -5.231932166      2.563      5.334
REMARK  12 active torsions:
REMARK  status: ('A' for Active; 'I' for Inactive)
REMARK    1  A    between atoms: O1_1  and  C1_3 
REMARK    2  A    between atoms: C1_3  and  C2_4 
REMARK    3  A    between atoms: C3_6  and  O3_7 
REMARK    4  A    between atoms: O3_7  and  C4_8 
REMARK    5  A    between atoms: C5_9  and  C6_10 
REMARK    6  A    between atoms: C6_10  and  O4_11 
REMARK    7  A    between atoms: C7_14  and  O6_15 
REMARK    8  A    between atoms: C8_17  and  O7_18 
REMARK    9  A    between atoms: C9_20  and  O8_21 
REMARK   10  A    between atoms: C10_23  and  O9_24 
REMARK   11  A    between atoms: C11_26  and  O10_27 
REMARK   12  A    between atoms: C12_29  and  O11_30 
ROOT
HETATM    1  O3  UNL     1       0.184 -31.371  16.481  1.00  0.00    -0.348 OA
ENDROOT
BRANCH   1   2
HETATM    2  C3  UNL     1       0.350 -30.000  16.308  1.00  0.00     0.292 C 
HETATM    3  O2  UNL     1      -0.513 -29.471  15.374  1.00  0.00    -0.348 OA
HETATM    4  C2  UNL     1      -0.721 -28.134  15.703  1.00  0.00     0.179 C 
HETATM    5  C12 UNL     1       0.582 -27.394  15.909  1.00  0.00     0.180 C 
HETATM    6  C11 UNL     1       1.769 -28.210  15.443  1.00  0.00     0.183 C 
HETATM    7  C10 UNL     1       1.751 -29.619  15.969  1.00  0.00     0.204 C 
BRANCH   4   8
HETATM    8  C1  UNL     1      -1.613 -27.440  14.700  1.00  0.00     0.198 C 
BRANCH   8   9
HETATM    9  O1  UNL     1      -1.390 -27.866  13.398  1.00  0.00    -0.398 OA
ATOM     10  H1  UNL     1      -0.976 -27.201  12.861  1.00  0.00     0.209 HD
ENDBRANCH   8   9
ENDBRANCH   4   8
BRANCH   5  11
HETATM   11  O11 UNL     1       0.539 -26.256  15.092  1.00  0.00    -0.390 OA
ATOM     12  H11 UNL     1       1.436 -25.964  14.976  1.00  0.00     0.210 HD
ENDBRANCH   5  11
BRANCH   6  13
HETATM   13  O10 UNL     1       2.915 -27.560  15.952  1.00  0.00    -0.390 OA
ATOM     14  H10 UNL     1       3.612 -28.201  16.028  1.00  0.00     0.210 HD
ENDBRANCH   6  13
BRANCH   7  15
HETATM   15  O9  UNL     1       2.297 -30.444  14.968  1.00  0.00    -0.388 OA
ATOM     16  H9  UNL     1       2.884 -31.100  15.325  1.00  0.00     0.210 HD
ENDBRANCH   7  15
ENDBRANCH   1   2
BRANCH   1  17
HETATM   17  C4  UNL     1      -1.024 -31.708  17.057  1.00  0.00     0.187 C 
HETATM   18  C5  UNL     1      -0.782 -32.731  18.140  1.00  0.00     0.180 C 
HETATM   19  O5  UNL     1      -1.953 -33.261  18.656  1.00  0.00    -0.349 OA
HETATM   20  C7  UNL     1      -2.776 -33.818  17.693  1.00  0.00     0.288 C 
HETATM   21  C8  UNL     1      -3.132 -32.837  16.600  1.00  0.00     0.204 C 
HETATM   22  C9  UNL     1      -1.926 -32.231  15.962  1.00  0.00     0.183 C 
BRANCH  18  23
HETATM   23  C6  UNL     1       0.176 -33.813  17.670  1.00  0.00     0.198 C 
BRANCH  23  24
HETATM   24  O4  UNL     1       1.478 -33.353  17.871  1.00  0.00    -0.398 OA
ATOM     25  H4  UNL     1       1.883 -33.897  18.536  1.00  0.00     0.209 HD
ENDBRANCH  23  24
ENDBRANCH  18  23
BRANCH  20  26
HETATM   26  O6  UNL     1      -3.966 -34.193  18.316  1.00  0.00    -0.369 OA
ATOM     27  H6  UNL     1      -4.207 -35.051  17.988  1.00  0.00     0.212 HD
ENDBRANCH  20  26
BRANCH  21  28
HETATM   28  O7  UNL     1      -3.896 -33.520  15.657  1.00  0.00    -0.388 OA
ATOM     29  H7  UNL     1      -4.371 -32.872  15.151  1.00  0.00     0.210 HD
ENDBRANCH  21  28
BRANCH  22  30
HETATM   30  O8  UNL     1      -1.272 -33.067  15.084  1.00  0.00    -0.390 OA
ATOM     31  H8  UNL     1      -1.730 -33.888  14.947  1.00  0.00     0.210 HD
ENDBRANCH  22  30
ENDBRANCH   1  17
TORSDOF 12
ENDMDL
