MODEL 11
REMARK VINA RESULT: -5.244531539      2.487      6.236
REMARK  12 active torsions:
REMARK  status: ('A' for Active; 'I' for Inactive)
REMARK    1  A    between atoms: O1_1  and  C1_3 
REMARK    2  A    between atoms: C1_3  and  C2_4 
REMARK    3  A    between atoms: C3_6  and  O3_7 
REMARK    4  A    between atoms: O3_7  and  C4_8 
REMARK    5  A    between atoms: C5_9  and  C6_10 
REMARK    6  A    between atoms: C6_10  and  O4_11 
REMARK    7  A    between atoms: C7_14  and  O6_15 
REMARK    8  A    between atoms: C8_17  and  O7_18 
REMARK    9  A    between atoms: C9_20  and  O8_21 
REMARK   10  A    between atoms: C10_23  and  O9_24 
REMARK   11  A    between atoms: C11_26  and  O10_27 
REMARK   12  A    between atoms: C12_29  and  O11_30 
ROOT
HETATM    1  O3  UNL     1       0.253 -31.543  16.675  1.00  0.00    -0.348 OA
ENDROOT
BRANCH   1   2
HETATM    2  C3  UNL     1       0.336 -30.175  16.434  1.00  0.00     0.292 C 
HETATM    3  O2  UNL     1      -0.566 -29.743  15.488  1.00  0.00    -0.348 OA
HETATM    4  C2  UNL     1      -0.850 -28.407  15.754  1.00  0.00     0.179 C 
HETATM    5  C12 UNL     1       0.409 -27.582  15.907  1.00  0.00     0.180 C 
HETATM    6  C11 UNL     1       1.637 -28.349  15.465  1.00  0.00     0.183 C 
HETATM    7  C10 UNL     1       1.709 -29.729  16.059  1.00  0.00     0.204 C 
BRANCH   4   8
HETATM    8  C1  UNL     1      -1.792 -27.816  14.731  1.00  0.00     0.198 C 
BRANCH   8   9
HETATM    9  O1  UNL     1      -1.469 -28.180  13.431  1.00  0.00    -0.398 OA
ATOM     10  H1  UNL     1      -1.744 -27.536  12.790  1.00  0.00     0.209 HD
ENDBRANCH   8   9
ENDBRANCH   4   8
BRANCH   5  11
HETATM   11  O11 UNL     1       0.291 -26.490  15.037  1.00  0.00    -0.390 OA
ATOM     12  H11 UNL     1       0.705 -26.740  14.219  1.00  0.00     0.210 HD
ENDBRANCH   5  11
BRANCH   6  13
HETATM   13  O10 UNL     1       2.749 -27.609  15.928  1.00  0.00    -0.390 OA
ATOM     14  H10 UNL     1       2.841 -27.762  16.861  1.00  0.00     0.210 HD
ENDBRANCH   6  13
BRANCH   7  15
HETATM   15  O9  UNL     1       2.292 -30.569  15.091  1.00  0.00    -0.388 OA
ATOM     16  H9  UNL     1       3.077 -30.996  15.415  1.00  0.00     0.210 HD
ENDBRANCH   7  15
ENDBRANCH   1   2
BRANCH   1  17
HETATM   17  C4  UNL     1      -0.673 -31.874  17.643  1.00  0.00     0.187 C 
HETATM   18  C5  UNL     1      -0.008 -31.823  18.996  1.00  0.00     0.180 C 
HETATM   19  O5  UNL     1      -0.811 -32.310  20.014  1.00  0.00    -0.349 OA
HETATM   20  C7  UNL     1      -1.263 -33.599  19.789  1.00  0.00     0.288 C 
HETATM   21  C8  UNL     1      -2.010 -33.729  18.481  1.00  0.00     0.204 C 
HETATM   22  C9  UNL     1      -1.208 -33.249  17.316  1.00  0.00     0.183 C 
BRANCH  18  23
HETATM   23  C6  UNL     1       1.352 -32.500  18.967  1.00  0.00     0.198 C 
BRANCH  23  24
HETATM   24  O4  UNL     1       2.329 -31.513  19.085  1.00  0.00    -0.398 OA
ATOM     25  H4  UNL     1       2.890 -31.740  19.817  1.00  0.00     0.209 HD
ENDBRANCH  23  24
ENDBRANCH  18  23
BRANCH  20  26
HETATM   26  O6  UNL     1      -2.157 -33.920  20.809  1.00  0.00    -0.369 OA
ATOM     27  H6  UNL     1      -2.191 -34.867  20.876  1.00  0.00     0.212 HD
ENDBRANCH  20  26
BRANCH  21  28
HETATM   28  O7  UNL     1      -2.352 -35.069  18.326  1.00  0.00    -0.388 OA
ATOM     29  H7  UNL     1      -2.209 -35.499  19.160  1.00  0.00     0.210 HD
ENDBRANCH  21  28
BRANCH  22  30
HETATM   30  O8  UNL     1      -0.224 -34.124  16.912  1.00  0.00    -0.390 OA
ATOM     31  H8  UNL     1       0.242 -33.824  16.140  1.00  0.00     0.210 HD
ENDBRANCH  22  30
ENDBRANCH   1  17
TORSDOF 12
ENDMDL
