MODEL 1
REMARK VINA RESULT: -13.682249470      0.000      0.000
REMARK  1 active torsions:
REMARK  status: ('A' for Active; 'I' for Inactive)
REMARK    1  A    between atoms: C2_5  and  N2_6 
ROOT
HETATM    1  N2  UNL     1       2.471 -11.307 -10.067  1.00  0.00    -0.217 N 
HETATM    2  C3  UNL     1       3.494 -10.716  -9.269  1.00  0.00     0.142 C 
HETATM    3  C4  UNL     1       3.496 -11.347  -7.908  1.00  0.00     0.037 C 
HETATM    4  C5  UNL     1       2.175 -11.268  -7.211  1.00  0.00     0.010 C 
HETATM    5  C6  UNL     1       0.981 -11.366  -8.078  1.00  0.00     0.037 C 
HETATM    6  C7  UNL     1       1.183 -11.546  -9.526  1.00  0.00     0.142 C 
HETATM    7  C8  UNL     1       2.116  -9.976  -6.428  1.00  0.00     0.134 C 
HETATM    8  N3  UNL     1       2.801 -10.312  -5.221  1.00  0.00    -0.388 N 
ATOM      9  H3  UNL     1       3.362  -9.684  -4.644  1.00  0.00     0.159 HD
HETATM   10  C9  UNL     1       2.551 -11.690  -4.983  1.00  0.00     0.036 A 
HETATM   11  C10 UNL     1       2.656 -12.383  -3.776  1.00  0.00     0.030 A 
HETATM   12  C11 UNL     1       2.362 -13.724  -3.746  1.00  0.00     0.004 A 
HETATM   13  C12 UNL     1       1.974 -14.323  -4.919  1.00  0.00     0.024 A 
HETATM   14  C13 UNL     1       1.865 -13.660  -6.116  1.00  0.00     0.043 A 
HETATM   15 CL1  UNL     1       1.367 -14.510  -7.561  1.00  0.00    -0.084 Cl
HETATM   16  C14 UNL     1       2.161 -12.299  -6.157  1.00  0.00     0.000 A 
ENDROOT
BRANCH   1  17
HETATM   17  C2  UNL     1       2.747 -11.660 -11.408  1.00  0.00     0.683 A 
HETATM   18  N1  UNL     1       1.812 -11.884 -12.346  1.00  0.00    -0.156 N 
HETATM   19  C1  UNL     1       2.206 -12.224 -13.586  1.00  0.00     0.267 A 
ATOM     20  H1  UNL     1       0.821 -11.796 -12.122  1.00  0.00     0.187 HD
HETATM   21  O1  UNL     1       1.326 -12.434 -14.463  1.00  0.00    -0.267 OA
HETATM   22  C16 UNL     1       3.539 -12.353 -13.940  1.00  0.00     0.034 A 
HETATM   23  C15 UNL     1       4.489 -12.121 -12.968  1.00  0.00     0.038 A 
HETATM   24  C17 UNL     1       3.929 -12.733 -15.342  1.00  0.00     0.046 C 
HETATM   25  N4  UNL     1       4.039 -11.787 -11.752  1.00  0.00    -0.195 N 
HETATM   26  C20 UNL     1       5.963 -12.238 -13.226  1.00  0.00     0.058 C 
ATOM     27  H4  UNL     1       4.735 -11.613 -11.027  1.00  0.00     0.184 HD
HETATM   28  C19 UNL     1       6.251 -12.603 -14.643  1.00  0.00     0.006 C 
HETATM   29  C18 UNL     1       5.187 -13.559 -15.192  1.00  0.00     0.005 C 
ENDBRANCH   1  17
TORSDOF 1
ENDMDL
