MODEL 9
REMARK VINA RESULT: -6.189228007      1.024      3.446
REMARK  6 active torsions:
REMARK  status: ('A' for Active; 'I' for Inactive)
REMARK    1  A    between atoms: C1_2  and  C2_4 
REMARK    2  A    between atoms: C2_4  and  C3_5 
REMARK    3  A    between atoms: C3_5  and  O3_6 
REMARK    4  A    between atoms: C3_5  and  C4_8 
REMARK    5  A    between atoms: C3_5  and  C6_12 
REMARK    6  A    between atoms: C4_8  and  C5_9 
ROOT
HETATM    1  C3  UNL     1      -6.057   6.591  -5.543  1.00  0.00     0.164 C 
ENDROOT
BRANCH   1   2
HETATM    2  C2  UNL     1      -5.201   5.574  -4.833  1.00  0.00     0.163 C 
BRANCH   2   3
HETATM    3  C1  UNL     1      -5.723   4.212  -4.892  1.00  0.00     0.176 C 
HETATM    4  O1  UNL     1      -6.137   3.553  -3.904  1.00  0.00    -0.648 OA
HETATM    5  O2  UNL     1      -5.767   3.576  -6.136  1.00  0.00    -0.648 OA
ENDBRANCH   2   3
ENDBRANCH   1   2
BRANCH   1   6
HETATM    6  O3  UNL     1      -5.648   6.838  -6.843  1.00  0.00    -0.378 OA
ATOM      7  H3  UNL     1      -5.557   6.049  -7.364  1.00  0.00     0.211 HD
ENDBRANCH   1   6
BRANCH   1   8
HETATM    8  C4  UNL     1      -7.507   6.214  -5.580  1.00  0.00     0.163 C 
BRANCH   8   9
HETATM    9  C5  UNL     1      -7.994   6.384  -6.990  1.00  0.00     0.176 C 
HETATM   10  O4  UNL     1      -8.236   5.560  -7.824  1.00  0.00    -0.648 OA
HETATM   11  O5  UNL     1      -8.164   7.790  -7.305  1.00  0.00    -0.648 OA
ENDBRANCH   8   9
ENDBRANCH   1   8
BRANCH   1  12
HETATM   12  C6  UNL     1      -5.965   7.841  -4.751  1.00  0.00     0.210 C 
HETATM   13  O6  UNL     1      -5.887   7.626  -3.473  1.00  0.00    -0.646 OA
HETATM   14  O7  UNL     1      -5.950   9.070  -5.238  1.00  0.00    -0.646 OA
ENDBRANCH   1  12
TORSDOF 6
ENDMDL
