MODEL 10
REMARK VINA RESULT: -6.180348179      1.200      3.428
REMARK  6 active torsions:
REMARK  status: ('A' for Active; 'I' for Inactive)
REMARK    1  A    between atoms: C1_2  and  C2_4 
REMARK    2  A    between atoms: C2_4  and  C3_5 
REMARK    3  A    between atoms: C3_5  and  O3_6 
REMARK    4  A    between atoms: C3_5  and  C4_8 
REMARK    5  A    between atoms: C3_5  and  C6_12 
REMARK    6  A    between atoms: C4_8  and  C5_9 
ROOT
HETATM    1  C3  UNL     1      -6.361   6.675  -5.535  1.00  0.00     0.164 C 
ENDROOT
BRANCH   1   2
HETATM    2  C2  UNL     1      -6.990   5.581  -4.712  1.00  0.00     0.163 C 
BRANCH   2   3
HETATM    3  C1  UNL     1      -6.295   4.300  -4.793  1.00  0.00     0.176 C 
HETATM    4  O1  UNL     1      -6.238   3.573  -5.818  1.00  0.00    -0.648 OA
HETATM    5  O2  UNL     1      -5.642   3.830  -3.650  1.00  0.00    -0.648 OA
ENDBRANCH   2   3
ENDBRANCH   1   2
BRANCH   1   6
HETATM    6  O3  UNL     1      -5.272   6.244  -6.276  1.00  0.00    -0.378 OA
ATOM      7  H3  UNL     1      -4.921   6.913  -6.852  1.00  0.00     0.211 HD
ENDBRANCH   1   6
BRANCH   1   8
HETATM    8  C4  UNL     1      -7.325   7.332  -6.475  1.00  0.00     0.163 C 
BRANCH   8   9
HETATM    9  C5  UNL     1      -7.793   6.298  -7.457  1.00  0.00     0.176 C 
HETATM   10  O4  UNL     1      -8.670   5.488  -7.362  1.00  0.00    -0.648 OA
HETATM   11  O5  UNL     1      -7.006   6.356  -8.675  1.00  0.00    -0.648 OA
ENDBRANCH   8   9
ENDBRANCH   1   8
BRANCH   1  12
HETATM   12  C6  UNL     1      -5.924   7.720  -4.579  1.00  0.00     0.210 C 
HETATM   13  O6  UNL     1      -5.761   7.267  -3.373  1.00  0.00    -0.646 OA
HETATM   14  O7  UNL     1      -5.697   8.990  -4.865  1.00  0.00    -0.646 OA
ENDBRANCH   1  12
TORSDOF 6
ENDMDL
