MODEL 3
REMARK VINA RESULT: -6.451727146      1.392      3.452
REMARK  6 active torsions:
REMARK  status: ('A' for Active; 'I' for Inactive)
REMARK    1  A    between atoms: C1_2  and  C2_4 
REMARK    2  A    between atoms: C2_4  and  C3_5 
REMARK    3  A    between atoms: C3_5  and  O3_6 
REMARK    4  A    between atoms: C3_5  and  C4_8 
REMARK    5  A    between atoms: C3_5  and  C6_12 
REMARK    6  A    between atoms: C4_8  and  C5_9 
ROOT
HETATM    1  C3  UNL     1      -6.297   6.527  -5.773  1.00  0.00     0.164 C 
ENDROOT
BRANCH   1   2
HETATM    2  C2  UNL     1      -5.406   5.873  -4.748  1.00  0.00     0.163 C 
BRANCH   2   3
HETATM    3  C1  UNL     1      -5.491   4.416  -4.730  1.00  0.00     0.176 C 
HETATM    4  O1  UNL     1      -5.837   3.725  -3.737  1.00  0.00    -0.648 OA
HETATM    5  O2  UNL     1      -5.160   3.721  -5.896  1.00  0.00    -0.648 OA
ENDBRANCH   2   3
ENDBRANCH   1   2
BRANCH   1   6
HETATM    6  O3  UNL     1      -5.937   6.234  -7.078  1.00  0.00    -0.378 OA
ATOM      7  H3  UNL     1      -5.595   5.354  -7.184  1.00  0.00     0.211 HD
ENDBRANCH   1   6
BRANCH   1   8
HETATM    8  C4  UNL     1      -7.743   6.174  -5.604  1.00  0.00     0.163 C 
BRANCH   8   9
HETATM    9  C5  UNL     1      -8.205   5.496  -6.861  1.00  0.00     0.176 C 
HETATM   10  O4  UNL     1      -8.475   5.962  -7.931  1.00  0.00    -0.648 OA
HETATM   11  O5  UNL     1      -8.319   4.064  -6.658  1.00  0.00    -0.648 OA
ENDBRANCH   8   9
ENDBRANCH   1   8
BRANCH   1  12
HETATM   12  C6  UNL     1      -6.190   7.988  -5.549  1.00  0.00     0.210 C 
HETATM   13  O6  UNL     1      -6.800   8.686  -6.458  1.00  0.00    -0.646 OA
HETATM   14  O7  UNL     1      -5.563   8.577  -4.545  1.00  0.00    -0.646 OA
ENDBRANCH   1  12
TORSDOF 6
ENDMDL
