MODEL 9
REMARK VINA RESULT: -9.295197316      1.859      2.804
REMARK  3 active torsions:
REMARK  status: ('A' for Active; 'I' for Inactive)
REMARK       I    between atoms: C1_2  and  N1_3 
REMARK    1  A    between atoms: C1_2  and  C9_12 
REMARK    2  A    between atoms: N1_3  and  C2_5 
REMARK    3  A    between atoms: C2_5  and  C3_6 
ROOT
HETATM    1  C9  UNL     1       6.396   1.216 -28.541  1.00  0.00     0.147 A 
HETATM    2  C10 UNL     1       7.019   2.436 -28.648  1.00  0.00     0.098 A 
HETATM    3  C11 UNL     1       8.046   2.800 -27.787  1.00  0.00     0.187 A 
HETATM    4  O2  UNL     1       8.644   3.897 -27.844  1.00  0.00    -0.287 OA
HETATM    5  C12 UNL     1       8.416   1.894 -26.829  1.00  0.00     0.048 A 
HETATM    6  C13 UNL     1       9.446   2.212 -25.936  1.00  0.00     0.018 A 
HETATM    7  C14 UNL     1       9.820   1.301 -24.969  1.00  0.00     0.001 A 
HETATM    8  C15 UNL     1       9.173   0.089 -24.893  1.00  0.00     0.003 A 
HETATM    9  C16 UNL     1       8.154  -0.202 -25.790  1.00  0.00     0.038 A 
HETATM   10  C17 UNL     1       7.765   0.691 -26.762  1.00  0.00     0.090 A 
HETATM   11  O3  UNL     1       6.806   0.421 -27.609  1.00  0.00    -0.304 OA
ENDROOT
BRANCH   1  12
HETATM   12  C1  UNL     1       5.301   0.802 -29.442  1.00  0.00     0.279 C 
HETATM   13  O1  UNL     1       5.334   1.170 -30.634  1.00  0.00    -0.265 OA
HETATM   14  N1  UNL     1       4.231   0.011 -28.999  1.00  0.00    -0.335 N 
ATOM     15  H1  UNL     1       4.281  -0.265 -28.018  1.00  0.00     0.168 HD
BRANCH  14  16
HETATM   16  C2  UNL     1       3.096  -0.466 -29.687  1.00  0.00     0.069 C 
BRANCH  16  17
HETATM   17  C3  UNL     1       1.803  -0.650 -29.040  1.00  0.00     0.024 C 
HETATM   18  C4  UNL     1       0.761  -1.380 -29.782  1.00  0.00     0.010 C 
HETATM   19  C5  UNL     1      -0.388  -1.809 -28.845  1.00  0.00     0.001 C 
HETATM   20  C6  UNL     1      -0.578  -0.812 -27.747  1.00  0.00     0.000 C 
HETATM   21  C7  UNL     1      -0.155   0.596 -28.112  1.00  0.00     0.001 C 
HETATM   22  C8  UNL     1       1.301   0.689 -28.505  1.00  0.00     0.010 C 
ENDBRANCH  16  17
ENDBRANCH  14  16
ENDBRANCH   1  12
TORSDOF 3
ENDMDL
