MODEL 12
REMARK VINA RESULT: -9.055300043      1.413      1.911
REMARK  3 active torsions:
REMARK  status: ('A' for Active; 'I' for Inactive)
REMARK       I    between atoms: C1_2  and  N1_3 
REMARK    1  A    between atoms: C1_2  and  C9_12 
REMARK    2  A    between atoms: N1_3  and  C2_5 
REMARK    3  A    between atoms: C2_5  and  C3_6 
ROOT
HETATM    1  C9  UNL     1       5.818   0.991 -28.937  1.00  0.00     0.147 A 
HETATM    2  C10 UNL     1       6.346   2.230 -29.215  1.00  0.00     0.098 A 
HETATM    3  C11 UNL     1       7.394   2.751 -28.470  1.00  0.00     0.187 A 
HETATM    4  O2  UNL     1       7.909   3.871 -28.682  1.00  0.00    -0.287 OA
HETATM    5  C12 UNL     1       7.885   1.982 -27.447  1.00  0.00     0.048 A 
HETATM    6  C13 UNL     1       8.942   2.462 -26.665  1.00  0.00     0.018 A 
HETATM    7  C14 UNL     1       9.437   1.688 -25.634  1.00  0.00     0.001 A 
HETATM    8  C15 UNL     1       8.883   0.453 -25.386  1.00  0.00     0.003 A 
HETATM    9  C16 UNL     1       7.834   0.001 -26.177  1.00  0.00     0.038 A 
HETATM   10  C17 UNL     1       7.325   0.754 -27.209  1.00  0.00     0.090 A 
HETATM   11  O3  UNL     1       6.339   0.332 -27.956  1.00  0.00    -0.304 OA
ENDROOT
BRANCH   1  12
HETATM   12  C1  UNL     1       4.703   0.412 -29.713  1.00  0.00     0.279 C 
HETATM   13  O1  UNL     1       4.960  -0.200 -30.769  1.00  0.00    -0.265 OA
HETATM   14  N1  UNL     1       3.367   0.528 -29.297  1.00  0.00    -0.335 N 
ATOM     15  H1  UNL     1       3.236   1.026 -28.417  1.00  0.00     0.168 HD
BRANCH  14  16
HETATM   16  C2  UNL     1       2.177   0.069 -29.898  1.00  0.00     0.069 C 
BRANCH  16  17
HETATM   17  C3  UNL     1       1.059  -0.459 -29.126  1.00  0.00     0.024 C 
HETATM   18  C4  UNL     1       0.727   0.205 -27.854  1.00  0.00     0.010 C 
HETATM   19  C5  UNL     1      -0.671  -0.219 -27.357  1.00  0.00     0.001 C 
HETATM   20  C6  UNL     1      -0.974  -1.627 -27.758  1.00  0.00     0.000 C 
HETATM   21  C7  UNL     1       0.254  -2.498 -27.925  1.00  0.00     0.001 C 
HETATM   22  C8  UNL     1       1.211  -1.970 -28.968  1.00  0.00     0.010 C 
ENDBRANCH  16  17
ENDBRANCH  14  16
ENDBRANCH   1  12
TORSDOF 3
ENDMDL
