MODEL 11
REMARK VINA RESULT: -9.113669111      2.184      7.539
REMARK  3 active torsions:
REMARK  status: ('A' for Active; 'I' for Inactive)
REMARK       I    between atoms: C1_2  and  N1_3 
REMARK    1  A    between atoms: C1_2  and  C9_12 
REMARK    2  A    between atoms: N1_3  and  C2_5 
REMARK    3  A    between atoms: C2_5  and  C3_6 
ROOT
HETATM    1  C9  UNL     1       1.570  -0.268 -28.646  1.00  0.00     0.147 A 
HETATM    2  C10 UNL     1       0.678   0.505 -27.941  1.00  0.00     0.098 A 
HETATM    3  C11 UNL     1      -0.076  -0.029 -26.905  1.00  0.00     0.187 A 
HETATM    4  O2  UNL     1      -0.900   0.632 -26.234  1.00  0.00    -0.287 OA
HETATM    5  C12 UNL     1       0.103  -1.354 -26.611  1.00  0.00     0.048 A 
HETATM    6  C13 UNL     1      -0.634  -1.940 -25.576  1.00  0.00     0.018 A 
HETATM    7  C14 UNL     1      -0.455  -3.277 -25.278  1.00  0.00     0.001 A 
HETATM    8  C15 UNL     1       0.448  -4.018 -26.006  1.00  0.00     0.003 A 
HETATM    9  C16 UNL     1       1.166  -3.413 -27.029  1.00  0.00     0.038 A 
HETATM   10  C17 UNL     1       1.003  -2.083 -27.343  1.00  0.00     0.090 A 
HETATM   11  O3  UNL     1       1.677  -1.509 -28.304  1.00  0.00    -0.304 OA
ENDROOT
BRANCH   1  12
HETATM   12  C1  UNL     1       2.385   0.272 -29.753  1.00  0.00     0.279 C 
HETATM   13  O1  UNL     1       1.922   0.239 -30.911  1.00  0.00    -0.265 OA
HETATM   14  N1  UNL     1       3.660   0.819 -29.541  1.00  0.00    -0.335 N 
ATOM     15  H1  UNL     1       3.965   0.826 -28.568  1.00  0.00     0.168 HD
BRANCH  14  16
HETATM   16  C2  UNL     1       4.590   1.359 -30.454  1.00  0.00     0.069 C 
BRANCH  16  17
HETATM   17  C3  UNL     1       5.676   2.239 -30.042  1.00  0.00     0.024 C 
HETATM   18  C4  UNL     1       6.249   2.043 -28.700  1.00  0.00     0.010 C 
HETATM   19  C5  UNL     1       7.599   2.778 -28.562  1.00  0.00     0.001 C 
HETATM   20  C6  UNL     1       7.612   4.026 -29.386  1.00  0.00     0.000 C 
HETATM   21  C7  UNL     1       6.242   4.635 -29.604  1.00  0.00     0.001 C 
HETATM   22  C8  UNL     1       5.284   3.693 -30.296  1.00  0.00     0.010 C 
ENDBRANCH  16  17
ENDBRANCH  14  16
ENDBRANCH   1  12
TORSDOF 3
ENDMDL
