MODEL 10
REMARK VINA RESULT: -9.119578481      2.072      7.943
REMARK  3 active torsions:
REMARK  status: ('A' for Active; 'I' for Inactive)
REMARK       I    between atoms: C1_2  and  N1_3 
REMARK    1  A    between atoms: C1_2  and  C9_12 
REMARK    2  A    between atoms: N1_3  and  C2_5 
REMARK    3  A    between atoms: C2_5  and  C3_6 
ROOT
HETATM    1  C9  UNL     1       1.665  -1.323 -28.806  1.00  0.00     0.147 A 
HETATM    2  C10 UNL     1       2.451  -2.090 -27.979  1.00  0.00     0.098 A 
HETATM    3  C11 UNL     1       1.891  -2.951 -27.045  1.00  0.00     0.187 A 
HETATM    4  O2  UNL     1       2.563  -3.669 -26.272  1.00  0.00    -0.287 OA
HETATM    5  C12 UNL     1       0.524  -3.008 -26.980  1.00  0.00     0.048 A 
HETATM    6  C13 UNL     1      -0.090  -3.860 -26.055  1.00  0.00     0.018 A 
HETATM    7  C14 UNL     1      -1.468  -3.918 -25.987  1.00  0.00     0.001 A 
HETATM    8  C15 UNL     1      -2.222  -3.135 -26.831  1.00  0.00     0.003 A 
HETATM    9  C16 UNL     1      -1.587  -2.298 -27.739  1.00  0.00     0.038 A 
HETATM   10  C17 UNL     1      -0.217  -2.223 -27.824  1.00  0.00     0.090 A 
HETATM   11  O3  UNL     1       0.385  -1.437 -28.678  1.00  0.00    -0.304 OA
ENDROOT
BRANCH   1  12
HETATM   12  C1  UNL     1       2.233  -0.399 -29.808  1.00  0.00     0.279 C 
HETATM   13  O1  UNL     1       1.510  -0.018 -30.750  1.00  0.00    -0.265 OA
HETATM   14  N1  UNL     1       3.556   0.062 -29.731  1.00  0.00    -0.335 N 
ATOM     15  H1  UNL     1       4.080  -0.278 -28.925  1.00  0.00     0.168 HD
BRANCH  14  16
HETATM   16  C2  UNL     1       4.280   0.919 -30.585  1.00  0.00     0.069 C 
BRANCH  16  17
HETATM   17  C3  UNL     1       5.350   1.786 -30.108  1.00  0.00     0.024 C 
HETATM   18  C4  UNL     1       5.842   1.580 -28.736  1.00  0.00     0.010 C 
HETATM   19  C5  UNL     1       7.189   2.299 -28.516  1.00  0.00     0.001 C 
HETATM   20  C6  UNL     1       7.265   3.548 -29.335  1.00  0.00     0.000 C 
HETATM   21  C7  UNL     1       5.917   4.173 -29.631  1.00  0.00     0.001 C 
HETATM   22  C8  UNL     1       4.992   3.245 -30.381  1.00  0.00     0.010 C 
ENDBRANCH  16  17
ENDBRANCH  14  16
ENDBRANCH   1  12
TORSDOF 3
ENDMDL
