MODEL 13
REMARK VINA RESULT: -8.916103758      2.294      7.714
REMARK  3 active torsions:
REMARK  status: ('A' for Active; 'I' for Inactive)
REMARK       I    between atoms: C1_2  and  N1_3 
REMARK    1  A    between atoms: C1_2  and  C9_12 
REMARK    2  A    between atoms: N1_3  and  C2_5 
REMARK    3  A    between atoms: C2_5  and  C3_6 
ROOT
HETATM    1  C9  UNL     1       2.483  -0.951 -27.922  1.00  0.00     0.147 A 
HETATM    2  C10 UNL     1       1.560   0.026 -28.211  1.00  0.00     0.098 A 
HETATM    3  C11 UNL     1       0.210  -0.153 -27.941  1.00  0.00     0.187 A 
HETATM    4  O2  UNL     1      -0.667   0.704 -28.185  1.00  0.00    -0.287 OA
HETATM    5  C12 UNL     1      -0.167  -1.342 -27.374  1.00  0.00     0.048 A 
HETATM    6  C13 UNL     1      -1.516  -1.573 -27.082  1.00  0.00     0.018 A 
HETATM    7  C14 UNL     1      -1.898  -2.770 -26.510  1.00  0.00     0.001 A 
HETATM    8  C15 UNL     1      -0.946  -3.725 -26.235  1.00  0.00     0.003 A 
HETATM    9  C16 UNL     1       0.386  -3.470 -26.535  1.00  0.00     0.038 A 
HETATM   10  C17 UNL     1       0.789  -2.285 -27.105  1.00  0.00     0.090 A 
HETATM   11  O3  UNL     1       2.042  -2.042 -27.388  1.00  0.00    -0.304 OA
ENDROOT
BRANCH   1  12
HETATM   12  C1  UNL     1       3.924  -0.787 -28.198  1.00  0.00     0.279 C 
HETATM   13  O1  UNL     1       4.727  -1.602 -27.698  1.00  0.00    -0.265 OA
HETATM   14  N1  UNL     1       4.415   0.251 -29.004  1.00  0.00    -0.335 N 
ATOM     15  H1  UNL     1       3.699   0.866 -29.391  1.00  0.00     0.168 HD
BRANCH  14  16
HETATM   16  C2  UNL     1       5.737   0.584 -29.366  1.00  0.00     0.069 C 
BRANCH  16  17
HETATM   17  C3  UNL     1       6.180   1.961 -29.545  1.00  0.00     0.024 C 
HETATM   18  C4  UNL     1       6.924   2.592 -28.443  1.00  0.00     0.010 C 
HETATM   19  C5  UNL     1       7.632   3.879 -28.917  1.00  0.00     0.001 C 
HETATM   20  C6  UNL     1       6.839   4.557 -29.989  1.00  0.00     0.000 C 
HETATM   21  C7  UNL     1       5.350   4.289 -29.917  1.00  0.00     0.001 C 
HETATM   22  C8  UNL     1       5.012   2.821 -30.021  1.00  0.00     0.010 C 
ENDBRANCH  16  17
ENDBRANCH  14  16
ENDBRANCH   1  12
TORSDOF 3
ENDMDL
