MODEL 5
REMARK VINA RESULT: -7.607772033      2.370      6.069
REMARK  5 active torsions:
REMARK  status: ('A' for Active; 'I' for Inactive)
REMARK    1  A    between atoms: C3_6  and  C4_7 
REMARK    2  A    between atoms: C4_7  and  N3_8 
REMARK    3  A    between atoms: C6_10  and  O1_11 
REMARK    4  A    between atoms: C7_13  and  C8_14 
REMARK    5  A    between atoms: C8_14  and  O2_15 
ROOT
HETATM    1  N1  UNL     1      -6.319  28.526  16.192  1.00  0.00    -0.063 NA
HETATM    2  C1  UNL     1      -7.217  28.506  15.075  1.00  0.00     0.195 A 
HETATM    3  N2  UNL     1      -6.651  28.574  13.838  1.00  0.00    -0.328 N 
ATOM      4  H2  UNL     1      -5.636  28.602  13.745  1.00  0.00     0.168 HD
HETATM    5  C2  UNL     1      -7.431  28.603  12.734  1.00  0.00     0.076 A 
HETATM    6  C3  UNL     1      -7.076  28.793  11.393  1.00  0.00     0.015 A 
HETATM    7  C10 UNL     1      -8.284  28.861  10.729  1.00  0.00     0.099 A 
HETATM    8  N4  UNL     1      -9.308  28.715  11.634  1.00  0.00    -0.359 N 
ATOM      9  H4  UNL     1     -10.301  28.721  11.399  1.00  0.00     0.165 HD
HETATM   10  C11 UNL     1      -8.814  28.564  12.874  1.00  0.00     0.128 A 
HETATM   11  C12 UNL     1      -9.329  28.491  14.147  1.00  0.00     0.276 A 
HETATM   12  O3  UNL     1     -10.572  28.442  14.321  1.00  0.00    -0.266 OA
HETATM   13  N5  UNL     1      -8.531  28.462  15.234  1.00  0.00    -0.295 N 
ATOM     14  H5  UNL     1      -8.935  28.406  16.169  1.00  0.00     0.171 HD
ENDROOT
BRANCH   6  15
HETATM   15  C4  UNL     1      -5.682  28.819  10.905  1.00  0.00     0.315 C 
BRANCH  15  16
HETATM   16  N3  UNL     1      -5.305  30.186  10.925  1.00  0.00     0.095 N 
HETATM   17  C5  UNL     1      -5.769  30.818   9.671  1.00  0.00     0.304 C 
HETATM   18  C6  UNL     1      -5.203  32.205   9.823  1.00  0.00     0.154 C 
HETATM   19  C7  UNL     1      -4.772  32.327  11.262  1.00  0.00     0.068 C 
HETATM   20  C9  UNL     1      -5.616  31.145  11.885  1.00  0.00     0.282 C 
BRANCH  18  21
HETATM   21  O1  UNL     1      -4.082  32.332   8.972  1.00  0.00    -0.393 OA
ATOM     22  H1  UNL     1      -3.755  31.463   8.769  1.00  0.00     0.210 HD
ENDBRANCH  18  21
BRANCH  19  23
HETATM   23  C8  UNL     1      -5.245  33.621  11.902  1.00  0.00     0.173 C 
BRANCH  23  24
HETATM   24  O2  UNL     1      -4.230  34.408  12.459  1.00  0.00    -0.400 OA
ATOM     25  H2  UNL     1      -3.961  34.152  13.333  1.00  0.00     0.209 HD
ENDBRANCH  23  24
ENDBRANCH  19  23
ENDBRANCH  15  16
ENDBRANCH   6  15
TORSDOF 5
ENDMDL
