MODEL 6
REMARK VINA RESULT: -7.578429793      1.979      6.822
REMARK  5 active torsions:
REMARK  status: ('A' for Active; 'I' for Inactive)
REMARK    1  A    between atoms: C3_6  and  C4_7 
REMARK    2  A    between atoms: C4_7  and  N3_8 
REMARK    3  A    between atoms: C6_10  and  O1_11 
REMARK    4  A    between atoms: C7_13  and  C8_14 
REMARK    5  A    between atoms: C8_14  and  O2_15 
ROOT
HETATM    1  N1  UNL     1      -5.528  26.109  16.450  1.00  0.00    -0.063 NA
HETATM    2  C1  UNL     1      -6.384  27.154  15.969  1.00  0.00     0.195 A 
HETATM    3  N2  UNL     1      -5.921  27.882  14.915  1.00  0.00    -0.328 N 
ATOM      4  H2  UNL     1      -5.023  27.649  14.490  1.00  0.00     0.168 HD
HETATM    5  C2  UNL     1      -6.649  28.913  14.429  1.00  0.00     0.076 A 
HETATM    6  C3  UNL     1      -6.319  29.858  13.451  1.00  0.00     0.015 A 
HETATM    7  C10 UNL     1      -7.380  30.741  13.460  1.00  0.00     0.099 A 
HETATM    8  N4  UNL     1      -8.298  30.336  14.399  1.00  0.00    -0.359 N 
ATOM      9  H4  UNL     1      -9.177  30.814  14.599  1.00  0.00     0.165 HD
HETATM   10  C11 UNL     1      -7.872  29.221  15.015  1.00  0.00     0.128 A 
HETATM   11  C12 UNL     1      -8.290  28.449  16.073  1.00  0.00     0.276 A 
HETATM   12  O3  UNL     1      -9.392  28.684  16.626  1.00  0.00    -0.266 OA
HETATM   13  N5  UNL     1      -7.547  27.425  16.540  1.00  0.00    -0.295 N 
ATOM     14  H5  UNL     1      -7.878  26.864  17.325  1.00  0.00     0.171 HD
ENDROOT
BRANCH   6  15
HETATM   15  C4  UNL     1      -5.112  29.779  12.603  1.00  0.00     0.315 C 
BRANCH  15  16
HETATM   16  N3  UNL     1      -5.508  30.294  11.341  1.00  0.00     0.095 N 
HETATM   17  C5  UNL     1      -4.651  31.455  11.019  1.00  0.00     0.304 C 
HETATM   18  C6  UNL     1      -5.270  31.918   9.726  1.00  0.00     0.154 C 
HETATM   19  C7  UNL     1      -6.181  30.805   9.276  1.00  0.00     0.068 C 
HETATM   20  C9  UNL     1      -5.577  29.618  10.126  1.00  0.00     0.282 C 
BRANCH  18  21
HETATM   21  O1  UNL     1      -6.026  33.085   9.979  1.00  0.00    -0.393 OA
ATOM     22  H1  UNL     1      -6.793  32.846  10.488  1.00  0.00     0.210 HD
ENDBRANCH  18  21
BRANCH  19  23
HETATM   23  C8  UNL     1      -5.996  30.462   7.807  1.00  0.00     0.173 C 
BRANCH  23  24
HETATM   24  O2  UNL     1      -4.945  29.578   7.536  1.00  0.00    -0.400 OA
ATOM     25  H2  UNL     1      -4.357  29.856   6.844  1.00  0.00     0.209 HD
ENDBRANCH  23  24
ENDBRANCH  19  23
ENDBRANCH  15  16
ENDBRANCH   6  15
TORSDOF 5
ENDMDL
