MODEL 7
REMARK VINA RESULT: -7.474547056      2.069      2.683
REMARK  5 active torsions:
REMARK  status: ('A' for Active; 'I' for Inactive)
REMARK    1  A    between atoms: C3_6  and  C4_7 
REMARK    2  A    between atoms: C4_7  and  N3_8 
REMARK    3  A    between atoms: C6_10  and  O1_11 
REMARK    4  A    between atoms: C7_13  and  C8_14 
REMARK    5  A    between atoms: C8_14  and  O2_15 
ROOT
HETATM    1  N1  UNL     1      -5.039  35.190  12.728  1.00  0.00    -0.063 NA
HETATM    2  C1  UNL     1      -5.328  34.131  11.807  1.00  0.00     0.195 A 
HETATM    3  N2  UNL     1      -5.267  32.863  12.300  1.00  0.00    -0.328 N 
ATOM      4  H2  UNL     1      -5.058  32.710  13.287  1.00  0.00     0.168 HD
HETATM    5  C2  UNL     1      -5.484  31.806  11.485  1.00  0.00     0.076 A 
HETATM    6  C3  UNL     1      -5.353  30.436  11.744  1.00  0.00     0.015 A 
HETATM    7  C10 UNL     1      -5.574  29.837  10.520  1.00  0.00     0.099 A 
HETATM    8  N4  UNL     1      -5.825  30.807   9.580  1.00  0.00    -0.359 N 
ATOM      9  H4  UNL     1      -6.027  30.628   8.595  1.00  0.00     0.165 HD
HETATM   10  C11 UNL     1      -5.769  32.026  10.143  1.00  0.00     0.128 A 
HETATM   11  C12 UNL     1      -5.821  33.327   9.701  1.00  0.00     0.276 A 
HETATM   12  O3  UNL     1      -6.086  33.574   8.499  1.00  0.00    -0.266 OA
HETATM   13  N5  UNL     1      -5.602  34.366  10.533  1.00  0.00    -0.295 N 
ATOM     14  H5  UNL     1      -5.648  35.324  10.185  1.00  0.00     0.171 HD
ENDROOT
BRANCH   6  15
HETATM   15  C4  UNL     1      -5.112  29.870  13.086  1.00  0.00     0.315 C 
BRANCH  15  16
HETATM   16  N3  UNL     1      -6.365  29.349  13.503  1.00  0.00     0.095 N 
HETATM   17  C5  UNL     1      -6.206  28.772  14.855  1.00  0.00     0.304 C 
HETATM   18  C6  UNL     1      -7.578  28.193  15.082  1.00  0.00     0.154 C 
HETATM   19  C7  UNL     1      -8.461  28.774  14.008  1.00  0.00     0.068 C 
HETATM   20  C9  UNL     1      -7.580  30.021  13.596  1.00  0.00     0.282 C 
BRANCH  18  21
HETATM   21  O1  UNL     1      -7.505  26.790  14.937  1.00  0.00    -0.393 OA
ATOM     22  H1  UNL     1      -8.111  26.389  15.551  1.00  0.00     0.210 HD
ENDBRANCH  18  21
BRANCH  19  23
HETATM   23  C8  UNL     1      -9.776  29.299  14.559  1.00  0.00     0.173 C 
BRANCH  23  24
HETATM   24  O2  UNL     1     -10.097  30.605  14.173  1.00  0.00    -0.400 OA
ATOM     25  H2  UNL     1     -10.946  30.912  14.469  1.00  0.00     0.209 HD
ENDBRANCH  23  24
ENDBRANCH  19  23
ENDBRANCH  15  16
ENDBRANCH   6  15
TORSDOF 5
ENDMDL
