MODEL 4
REMARK VINA RESULT: -7.673085273      2.089      6.525
REMARK  5 active torsions:
REMARK  status: ('A' for Active; 'I' for Inactive)
REMARK    1  A    between atoms: C3_6  and  C4_7 
REMARK    2  A    between atoms: C4_7  and  N3_8 
REMARK    3  A    between atoms: C6_10  and  O1_11 
REMARK    4  A    between atoms: C7_13  and  C8_14 
REMARK    5  A    between atoms: C8_14  and  O2_15 
ROOT
HETATM    1  N1  UNL     1      -5.508  25.936  16.505  1.00  0.00    -0.063 NA
HETATM    2  C1  UNL     1      -6.522  26.913  16.238  1.00  0.00     0.195 A 
HETATM    3  N2  UNL     1      -6.472  27.525  15.022  1.00  0.00    -0.328 N 
ATOM      4  H2  UNL     1      -5.758  27.253  14.346  1.00  0.00     0.168 HD
HETATM    5  C2  UNL     1      -7.366  28.489  14.709  1.00  0.00     0.076 A 
HETATM    6  C3  UNL     1      -7.425  29.324  13.586  1.00  0.00     0.015 A 
HETATM    7  C10 UNL     1      -8.461  30.193  13.863  1.00  0.00     0.099 A 
HETATM    8  N4  UNL     1      -8.992  29.887  15.093  1.00  0.00    -0.359 N 
ATOM      9  H4  UNL     1      -9.774  30.376  15.529  1.00  0.00     0.165 HD
HETATM   10  C11 UNL     1      -8.335  28.850  15.638  1.00  0.00     0.128 A 
HETATM   11  C12 UNL     1      -8.340  28.197  16.848  1.00  0.00     0.276 A 
HETATM   12  O3  UNL     1      -9.203  28.482  17.714  1.00  0.00    -0.266 OA
HETATM   13  N5  UNL     1      -7.438  27.236  17.138  1.00  0.00    -0.295 N 
ATOM     14  H5  UNL     1      -7.461  26.763  18.041  1.00  0.00     0.171 HD
ENDROOT
BRANCH   6  15
HETATM   15  C4  UNL     1      -6.569  29.162  12.393  1.00  0.00     0.315 C 
BRANCH  15  16
HETATM   16  N3  UNL     1      -5.929  30.416  12.220  1.00  0.00     0.095 N 
HETATM   17  C5  UNL     1      -6.052  30.813  10.801  1.00  0.00     0.304 C 
HETATM   18  C6  UNL     1      -5.247  32.085  10.788  1.00  0.00     0.154 C 
HETATM   19  C7  UNL     1      -5.030  32.459  12.232  1.00  0.00     0.068 C 
HETATM   20  C9  UNL     1      -6.185  31.606  12.895  1.00  0.00     0.282 C 
BRANCH  18  21
HETATM   21  O1  UNL     1      -4.004  31.827  10.167  1.00  0.00    -0.393 OA
ATOM     22  H1  UNL     1      -3.621  32.655   9.899  1.00  0.00     0.210 HD
ENDBRANCH  18  21
BRANCH  19  23
HETATM   23  C8  UNL     1      -5.324  33.925  12.503  1.00  0.00     0.173 C 
BRANCH  23  24
HETATM   24  O2  UNL     1      -4.199  34.756  12.530  1.00  0.00    -0.400 OA
ATOM     25  H2  UNL     1      -4.256  35.486  13.134  1.00  0.00     0.209 HD
ENDBRANCH  23  24
ENDBRANCH  19  23
ENDBRANCH  15  16
ENDBRANCH   6  15
TORSDOF 5
ENDMDL
