MODEL 6
REMARK VINA RESULT: -8.054089132      3.488      6.654
REMARK  10 active torsions:
REMARK  status: ('A' for Active; 'I' for Inactive)
REMARK    1  A    between atoms: N4_10  and  C5_11 
REMARK    2  A    between atoms: C5_11  and  C6_12 
REMARK    3  A    between atoms: C6_12  and  N5_13 
REMARK    4  A    between atoms: N5_13  and  C7_14 
REMARK    5  A    between atoms: N5_13  and  C9_20 
REMARK    6  A    between atoms: C8_15  and  P1_16 
REMARK    7  A    between atoms: C9_20  and  C10_21 
REMARK    8  A    between atoms: C10_21  and  O4_22 
REMARK    9  A    between atoms: O4_22  and  C11_23 
REMARK   10  A    between atoms: C11_23  and  P2_24 
ROOT
HETATM    1  C6  UNL     1      -8.316 -25.211 -91.161  1.00  0.00     0.147 C 
ENDROOT
BRANCH   1   2
HETATM    2  C5  UNL     1      -9.150 -24.730 -90.017  1.00  0.00     0.151 C 
BRANCH   2   3
HETATM    3  N4  UNL     1      -8.579 -24.893 -88.721  1.00  0.00    -0.326 N 
HETATM    4  C2  UNL     1      -8.640 -26.057 -88.012  1.00  0.00     0.143 A 
HETATM    5  N2  UNL     1      -9.176 -27.263 -88.309  1.00  0.00    -0.314 N 
HETATM    6  C3  UNL     1      -8.025 -25.907 -86.787  1.00  0.00     0.146 A 
HETATM    7  C1  UNL     1      -9.105 -28.278 -87.428  1.00  0.00     0.196 A 
ATOM      8  H2  UNL     1      -9.639 -27.404 -89.208  1.00  0.00     0.170 HD
HETATM    9  N1  UNL     1      -9.667 -29.564 -87.736  1.00  0.00    -0.063 NA
HETATM   10  N6  UNL     1      -8.496 -28.129 -86.215  1.00  0.00    -0.295 N 
HETATM   11  C12 UNL     1      -7.952 -26.951 -85.882  1.00  0.00     0.278 A 
ATOM     12  H6  UNL     1      -8.455 -28.914 -85.564  1.00  0.00     0.171 HD
HETATM   13  O8  UNL     1      -7.392 -26.808 -84.772  1.00  0.00    -0.265 OA
HETATM   14  N3  UNL     1      -7.592 -24.654 -86.757  1.00  0.00    -0.345 N 
HETATM   15  C4  UNL     1      -7.935 -24.048 -87.936  1.00  0.00     0.185 A 
ATOM     16  H3  UNL     1      -7.089 -24.216 -85.986  1.00  0.00     0.167 HD
ENDBRANCH   2   3
ENDBRANCH   1   2
BRANCH   1  17
HETATM   17  N5  UNL     1      -7.582 -24.255 -91.927  1.00  0.00    -0.366 N 
BRANCH  17  18
HETATM   18  C7  UNL     1      -6.455 -23.655 -91.256  1.00  0.00     0.100 C 
HETATM   19  C8  UNL     1      -6.443 -22.394 -90.868  1.00  0.00     0.132 C 
BRANCH  19  20
HETATM   20  P1  UNL     1      -5.002 -21.699 -90.031  1.00  0.00     0.286 P 
HETATM   21  O1  UNL     1      -3.832 -22.661 -90.085  1.00  0.00    -0.636 OA
HETATM   22  O2  UNL     1      -5.453 -21.362 -88.428  1.00  0.00    -0.636 OA
HETATM   23  O3  UNL     1      -4.546 -20.244 -90.749  1.00  0.00    -0.636 OA
ENDBRANCH  19  20
ENDBRANCH  17  18
BRANCH  17  24
HETATM   24  C9  UNL     1      -7.906 -23.883 -93.253  1.00  0.00     0.089 C 
BRANCH  24  25
HETATM   25  C10 UNL     1      -8.915 -24.602 -94.039  1.00  0.00     0.213 C 
BRANCH  25  26
HETATM   26  O4  UNL     1      -8.666 -24.725 -95.398  1.00  0.00    -0.373 OA
BRANCH  26  27
HETATM   27  C11 UNL     1      -7.367 -24.504 -95.759  1.00  0.00     0.313 C 
BRANCH  27  28
HETATM   28  P2  UNL     1      -7.034 -24.415 -97.511  1.00  0.00     0.283 P 
HETATM   29  O5  UNL     1      -5.627 -24.052 -97.867  1.00  0.00    -0.638 OA
HETATM   30  O6  UNL     1      -8.127 -23.329 -98.263  1.00  0.00    -0.638 OA
HETATM   31  O7  UNL     1      -7.337 -25.918 -98.281  1.00  0.00    -0.638 OA
ENDBRANCH  27  28
ENDBRANCH  26  27
ENDBRANCH  25  26
ENDBRANCH  24  25
ENDBRANCH  17  24
ENDBRANCH   1  17
TORSDOF 10
ENDMDL
