MODEL 5
REMARK VINA RESULT: -8.121638987      3.938      7.500
REMARK  10 active torsions:
REMARK  status: ('A' for Active; 'I' for Inactive)
REMARK    1  A    between atoms: N4_10  and  C5_11 
REMARK    2  A    between atoms: C5_11  and  C6_12 
REMARK    3  A    between atoms: C6_12  and  N5_13 
REMARK    4  A    between atoms: N5_13  and  C7_14 
REMARK    5  A    between atoms: N5_13  and  C9_20 
REMARK    6  A    between atoms: C8_15  and  P1_16 
REMARK    7  A    between atoms: C9_20  and  C10_21 
REMARK    8  A    between atoms: C10_21  and  O4_22 
REMARK    9  A    between atoms: O4_22  and  C11_23 
REMARK   10  A    between atoms: C11_23  and  P2_24 
ROOT
HETATM    1  C6  UNL     1      -8.123 -25.654 -91.729  1.00  0.00     0.147 C 
ENDROOT
BRANCH   1   2
HETATM    2  C5  UNL     1      -7.270 -25.343 -92.917  1.00  0.00     0.151 C 
BRANCH   2   3
HETATM    3  N4  UNL     1      -7.939 -24.736 -94.020  1.00  0.00    -0.326 N 
HETATM    4  C2  UNL     1      -7.465 -24.768 -95.299  1.00  0.00     0.143 A 
HETATM    5  N2  UNL     1      -6.362 -25.342 -95.834  1.00  0.00    -0.314 N 
HETATM    6  C3  UNL     1      -8.308 -24.078 -96.142  1.00  0.00     0.146 A 
HETATM    7  C1  UNL     1      -6.108 -25.235 -97.151  1.00  0.00     0.196 A 
ATOM      8  H2  UNL     1      -5.719 -25.859 -95.234  1.00  0.00     0.170 HD
HETATM    9  N1  UNL     1      -4.943 -25.844 -97.730  1.00  0.00    -0.063 NA
HETATM   10  N6  UNL     1      -6.944 -24.551 -97.987  1.00  0.00    -0.295 N 
HETATM   11  C12 UNL     1      -8.046 -23.968 -97.497  1.00  0.00     0.278 A 
ATOM     12  H6  UNL     1      -6.729 -24.483 -98.982  1.00  0.00     0.171 HD
HETATM   13  O8  UNL     1      -8.817 -23.340 -98.256  1.00  0.00    -0.265 OA
HETATM   14  N3  UNL     1      -9.291 -23.629 -95.374  1.00  0.00    -0.345 N 
HETATM   15  C4  UNL     1      -9.056 -24.033 -94.087  1.00  0.00     0.185 A 
ATOM     16  H3  UNL     1     -10.089 -23.076 -95.688  1.00  0.00     0.167 HD
ENDBRANCH   2   3
ENDBRANCH   1   2
BRANCH   1  17
HETATM   17  N5  UNL     1      -8.168 -24.720 -90.651  1.00  0.00    -0.366 N 
BRANCH  17  18
HETATM   18  C7  UNL     1      -7.069 -23.788 -90.590  1.00  0.00     0.100 C 
HETATM   19  C8  UNL     1      -6.662 -23.235 -89.464  1.00  0.00     0.132 C 
BRANCH  19  20
HETATM   20  P1  UNL     1      -5.278 -22.075 -89.451  1.00  0.00     0.286 P 
HETATM   21  O1  UNL     1      -5.224 -21.315 -88.142  1.00  0.00    -0.636 OA
HETATM   22  O2  UNL     1      -5.479 -21.022 -90.770  1.00  0.00    -0.636 OA
HETATM   23  O3  UNL     1      -3.820 -22.891 -89.670  1.00  0.00    -0.636 OA
ENDBRANCH  19  20
ENDBRANCH  17  18
BRANCH  17  24
HETATM   24  C9  UNL     1      -9.194 -24.679 -89.678  1.00  0.00     0.089 C 
BRANCH  24  25
HETATM   25  C10 UNL     1      -9.927 -25.882 -89.268  1.00  0.00     0.213 C 
BRANCH  25  26
HETATM   26  O4  UNL     1      -9.820 -26.247 -87.934  1.00  0.00    -0.373 OA
BRANCH  26  27
HETATM   27  C11 UNL     1      -8.749 -27.047 -87.650  1.00  0.00     0.313 C 
BRANCH  27  28
HETATM   28  P2  UNL     1      -7.568 -26.403 -86.475  1.00  0.00     0.283 P 
HETATM   29  O5  UNL     1      -7.569 -27.086 -85.143  1.00  0.00    -0.638 OA
HETATM   30  O6  UNL     1      -7.802 -24.718 -86.268  1.00  0.00    -0.638 OA
HETATM   31  O7  UNL     1      -5.963 -26.537 -87.066  1.00  0.00    -0.638 OA
ENDBRANCH  27  28
ENDBRANCH  26  27
ENDBRANCH  25  26
ENDBRANCH  24  25
ENDBRANCH  17  24
ENDBRANCH   1  17
TORSDOF 10
ENDMDL
