MODEL 1
REMARK VINA RESULT: -8.874499965      0.000      0.000
REMARK  10 active torsions:
REMARK  status: ('A' for Active; 'I' for Inactive)
REMARK    1  A    between atoms: N4_10  and  C5_11 
REMARK    2  A    between atoms: C5_11  and  C6_12 
REMARK    3  A    between atoms: C6_12  and  N5_13 
REMARK    4  A    between atoms: N5_13  and  C7_14 
REMARK    5  A    between atoms: N5_13  and  C9_20 
REMARK    6  A    between atoms: C8_15  and  P1_16 
REMARK    7  A    between atoms: C9_20  and  C10_21 
REMARK    8  A    between atoms: C10_21  and  O4_22 
REMARK    9  A    between atoms: O4_22  and  C11_23 
REMARK   10  A    between atoms: C11_23  and  P2_24 
ROOT
HETATM    1  C6  UNL     1      -6.874 -23.197 -91.812  1.00  0.00     0.147 C 
ENDROOT
BRANCH   1   2
HETATM    2  C5  UNL     1      -5.770 -23.256 -92.819  1.00  0.00     0.151 C 
BRANCH   2   3
HETATM    3  N4  UNL     1      -5.147 -22.013 -93.131  1.00  0.00    -0.326 N 
HETATM    4  C2  UNL     1      -4.701 -21.135 -92.185  1.00  0.00     0.143 A 
HETATM    5  N2  UNL     1      -4.699 -21.196 -90.834  1.00  0.00    -0.314 N 
HETATM    6  C3  UNL     1      -4.169 -20.013 -92.783  1.00  0.00     0.146 A 
HETATM    7  C1  UNL     1      -4.189 -20.185 -90.106  1.00  0.00     0.196 A 
ATOM      8  H2  UNL     1      -5.087 -22.013 -90.363  1.00  0.00     0.170 HD
HETATM    9  N1  UNL     1      -4.178 -20.241 -88.670  1.00  0.00    -0.063 NA
HETATM   10  N6  UNL     1      -3.662 -19.073 -90.699  1.00  0.00    -0.295 N 
HETATM   11  C12 UNL     1      -3.645 -18.974 -92.034  1.00  0.00     0.278 A 
ATOM     12  H6  UNL     1      -3.283 -18.319 -90.125  1.00  0.00     0.171 HD
HETATM   13  O8  UNL     1      -3.164 -17.959 -92.584  1.00  0.00    -0.265 OA
HETATM   14  N3  UNL     1      -4.292 -20.213 -94.088  1.00  0.00    -0.345 N 
HETATM   15  C4  UNL     1      -4.888 -21.429 -94.288  1.00  0.00     0.185 A 
ATOM     16  H3  UNL     1      -3.994 -19.568 -94.821  1.00  0.00     0.167 HD
ENDBRANCH   2   3
ENDBRANCH   1   2
BRANCH   1  17
HETATM   17  N5  UNL     1      -8.058 -23.960 -92.043  1.00  0.00    -0.366 N 
BRANCH  17  18
HETATM   18  C7  UNL     1      -8.550 -24.702 -90.908  1.00  0.00     0.100 C 
HETATM   19  C8  UNL     1      -8.084 -24.533 -89.686  1.00  0.00     0.132 C 
BRANCH  19  20
HETATM   20  P1  UNL     1      -8.742 -25.492 -88.305  1.00  0.00     0.286 P 
HETATM   21  O1  UNL     1     -10.222 -25.757 -88.490  1.00  0.00    -0.636 OA
HETATM   22  O2  UNL     1      -8.445 -24.612 -86.882  1.00  0.00    -0.636 OA
HETATM   23  O3  UNL     1      -7.935 -26.965 -88.170  1.00  0.00    -0.636 OA
ENDBRANCH  19  20
ENDBRANCH  17  18
BRANCH  17  24
HETATM   24  C9  UNL     1      -8.732 -24.023 -93.285  1.00  0.00     0.089 C 
BRANCH  24  25
HETATM   25  C10 UNL     1      -8.742 -25.240 -94.105  1.00  0.00     0.213 C 
BRANCH  25  26
HETATM   26  O4  UNL     1      -7.835 -25.288 -95.152  1.00  0.00    -0.373 OA
BRANCH  26  27
HETATM   27  C11 UNL     1      -7.769 -24.144 -95.897  1.00  0.00     0.313 C 
BRANCH  27  28
HETATM   28  P2  UNL     1      -7.194 -24.324 -97.578  1.00  0.00     0.283 P 
HETATM   29  O5  UNL     1      -7.907 -23.473 -98.581  1.00  0.00    -0.638 OA
HETATM   30  O6  UNL     1      -7.267 -25.970 -98.052  1.00  0.00    -0.638 OA
HETATM   31  O7  UNL     1      -5.533 -23.918 -97.717  1.00  0.00    -0.638 OA
ENDBRANCH  27  28
ENDBRANCH  26  27
ENDBRANCH  25  26
ENDBRANCH  24  25
ENDBRANCH  17  24
ENDBRANCH   1  17
TORSDOF 10
ENDMDL
