MODEL 3
REMARK VINA RESULT: -8.594125411      1.234      5.776
REMARK  10 active torsions:
REMARK  status: ('A' for Active; 'I' for Inactive)
REMARK    1  A    between atoms: N4_10  and  C5_11 
REMARK    2  A    between atoms: C5_11  and  C6_12 
REMARK    3  A    between atoms: C6_12  and  N5_13 
REMARK    4  A    between atoms: N5_13  and  C7_14 
REMARK    5  A    between atoms: N5_13  and  C9_20 
REMARK    6  A    between atoms: C8_15  and  P1_16 
REMARK    7  A    between atoms: C9_20  and  C10_21 
REMARK    8  A    between atoms: C10_21  and  O4_22 
REMARK    9  A    between atoms: O4_22  and  C11_23 
REMARK   10  A    between atoms: C11_23  and  P2_24 
ROOT
HETATM    1  C6  UNL     1      -6.797 -23.528 -92.670  1.00  0.00     0.147 C 
ENDROOT
BRANCH   1   2
HETATM    2  C5  UNL     1      -5.325 -23.446 -92.916  1.00  0.00     0.151 C 
BRANCH   2   3
HETATM    3  N4  UNL     1      -4.812 -22.144 -93.187  1.00  0.00    -0.326 N 
HETATM    4  C2  UNL     1      -4.502 -21.239 -92.215  1.00  0.00     0.143 A 
HETATM    5  N2  UNL     1      -4.561 -21.314 -90.866  1.00  0.00    -0.314 N 
HETATM    6  C3  UNL     1      -4.054 -20.063 -92.778  1.00  0.00     0.146 A 
HETATM    7  C1  UNL     1      -4.189 -20.267 -90.107  1.00  0.00     0.196 A 
ATOM      8  H2  UNL     1      -4.889 -22.171 -90.421  1.00  0.00     0.170 HD
HETATM    9  N1  UNL     1      -4.244 -20.338 -88.672  1.00  0.00    -0.063 NA
HETATM   10  N6  UNL     1      -3.746 -19.102 -90.665  1.00  0.00    -0.295 N 
HETATM   11  C12 UNL     1      -3.673 -18.986 -91.997  1.00  0.00     0.278 A 
ATOM     12  H6  UNL     1      -3.471 -18.321 -90.068  1.00  0.00     0.171 HD
HETATM   13  O8  UNL     1      -3.267 -17.922 -92.515  1.00  0.00    -0.265 OA
HETATM   14  N3  UNL     1      -4.093 -20.258 -94.089  1.00  0.00    -0.345 N 
HETATM   15  C4  UNL     1      -4.556 -21.525 -94.326  1.00  0.00     0.185 A 
ATOM     16  H3  UNL     1      -3.823 -19.579 -94.801  1.00  0.00     0.167 HD
ENDBRANCH   2   3
ENDBRANCH   1   2
BRANCH   1  17
HETATM   17  N5  UNL     1      -7.611 -24.242 -93.601  1.00  0.00    -0.366 N 
BRANCH  17  18
HETATM   18  C7  UNL     1      -7.321 -24.000 -94.993  1.00  0.00     0.100 C 
HETATM   19  C8  UNL     1      -7.883 -24.684 -95.971  1.00  0.00     0.132 C 
BRANCH  19  20
HETATM   20  P1  UNL     1      -7.480 -24.334 -97.695  1.00  0.00     0.286 P 
HETATM   21  O1  UNL     1      -6.059 -23.822 -97.822  1.00  0.00    -0.636 OA
HETATM   22  O2  UNL     1      -8.602 -23.192 -98.263  1.00  0.00    -0.636 OA
HETATM   23  O3  UNL     1      -7.647 -25.722 -98.636  1.00  0.00    -0.636 OA
ENDBRANCH  19  20
ENDBRANCH  17  18
BRANCH  17  24
HETATM   24  C9  UNL     1      -8.650 -25.128 -93.232  1.00  0.00     0.089 C 
BRANCH  24  25
HETATM   25  C10 UNL     1      -8.379 -26.453 -92.664  1.00  0.00     0.213 C 
BRANCH  25  26
HETATM   26  O4  UNL     1      -8.059 -26.494 -91.315  1.00  0.00    -0.373 OA
BRANCH  26  27
HETATM   27  C11 UNL     1      -9.120 -26.732 -90.489  1.00  0.00     0.313 C 
BRANCH  27  28
HETATM   28  P2  UNL     1      -9.520 -25.443 -89.319  1.00  0.00     0.283 P 
HETATM   29  O5  UNL     1      -8.575 -24.284 -89.313  1.00  0.00    -0.638 OA
HETATM   30  O6  UNL     1      -9.649 -26.101 -87.741  1.00  0.00    -0.638 OA
HETATM   31  O7  UNL     1     -11.071 -24.779 -89.628  1.00  0.00    -0.638 OA
ENDBRANCH  27  28
ENDBRANCH  26  27
ENDBRANCH  25  26
ENDBRANCH  24  25
ENDBRANCH  17  24
ENDBRANCH   1  17
TORSDOF 10
ENDMDL
