MODEL 3
REMARK VINA RESULT: -7.573563754      2.680      7.455
REMARK  7 active torsions:
REMARK  status: ('A' for Active; 'I' for Inactive)
REMARK    1  A    between atoms: C1_2  and  C2_4 
REMARK    2  A    between atoms: C3_6  and  O4_7 
REMARK    3  A    between atoms: O4_7  and  C4_8 
REMARK    4  A    between atoms: C7_11  and  N1_12 
REMARK    5  A    between atoms: C10_17  and  O7_18 
REMARK    6  A    between atoms: C11_20  and  O8_21 
REMARK    7  A    between atoms: C12_23  and  O9_24 
ROOT
HETATM    1  C2  UNL     1      22.353  18.008  11.292  1.00  0.00     0.256 C 
HETATM    2  O3  UNL     1      21.833  16.913  11.933  1.00  0.00    -0.340 OA
HETATM    3  C3  UNL     1      22.690  16.662  13.042  1.00  0.00     0.298 C 
HETATM    4  C10 UNL     1      24.035  16.152  12.547  1.00  0.00     0.205 C 
HETATM    5  C11 UNL     1      24.616  17.200  11.599  1.00  0.00     0.183 C 
HETATM    6  C12 UNL     1      23.592  17.530  10.532  1.00  0.00     0.189 C 
ENDROOT
BRANCH   3   7
HETATM    7  O4  UNL     1      22.145  15.780  13.936  1.00  0.00    -0.318 OA
BRANCH   7   8
HETATM    8  C4  UNL     1      21.915  15.991  15.261  1.00  0.00     0.072 A 
HETATM    9  C5  UNL     1      21.154  15.131  15.999  1.00  0.00     0.039 A 
HETATM   10  C6  UNL     1      20.955  15.395  17.341  1.00  0.00     0.039 A 
HETATM   11  C7  UNL     1      21.488  16.483  17.960  1.00  0.00     0.103 A 
HETATM   12  C8  UNL     1      22.248  17.338  17.217  1.00  0.00     0.039 A 
HETATM   13  C9  UNL     1      22.468  17.110  15.883  1.00  0.00     0.039 A 
BRANCH  11  14
HETATM   14  N1  UNL     1      21.262  16.729  19.361  1.00  0.00    -0.116 N 
HETATM   15  O5  UNL     1      22.184  16.572  20.164  1.00  0.00    -0.532 OA
HETATM   16  O6  UNL     1      20.030  17.131  19.778  1.00  0.00    -0.532 OA
ENDBRANCH  11  14
ENDBRANCH   7   8
ENDBRANCH   3   7
BRANCH   4  17
HETATM   17  O7  UNL     1      24.881  16.145  13.667  1.00  0.00    -0.388 OA
ATOM     18  H7  UNL     1      24.394  15.713  14.359  1.00  0.00     0.210 HD
ENDBRANCH   4  17
BRANCH   1  19
HETATM   19  C1  UNL     1      21.418  18.723  10.435  1.00  0.00     0.206 C 
HETATM   20  O1  UNL     1      20.667  19.603  10.917  1.00  0.00    -0.646 OA
HETATM   21  O2  UNL     1      21.348  18.445   9.096  1.00  0.00    -0.646 OA
ENDBRANCH   1  19
BRANCH   5  22
HETATM   22  O8  UNL     1      25.817  16.785  11.068  1.00  0.00    -0.390 OA
ATOM     23  H8  UNL     1      25.692  16.330  10.244  1.00  0.00     0.210 HD
ENDBRANCH   5  22
BRANCH   6  24
HETATM   24  O9  UNL     1      24.088  18.502   9.690  1.00  0.00    -0.390 OA
ATOM     25  H9  UNL     1      24.774  18.167   9.125  1.00  0.00     0.210 HD
ENDBRANCH   6  24
TORSDOF 7
ENDMDL
