MODEL 15
REMARK VINA RESULT: -6.110350415      1.807      2.312
REMARK  7 active torsions:
REMARK  status: ('A' for Active; 'I' for Inactive)
REMARK    1  A    between atoms: C1_2  and  C2_4 
REMARK    2  A    between atoms: C3_6  and  O4_7 
REMARK    3  A    between atoms: O4_7  and  C4_8 
REMARK    4  A    between atoms: C7_11  and  N1_12 
REMARK    5  A    between atoms: C10_17  and  O7_18 
REMARK    6  A    between atoms: C11_20  and  O8_21 
REMARK    7  A    between atoms: C12_23  and  O9_24 
ROOT
HETATM    1  C2  UNL     1      22.003  16.606  18.154  1.00  0.00     0.256 C 
HETATM    2  O3  UNL     1      22.439  17.098  16.950  1.00  0.00    -0.340 OA
HETATM    3  C3  UNL     1      21.287  17.181  16.118  1.00  0.00     0.298 C 
HETATM    4  C10 UNL     1      20.813  15.782  15.756  1.00  0.00     0.205 C 
HETATM    5  C11 UNL     1      20.529  15.030  17.055  1.00  0.00     0.183 C 
HETATM    6  C12 UNL     1      21.744  15.111  17.955  1.00  0.00     0.189 C 
ENDROOT
BRANCH   3   7
HETATM    7  O4  UNL     1      21.511  17.918  14.986  1.00  0.00    -0.318 OA
BRANCH   7   8
HETATM    8  C4  UNL     1      22.421  17.663  14.007  1.00  0.00     0.072 A 
HETATM    9  C5  UNL     1      23.759  17.603  14.274  1.00  0.00     0.039 A 
HETATM   10  C6  UNL     1      24.638  17.340  13.240  1.00  0.00     0.039 A 
HETATM   11  C7  UNL     1      24.222  17.137  11.961  1.00  0.00     0.103 A 
HETATM   12  C8  UNL     1      22.885  17.197  11.700  1.00  0.00     0.039 A 
HETATM   13  C9  UNL     1      21.982  17.456  12.699  1.00  0.00     0.039 A 
BRANCH  11  14
HETATM   14  N1  UNL     1      25.164  16.864  10.906  1.00  0.00    -0.116 N 
HETATM   15  O5  UNL     1      26.165  16.185  11.143  1.00  0.00    -0.532 OA
HETATM   16  O6  UNL     1      24.935  17.363   9.660  1.00  0.00    -0.532 OA
ENDBRANCH  11  14
ENDBRANCH   7   8
ENDBRANCH   3   7
BRANCH   4  17
HETATM   17  O7  UNL     1      19.566  15.946  15.133  1.00  0.00    -0.388 OA
ATOM     18  H7  UNL     1      19.386  15.126  14.689  1.00  0.00     0.210 HD
ENDBRANCH   4  17
BRANCH   1  19
HETATM   19  C1  UNL     1      22.882  16.872  19.284  1.00  0.00     0.206 C 
HETATM   20  O1  UNL     1      24.043  17.301  19.093  1.00  0.00    -0.646 OA
HETATM   21  O2  UNL     1      22.451  16.656  20.566  1.00  0.00    -0.646 OA
ENDBRANCH   1  19
BRANCH   5  22
HETATM   22  O8  UNL     1      20.140  13.732  16.808  1.00  0.00    -0.390 OA
ATOM     23  H8  UNL     1      20.503  13.134  17.451  1.00  0.00     0.210 HD
ENDBRANCH   5  22
BRANCH   6  24
HETATM   24  O9  UNL     1      21.490  14.468  19.147  1.00  0.00    -0.390 OA
ATOM     25  H9  UNL     1      21.020  13.652  19.018  1.00  0.00     0.210 HD
ENDBRANCH   6  24
TORSDOF 7
ENDMDL
