MODEL 4
REMARK VINA RESULT: -7.548957866      2.695      7.514
REMARK  7 active torsions:
REMARK  status: ('A' for Active; 'I' for Inactive)
REMARK    1  A    between atoms: C1_2  and  C2_4 
REMARK    2  A    between atoms: C3_6  and  O4_7 
REMARK    3  A    between atoms: O4_7  and  C4_8 
REMARK    4  A    between atoms: C7_11  and  N1_12 
REMARK    5  A    between atoms: C10_17  and  O7_18 
REMARK    6  A    between atoms: C11_20  and  O8_21 
REMARK    7  A    between atoms: C12_23  and  O9_24 
ROOT
HETATM    1  C2  UNL     1      22.365  18.014  11.284  1.00  0.00     0.256 C 
HETATM    2  O3  UNL     1      21.845  16.933  11.950  1.00  0.00    -0.340 OA
HETATM    3  C3  UNL     1      22.709  16.699  13.056  1.00  0.00     0.298 C 
HETATM    4  C10 UNL     1      24.048  16.174  12.560  1.00  0.00     0.205 C 
HETATM    5  C11 UNL     1      24.626  17.202  11.589  1.00  0.00     0.183 C 
HETATM    6  C12 UNL     1      23.596  17.517  10.525  1.00  0.00     0.189 C 
ENDROOT
BRANCH   3   7
HETATM    7  O4  UNL     1      22.167  15.835  13.970  1.00  0.00    -0.318 OA
BRANCH   7   8
HETATM    8  C4  UNL     1      21.953  16.069  15.294  1.00  0.00     0.072 A 
HETATM    9  C5  UNL     1      22.475  17.165  15.918  1.00  0.00     0.039 A 
HETATM   10  C6  UNL     1      22.225  17.352  17.265  1.00  0.00     0.039 A 
HETATM   11  C7  UNL     1      21.476  16.483  17.997  1.00  0.00     0.103 A 
HETATM   12  C8  UNL     1      20.957  15.391  17.367  1.00  0.00     0.039 A 
HETATM   13  C9  UNL     1      21.183  15.171  16.033  1.00  0.00     0.039 A 
BRANCH  11  14
HETATM   14  N1  UNL     1      21.234  16.708  19.399  1.00  0.00    -0.116 N 
HETATM   15  O5  UNL     1      22.141  16.519  20.212  1.00  0.00    -0.532 OA
HETATM   16  O6  UNL     1      20.004  17.125  19.806  1.00  0.00    -0.532 OA
ENDBRANCH  11  14
ENDBRANCH   7   8
ENDBRANCH   3   7
BRANCH   4  17
HETATM   17  O7  UNL     1      24.903  16.183  13.674  1.00  0.00    -0.388 OA
ATOM     18  H7  UNL     1      25.728  16.538  13.367  1.00  0.00     0.210 HD
ENDBRANCH   4  17
BRANCH   1  19
HETATM   19  C1  UNL     1      21.426  18.717  10.422  1.00  0.00     0.206 C 
HETATM   20  O1  UNL     1      20.669  19.596  10.897  1.00  0.00    -0.646 OA
HETATM   21  O2  UNL     1      21.359  18.429   9.085  1.00  0.00    -0.646 OA
ENDBRANCH   1  19
BRANCH   5  22
HETATM   22  O8  UNL     1      25.821  16.773  11.057  1.00  0.00    -0.390 OA
ATOM     23  H8  UNL     1      26.242  17.460  10.554  1.00  0.00     0.210 HD
ENDBRANCH   5  22
BRANCH   6  24
HETATM   24  O9  UNL     1      24.089  18.472   9.662  1.00  0.00    -0.390 OA
ATOM     25  H9  UNL     1      23.698  19.325   9.813  1.00  0.00     0.210 HD
ENDBRANCH   6  24
TORSDOF 7
ENDMDL
