MODEL 1
REMARK VINA RESULT: -8.507745314      0.000      0.000
REMARK  7 active torsions:
REMARK  status: ('A' for Active; 'I' for Inactive)
REMARK    1  A    between atoms: C1_2  and  C2_4 
REMARK    2  A    between atoms: C3_6  and  O4_7 
REMARK    3  A    between atoms: O4_7  and  C4_8 
REMARK    4  A    between atoms: C7_11  and  N1_12 
REMARK    5  A    between atoms: C10_17  and  O7_18 
REMARK    6  A    between atoms: C11_20  and  O8_21 
REMARK    7  A    between atoms: C12_23  and  O9_24 
ROOT
HETATM    1  C2  UNL     1      22.675  16.360  17.501  1.00  0.00     0.256 C 
HETATM    2  O3  UNL     1      22.876  15.613  16.368  1.00  0.00    -0.340 OA
HETATM    3  C3  UNL     1      21.691  15.747  15.592  1.00  0.00     0.298 C 
HETATM    4  C10 UNL     1      20.545  15.015  16.275  1.00  0.00     0.205 C 
HETATM    5  C11 UNL     1      20.382  15.600  17.677  1.00  0.00     0.183 C 
HETATM    6  C12 UNL     1      21.717  15.566  18.391  1.00  0.00     0.189 C 
ENDROOT
BRANCH   3   7
HETATM    7  O4  UNL     1      21.850  15.293  14.310  1.00  0.00    -0.318 OA
BRANCH   7   8
HETATM    8  C4  UNL     1      21.972  16.045  13.182  1.00  0.00     0.072 A 
HETATM    9  C5  UNL     1      20.888  16.368  12.418  1.00  0.00     0.039 A 
HETATM   10  C6  UNL     1      21.072  17.135  11.283  1.00  0.00     0.039 A 
HETATM   11  C7  UNL     1      22.297  17.583  10.894  1.00  0.00     0.103 A 
HETATM   12  C8  UNL     1      23.376  17.258  11.662  1.00  0.00     0.039 A 
HETATM   13  C9  UNL     1      23.233  16.499  12.795  1.00  0.00     0.039 A 
BRANCH  11  14
HETATM   14  N1  UNL     1      22.454  18.382   9.705  1.00  0.00    -0.116 N 
HETATM   15  O5  UNL     1      23.586  18.632   9.285  1.00  0.00    -0.532 OA
HETATM   16  O6  UNL     1      21.349  18.848   9.063  1.00  0.00    -0.532 OA
ENDBRANCH  11  14
ENDBRANCH   7   8
ENDBRANCH   3   7
BRANCH   4  17
HETATM   17  O7  UNL     1      19.383  15.379  15.576  1.00  0.00    -0.388 OA
ATOM     18  H7  UNL     1      19.659  15.548  14.683  1.00  0.00     0.210 HD
ENDBRANCH   4  17
BRANCH   1  19
HETATM   19  C1  UNL     1      23.888  16.755  18.203  1.00  0.00     0.206 C 
HETATM   20  O1  UNL     1      25.000  16.304  17.844  1.00  0.00    -0.646 OA
HETATM   21  O2  UNL     1      23.828  17.621  19.262  1.00  0.00    -0.646 OA
ENDBRANCH   1  19
BRANCH   5  22
HETATM   22  O8  UNL     1      19.391  14.952  18.379  1.00  0.00    -0.390 OA
ATOM     23  H8  UNL     1      19.478  15.096  19.314  1.00  0.00     0.210 HD
ENDBRANCH   5  22
BRANCH   6  24
HETATM   24  O9  UNL     1      21.595  16.125  19.644  1.00  0.00    -0.390 OA
ATOM     25  H9  UNL     1      21.813  15.507  20.332  1.00  0.00     0.210 HD
ENDBRANCH   6  24
TORSDOF 7
ENDMDL
