MODEL 5
REMARK VINA RESULT: -6.858306387      2.839      7.456
REMARK  7 active torsions:
REMARK  status: ('A' for Active; 'I' for Inactive)
REMARK    1  A    between atoms: C1_2  and  C2_4 
REMARK    2  A    between atoms: C3_6  and  O4_7 
REMARK    3  A    between atoms: O4_7  and  C4_8 
REMARK    4  A    between atoms: C7_11  and  N1_12 
REMARK    5  A    between atoms: C10_17  and  O7_18 
REMARK    6  A    between atoms: C11_20  and  O8_21 
REMARK    7  A    between atoms: C12_23  and  O9_24 
ROOT
HETATM    1  C2  UNL     1      22.535  17.967  11.139  1.00  0.00     0.256 C 
HETATM    2  O3  UNL     1      21.912  16.950  11.817  1.00  0.00    -0.340 OA
HETATM    3  C3  UNL     1      22.643  16.776  13.025  1.00  0.00     0.298 C 
HETATM    4  C10 UNL     1      24.011  16.185  12.717  1.00  0.00     0.205 C 
HETATM    5  C11 UNL     1      24.723  17.126  11.747  1.00  0.00     0.183 C 
HETATM    6  C12 UNL     1      23.825  17.388  10.556  1.00  0.00     0.189 C 
ENDROOT
BRANCH   3   7
HETATM    7  O4  UNL     1      21.979  15.994  13.931  1.00  0.00    -0.318 OA
BRANCH   7   8
HETATM    8  C4  UNL     1      21.524  16.366  15.159  1.00  0.00     0.072 A 
HETATM    9  C5  UNL     1      21.471  17.678  15.533  1.00  0.00     0.039 A 
HETATM   10  C6  UNL     1      21.001  17.998  16.792  1.00  0.00     0.039 A 
HETATM   11  C7  UNL     1      20.585  17.053  17.679  1.00  0.00     0.103 A 
HETATM   12  C8  UNL     1      20.638  15.745  17.300  1.00  0.00     0.039 A 
HETATM   13  C9  UNL     1      21.100  15.388  16.058  1.00  0.00     0.039 A 
BRANCH  11  14
HETATM   14  N1  UNL     1      20.098  17.420  18.984  1.00  0.00    -0.116 N 
HETATM   15  O5  UNL     1      19.187  18.245  19.085  1.00  0.00    -0.532 OA
HETATM   16  O6  UNL     1      20.652  16.850  20.088  1.00  0.00    -0.532 OA
ENDBRANCH  11  14
ENDBRANCH   7   8
ENDBRANCH   3   7
BRANCH   4  17
HETATM   17  O7  UNL     1      24.740  16.254  13.915  1.00  0.00    -0.388 OA
ATOM     18  H7  UNL     1      25.656  16.278  13.663  1.00  0.00     0.210 HD
ENDBRANCH   4  17
BRANCH   1  19
HETATM   19  C1  UNL     1      21.717  18.629  10.132  1.00  0.00     0.206 C 
HETATM   20  O1  UNL     1      20.977  19.588  10.451  1.00  0.00    -0.646 OA
HETATM   21  O2  UNL     1      21.748  18.213   8.828  1.00  0.00    -0.646 OA
ENDBRANCH   1  19
BRANCH   5  22
HETATM   22  O8  UNL     1      25.955  16.631  11.381  1.00  0.00    -0.390 OA
ATOM     23  H8  UNL     1      26.277  17.052  10.593  1.00  0.00     0.210 HD
ENDBRANCH   5  22
BRANCH   6  24
HETATM   24  O9  UNL     1      24.438  18.266   9.689  1.00  0.00    -0.390 OA
ATOM     25  H9  UNL     1      25.077  17.831   9.135  1.00  0.00     0.210 HD
ENDBRANCH   6  24
TORSDOF 7
ENDMDL
