MODEL 8
REMARK VINA RESULT: -6.402816549      1.268      1.524
REMARK  7 active torsions:
REMARK  status: ('A' for Active; 'I' for Inactive)
REMARK    1  A    between atoms: C1_2  and  C2_4 
REMARK    2  A    between atoms: C3_6  and  O4_7 
REMARK    3  A    between atoms: O4_7  and  C4_8 
REMARK    4  A    between atoms: C7_11  and  N1_12 
REMARK    5  A    between atoms: C10_17  and  O7_18 
REMARK    6  A    between atoms: C11_20  and  O8_21 
REMARK    7  A    between atoms: C12_23  and  O9_24 
ROOT
HETATM    1  C2  UNL     1      22.682  16.558  17.841  1.00  0.00     0.256 C 
HETATM    2  O3  UNL     1      22.425  15.773  16.746  1.00  0.00    -0.340 OA
HETATM    3  C3  UNL     1      21.595  16.550  15.891  1.00  0.00     0.298 C 
HETATM    4  C10 UNL     1      20.218  16.710  16.518  1.00  0.00     0.205 C 
HETATM    5  C11 UNL     1      20.397  17.360  17.889  1.00  0.00     0.183 C 
HETATM    6  C12 UNL     1      21.409  16.567  18.689  1.00  0.00     0.189 C 
ENDROOT
BRANCH   3   7
HETATM    7  O4  UNL     1      21.488  16.014  14.635  1.00  0.00    -0.318 OA
BRANCH   7   8
HETATM    8  C4  UNL     1      22.090  16.458  13.499  1.00  0.00     0.072 A 
HETATM    9  C5  UNL     1      21.370  16.750  12.376  1.00  0.00     0.039 A 
HETATM   10  C6  UNL     1      22.035  17.198  11.250  1.00  0.00     0.039 A 
HETATM   11  C7  UNL     1      23.385  17.361  11.215  1.00  0.00     0.103 A 
HETATM   12  C8  UNL     1      24.099  17.068  12.339  1.00  0.00     0.039 A 
HETATM   13  C9  UNL     1      23.475  16.621  13.476  1.00  0.00     0.039 A 
BRANCH  11  14
HETATM   14  N1  UNL     1      24.048  17.830  10.025  1.00  0.00    -0.116 N 
HETATM   15  O5  UNL     1      23.469  18.620   9.277  1.00  0.00    -0.532 OA
HETATM   16  O6  UNL     1      25.306  17.393   9.745  1.00  0.00    -0.532 OA
ENDBRANCH  11  14
ENDBRANCH   7   8
ENDBRANCH   3   7
BRANCH   4  17
HETATM   17  O7  UNL     1      19.544  17.659  15.734  1.00  0.00    -0.388 OA
ATOM     18  H7  UNL     1      18.995  17.163  15.138  1.00  0.00     0.210 HD
ENDBRANCH   4  17
BRANCH   1  19
HETATM   19  C1  UNL     1      23.859  16.179  18.610  1.00  0.00     0.206 C 
HETATM   20  O1  UNL     1      24.867  15.710  18.031  1.00  0.00    -0.646 OA
HETATM   21  O2  UNL     1      23.880  16.329  19.971  1.00  0.00    -0.646 OA
ENDBRANCH   1  19
BRANCH   5  22
HETATM   22  O8  UNL     1      19.193  17.492  18.543  1.00  0.00    -0.390 OA
ATOM     23  H8  UNL     1      18.608  16.772  18.340  1.00  0.00     0.210 HD
ENDBRANCH   5  22
BRANCH   6  24
HETATM   24  O9  UNL     1      21.610  17.163  19.915  1.00  0.00    -0.390 OA
ATOM     25  H9  UNL     1      20.791  17.420  20.324  1.00  0.00     0.210 HD
ENDBRANCH   6  24
TORSDOF 7
ENDMDL
