MODEL 2
REMARK VINA RESULT: -8.500993973      0.070      1.008
REMARK  7 active torsions:
REMARK  status: ('A' for Active; 'I' for Inactive)
REMARK    1  A    between atoms: C1_2  and  C2_4 
REMARK    2  A    between atoms: C3_6  and  O4_7 
REMARK    3  A    between atoms: O4_7  and  C4_8 
REMARK    4  A    between atoms: C7_11  and  N1_12 
REMARK    5  A    between atoms: C10_17  and  O7_18 
REMARK    6  A    between atoms: C11_20  and  O8_21 
REMARK    7  A    between atoms: C12_23  and  O9_24 
ROOT
HETATM    1  C2  UNL     1      22.668  16.377  17.475  1.00  0.00     0.256 C 
HETATM    2  O3  UNL     1      22.892  15.635  16.344  1.00  0.00    -0.340 OA
HETATM    3  C3  UNL     1      21.722  15.769  15.546  1.00  0.00     0.298 C 
HETATM    4  C10 UNL     1      20.564  15.034  16.204  1.00  0.00     0.205 C 
HETATM    5  C11 UNL     1      20.373  15.615  17.604  1.00  0.00     0.183 C 
HETATM    6  C12 UNL     1      21.694  15.579  18.344  1.00  0.00     0.189 C 
ENDROOT
BRANCH   3   7
HETATM    7  O4  UNL     1      21.906  15.320  14.265  1.00  0.00    -0.318 OA
BRANCH   7   8
HETATM    8  C4  UNL     1      22.061  16.076  13.144  1.00  0.00     0.072 A 
HETATM    9  C5  UNL     1      23.284  16.549  12.765  1.00  0.00     0.039 A 
HETATM   10  C6  UNL     1      23.381  17.312  11.617  1.00  0.00     0.039 A 
HETATM   11  C7  UNL     1      22.302  17.613  10.845  1.00  0.00     0.103 A 
HETATM   12  C8  UNL     1      21.083  17.138  11.229  1.00  0.00     0.039 A 
HETATM   13  C9  UNL     1      20.946  16.378  12.362  1.00  0.00     0.039 A 
BRANCH  11  14
HETATM   14  N1  UNL     1      22.437  18.411   9.653  1.00  0.00    -0.116 N 
HETATM   15  O5  UNL     1      23.562  18.708   9.243  1.00  0.00    -0.532 OA
HETATM   16  O6  UNL     1      21.320  18.826   8.997  1.00  0.00    -0.532 OA
ENDBRANCH  11  14
ENDBRANCH   7   8
ENDBRANCH   3   7
BRANCH   4  17
HETATM   17  O7  UNL     1      19.416  15.399  15.483  1.00  0.00    -0.388 OA
ATOM     18  H7  UNL     1      19.211  14.657  14.926  1.00  0.00     0.210 HD
ENDBRANCH   4  17
BRANCH   1  19
HETATM   19  C1  UNL     1      23.867  16.771  18.203  1.00  0.00     0.206 C 
HETATM   20  O1  UNL     1      24.985  16.315  17.870  1.00  0.00    -0.646 OA
HETATM   21  O2  UNL     1      23.786  17.642  19.256  1.00  0.00    -0.646 OA
ENDBRANCH   1  19
BRANCH   5  22
HETATM   22  O8  UNL     1      19.369  14.963  18.284  1.00  0.00    -0.390 OA
ATOM     23  H8  UNL     1      19.446  15.092  19.222  1.00  0.00     0.210 HD
ENDBRANCH   5  22
BRANCH   6  24
HETATM   24  O9  UNL     1      21.546  16.134  19.596  1.00  0.00    -0.390 OA
ATOM     25  H9  UNL     1      20.698  15.934  19.976  1.00  0.00     0.210 HD
ENDBRANCH   6  24
TORSDOF 7
ENDMDL
