MODEL 9
REMARK VINA RESULT: -6.399170035      1.368      1.631
REMARK  7 active torsions:
REMARK  status: ('A' for Active; 'I' for Inactive)
REMARK    1  A    between atoms: C1_2  and  C2_4 
REMARK    2  A    between atoms: C3_6  and  O4_7 
REMARK    3  A    between atoms: O4_7  and  C4_8 
REMARK    4  A    between atoms: C7_11  and  N1_12 
REMARK    5  A    between atoms: C10_17  and  O7_18 
REMARK    6  A    between atoms: C11_20  and  O8_21 
REMARK    7  A    between atoms: C12_23  and  O9_24 
ROOT
HETATM    1  C2  UNL     1      22.870  16.477  17.667  1.00  0.00     0.256 C 
HETATM    2  O3  UNL     1      22.404  15.968  16.481  1.00  0.00    -0.340 OA
HETATM    3  C3  UNL     1      21.393  16.866  16.037  1.00  0.00     0.298 C 
HETATM    4  C10 UNL     1      20.178  16.761  16.946  1.00  0.00     0.205 C 
HETATM    5  C11 UNL     1      20.629  17.066  18.372  1.00  0.00     0.183 C 
HETATM    6  C12 UNL     1      21.805  16.180  18.725  1.00  0.00     0.189 C 
ENDROOT
BRANCH   3   7
HETATM    7  O4  UNL     1      21.035  16.648  14.733  1.00  0.00    -0.318 OA
BRANCH   7   8
HETATM    8  C4  UNL     1      21.790  16.879  13.624  1.00  0.00     0.072 A 
HETATM    9  C5  UNL     1      21.228  16.960  12.383  1.00  0.00     0.039 A 
HETATM   10  C6  UNL     1      22.044  17.196  11.292  1.00  0.00     0.039 A 
HETATM   11  C7  UNL     1      23.391  17.352  11.406  1.00  0.00     0.103 A 
HETATM   12  C8  UNL     1      23.946  17.271  12.649  1.00  0.00     0.039 A 
HETATM   13  C9  UNL     1      23.170  17.037  13.755  1.00  0.00     0.039 A 
BRANCH  11  14
HETATM   14  N1  UNL     1      24.213  17.598  10.249  1.00  0.00    -0.116 N 
HETATM   15  O5  UNL     1      25.436  17.472  10.333  1.00  0.00    -0.532 OA
HETATM   16  O6  UNL     1      23.625  17.967   9.079  1.00  0.00    -0.532 OA
ENDBRANCH  11  14
ENDBRANCH   7   8
ENDBRANCH   3   7
BRANCH   4  17
HETATM   17  O7  UNL     1      19.331  17.819  16.581  1.00  0.00    -0.388 OA
ATOM     18  H7  UNL     1      18.575  17.758  17.153  1.00  0.00     0.210 HD
ENDBRANCH   4  17
BRANCH   1  19
HETATM   19  C1  UNL     1      24.191  16.012  18.062  1.00  0.00     0.206 C 
HETATM   20  O1  UNL     1      24.400  15.628  19.237  1.00  0.00    -0.646 OA
HETATM   21  O2  UNL     1      25.220  15.987  17.158  1.00  0.00    -0.646 OA
ENDBRANCH   1  19
BRANCH   5  22
HETATM   22  O8  UNL     1      19.588  16.942  19.265  1.00  0.00    -0.390 OA
ATOM     23  H8  UNL     1      19.883  16.581  20.093  1.00  0.00     0.210 HD
ENDBRANCH   5  22
BRANCH   6  24
HETATM   24  O9  UNL     1      22.248  16.471  19.997  1.00  0.00    -0.390 OA
ATOM     25  H9  UNL     1      22.670  15.724  20.406  1.00  0.00     0.210 HD
ENDBRANCH   6  24
TORSDOF 7
ENDMDL
