MODEL 15
REMARK VINA RESULT: -6.385135246      2.688      7.000
REMARK  7 active torsions:
REMARK  status: ('A' for Active; 'I' for Inactive)
REMARK    1  A    between atoms: C1_2  and  C2_4 
REMARK    2  A    between atoms: C3_6  and  O4_7 
REMARK    3  A    between atoms: O4_7  and  C4_8 
REMARK    4  A    between atoms: C7_11  and  N1_12 
REMARK    5  A    between atoms: C10_17  and  O7_18 
REMARK    6  A    between atoms: C11_20  and  O8_21 
REMARK    7  A    between atoms: C12_23  and  O9_24 
ROOT
HETATM    1  C2  UNL     1      56.355  38.562 165.133  1.00  0.00     0.256 C 
HETATM    2  O3  UNL     1      55.686  39.598 164.533  1.00  0.00    -0.340 OA
HETATM    3  C3  UNL     1      55.386  40.527 165.568  1.00  0.00     0.298 C 
HETATM    4  C10 UNL     1      54.332  39.940 166.495  1.00  0.00     0.205 C 
HETATM    5  C11 UNL     1      54.871  38.621 167.046  1.00  0.00     0.183 C 
HETATM    6  C12 UNL     1      55.312  37.742 165.894  1.00  0.00     0.189 C 
ENDROOT
BRANCH   3   7
HETATM    7  O4  UNL     1      54.974  41.739 165.083  1.00  0.00    -0.318 OA
BRANCH   7   8
HETATM    8  C4  UNL     1      53.892  42.460 165.486  1.00  0.00     0.072 A 
HETATM    9  C5  UNL     1      52.620  41.993 165.316  1.00  0.00     0.039 A 
HETATM   10  C6  UNL     1      51.559  42.768 165.745  1.00  0.00     0.039 A 
HETATM   11  C7  UNL     1      51.732  43.984 166.332  1.00  0.00     0.103 A 
HETATM   12  C8  UNL     1      53.004  44.444 166.500  1.00  0.00     0.039 A 
HETATM   13  C9  UNL     1      54.083  43.704 166.087  1.00  0.00     0.039 A 
BRANCH  11  14
HETATM   14  N1  UNL     1      50.604  44.767 166.769  1.00  0.00    -0.116 N 
HETATM   15  O5  UNL     1      50.447  44.991 167.971  1.00  0.00    -0.532 OA
HETATM   16  O6  UNL     1      49.727  45.247 165.846  1.00  0.00    -0.532 OA
ENDBRANCH  11  14
ENDBRANCH   7   8
ENDBRANCH   3   7
BRANCH   4  17
HETATM   17  O7  UNL     1      54.259  40.808 167.596  1.00  0.00    -0.388 OA
ATOM     18  H7  UNL     1      53.933  40.286 168.319  1.00  0.00     0.210 HD
ENDBRANCH   4  17
BRANCH   1  19
HETATM   19  C1  UNL     1      57.159  37.744 164.236  1.00  0.00     0.206 C 
HETATM   20  O1  UNL     1      56.718  36.649 163.815  1.00  0.00    -0.646 OA
HETATM   21  O2  UNL     1      58.403  38.159 163.842  1.00  0.00    -0.646 OA
ENDBRANCH   1  19
BRANCH   5  22
HETATM   22  O8  UNL     1      53.947  38.002 167.859  1.00  0.00    -0.390 OA
ATOM     23  H8  UNL     1      53.728  38.544 168.608  1.00  0.00     0.210 HD
ENDBRANCH   5  22
BRANCH   6  24
HETATM   24  O9  UNL     1      55.835  36.562 166.377  1.00  0.00    -0.390 OA
ATOM     25  H9  UNL     1      56.756  36.646 166.598  1.00  0.00     0.210 HD
ENDBRANCH   6  24
TORSDOF 7
ENDMDL
