MODEL 5
REMARK VINA RESULT: -7.696391364      1.090      1.778
REMARK  7 active torsions:
REMARK  status: ('A' for Active; 'I' for Inactive)
REMARK    1  A    between atoms: C1_2  and  C2_4 
REMARK    2  A    between atoms: C3_6  and  O4_7 
REMARK    3  A    between atoms: O4_7  and  C4_8 
REMARK    4  A    between atoms: C7_11  and  N1_12 
REMARK    5  A    between atoms: C10_17  and  O7_18 
REMARK    6  A    between atoms: C11_20  and  O8_21 
REMARK    7  A    between atoms: C12_23  and  O9_24 
ROOT
HETATM    1  C2  UNL     1      52.662  43.509 166.201  1.00  0.00     0.256 C 
HETATM    2  O3  UNL     1      53.810  43.040 166.789  1.00  0.00    -0.340 OA
HETATM    3  C3  UNL     1      53.693  41.622 166.805  1.00  0.00     0.298 C 
HETATM    4  C10 UNL     1      52.616  41.206 167.796  1.00  0.00     0.205 C 
HETATM    5  C11 UNL     1      51.311  41.884 167.384  1.00  0.00     0.183 C 
HETATM    6  C12 UNL     1      51.545  43.373 167.238  1.00  0.00     0.189 C 
ENDROOT
BRANCH   3   7
HETATM    7  O4  UNL     1      54.878  41.003 167.101  1.00  0.00    -0.318 OA
BRANCH   7   8
HETATM    8  C4  UNL     1      55.521  40.062 166.356  1.00  0.00     0.072 A 
HETATM    9  C5  UNL     1      56.696  40.338 165.717  1.00  0.00     0.039 A 
HETATM   10  C6  UNL     1      57.304  39.344 164.974  1.00  0.00     0.039 A 
HETATM   11  C7  UNL     1      56.777  38.095 164.853  1.00  0.00     0.103 A 
HETATM   12  C8  UNL     1      55.604  37.825 165.494  1.00  0.00     0.039 A 
HETATM   13  C9  UNL     1      54.970  38.786 166.240  1.00  0.00     0.039 A 
BRANCH  11  14
HETATM   14  N1  UNL     1      57.437  37.081 164.072  1.00  0.00    -0.116 N 
HETATM   15  O5  UNL     1      56.881  35.996 163.885  1.00  0.00    -0.532 OA
HETATM   16  O6  UNL     1      58.668  37.335 163.550  1.00  0.00    -0.532 OA
ENDBRANCH  11  14
ENDBRANCH   7   8
ENDBRANCH   3   7
BRANCH   4  17
HETATM   17  O7  UNL     1      52.412  39.833 167.589  1.00  0.00    -0.388 OA
ATOM     18  H7  UNL     1      53.197  39.402 167.906  1.00  0.00     0.210 HD
ENDBRANCH   4  17
BRANCH   1  19
HETATM   19  C1  UNL     1      52.754  44.856 165.656  1.00  0.00     0.206 C 
HETATM   20  O1  UNL     1      53.328  45.055 164.560  1.00  0.00    -0.646 OA
HETATM   21  O2  UNL     1      52.215  45.918 166.332  1.00  0.00    -0.646 OA
ENDBRANCH   1  19
BRANCH   5  22
HETATM   22  O8  UNL     1      50.294  41.593 168.266  1.00  0.00    -0.390 OA
ATOM     23  H8  UNL     1      50.354  40.699 168.580  1.00  0.00     0.210 HD
ENDBRANCH   5  22
BRANCH   6  24
HETATM   24  O9  UNL     1      50.385  43.994 166.829  1.00  0.00    -0.390 OA
ATOM     25  H9  UNL     1      49.639  43.739 167.361  1.00  0.00     0.210 HD
ENDBRANCH   6  24
TORSDOF 7
ENDMDL
