MODEL 2
REMARK VINA RESULT: -9.685294488      0.101      1.010
REMARK  7 active torsions:
REMARK  status: ('A' for Active; 'I' for Inactive)
REMARK    1  A    between atoms: C1_2  and  C2_4 
REMARK    2  A    between atoms: C3_6  and  O4_7 
REMARK    3  A    between atoms: O4_7  and  C4_8 
REMARK    4  A    between atoms: C7_11  and  N1_12 
REMARK    5  A    between atoms: C10_17  and  O7_18 
REMARK    6  A    between atoms: C11_20  and  O8_21 
REMARK    7  A    between atoms: C12_23  and  O9_24 
ROOT
HETATM    1  C2  UNL     1      52.972  43.933 166.021  1.00  0.00     0.256 C 
HETATM    2  O3  UNL     1      53.891  43.132 166.649  1.00  0.00    -0.340 OA
HETATM    3  C3  UNL     1      53.143  42.124 167.319  1.00  0.00     0.298 C 
HETATM    4  C10 UNL     1      52.382  42.738 168.485  1.00  0.00     0.205 C 
HETATM    5  C11 UNL     1      51.486  43.845 167.932  1.00  0.00     0.183 C 
HETATM    6  C12 UNL     1      52.323  44.797 167.104  1.00  0.00     0.189 C 
ENDROOT
BRANCH   3   7
HETATM    7  O4  UNL     1      53.928  41.090 167.753  1.00  0.00    -0.318 OA
BRANCH   7   8
HETATM    8  C4  UNL     1      54.671  40.245 166.987  1.00  0.00     0.072 A 
HETATM    9  C5  UNL     1      55.740  40.691 166.264  1.00  0.00     0.039 A 
HETATM   10  C6  UNL     1      56.458  39.788 165.503  1.00  0.00     0.039 A 
HETATM   11  C7  UNL     1      56.141  38.466 165.445  1.00  0.00     0.103 A 
HETATM   12  C8  UNL     1      55.073  38.026 166.170  1.00  0.00     0.039 A 
HETATM   13  C9  UNL     1      54.336  38.892 166.936  1.00  0.00     0.039 A 
BRANCH  11  14
HETATM   14  N1  UNL     1      56.912  37.550 164.642  1.00  0.00    -0.116 N 
HETATM   15  O5  UNL     1      56.409  36.483 164.285  1.00  0.00    -0.532 OA
HETATM   16  O6  UNL     1      58.185  37.879 164.291  1.00  0.00    -0.532 OA
ENDBRANCH  11  14
ENDBRANCH   7   8
ENDBRANCH   3   7
BRANCH   4  17
HETATM   17  O7  UNL     1      51.510  41.739 168.946  1.00  0.00    -0.388 OA
ATOM     18  H7  UNL     1      50.660  42.155 169.034  1.00  0.00     0.210 HD
ENDBRANCH   4  17
BRANCH   1  19
HETATM   19  C1  UNL     1      53.495  44.726 164.917  1.00  0.00     0.206 C 
HETATM   20  O1  UNL     1      54.727  44.753 164.689  1.00  0.00    -0.646 OA
HETATM   21  O2  UNL     1      52.650  45.448 164.117  1.00  0.00    -0.646 OA
ENDBRANCH   1  19
BRANCH   5  22
HETATM   22  O8  UNL     1      50.799  44.484 168.940  1.00  0.00    -0.390 OA
ATOM     23  H8  UNL     1      51.081  44.184 169.796  1.00  0.00     0.210 HD
ENDBRANCH   5  22
BRANCH   6  24
HETATM   24  O9  UNL     1      51.522  45.782 166.567  1.00  0.00    -0.390 OA
ATOM     25  H9  UNL     1      50.647  45.770 166.938  1.00  0.00     0.210 HD
ENDBRANCH   6  24
TORSDOF 7
ENDMDL
