MODEL 16
REMARK VINA RESULT: -6.298516539      2.683      7.045
REMARK  7 active torsions:
REMARK  status: ('A' for Active; 'I' for Inactive)
REMARK    1  A    between atoms: C1_2  and  C2_4 
REMARK    2  A    between atoms: C3_6  and  O4_7 
REMARK    3  A    between atoms: O4_7  and  C4_8 
REMARK    4  A    between atoms: C7_11  and  N1_12 
REMARK    5  A    between atoms: C10_17  and  O7_18 
REMARK    6  A    between atoms: C11_20  and  O8_21 
REMARK    7  A    between atoms: C12_23  and  O9_24 
ROOT
HETATM    1  C2  UNL     1      56.365  38.622 165.181  1.00  0.00     0.256 C 
HETATM    2  O3  UNL     1      55.706  39.652 164.559  1.00  0.00    -0.340 OA
HETATM    3  C3  UNL     1      55.387  40.590 165.580  1.00  0.00     0.298 C 
HETATM    4  C10 UNL     1      54.316  40.010 166.493  1.00  0.00     0.205 C 
HETATM    5  C11 UNL     1      54.845  38.697 167.065  1.00  0.00     0.183 C 
HETATM    6  C12 UNL     1      55.308  37.808 165.930  1.00  0.00     0.189 C 
ENDROOT
BRANCH   3   7
HETATM    7  O4  UNL     1      54.983  41.797 165.075  1.00  0.00    -0.318 OA
BRANCH   7   8
HETATM    8  C4  UNL     1      53.925  42.547 165.489  1.00  0.00     0.072 A 
HETATM    9  C5  UNL     1      54.099  43.785 166.036  1.00  0.00     0.039 A 
HETATM   10  C6  UNL     1      52.988  44.502 166.439  1.00  0.00     0.039 A 
HETATM   11  C7  UNL     1      51.722  44.021 166.311  1.00  0.00     0.103 A 
HETATM   12  C8  UNL     1      51.554  42.784 165.763  1.00  0.00     0.039 A 
HETATM   13  C9  UNL     1      52.632  42.042 165.352  1.00  0.00     0.039 A 
BRANCH  11  14
HETATM   14  N1  UNL     1      50.584  44.795 166.740  1.00  0.00    -0.116 N 
HETATM   15  O5  UNL     1      50.387  44.972 167.944  1.00  0.00    -0.532 OA
HETATM   16  O6  UNL     1      49.743  45.319 165.808  1.00  0.00    -0.532 OA
ENDBRANCH  11  14
ENDBRANCH   7   8
ENDBRANCH   3   7
BRANCH   4  17
HETATM   17  O7  UNL     1      54.223  40.889 167.584  1.00  0.00    -0.388 OA
ATOM     18  H7  UNL     1      53.629  40.477 168.200  1.00  0.00     0.210 HD
ENDBRANCH   4  17
BRANCH   1  19
HETATM   19  C1  UNL     1      57.186  37.796 164.306  1.00  0.00     0.206 C 
HETATM   20  O1  UNL     1      56.763  36.686 163.908  1.00  0.00    -0.646 OA
HETATM   21  O2  UNL     1      58.426  38.221 163.910  1.00  0.00    -0.646 OA
ENDBRANCH   1  19
BRANCH   5  22
HETATM   22  O8  UNL     1      53.907  38.086 167.867  1.00  0.00    -0.390 OA
ATOM     23  H8  UNL     1      54.314  37.657 168.610  1.00  0.00     0.210 HD
ENDBRANCH   5  22
BRANCH   6  24
HETATM   24  O9  UNL     1      55.823  36.633 166.433  1.00  0.00    -0.390 OA
ATOM     25  H9  UNL     1      55.209  35.912 166.353  1.00  0.00     0.210 HD
ENDBRANCH   6  24
TORSDOF 7
ENDMDL
