MODEL 3
REMARK VINA RESULT: -8.754102109      0.878      1.619
REMARK  7 active torsions:
REMARK  status: ('A' for Active; 'I' for Inactive)
REMARK    1  A    between atoms: C1_2  and  C2_4 
REMARK    2  A    between atoms: C3_6  and  O4_7 
REMARK    3  A    between atoms: O4_7  and  C4_8 
REMARK    4  A    between atoms: C7_11  and  N1_12 
REMARK    5  A    between atoms: C10_17  and  O7_18 
REMARK    6  A    between atoms: C11_20  and  O8_21 
REMARK    7  A    between atoms: C12_23  and  O9_24 
ROOT
HETATM    1  C2  UNL     1      52.899  44.138 165.864  1.00  0.00     0.256 C 
HETATM    2  O3  UNL     1      53.859  43.477 166.587  1.00  0.00    -0.340 OA
HETATM    3  C3  UNL     1      53.189  42.408 167.245  1.00  0.00     0.298 C 
HETATM    4  C10 UNL     1      52.278  42.963 168.330  1.00  0.00     0.205 C 
HETATM    5  C11 UNL     1      51.299  43.933 167.671  1.00  0.00     0.183 C 
HETATM    6  C12 UNL     1      52.074  44.952 166.863  1.00  0.00     0.189 C 
ENDROOT
BRANCH   3   7
HETATM    7  O4  UNL     1      54.059  41.492 167.775  1.00  0.00    -0.318 OA
BRANCH   7   8
HETATM    8  C4  UNL     1      54.430  40.302 167.230  1.00  0.00     0.072 A 
HETATM    9  C5  UNL     1      55.520  40.200 166.414  1.00  0.00     0.039 A 
HETATM   10  C6  UNL     1      55.851  38.965 165.888  1.00  0.00     0.039 A 
HETATM   11  C7  UNL     1      55.130  37.841 166.152  1.00  0.00     0.103 A 
HETATM   12  C8  UNL     1      54.043  37.949 166.968  1.00  0.00     0.039 A 
HETATM   13  C9  UNL     1      53.683  39.157 167.508  1.00  0.00     0.039 A 
BRANCH  11  14
HETATM   14  N1  UNL     1      55.503  36.569 165.588  1.00  0.00    -0.116 N 
HETATM   15  O5  UNL     1      55.270  35.533 166.214  1.00  0.00    -0.532 OA
HETATM   16  O6  UNL     1      56.107  36.530 164.369  1.00  0.00    -0.532 OA
ENDBRANCH  11  14
ENDBRANCH   7   8
ENDBRANCH   3   7
BRANCH   4  17
HETATM   17  O7  UNL     1      51.499  41.881 168.771  1.00  0.00    -0.388 OA
ATOM     18  H7  UNL     1      50.601  42.098 168.550  1.00  0.00     0.210 HD
ENDBRANCH   4  17
BRANCH   1  19
HETATM   19  C1  UNL     1      53.403  44.952 164.767  1.00  0.00     0.206 C 
HETATM   20  O1  UNL     1      52.612  45.622 164.063  1.00  0.00    -0.646 OA
HETATM   21  O2  UNL     1      54.744  44.994 164.491  1.00  0.00    -0.646 OA
ENDBRANCH   1  19
BRANCH   5  22
HETATM   22  O8  UNL     1      50.469  44.517 168.602  1.00  0.00    -0.390 OA
ATOM     23  H8  UNL     1      49.555  44.406 168.368  1.00  0.00     0.210 HD
ENDBRANCH   5  22
BRANCH   6  24
HETATM   24  O9  UNL     1      51.203  45.813 166.232  1.00  0.00    -0.390 OA
ATOM     25  H9  UNL     1      51.658  46.444 165.687  1.00  0.00     0.210 HD
ENDBRANCH   6  24
TORSDOF 7
ENDMDL
