MODEL 13
REMARK VINA RESULT: -6.518080159      2.650      7.418
REMARK  7 active torsions:
REMARK  status: ('A' for Active; 'I' for Inactive)
REMARK    1  A    between atoms: C1_2  and  C2_4 
REMARK    2  A    between atoms: C3_6  and  O4_7 
REMARK    3  A    between atoms: O4_7  and  C4_8 
REMARK    4  A    between atoms: C7_11  and  N1_12 
REMARK    5  A    between atoms: C10_17  and  O7_18 
REMARK    6  A    between atoms: C11_20  and  O8_21 
REMARK    7  A    between atoms: C12_23  and  O9_24 
ROOT
HETATM    1  C2  UNL     1      55.404  37.424 165.772  1.00  0.00     0.256 C 
HETATM    2  O3  UNL     1      54.925  38.100 166.866  1.00  0.00    -0.340 OA
HETATM    3  C3  UNL     1      54.729  39.444 166.444  1.00  0.00     0.298 C 
HETATM    4  C10 UNL     1      56.076  40.109 166.203  1.00  0.00     0.205 C 
HETATM    5  C11 UNL     1      56.828  39.285 165.160  1.00  0.00     0.183 C 
HETATM    6  C12 UNL     1      56.867  37.837 165.601  1.00  0.00     0.189 C 
ENDROOT
BRANCH   3   7
HETATM    7  O4  UNL     1      53.990  40.172 167.338  1.00  0.00    -0.318 OA
BRANCH   7   8
HETATM    8  C4  UNL     1      53.285  41.309 167.088  1.00  0.00     0.072 A 
HETATM    9  C5  UNL     1      52.517  41.440 165.967  1.00  0.00     0.039 A 
HETATM   10  C6  UNL     1      51.822  42.617 165.764  1.00  0.00     0.039 A 
HETATM   11  C7  UNL     1      51.873  43.656 166.641  1.00  0.00     0.103 A 
HETATM   12  C8  UNL     1      52.641  43.519 167.759  1.00  0.00     0.039 A 
HETATM   13  C9  UNL     1      53.345  42.367 167.995  1.00  0.00     0.039 A 
BRANCH  11  14
HETATM   14  N1  UNL     1      51.135  44.871 166.400  1.00  0.00    -0.116 N 
HETATM   15  O5  UNL     1      49.906  44.865 166.493  1.00  0.00    -0.532 OA
HETATM   16  O6  UNL     1      51.809  46.007 166.073  1.00  0.00    -0.532 OA
ENDBRANCH  11  14
ENDBRANCH   7   8
ENDBRANCH   3   7
BRANCH   4  17
HETATM   17  O7  UNL     1      55.795  41.338 165.584  1.00  0.00    -0.388 OA
ATOM     18  H7  UNL     1      56.156  42.006 166.155  1.00  0.00     0.210 HD
ENDBRANCH   4  17
BRANCH   1  19
HETATM   19  C1  UNL     1      55.236  35.979 165.817  1.00  0.00     0.206 C 
HETATM   20  O1  UNL     1      54.963  35.409 166.899  1.00  0.00    -0.646 OA
HETATM   21  O2  UNL     1      55.373  35.227 164.681  1.00  0.00    -0.646 OA
ENDBRANCH   1  19
BRANCH   5  22
HETATM   22  O8  UNL     1      58.084  39.800 164.925  1.00  0.00    -0.390 OA
ATOM     23  H8  UNL     1      58.725  39.108 164.807  1.00  0.00     0.210 HD
ENDBRANCH   5  22
BRANCH   6  24
HETATM   24  O9  UNL     1      57.511  37.073 164.652  1.00  0.00    -0.390 OA
ATOM     25  H9  UNL     1      57.617  37.541 163.831  1.00  0.00     0.210 HD
ENDBRANCH   6  24
TORSDOF 7
ENDMDL
