MODEL 11
REMARK VINA RESULT: -6.746578978      1.633      2.205
REMARK  7 active torsions:
REMARK  status: ('A' for Active; 'I' for Inactive)
REMARK    1  A    between atoms: C1_2  and  C2_4 
REMARK    2  A    between atoms: C3_6  and  O4_7 
REMARK    3  A    between atoms: O4_7  and  C4_8 
REMARK    4  A    between atoms: C7_11  and  N1_12 
REMARK    5  A    between atoms: C10_17  and  O7_18 
REMARK    6  A    between atoms: C11_20  and  O8_21 
REMARK    7  A    between atoms: C12_23  and  O9_24 
ROOT
HETATM    1  C2  UNL     1      52.197  44.216 166.303  1.00  0.00     0.256 C 
HETATM    2  O3  UNL     1      52.532  42.957 165.877  1.00  0.00    -0.340 OA
HETATM    3  C3  UNL     1      51.681  42.062 166.583  1.00  0.00     0.298 C 
HETATM    4  C10 UNL     1      52.072  42.033 168.053  1.00  0.00     0.205 C 
HETATM    5  C11 UNL     1      51.980  43.459 168.593  1.00  0.00     0.183 C 
HETATM    6  C12 UNL     1      52.786  44.383 167.704  1.00  0.00     0.189 C 
ENDROOT
BRANCH   3   7
HETATM    7  O4  UNL     1      51.700  40.797 166.060  1.00  0.00    -0.318 OA
BRANCH   7   8
HETATM    8  C4  UNL     1      52.730  39.908 166.099  1.00  0.00     0.072 A 
HETATM    9  C5  UNL     1      53.999  40.269 165.746  1.00  0.00     0.039 A 
HETATM   10  C6  UNL     1      55.006  39.324 165.804  1.00  0.00     0.039 A 
HETATM   11  C7  UNL     1      54.783  38.042 166.201  1.00  0.00     0.103 A 
HETATM   12  C8  UNL     1      53.515  37.687 166.553  1.00  0.00     0.039 A 
HETATM   13  C9  UNL     1      52.489  38.596 166.508  1.00  0.00     0.039 A 
BRANCH  11  14
HETATM   14  N1  UNL     1      55.856  37.081 166.252  1.00  0.00    -0.116 N 
HETATM   15  O5  UNL     1      56.929  37.337 165.702  1.00  0.00    -0.532 OA
HETATM   16  O6  UNL     1      55.667  35.904 166.907  1.00  0.00    -0.532 OA
ENDBRANCH  11  14
ENDBRANCH   7   8
ENDBRANCH   3   7
BRANCH   4  17
HETATM   17  O7  UNL     1      51.060  41.314 168.708  1.00  0.00    -0.388 OA
ATOM     18  H7  UNL     1      50.282  41.857 168.661  1.00  0.00     0.210 HD
ENDBRANCH   4  17
BRANCH   1  19
HETATM   19  C1  UNL     1      52.584  45.295 165.405  1.00  0.00     0.206 C 
HETATM   20  O1  UNL     1      52.034  46.418 165.493  1.00  0.00    -0.646 OA
HETATM   21  O2  UNL     1      53.552  45.098 164.456  1.00  0.00    -0.646 OA
ENDBRANCH   1  19
BRANCH   5  22
HETATM   22  O8  UNL     1      52.368  43.523 169.912  1.00  0.00    -0.390 OA
ATOM     23  H8  UNL     1      53.202  43.088 170.049  1.00  0.00     0.210 HD
ENDBRANCH   5  22
BRANCH   6  24
HETATM   24  O9  UNL     1      52.682  45.680 168.157  1.00  0.00    -0.390 OA
ATOM     25  H9  UNL     1      53.531  46.101 168.229  1.00  0.00     0.210 HD
ENDBRANCH   6  24
TORSDOF 7
ENDMDL
