MODEL 4
REMARK VINA RESULT: -5.650547020      2.726      5.948
REMARK  5 active torsions:
REMARK  status: ('A' for Active; 'I' for Inactive)
REMARK    1  A    between atoms: C2_2  and  C3_3 
REMARK    2  A    between atoms: C3_3  and  C4_4 
REMARK    3  A    between atoms: N1_6  and  C6_7 
REMARK    4  A    between atoms: C6_7  and  C7_8 
REMARK    5  A    between atoms: C14_22  and  O1_23 
ROOT
HETATM    1  C7  UNL     1     -33.230   6.660  94.263  1.00  0.00     0.024 A 
HETATM    2  C8  UNL     1     -32.593   5.606  93.755  1.00  0.00     0.103 A 
HETATM    3  N2  UNL     1     -32.764   4.509  94.576  1.00  0.00    -0.360 N 
ATOM      4  H2  UNL     1     -32.381   3.577  94.420  1.00  0.00     0.165 HD
HETATM    5  C9  UNL     1     -33.515   4.885  95.603  1.00  0.00     0.101 A 
HETATM    6  C10 UNL     1     -33.907   4.255  96.801  1.00  0.00     0.146 A 
HETATM    7  N3  UNL     1     -33.484   2.903  96.967  1.00  0.00    -0.080 NA
HETATM    8  N4  UNL     1     -34.562   4.976  97.696  1.00  0.00    -0.339 N 
ATOM      9  H4  UNL     1     -34.839   4.501  98.555  1.00  0.00     0.167 HD
HETATM   10  C11 UNL     1     -34.901   6.274  97.586  1.00  0.00     0.182 A 
HETATM   11  N5  UNL     1     -34.510   6.850  96.408  1.00  0.00    -0.350 N 
ATOM     12  H5  UNL     1     -34.738   7.830  96.240  1.00  0.00     0.166 HD
HETATM   13  C12 UNL     1     -33.845   6.180  95.477  1.00  0.00     0.076 A 
ENDROOT
BRANCH   1  14
HETATM   14  C6  UNL     1     -33.474   8.077  93.826  1.00  0.00     0.100 C 
BRANCH  14  15
HETATM   15  N1  UNL     1     -32.223   8.676  93.618  1.00  0.00    -0.386 N 
HETATM   16  C5  UNL     1     -31.120   8.679  94.502  1.00  0.00     0.129 C 
HETATM   17  C4  UNL     1     -31.249  10.080  95.178  1.00  0.00     0.034 C 
HETATM   18  C14 UNL     1     -32.314  10.792  94.448  1.00  0.00     0.141 C 
HETATM   19  C13 UNL     1     -32.184  10.021  93.100  1.00  0.00     0.154 C 
BRANCH  17  20
HETATM   20  C3  UNL     1     -31.266   9.858  96.630  1.00  0.00     0.008 C 
BRANCH  20  21
HETATM   21  C2  UNL     1     -29.863   9.242  96.917  1.00  0.00    -0.004 C 
HETATM   22  C1  UNL     1     -28.845  10.223  97.304  1.00  0.00     0.005 C 
ENDBRANCH  20  21
ENDBRANCH  17  20
BRANCH  18  23
HETATM   23  O1  UNL     1     -32.045  12.136  94.154  1.00  0.00    -0.393 OA
ATOM     24  H1  UNL     1     -31.480  12.284  93.405  1.00  0.00     0.210 HD
ENDBRANCH  18  23
ENDBRANCH  14  15
ENDBRANCH   1  14
TORSDOF 5
ENDMDL
