MODEL 2
REMARK VINA RESULT: -6.164792433      4.604      7.682
REMARK  5 active torsions:
REMARK  status: ('A' for Active; 'I' for Inactive)
REMARK    1  A    between atoms: C2_2  and  C3_3 
REMARK    2  A    between atoms: C3_3  and  C4_4 
REMARK    3  A    between atoms: N1_6  and  C6_7 
REMARK    4  A    between atoms: C6_7  and  C7_8 
REMARK    5  A    between atoms: C14_22  and  O1_23 
ROOT
HETATM    1  C7  UNL     1     -38.158   5.841  97.910  1.00  0.00     0.024 A 
HETATM    2  C8  UNL     1     -38.230   6.451  99.091  1.00  0.00     0.103 A 
HETATM    3  N2  UNL     1     -39.545   6.538  99.501  1.00  0.00    -0.360 N 
ATOM      4  H2  UNL     1     -39.879   6.958 100.368  1.00  0.00     0.165 HD
HETATM    5  C9  UNL     1     -40.299   5.975  98.564  1.00  0.00     0.101 A 
HETATM    6  C10 UNL     1     -41.691   5.882  98.364  1.00  0.00     0.146 A 
HETATM    7  N3  UNL     1     -42.511   6.440  99.388  1.00  0.00    -0.080 NA
HETATM    8  N4  UNL     1     -42.121   5.358  97.227  1.00  0.00    -0.339 N 
ATOM      9  H4  UNL     1     -43.131   5.297  97.103  1.00  0.00     0.167 HD
HETATM   10  C11 UNL     1     -41.357   4.899  96.218  1.00  0.00     0.182 A 
HETATM   11  N5  UNL     1     -40.013   5.000  96.451  1.00  0.00    -0.350 N 
ATOM     12  H5  UNL     1     -39.364   4.663  95.739  1.00  0.00     0.166 HD
HETATM   13  C12 UNL     1     -39.522   5.520  97.567  1.00  0.00     0.076 A 
ENDROOT
BRANCH   1  14
HETATM   14  C6  UNL     1     -37.049   5.400  96.997  1.00  0.00     0.100 C 
BRANCH  14  15
HETATM   15  N1  UNL     1     -35.896   6.112  97.358  1.00  0.00    -0.386 N 
HETATM   16  C5  UNL     1     -35.082   6.902  96.516  1.00  0.00     0.129 C 
HETATM   17  C4  UNL     1     -33.909   5.925  96.186  1.00  0.00     0.034 C 
HETATM   18  C14 UNL     1     -34.104   4.745  97.048  1.00  0.00     0.141 C 
HETATM   19  C13 UNL     1     -34.911   5.451  98.178  1.00  0.00     0.154 C 
BRANCH  17  20
HETATM   20  C3  UNL     1     -33.805   5.857  94.723  1.00  0.00     0.008 C 
BRANCH  20  21
HETATM   21  C2  UNL     1     -33.394   7.305  94.322  1.00  0.00    -0.004 C 
HETATM   22  C1  UNL     1     -33.027   7.456  92.910  1.00  0.00     0.005 C 
ENDBRANCH  20  21
ENDBRANCH  17  20
BRANCH  18  23
HETATM   23  O1  UNL     1     -32.943   4.245  97.653  1.00  0.00    -0.393 OA
ATOM     24  H1  UNL     1     -33.075   3.512  98.244  1.00  0.00     0.210 HD
ENDBRANCH  18  23
ENDBRANCH  14  15
ENDBRANCH   1  14
TORSDOF 5
ENDMDL
