MODEL 6
REMARK VINA RESULT: -5.601016096      7.895     11.044
REMARK  5 active torsions:
REMARK  status: ('A' for Active; 'I' for Inactive)
REMARK    1  A    between atoms: C2_2  and  C3_3 
REMARK    2  A    between atoms: C3_3  and  C4_4 
REMARK    3  A    between atoms: N1_6  and  C6_7 
REMARK    4  A    between atoms: C6_7  and  C7_8 
REMARK    5  A    between atoms: C14_22  and  O1_23 
ROOT
HETATM    1  C7  UNL     1     -41.722   1.445  98.489  1.00  0.00     0.024 A 
HETATM    2  C8  UNL     1     -42.568   0.619  97.878  1.00  0.00     0.103 A 
HETATM    3  N2  UNL     1     -41.974  -0.613  97.689  1.00  0.00    -0.360 N 
ATOM      4  H2  UNL     1     -42.402  -1.425  97.245  1.00  0.00     0.165 HD
HETATM    5  C9  UNL     1     -40.746  -0.551  98.188  1.00  0.00     0.101 A 
HETATM    6  C10 UNL     1     -39.646  -1.431  98.172  1.00  0.00     0.146 A 
HETATM    7  N3  UNL     1     -39.864  -2.697  97.553  1.00  0.00    -0.080 NA
HETATM    8  N4  UNL     1     -38.495  -0.995  98.658  1.00  0.00    -0.339 N 
ATOM      9  H4  UNL     1     -37.712  -1.648  98.639  1.00  0.00     0.167 HD
HETATM   10  C11 UNL     1     -38.255   0.225  99.175  1.00  0.00     0.182 A 
HETATM   11  N5  UNL     1     -39.347   1.049  99.180  1.00  0.00    -0.350 N 
ATOM     12  H5  UNL     1     -39.252   1.988  99.565  1.00  0.00     0.166 HD
HETATM   13  C12 UNL     1     -40.524   0.670  98.701  1.00  0.00     0.076 A 
ENDROOT
BRANCH   1  14
HETATM   14  C6  UNL     1     -41.789   2.852  99.014  1.00  0.00     0.100 C 
BRANCH  14  15
HETATM   15  N1  UNL     1     -41.693   3.718  97.916  1.00  0.00    -0.386 N 
HETATM   16  C5  UNL     1     -40.563   4.467  97.516  1.00  0.00     0.129 C 
HETATM   17  C4  UNL     1     -40.879   5.876  98.110  1.00  0.00     0.034 C 
HETATM   18  C14 UNL     1     -42.261   5.806  98.620  1.00  0.00     0.141 C 
HETATM   19  C13 UNL     1     -42.761   4.660  97.690  1.00  0.00     0.154 C 
BRANCH  17  20
HETATM   20  C3  UNL     1     -39.726   6.264  98.933  1.00  0.00     0.008 C 
BRANCH  20  21
HETATM   21  C2  UNL     1     -38.534   6.213  97.931  1.00  0.00    -0.004 C 
HETATM   22  C1  UNL     1     -37.231   6.514  98.533  1.00  0.00     0.005 C 
ENDBRANCH  20  21
ENDBRANCH  17  20
BRANCH  18  23
HETATM   23  O1  UNL     1     -43.064   6.918  98.334  1.00  0.00    -0.393 OA
ATOM     24  H1  UNL     1     -43.972   6.846  98.605  1.00  0.00     0.210 HD
ENDBRANCH  18  23
ENDBRANCH  14  15
ENDBRANCH   1  14
TORSDOF 5
ENDMDL
