MODEL 1
REMARK VINA RESULT: -8.736668797      0.000      0.000
REMARK  5 active torsions:
REMARK  status: ('A' for Active; 'I' for Inactive)
REMARK    1  A    between atoms: C2_2  and  C3_3 
REMARK    2  A    between atoms: C3_3  and  C4_4 
REMARK    3  A    between atoms: N1_6  and  C6_7 
REMARK    4  A    between atoms: C6_7  and  C7_8 
REMARK    5  A    between atoms: C14_22  and  O1_23 
ROOT
HETATM    1  C7  UNL     1     -32.211   6.926  93.967  1.00  0.00     0.024 A 
HETATM    2  C8  UNL     1     -32.884   7.450  92.944  1.00  0.00     0.103 A 
HETATM    3  N2  UNL     1     -32.818   8.829  92.991  1.00  0.00    -0.360 N 
ATOM      4  H2  UNL     1     -33.247   9.474  92.328  1.00  0.00     0.165 HD
HETATM    5  C9  UNL     1     -32.096   9.164  94.054  1.00  0.00     0.101 A 
HETATM    6  C10 UNL     1     -31.801  10.391  94.679  1.00  0.00     0.146 A 
HETATM    7  N3  UNL     1     -32.310  11.560  94.040  1.00  0.00    -0.080 NA
HETATM    8  N4  UNL     1     -31.148  10.361  95.829  1.00  0.00    -0.339 N 
ATOM      9  H4  UNL     1     -30.942  11.260  96.264  1.00  0.00     0.167 HD
HETATM   10  C11 UNL     1     -30.729   9.261  96.483  1.00  0.00     0.182 A 
HETATM   11  N5  UNL     1     -31.028   8.089  95.843  1.00  0.00    -0.350 N 
ATOM     12  H5  UNL     1     -30.735   7.209  96.268  1.00  0.00     0.166 HD
HETATM   13  C12 UNL     1     -31.685   8.056  94.692  1.00  0.00     0.076 A 
ENDROOT
BRANCH   1  14
HETATM   14  C6  UNL     1     -31.864   5.536  94.421  1.00  0.00     0.100 C 
BRANCH  14  15
HETATM   15  N1  UNL     1     -33.064   4.824  94.558  1.00  0.00    -0.386 N 
HETATM   16  C5  UNL     1     -34.307   5.324  95.011  1.00  0.00     0.129 C 
HETATM   17  C4  UNL     1     -34.315   4.870  96.505  1.00  0.00     0.034 C 
HETATM   18  C14 UNL     1     -33.145   3.988  96.672  1.00  0.00     0.141 C 
HETATM   19  C13 UNL     1     -33.025   3.528  95.188  1.00  0.00     0.154 C 
BRANCH  17  20
HETATM   20  C3  UNL     1     -34.553   6.070  97.317  1.00  0.00     0.008 C 
BRANCH  20  21
HETATM   21  C2  UNL     1     -35.790   6.728  96.636  1.00  0.00    -0.004 C 
HETATM   22  C1  UNL     1     -37.053   6.514  97.350  1.00  0.00     0.005 C 
ENDBRANCH  20  21
ENDBRANCH  17  20
BRANCH  18  23
HETATM   23  O1  UNL     1     -33.371   2.826  97.423  1.00  0.00    -0.393 OA
ATOM     24  H1  UNL     1     -32.600   2.448  97.830  1.00  0.00     0.210 HD
ENDBRANCH  18  23
ENDBRANCH  14  15
ENDBRANCH   1  14
TORSDOF 5
ENDMDL
