MODEL 1
REMARK VINA RESULT: -8.063308300      0.000      0.000
REMARK  5 active torsions:
REMARK  status: ('A' for Active; 'I' for Inactive)
REMARK    1  A    between atoms: S1_2  and  C2_3 
REMARK    2  A    between atoms: C2_3  and  C3_4 
REMARK    3  A    between atoms: N1_6  and  C5_7 
REMARK    4  A    between atoms: C5_7  and  C6_8 
REMARK    5  A    between atoms: C13_22  and  O1_23 
ROOT
HETATM    1  C6  UNL     1      15.147  -7.658  29.322  1.00  0.00     0.014 A 
HETATM    2  C7  UNL     1      15.892  -8.249  28.330  1.00  0.00     0.099 A 
HETATM    3  N2  UNL     1      15.897  -9.598  28.477  1.00  0.00    -0.361 N 
ATOM      4  H2  UNL     1      16.376 -10.265  27.871  1.00  0.00     0.165 HD
HETATM    5  C8  UNL     1      15.156  -9.902  29.568  1.00  0.00     0.101 A 
HETATM    6  C9  UNL     1      14.823 -11.102  30.181  1.00  0.00     0.146 A 
HETATM    7  N3  UNL     1      15.322 -12.298  29.605  1.00  0.00    -0.080 NA
HETATM    8  N4  UNL     1      14.051 -11.092  31.281  1.00  0.00    -0.339 N 
ATOM      9  H4  UNL     1      13.810 -11.977  31.728  1.00  0.00     0.167 HD
HETATM   10  C10 UNL     1      13.588  -9.947  31.808  1.00  0.00     0.182 A 
HETATM   11  N5  UNL     1      13.915  -8.785  31.209  1.00  0.00    -0.350 N 
ATOM     12  H5  UNL     1      13.565  -7.914  31.608  1.00  0.00     0.166 HD
HETATM   13  C11 UNL     1      14.685  -8.724  30.104  1.00  0.00     0.072 A 
ENDROOT
BRANCH   1  14
HETATM   14  C5  UNL     1      14.841  -6.239  29.594  1.00  0.00     0.315 C 
BRANCH  14  15
HETATM   15  N1  UNL     1      15.754  -5.709  30.537  1.00  0.00     0.095 N 
HETATM   16  C4  UNL     1      17.004  -6.409  30.629  1.00  0.00     0.280 C 
HETATM   17  C3  UNL     1      17.563  -6.038  31.991  1.00  0.00     0.054 C 
HETATM   18  C13 UNL     1      16.458  -5.246  32.646  1.00  0.00     0.152 C 
HETATM   19  C12 UNL     1      15.256  -5.824  31.920  1.00  0.00     0.304 C 
BRANCH  17  20
HETATM   20  C2  UNL     1      17.887  -7.271  32.803  1.00  0.00     0.082 C 
BRANCH  20  21
HETATM   21  S1  UNL     1      19.406  -7.157  33.731  1.00  0.00    -0.173 SA
HETATM   22  C1  UNL     1      20.785  -6.453  32.838  1.00  0.00     0.089 C 
ENDBRANCH  20  21
ENDBRANCH  17  20
BRANCH  18  23
HETATM   23  O1  UNL     1      16.660  -3.916  32.354  1.00  0.00    -0.393 OA
ATOM     24  H1  UNL     1      15.862  -3.446  32.565  1.00  0.00     0.210 HD
ENDBRANCH  18  23
ENDBRANCH  14  15
ENDBRANCH   1  14
TORSDOF 5
ENDMDL
