MODEL 7
REMARK VINA RESULT: -4.942730153      3.718      5.805
REMARK  5 active torsions:
REMARK  status: ('A' for Active; 'I' for Inactive)
REMARK    1  A    between atoms: S1_2  and  C2_3 
REMARK    2  A    between atoms: C2_3  and  C3_4 
REMARK    3  A    between atoms: N1_6  and  C5_7 
REMARK    4  A    between atoms: C5_7  and  C6_8 
REMARK    5  A    between atoms: C13_22  and  O1_23 
ROOT
HETATM    1  C6  UNL     1      18.740  -6.966  32.722  1.00  0.00     0.014 A 
HETATM    2  C7  UNL     1      18.772  -7.977  31.793  1.00  0.00     0.099 A 
HETATM    3  N2  UNL     1      17.864  -7.750  30.811  1.00  0.00    -0.361 N 
ATOM      4  H2  UNL     1      17.691  -8.351  30.004  1.00  0.00     0.165 HD
HETATM    5  C8  UNL     1      17.229  -6.587  31.089  1.00  0.00     0.101 A 
HETATM    6  C9  UNL     1      16.225  -5.880  30.441  1.00  0.00     0.146 A 
HETATM    7  N3  UNL     1      15.709  -6.420  29.237  1.00  0.00    -0.080 NA
HETATM    8  N4  UNL     1      15.784  -4.724  30.969  1.00  0.00    -0.339 N 
ATOM      9  H4  UNL     1      15.046  -4.209  30.490  1.00  0.00     0.167 HD
HETATM   10  C10 UNL     1      16.290  -4.232  32.111  1.00  0.00     0.182 A 
HETATM   11  N5  UNL     1      17.264  -4.923  32.735  1.00  0.00    -0.350 N 
ATOM     12  H5  UNL     1      17.649  -4.550  33.602  1.00  0.00     0.166 HD
HETATM   13  C11 UNL     1      17.752  -6.087  32.260  1.00  0.00     0.072 A 
ENDROOT
BRANCH   1  14
HETATM   14  C5  UNL     1      19.522  -6.755  33.958  1.00  0.00     0.315 C 
BRANCH  14  15
HETATM   15  N1  UNL     1      20.907  -6.865  33.690  1.00  0.00     0.095 N 
HETATM   16  C4  UNL     1      21.750  -6.854  34.852  1.00  0.00     0.280 C 
HETATM   17  C3  UNL     1      23.122  -6.450  34.338  1.00  0.00     0.054 C 
HETATM   18  C13 UNL     1      22.890  -6.102  32.888  1.00  0.00     0.152 C 
HETATM   19  C12 UNL     1      21.426  -5.704  32.946  1.00  0.00     0.304 C 
BRANCH  17  20
HETATM   20  C2  UNL     1      23.657  -5.256  35.093  1.00  0.00     0.082 C 
BRANCH  20  21
HETATM   21  S1  UNL     1      25.052  -4.464  34.312  1.00  0.00    -0.173 SA
HETATM   22  C1  UNL     1      24.711  -2.856  33.609  1.00  0.00     0.089 C 
ENDBRANCH  20  21
ENDBRANCH  17  20
BRANCH  18  23
HETATM   23  O1  UNL     1      23.097  -7.239  32.140  1.00  0.00    -0.393 OA
ATOM     24  H1  UNL     1      23.028  -7.003  31.223  1.00  0.00     0.210 HD
ENDBRANCH  18  23
ENDBRANCH  14  15
ENDBRANCH   1  14
TORSDOF 5
ENDMDL
