MODEL 6
REMARK VINA RESULT: -4.963224701      3.025      5.350
REMARK  5 active torsions:
REMARK  status: ('A' for Active; 'I' for Inactive)
REMARK    1  A    between atoms: S1_2  and  C2_3 
REMARK    2  A    between atoms: C2_3  and  C3_4 
REMARK    3  A    between atoms: N1_6  and  C5_7 
REMARK    4  A    between atoms: C5_7  and  C6_8 
REMARK    5  A    between atoms: C13_22  and  O1_23 
ROOT
HETATM    1  C6  UNL     1      18.077  -6.483  32.548  1.00  0.00     0.014 A 
HETATM    2  C7  UNL     1      17.601  -5.244  32.904  1.00  0.00     0.099 A 
HETATM    3  N2  UNL     1      16.603  -4.860  32.070  1.00  0.00    -0.361 N 
ATOM      4  H2  UNL     1      16.083  -3.983  32.121  1.00  0.00     0.165 HD
HETATM    5  C8  UNL     1      16.417  -5.844  31.158  1.00  0.00     0.101 A 
HETATM    6  C9  UNL     1      15.546  -5.989  30.087  1.00  0.00     0.146 A 
HETATM    7  N3  UNL     1      14.635  -4.934  29.831  1.00  0.00    -0.080 NA
HETATM    8  N4  UNL     1      15.595  -7.106  29.341  1.00  0.00    -0.339 N 
ATOM      9  H4  UNL     1      14.954  -7.207  28.554  1.00  0.00     0.167 HD
HETATM   10  C10 UNL     1      16.468  -8.093  29.604  1.00  0.00     0.182 A 
HETATM   11  N5  UNL     1      17.310  -7.946  30.645  1.00  0.00    -0.350 N 
ATOM     12  H5  UNL     1      17.972  -8.695  30.846  1.00  0.00     0.166 HD
HETATM   13  C11 UNL     1      17.313  -6.852  31.434  1.00  0.00     0.072 A 
ENDROOT
BRANCH   1  14
HETATM   14  C5  UNL     1      19.143  -7.320  33.134  1.00  0.00     0.315 C 
BRANCH  14  15
HETATM   15  N1  UNL     1      20.292  -6.539  33.405  1.00  0.00     0.095 N 
HETATM   16  C4  UNL     1      21.213  -6.418  32.311  1.00  0.00     0.280 C 
HETATM   17  C3  UNL     1      22.536  -6.035  32.951  1.00  0.00     0.054 C 
HETATM   18  C13 UNL     1      22.274  -6.128  34.435  1.00  0.00     0.152 C 
HETATM   19  C12 UNL     1      21.149  -7.147  34.438  1.00  0.00     0.304 C 
BRANCH  17  20
HETATM   20  C2  UNL     1      23.636  -6.989  32.545  1.00  0.00     0.082 C 
BRANCH  20  21
HETATM   21  S1  UNL     1      25.184  -6.194  32.152  1.00  0.00    -0.173 SA
HETATM   22  C1  UNL     1      25.132  -5.099  30.740  1.00  0.00     0.089 C 
ENDBRANCH  20  21
ENDBRANCH  17  20
BRANCH  18  23
HETATM   23  O1  UNL     1      21.862  -4.888  34.870  1.00  0.00    -0.393 OA
ATOM     24  H1  UNL     1      21.276  -5.016  35.607  1.00  0.00     0.210 HD
ENDBRANCH  18  23
ENDBRANCH  14  15
ENDBRANCH   1  14
TORSDOF 5
ENDMDL
