MODEL 5
REMARK VINA RESULT: -5.047326204      7.030     10.647
REMARK  5 active torsions:
REMARK  status: ('A' for Active; 'I' for Inactive)
REMARK    1  A    between atoms: S1_2  and  C2_3 
REMARK    2  A    between atoms: C2_3  and  C3_4 
REMARK    3  A    between atoms: N1_6  and  C5_7 
REMARK    4  A    between atoms: C5_7  and  C6_8 
REMARK    5  A    between atoms: C13_22  and  O1_23 
ROOT
HETATM    1  C6  UNL     1      24.570  -2.423  33.814  1.00  0.00     0.014 A 
HETATM    2  C7  UNL     1      25.379  -1.727  32.950  1.00  0.00     0.099 A 
HETATM    3  N2  UNL     1      24.818  -0.535  32.626  1.00  0.00    -0.361 N 
ATOM      4  H2  UNL     1      25.219   0.166  32.002  1.00  0.00     0.165 HD
HETATM    5  C8  UNL     1      23.634  -0.441  33.275  1.00  0.00     0.101 A 
HETATM    6  C9  UNL     1      22.653   0.541  33.316  1.00  0.00     0.146 A 
HETATM    7  N3  UNL     1      22.862   1.714  32.548  1.00  0.00    -0.080 NA
HETATM    8  N4  UNL     1      21.557   0.350  34.070  1.00  0.00    -0.339 N 
ATOM      9  H4  UNL     1      20.839   1.074  34.095  1.00  0.00     0.167 HD
HETATM   10  C10 UNL     1      21.382  -0.769  34.791  1.00  0.00     0.182 A 
HETATM   11  N5  UNL     1      22.338  -1.718  34.748  1.00  0.00    -0.350 N 
ATOM     12  H5  UNL     1      22.206  -2.569  35.294  1.00  0.00     0.166 HD
HETATM   13  C11 UNL     1      23.461  -1.590  34.012  1.00  0.00     0.072 A 
ENDROOT
BRANCH   1  14
HETATM   14  C5  UNL     1      24.733  -3.747  34.447  1.00  0.00     0.315 C 
BRANCH  14  15
HETATM   15  N1  UNL     1      24.338  -4.773  33.556  1.00  0.00     0.095 N 
HETATM   16  C4  UNL     1      22.937  -4.796  33.243  1.00  0.00     0.280 C 
HETATM   17  C3  UNL     1      22.667  -6.208  32.753  1.00  0.00     0.054 C 
HETATM   18  C13 UNL     1      23.966  -6.940  32.987  1.00  0.00     0.152 C 
HETATM   19  C12 UNL     1      24.527  -6.116  34.133  1.00  0.00     0.304 C 
BRANCH  17  20
HETATM   20  C2  UNL     1      21.545  -6.852  33.534  1.00  0.00     0.082 C 
BRANCH  20  21
HETATM   21  S1  UNL     1      19.934  -6.660  32.792  1.00  0.00    -0.173 SA
HETATM   22  C1  UNL     1      18.631  -7.614  33.560  1.00  0.00     0.089 C 
ENDBRANCH  20  21
ENDBRANCH  17  20
BRANCH  18  23
HETATM   23  O1  UNL     1      24.724  -6.835  31.842  1.00  0.00    -0.393 OA
ATOM     24  H1  UNL     1      25.513  -6.352  32.057  1.00  0.00     0.210 HD
ENDBRANCH  18  23
ENDBRANCH  14  15
ENDBRANCH   1  14
TORSDOF 5
ENDMDL
