MODEL 4
REMARK VINA RESULT: -5.483470715      0.881      1.908
REMARK  5 active torsions:
REMARK  status: ('A' for Active; 'I' for Inactive)
REMARK    1  A    between atoms: S1_2  and  C2_3 
REMARK    2  A    between atoms: C2_3  and  C3_4 
REMARK    3  A    between atoms: N1_6  and  C5_7 
REMARK    4  A    between atoms: C5_7  and  C6_8 
REMARK    5  A    between atoms: C13_22  and  O1_23 
ROOT
HETATM    1  C6  UNL     1      14.760  -7.497  30.282  1.00  0.00     0.014 A 
HETATM    2  C7  UNL     1      14.070  -7.825  31.423  1.00  0.00     0.099 A 
HETATM    3  N2  UNL     1      13.996  -9.172  31.564  1.00  0.00    -0.361 N 
ATOM      4  H2  UNL     1      13.537  -9.671  32.328  1.00  0.00     0.165 HD
HETATM    5  C8  UNL     1      14.636  -9.739  30.514  1.00  0.00     0.101 A 
HETATM    6  C9  UNL     1      14.869 -11.057  30.148  1.00  0.00     0.146 A 
HETATM    7  N3  UNL     1      14.366 -12.076  30.995  1.00  0.00    -0.080 NA
HETATM    8  N4  UNL     1      15.554 -11.320  29.021  1.00  0.00    -0.339 N 
ATOM      9  H4  UNL     1      15.721 -12.290  28.756  1.00  0.00     0.167 HD
HETATM   10  C10 UNL     1      16.023 -10.337  28.235  1.00  0.00     0.182 A 
HETATM   11  N5  UNL     1      15.794  -9.059  28.596  1.00  0.00    -0.350 N 
ATOM     12  H5  UNL     1      16.149  -8.312  28.000  1.00  0.00     0.166 HD
HETATM   13  C11 UNL     1      15.115  -8.727  29.713  1.00  0.00     0.072 A 
ENDROOT
BRANCH   1  14
HETATM   14  C5  UNL     1      15.105  -6.185  29.697  1.00  0.00     0.315 C 
BRANCH  14  15
HETATM   15  N1  UNL     1      15.905  -5.439  30.595  1.00  0.00     0.095 N 
HETATM   16  C4  UNL     1      17.228  -5.957  30.800  1.00  0.00     0.280 C 
HETATM   17  C3  UNL     1      17.681  -5.365  32.123  1.00  0.00     0.054 C 
HETATM   18  C13 UNL     1      16.459  -4.654  32.652  1.00  0.00     0.152 C 
HETATM   19  C12 UNL     1      15.370  -5.461  31.968  1.00  0.00     0.304 C 
BRANCH  17  20
HETATM   20  C2  UNL     1      18.123  -6.446  33.082  1.00  0.00     0.082 C 
BRANCH  20  21
HETATM   21  S1  UNL     1      19.617  -7.290  32.593  1.00  0.00    -0.173 SA
HETATM   22  C1  UNL     1      21.135  -6.463  33.050  1.00  0.00     0.089 C 
ENDBRANCH  20  21
ENDBRANCH  17  20
BRANCH  18  23
HETATM   23  O1  UNL     1      16.504  -3.350  32.212  1.00  0.00    -0.393 OA
ATOM     24  H1  UNL     1      16.503  -3.361  31.262  1.00  0.00     0.210 HD
ENDBRANCH  18  23
ENDBRANCH  14  15
ENDBRANCH   1  14
TORSDOF 5
ENDMDL
