MODEL 4
REMARK VINA RESULT: -5.897685247      3.019      5.164
REMARK  8 active torsions:
REMARK  status: ('A' for Active; 'I' for Inactive)
REMARK    1  A    between atoms: C2_2  and  C3_3 
REMARK    2  A    between atoms: C3_3  and  C4_4 
REMARK    3  A    between atoms: C4_4  and  S1_5 
REMARK    4  A    between atoms: S1_5  and  C5_6 
REMARK    5  A    between atoms: C5_6  and  C6_7 
REMARK    6  A    between atoms: N1_9  and  C8_10 
REMARK    7  A    between atoms: C8_10  and  C9_11 
REMARK    8  A    between atoms: C16_25  and  O1_26 
ROOT
HETATM    1  C8  UNL     1      67.611  17.910  43.953  1.00  0.00     0.074 C 
ENDROOT
BRANCH   1   2
HETATM    2  N1  UNL     1      67.523  18.048  45.335  1.00  0.00    -0.289 NA
HETATM    3  C7  UNL     1      68.696  17.985  46.135  1.00  0.00     0.102 C 
HETATM    4  C6  UNL     1      68.127  18.474  47.475  1.00  0.00     0.038 C 
HETATM    5  C16 UNL     1      66.758  17.836  47.462  1.00  0.00     0.137 C 
HETATM    6  C15 UNL     1      66.579  17.261  46.053  1.00  0.00     0.127 C 
BRANCH   4   7
HETATM    7  C5  UNL     1      68.972  17.978  48.622  1.00  0.00     0.082 C 
BRANCH   7   8
HETATM    8  S1  UNL     1      67.877  17.025  49.740  1.00  0.00    -0.169 SA
BRANCH   8   9
HETATM    9  C4  UNL     1      67.683  17.913  51.319  1.00  0.00     0.073 C 
BRANCH   9  10
HETATM   10  C3  UNL     1      66.485  18.839  51.187  1.00  0.00     0.010 C 
BRANCH  10  11
HETATM   11  C2  UNL     1      66.894  20.200  50.701  1.00  0.00    -0.004 C 
HETATM   12  C1  UNL     1      67.120  21.164  51.849  1.00  0.00     0.005 C 
ENDBRANCH  10  11
ENDBRANCH   9  10
ENDBRANCH   8   9
ENDBRANCH   7   8
ENDBRANCH   4   7
BRANCH   5  13
HETATM   13  O1  UNL     1      65.827  18.872  47.670  1.00  0.00    -0.394 OA
ATOM     14  H1  UNL     1      65.114  18.726  47.059  1.00  0.00     0.210 HD
ENDBRANCH   5  13
ENDBRANCH   1   2
BRANCH   1  15
HETATM   15  C9  UNL     1      67.389  16.628  43.322  1.00  0.00     0.019 A 
HETATM   16  C10 UNL     1      67.943  15.395  43.542  1.00  0.00     0.103 A 
HETATM   17  N2  UNL     1      67.402  14.501  42.685  1.00  0.00    -0.360 N 
HETATM   18  C11 UNL     1      66.496  15.109  41.893  1.00  0.00     0.101 A 
ATOM     19  H2  UNL     1      67.644  13.510  42.644  1.00  0.00     0.165 HD
HETATM   20  C12 UNL     1      65.684  14.648  40.876  1.00  0.00     0.146 A 
HETATM   21  C14 UNL     1      66.488  16.431  42.288  1.00  0.00     0.076 A 
HETATM   22  N3  UNL     1      65.700  13.296  40.482  1.00  0.00    -0.080 NA
HETATM   23  N4  UNL     1      64.870  15.503  40.259  1.00  0.00    -0.339 N 
HETATM   24  C13 UNL     1      64.834  16.802  40.617  1.00  0.00     0.182 A 
ATOM     25  H4  UNL     1      64.268  15.171  39.506  1.00  0.00     0.167 HD
HETATM   26  N5  UNL     1      65.632  17.226  41.609  1.00  0.00    -0.350 N 
ATOM     27  H5  UNL     1      65.590  18.213  41.867  1.00  0.00     0.166 HD
ENDBRANCH   1  15
TORSDOF 8
ENDMDL
