MODEL 3
REMARK VINA RESULT: -6.062128066      3.737      7.846
REMARK  8 active torsions:
REMARK  status: ('A' for Active; 'I' for Inactive)
REMARK    1  A    between atoms: C2_2  and  C3_3 
REMARK    2  A    between atoms: C3_3  and  C4_4 
REMARK    3  A    between atoms: C4_4  and  S1_5 
REMARK    4  A    between atoms: S1_5  and  C5_6 
REMARK    5  A    between atoms: C5_6  and  C6_7 
REMARK    6  A    between atoms: N1_9  and  C8_10 
REMARK    7  A    between atoms: C8_10  and  C9_11 
REMARK    8  A    between atoms: C16_25  and  O1_26 
ROOT
HETATM    1  C8  UNL     1      66.654  17.894  44.340  1.00  0.00     0.074 C 
ENDROOT
BRANCH   1   2
HETATM    2  N1  UNL     1      66.823  16.934  43.346  1.00  0.00    -0.289 NA
HETATM    3  C7  UNL     1      66.260  17.134  42.057  1.00  0.00     0.102 C 
HETATM    4  C6  UNL     1      66.955  16.001  41.288  1.00  0.00     0.038 C 
HETATM    5  C16 UNL     1      66.975  14.908  42.331  1.00  0.00     0.137 C 
HETATM    6  C15 UNL     1      66.528  15.573  43.638  1.00  0.00     0.127 C 
BRANCH   4   7
HETATM    7  C5  UNL     1      66.145  15.610  40.076  1.00  0.00     0.082 C 
BRANCH   7   8
HETATM    8  S1  UNL     1      64.554  16.517  40.161  1.00  0.00    -0.169 SA
BRANCH   8   9
HETATM    9  C4  UNL     1      64.643  18.017  39.131  1.00  0.00     0.073 C 
BRANCH   9  10
HETATM   10  C3  UNL     1      65.894  17.920  38.275  1.00  0.00     0.010 C 
BRANCH  10  11
HETATM   11  C2  UNL     1      66.632  19.229  38.230  1.00  0.00    -0.004 C 
HETATM   12  C1  UNL     1      65.687  20.401  38.055  1.00  0.00     0.005 C 
ENDBRANCH  10  11
ENDBRANCH   9  10
ENDBRANCH   8   9
ENDBRANCH   7   8
ENDBRANCH   4   7
BRANCH   5  13
HETATM   13  O1  UNL     1      68.314  14.488  42.450  1.00  0.00    -0.394 OA
ATOM     14  H1  UNL     1      68.533  14.532  43.373  1.00  0.00     0.210 HD
ENDBRANCH   5  13
ENDBRANCH   1   2
BRANCH   1  15
HETATM   15  C9  UNL     1      67.525  17.924  45.493  1.00  0.00     0.019 A 
HETATM   16  C10 UNL     1      68.873  17.717  45.625  1.00  0.00     0.103 A 
HETATM   17  N2  UNL     1      69.224  17.857  46.922  1.00  0.00    -0.360 N 
HETATM   18  C11 UNL     1      68.139  18.155  47.666  1.00  0.00     0.101 A 
ATOM     19  H2  UNL     1      70.172  17.754  47.286  1.00  0.00     0.165 HD
HETATM   20  C12 UNL     1      67.966  18.391  49.015  1.00  0.00     0.146 A 
HETATM   21  C14 UNL     1      67.084  18.196  46.778  1.00  0.00     0.076 A 
HETATM   22  N3  UNL     1      69.051  18.348  49.911  1.00  0.00    -0.080 NA
HETATM   23  N4  UNL     1      66.746  18.668  49.472  1.00  0.00    -0.339 N 
HETATM   24  C13 UNL     1      65.690  18.717  48.636  1.00  0.00     0.182 A 
ATOM     25  H4  UNL     1      66.609  18.843  50.467  1.00  0.00     0.167 HD
HETATM   26  N5  UNL     1      65.883  18.484  47.329  1.00  0.00    -0.350 N 
ATOM     27  H5  UNL     1      65.072  18.527  46.711  1.00  0.00     0.166 HD
ENDBRANCH   1  15
TORSDOF 8
ENDMDL
