MODEL 5
REMARK VINA RESULT: -5.835429677      7.265     10.864
REMARK  8 active torsions:
REMARK  status: ('A' for Active; 'I' for Inactive)
REMARK    1  A    between atoms: C2_2  and  C3_3 
REMARK    2  A    between atoms: C3_3  and  C4_4 
REMARK    3  A    between atoms: C4_4  and  S1_5 
REMARK    4  A    between atoms: S1_5  and  C5_6 
REMARK    5  A    between atoms: C5_6  and  C6_7 
REMARK    6  A    between atoms: N1_9  and  C8_10 
REMARK    7  A    between atoms: C8_10  and  C9_11 
REMARK    8  A    between atoms: C16_25  and  O1_26 
ROOT
HETATM    1  C8  UNL     1      64.989  15.792  52.683  1.00  0.00     0.074 C 
ENDROOT
BRANCH   1   2
HETATM    2  N1  UNL     1      64.788  16.726  51.672  1.00  0.00    -0.289 NA
HETATM    3  C7  UNL     1      65.882  17.481  51.169  1.00  0.00     0.102 C 
HETATM    4  C6  UNL     1      65.223  18.106  49.930  1.00  0.00     0.038 C 
HETATM    5  C16 UNL     1      63.830  18.381  50.447  1.00  0.00     0.137 C 
HETATM    6  C15 UNL     1      63.747  17.687  51.811  1.00  0.00     0.127 C 
BRANCH   4   7
HETATM    7  C5  UNL     1      65.939  19.372  49.532  1.00  0.00     0.082 C 
BRANCH   7   8
HETATM    8  S1  UNL     1      67.736  19.013  49.536  1.00  0.00    -0.169 SA
BRANCH   8   9
HETATM    9  C4  UNL     1      68.093  17.633  48.402  1.00  0.00     0.073 C 
BRANCH   9  10
HETATM   10  C3  UNL     1      68.212  18.204  46.999  1.00  0.00     0.010 C 
BRANCH  10  11
HETATM   11  C2  UNL     1      67.028  17.832  46.152  1.00  0.00    -0.004 C 
HETATM   12  C1  UNL     1      67.362  17.860  44.674  1.00  0.00     0.005 C 
ENDBRANCH  10  11
ENDBRANCH   9  10
ENDBRANCH   8   9
ENDBRANCH   7   8
ENDBRANCH   4   7
BRANCH   5  13
HETATM   13  O1  UNL     1      62.936  17.765  49.550  1.00  0.00    -0.394 OA
ATOM     14  H1  UNL     1      63.466  17.346  48.882  1.00  0.00     0.210 HD
ENDBRANCH   5  13
ENDBRANCH   1   2
BRANCH   1  15
HETATM   15  C9  UNL     1      65.139  14.387  52.374  1.00  0.00     0.019 A 
HETATM   16  C10 UNL     1      64.457  13.280  52.805  1.00  0.00     0.103 A 
HETATM   17  N2  UNL     1      64.978  12.178  52.222  1.00  0.00    -0.360 N 
HETATM   18  C11 UNL     1      65.997  12.522  51.407  1.00  0.00     0.101 A 
ATOM     19  H2  UNL     1      64.649  11.224  52.375  1.00  0.00     0.165 HD
HETATM   20  C12 UNL     1      66.839  11.784  50.601  1.00  0.00     0.146 A 
HETATM   21  C14 UNL     1      66.097  13.895  51.502  1.00  0.00     0.076 A 
HETATM   22  N3  UNL     1      66.727  10.383  50.511  1.00  0.00    -0.080 NA
HETATM   23  N4  UNL     1      67.775  12.415  49.893  1.00  0.00    -0.339 N 
HETATM   24  C13 UNL     1      67.904  13.755  49.960  1.00  0.00     0.182 A 
ATOM     25  H4  UNL     1      68.402  11.878  49.295  1.00  0.00     0.167 HD
HETATM   26  N5  UNL     1      67.072  14.451  50.751  1.00  0.00    -0.350 N 
ATOM     27  H5  UNL     1      67.184  15.465  50.787  1.00  0.00     0.166 HD
ENDBRANCH   1  15
TORSDOF 8
ENDMDL
