MODEL 1
REMARK VINA RESULT: -8.486729736      0.000      0.000
REMARK  8 active torsions:
REMARK  status: ('A' for Active; 'I' for Inactive)
REMARK    1  A    between atoms: C2_2  and  C3_3 
REMARK    2  A    between atoms: C3_3  and  C4_4 
REMARK    3  A    between atoms: C4_4  and  S1_5 
REMARK    4  A    between atoms: S1_5  and  C5_6 
REMARK    5  A    between atoms: C5_6  and  C6_7 
REMARK    6  A    between atoms: N1_9  and  C8_10 
REMARK    7  A    between atoms: C8_10  and  C9_11 
REMARK    8  A    between atoms: C16_25  and  O1_26 
ROOT
HETATM    1  C8  UNL     1      65.241  15.308  40.395  1.00  0.00     0.074 C 
ENDROOT
BRANCH   1   2
HETATM    2  N1  UNL     1      66.172  15.150  41.419  1.00  0.00    -0.289 NA
HETATM    3  C7  UNL     1      66.485  16.240  42.275  1.00  0.00     0.102 C 
HETATM    4  C6  UNL     1      67.283  15.502  43.359  1.00  0.00     0.038 C 
HETATM    5  C16 UNL     1      68.040  14.491  42.529  1.00  0.00     0.137 C 
HETATM    6  C15 UNL     1      67.440  14.576  41.121  1.00  0.00     0.127 C 
BRANCH   4   7
HETATM    7  C5  UNL     1      68.209  16.453  44.074  1.00  0.00     0.082 C 
BRANCH   7   8
HETATM    8  S1  UNL     1      67.174  17.759  44.839  1.00  0.00    -0.169 SA
BRANCH   8   9
HETATM    9  C4  UNL     1      67.009  17.447  46.627  1.00  0.00     0.073 C 
BRANCH   9  10
HETATM   10  C3  UNL     1      68.131  18.191  47.333  1.00  0.00     0.010 C 
BRANCH  10  11
HETATM   11  C2  UNL     1      67.636  18.882  48.572  1.00  0.00    -0.004 C 
HETATM   12  C1  UNL     1      66.122  18.902  48.639  1.00  0.00     0.005 C 
ENDBRANCH  10  11
ENDBRANCH   9  10
ENDBRANCH   8   9
ENDBRANCH   7   8
ENDBRANCH   4   7
BRANCH   5  13
HETATM   13  O1  UNL     1      67.765  13.226  43.083  1.00  0.00    -0.394 OA
ATOM     14  H1  UNL     1      67.963  12.585  42.410  1.00  0.00     0.210 HD
ENDBRANCH   5  13
ENDBRANCH   1   2
BRANCH   1  15
HETATM   15  C9  UNL     1      64.942  16.619  39.864  1.00  0.00     0.019 A 
HETATM   16  C10 UNL     1      63.788  17.357  39.852  1.00  0.00     0.103 A 
HETATM   17  N2  UNL     1      64.016  18.535  39.229  1.00  0.00    -0.360 N 
HETATM   18  C11 UNL     1      65.300  18.604  38.823  1.00  0.00     0.101 A 
ATOM     19  H2  UNL     1      63.318  19.266  39.088  1.00  0.00     0.165 HD
HETATM   20  C12 UNL     1      66.019  19.575  38.156  1.00  0.00     0.146 A 
HETATM   21  C14 UNL     1      65.875  17.413  39.217  1.00  0.00     0.076 A 
HETATM   22  N3  UNL     1      65.421  20.787  37.760  1.00  0.00    -0.080 NA
HETATM   23  N4  UNL     1      67.305  19.356  37.885  1.00  0.00    -0.339 N 
HETATM   24  C13 UNL     1      67.902  18.206  38.254  1.00  0.00     0.182 A 
ATOM     25  H4  UNL     1      67.844  20.068  37.392  1.00  0.00     0.167 HD
HETATM   26  N5  UNL     1      67.182  17.277  38.902  1.00  0.00    -0.350 N 
ATOM     27  H5  UNL     1      67.652  16.413  39.174  1.00  0.00     0.166 HD
ENDBRANCH   1  15
TORSDOF 8
ENDMDL
