MODEL 12
REMARK VINA RESULT: -7.627227743      2.596      3.029
REMARK  3 active torsions:
REMARK  status: ('A' for Active; 'I' for Inactive)
REMARK    1  A    between atoms: C7_8  and  C8_9 
REMARK    2  A    between atoms: N2_11  and  C10_12 
REMARK    3  A    between atoms: C13_15  and  O1_16 
ROOT
HETATM    1  C8  UNL     1     -17.541 -17.773  18.010  1.00  0.00     0.093 A 
HETATM    2  C9  UNL     1     -18.038 -16.492  18.103  1.00  0.00     0.151 A 
HETATM    3  N2  UNL     1     -18.458 -16.092  16.894  1.00  0.00    -0.251 N 
HETATM    4  N3  UNL     1     -18.239 -17.075  16.070  1.00  0.00    -0.235 N 
ATOM      5  H3  UNL     1     -18.459 -17.058  15.074  1.00  0.00     0.209 HD
HETATM    6  N4  UNL     1     -17.683 -18.112  16.714  1.00  0.00    -0.282 N 
ATOM      7  H4  UNL     1     -17.414 -19.002  16.295  1.00  0.00     0.188 HD
ENDROOT
BRANCH   1   8
HETATM    8  C7  UNL     1     -16.984 -18.577  19.100  1.00  0.00     0.062 A 
HETATM    9  C6  UNL     1     -16.155 -18.020  20.050  1.00  0.00     0.033 A 
HETATM   10  C5  UNL     1     -15.676 -18.871  21.048  1.00  0.00     0.016 A 
HETATM   11  C4  UNL     1     -16.024 -20.209  21.076  1.00  0.00    -0.003 A 
HETATM   12  C3  UNL     1     -15.575 -21.077  22.040  1.00  0.00     0.031 A 
HETATM   13  C16 UNL     1     -16.860 -20.718  20.099  1.00  0.00     0.112 A 
HETATM   14  C2  UNL     1     -15.951 -22.405  22.023  1.00  0.00     0.094 A 
HETATM   15  N1  UNL     1     -16.767 -22.905  21.070  1.00  0.00    -0.327 N 
HETATM   16  C1  UNL     1     -17.153 -24.319  21.075  1.00  0.00     0.159 C 
HETATM   17  C17 UNL     1     -17.209 -22.060  20.125  1.00  0.00     0.274 A 
HETATM   18  O2  UNL     1     -17.971 -22.512  19.229  1.00  0.00    -0.265 OA
HETATM   19  N5  UNL     1     -17.296 -19.880  19.164  1.00  0.00    -0.349 N 
ATOM     20  H5  UNL     1     -17.912 -20.255  18.443  1.00  0.00     0.166 HD
ENDBRANCH   1   8
BRANCH   3  21
HETATM   21  C10 UNL     1     -19.025 -14.806  16.664  1.00  0.00     0.057 A 
HETATM   22  C11 UNL     1     -18.843 -13.737  17.510  1.00  0.00     0.034 A 
HETATM   23  C12 UNL     1     -19.409 -12.524  17.243  1.00  0.00     0.039 A 
HETATM   24  C13 UNL     1     -20.187 -12.334  16.107  1.00  0.00     0.065 A 
HETATM   25  C14 UNL     1     -20.382 -13.386  15.249  1.00  0.00     0.039 A 
HETATM   26  C15 UNL     1     -19.801 -14.593  15.544  1.00  0.00     0.034 A 
BRANCH  24  27
HETATM   27  O1  UNL     1     -20.769 -11.082  15.836  1.00  0.00    -0.361 OA
ATOM     28  H1  UNL     1     -20.672 -10.678  14.981  1.00  0.00     0.217 HD
ENDBRANCH  24  27
ENDBRANCH   3  21
TORSDOF 3
ENDMDL
