MODEL 2
REMARK VINA RESULT: -9.503040601      2.262      2.448
REMARK  3 active torsions:
REMARK  status: ('A' for Active; 'I' for Inactive)
REMARK    1  A    between atoms: C7_8  and  C8_9 
REMARK    2  A    between atoms: N2_11  and  C10_12 
REMARK    3  A    between atoms: C13_15  and  O1_16 
ROOT
HETATM    1  C8  UNL     1     -18.710 -16.755  17.249  1.00  0.00     0.093 A 
HETATM    2  C9  UNL     1     -18.848 -15.390  17.365  1.00  0.00     0.151 A 
HETATM    3  N2  UNL     1     -19.478 -14.916  16.281  1.00  0.00    -0.251 N 
HETATM    4  N3  UNL     1     -19.731 -15.934  15.511  1.00  0.00    -0.235 N 
ATOM      5  H3  UNL     1     -20.206 -15.878  14.611  1.00  0.00     0.209 HD
HETATM    6  N4  UNL     1     -19.278 -17.067  16.068  1.00  0.00    -0.282 N 
ATOM      7  H4  UNL     1     -19.351 -18.002  15.667  1.00  0.00     0.188 HD
ENDROOT
BRANCH   1   8
HETATM    8  C7  UNL     1     -18.079 -17.657  18.215  1.00  0.00     0.062 A 
HETATM    9  C6  UNL     1     -17.361 -17.169  19.288  1.00  0.00     0.033 A 
HETATM   10  C5  UNL     1     -16.799 -18.112  20.151  1.00  0.00     0.016 A 
HETATM   11  C4  UNL     1     -16.960 -19.468  19.936  1.00  0.00    -0.003 A 
HETATM   12  C3  UNL     1     -16.422 -20.423  20.762  1.00  0.00     0.031 A 
HETATM   13  C16 UNL     1     -17.688 -19.904  18.844  1.00  0.00     0.112 A 
HETATM   14  C2  UNL     1     -16.611 -21.765  20.502  1.00  0.00     0.094 A 
HETATM   15  N1  UNL     1     -17.323 -22.195  19.437  1.00  0.00    -0.327 N 
HETATM   16  C1  UNL     1     -17.509 -23.627  19.183  1.00  0.00     0.159 C 
HETATM   17  C17 UNL     1     -17.849 -21.264  18.626  1.00  0.00     0.274 A 
HETATM   18  O2  UNL     1     -18.516 -21.649  17.628  1.00  0.00    -0.265 OA
HETATM   19  N5  UNL     1     -18.209 -18.981  18.043  1.00  0.00    -0.349 N 
ATOM     20  H5  UNL     1     -18.747 -19.302  17.238  1.00  0.00     0.166 HD
ENDBRANCH   1   8
BRANCH   3  21
HETATM   21  C10 UNL     1     -19.770 -13.533  16.106  1.00  0.00     0.057 A 
HETATM   22  C11 UNL     1     -19.767 -12.622  17.136  1.00  0.00     0.034 A 
HETATM   23  C12 UNL     1     -20.053 -11.307  16.913  1.00  0.00     0.039 A 
HETATM   24  C13 UNL     1     -20.356 -10.848  15.636  1.00  0.00     0.065 A 
HETATM   25  C14 UNL     1     -20.365 -11.739  14.593  1.00  0.00     0.039 A 
HETATM   26  C15 UNL     1     -20.074 -13.055  14.848  1.00  0.00     0.034 A 
BRANCH  24  27
HETATM   27  O1  UNL     1     -20.651  -9.491  15.412  1.00  0.00    -0.361 OA
ATOM     28  H1  UNL     1     -20.031  -8.929  14.961  1.00  0.00     0.217 HD
ENDBRANCH  24  27
ENDBRANCH   3  21
TORSDOF 3
ENDMDL
