MODEL 3
REMARK VINA RESULT: -9.060551123      2.173      2.563
REMARK  3 active torsions:
REMARK  status: ('A' for Active; 'I' for Inactive)
REMARK    1  A    between atoms: C7_8  and  C8_9 
REMARK    2  A    between atoms: N2_11  and  C10_12 
REMARK    3  A    between atoms: C13_15  and  O1_16 
ROOT
HETATM    1  C8  UNL     1     -18.577 -16.821  17.272  1.00  0.00     0.093 A 
HETATM    2  C9  UNL     1     -18.678 -15.448  17.286  1.00  0.00     0.151 A 
HETATM    3  N2  UNL     1     -19.386 -15.046  16.221  1.00  0.00    -0.251 N 
HETATM    4  N3  UNL     1     -19.720 -16.116  15.560  1.00  0.00    -0.235 N 
ATOM      5  H3  UNL     1     -20.267 -16.120  14.699  1.00  0.00     0.209 HD
HETATM    6  N4  UNL     1     -19.245 -17.212  16.170  1.00  0.00    -0.282 N 
ATOM      7  H4  UNL     1     -19.369 -18.174  15.854  1.00  0.00     0.188 HD
ENDROOT
BRANCH   1   8
HETATM    8  C7  UNL     1     -17.886 -17.659  18.255  1.00  0.00     0.062 A 
HETATM    9  C6  UNL     1     -17.090 -17.104  19.236  1.00  0.00     0.033 A 
HETATM   10  C5  UNL     1     -16.476 -17.988  20.125  1.00  0.00     0.016 A 
HETATM   11  C4  UNL     1     -16.663 -19.354  20.021  1.00  0.00    -0.003 A 
HETATM   12  C3  UNL     1     -16.076 -20.254  20.876  1.00  0.00     0.031 A 
HETATM   13  C16 UNL     1     -17.471 -19.859  19.019  1.00  0.00     0.112 A 
HETATM   14  C2  UNL     1     -16.294 -21.609  20.729  1.00  0.00     0.094 A 
HETATM   15  N1  UNL     1     -17.083 -22.105  19.752  1.00  0.00    -0.327 N 
HETATM   16  C1  UNL     1     -17.299 -23.549  19.618  1.00  0.00     0.159 C 
HETATM   17  C17 UNL     1     -17.658 -21.229  18.913  1.00  0.00     0.274 A 
HETATM   18  O2  UNL     1     -18.397 -21.676  17.996  1.00  0.00    -0.265 OA
HETATM   19  N5  UNL     1     -18.039 -18.990  18.191  1.00  0.00    -0.349 N 
ATOM     20  H5  UNL     1     -18.635 -19.362  17.451  1.00  0.00     0.166 HD
ENDBRANCH   1   8
BRANCH   3  21
HETATM   21  C10 UNL     1     -19.664 -13.675  15.956  1.00  0.00     0.057 A 
HETATM   22  C11 UNL     1     -19.859 -13.173  14.690  1.00  0.00     0.034 A 
HETATM   23  C12 UNL     1     -20.123 -11.849  14.492  1.00  0.00     0.039 A 
HETATM   24  C13 UNL     1     -20.203 -10.968  15.564  1.00  0.00     0.065 A 
HETATM   25  C14 UNL     1     -20.012 -11.446  16.835  1.00  0.00     0.039 A 
HETATM   26  C15 UNL     1     -19.747 -12.781  17.004  1.00  0.00     0.034 A 
BRANCH  24  27
HETATM   27  O1  UNL     1     -20.475  -9.604  15.353  1.00  0.00    -0.361 OA
ATOM     28  H1  UNL     1     -19.880  -8.936  15.672  1.00  0.00     0.217 HD
ENDBRANCH  24  27
ENDBRANCH   3  21
TORSDOF 3
ENDMDL
