MODEL 17
REMARK VINA RESULT: -7.195420178      2.783      3.973
REMARK  3 active torsions:
REMARK  status: ('A' for Active; 'I' for Inactive)
REMARK    1  A    between atoms: C7_8  and  C8_9 
REMARK    2  A    between atoms: N2_11  and  C10_12 
REMARK    3  A    between atoms: C13_15  and  O1_16 
ROOT
HETATM    1  C8  UNL     1     -17.264 -18.927  19.723  1.00  0.00     0.093 A 
HETATM    2  C9  UNL     1     -17.372 -17.661  19.192  1.00  0.00     0.151 A 
HETATM    3  N2  UNL     1     -18.406 -17.626  18.340  1.00  0.00    -0.251 N 
HETATM    4  N3  UNL     1     -18.933 -18.816  18.331  1.00  0.00    -0.235 N 
ATOM      5  H3  UNL     1     -19.742 -19.089  17.772  1.00  0.00     0.209 HD
HETATM    6  N4  UNL     1     -18.264 -19.631  19.159  1.00  0.00    -0.282 N 
ATOM      7  H4  UNL     1     -18.477 -20.614  19.332  1.00  0.00     0.188 HD
ENDROOT
BRANCH   1   8
HETATM    8  C7  UNL     1     -16.268 -19.388  20.693  1.00  0.00     0.062 A 
HETATM    9  C6  UNL     1     -16.482 -20.514  21.460  1.00  0.00     0.033 A 
HETATM   10  C5  UNL     1     -15.471 -20.869  22.356  1.00  0.00     0.016 A 
HETATM   11  C4  UNL     1     -14.312 -20.123  22.460  1.00  0.00    -0.003 A 
HETATM   12  C3  UNL     1     -13.297 -20.441  23.327  1.00  0.00     0.031 A 
HETATM   13  C16 UNL     1     -14.146 -19.002  21.667  1.00  0.00     0.112 A 
HETATM   14  C2  UNL     1     -12.159 -19.662  23.395  1.00  0.00     0.094 A 
HETATM   15  N1  UNL     1     -11.994 -18.567  22.621  1.00  0.00    -0.327 N 
HETATM   16  C1  UNL     1     -10.775 -17.758  22.712  1.00  0.00     0.159 C 
HETATM   17  C17 UNL     1     -12.985 -18.252  21.772  1.00  0.00     0.274 A 
HETATM   18  O2  UNL     1     -12.846 -17.234  21.044  1.00  0.00    -0.265 OA
HETATM   19  N5  UNL     1     -15.129 -18.693  20.827  1.00  0.00    -0.349 N 
ATOM     20  H5  UNL     1     -15.007 -17.866  20.242  1.00  0.00     0.166 HD
ENDBRANCH   1   8
BRANCH   3  21
HETATM   21  C10 UNL     1     -18.776 -16.449  17.628  1.00  0.00     0.057 A 
HETATM   22  C11 UNL     1     -19.372 -16.471  16.389  1.00  0.00     0.034 A 
HETATM   23  C12 UNL     1     -19.707 -15.313  15.749  1.00  0.00     0.039 A 
HETATM   24  C13 UNL     1     -19.453 -14.076  16.331  1.00  0.00     0.065 A 
HETATM   25  C14 UNL     1     -18.859 -14.031  17.566  1.00  0.00     0.039 A 
HETATM   26  C15 UNL     1     -18.534 -15.211  18.185  1.00  0.00     0.034 A 
BRANCH  24  27
HETATM   27  O1  UNL     1     -19.800 -12.885  15.667  1.00  0.00    -0.361 OA
ATOM     28  H1  UNL     1     -19.270 -12.103  15.767  1.00  0.00     0.217 HD
ENDBRANCH  24  27
ENDBRANCH   3  21
TORSDOF 3
ENDMDL
