MODEL 9
REMARK VINA RESULT: -6.791215456      3.635      6.066
REMARK  3 active torsions:
REMARK  status: ('A' for Active; 'I' for Inactive)
REMARK    1  A    between atoms: C2_2  and  N1_3 
REMARK    2  A    between atoms: C4_5  and  C5_6 
REMARK    3  A    between atoms: C7_8  and  C8_9 
ROOT
HETATM    1  N1  UNL     1      -1.456   5.122  12.292  1.00  0.00    -0.356 N 
HETATM    2  C3  UNL     1      -2.170   4.062  12.735  1.00  0.00     0.106 A 
HETATM    3  C4  UNL     1      -2.849   4.431  13.877  1.00  0.00     0.020 A 
HETATM    4  C10 UNL     1      -2.508   5.748  14.090  1.00  0.00     0.005 A 
HETATM    5  C11 UNL     1      -2.870   6.654  15.068  1.00  0.00     0.014 A 
HETATM    6  C12 UNL     1      -2.379   7.941  15.057  1.00  0.00     0.001 A 
HETATM    7  C13 UNL     1      -1.512   8.372  14.073  1.00  0.00     0.002 A 
HETATM    8  C14 UNL     1      -1.141   7.476  13.086  1.00  0.00     0.030 A 
HETATM    9  C15 UNL     1      -1.642   6.186  13.110  1.00  0.00     0.045 A 
ENDROOT
BRANCH   3  10
HETATM   10  C5  UNL     1      -3.743   3.588  14.684  1.00  0.00     0.063 A 
HETATM   11  C6  UNL     1      -3.585   2.288  15.046  1.00  0.00     0.070 A 
HETATM   12  C7  UNL     1      -4.706   1.945  15.809  1.00  0.00     0.129 A 
HETATM   13  N2  UNL     1      -5.498   3.036  15.884  1.00  0.00    -0.290 N 
HETATM   14  C9  UNL     1      -6.776   3.093  16.597  1.00  0.00     0.178 C 
HETATM   15  N3  UNL     1      -4.912   3.985  15.216  1.00  0.00    -0.297 N 
ATOM     16  H3  UNL     1      -5.295   4.924  15.108  1.00  0.00     0.187 HD
BRANCH  12  17
HETATM   17  C8  UNL     1      -4.977   0.658  16.413  1.00  0.00     0.228 C 
HETATM   18  O1  UNL     1      -5.174   0.558  17.638  1.00  0.00    -0.643 OA
HETATM   19  O2  UNL     1      -5.019  -0.470  15.625  1.00  0.00    -0.643 OA
ENDBRANCH  12  17
ENDBRANCH   3  10
BRANCH   1  20
HETATM   20  C2  UNL     1      -0.620   5.105  11.117  1.00  0.00     0.124 C 
HETATM   21  C1  UNL     1       0.254   3.884  11.054  1.00  0.00     0.027 C 
ENDBRANCH   1  20
TORSDOF 3
ENDMDL
