MODEL 1
REMARK VINA RESULT: -7.441885761      0.000      0.000
REMARK  3 active torsions:
REMARK  status: ('A' for Active; 'I' for Inactive)
REMARK    1  A    between atoms: C2_2  and  N1_3 
REMARK    2  A    between atoms: C4_5  and  C5_6 
REMARK    3  A    between atoms: C7_8  and  C8_9 
ROOT
HETATM    1  N1  UNL     1      -5.682   1.982  16.441  1.00  0.00    -0.356 N 
HETATM    2  C3  UNL     1      -5.035   1.132  15.612  1.00  0.00     0.106 A 
HETATM    3  C4  UNL     1      -4.714   1.803  14.451  1.00  0.00     0.020 A 
HETATM    4  C10 UNL     1      -5.196   3.082  14.629  1.00  0.00     0.005 A 
HETATM    5  C11 UNL     1      -5.175   4.201  13.820  1.00  0.00     0.014 A 
HETATM    6  C12 UNL     1      -5.738   5.387  14.237  1.00  0.00     0.001 A 
HETATM    7  C13 UNL     1      -6.341   5.499  15.474  1.00  0.00     0.002 A 
HETATM    8  C14 UNL     1      -6.369   4.387  16.296  1.00  0.00     0.030 A 
HETATM    9  C15 UNL     1      -5.799   3.202  15.862  1.00  0.00     0.045 A 
ENDROOT
BRANCH   3  10
HETATM   10  C5  UNL     1      -4.007   1.258  13.283  1.00  0.00     0.063 A 
HETATM   11  C6  UNL     1      -4.251   0.106  12.606  1.00  0.00     0.070 A 
HETATM   12  C7  UNL     1      -3.306   0.038  11.576  1.00  0.00     0.129 A 
HETATM   13  N2  UNL     1      -2.530   1.139  11.662  1.00  0.00    -0.290 N 
HETATM   14  C9  UNL     1      -1.416   1.447  10.763  1.00  0.00     0.178 C 
HETATM   15  N3  UNL     1      -2.960   1.837  12.670  1.00  0.00    -0.297 N 
ATOM     16  H3  UNL     1      -2.550   2.724  12.963  1.00  0.00     0.187 HD
BRANCH  12  17
HETATM   17  C8  UNL     1      -3.177  -1.016  10.593  1.00  0.00     0.228 C 
HETATM   18  O1  UNL     1      -3.476  -0.815   9.401  1.00  0.00    -0.643 OA
HETATM   19  O2  UNL     1      -2.718  -2.255  10.977  1.00  0.00    -0.643 OA
ENDBRANCH  12  17
ENDBRANCH   3  10
BRANCH   1  20
HETATM   20  C2  UNL     1      -6.171   1.628  17.750  1.00  0.00     0.124 C 
HETATM   21  C1  UNL     1      -7.438   0.821  17.688  1.00  0.00     0.027 C 
ENDBRANCH   1  20
TORSDOF 3
ENDMDL
