MODEL 3
REMARK VINA RESULT: -7.289179450      0.806      2.749
REMARK  3 active torsions:
REMARK  status: ('A' for Active; 'I' for Inactive)
REMARK    1  A    between atoms: C2_2  and  N1_3 
REMARK    2  A    between atoms: C4_5  and  C5_6 
REMARK    3  A    between atoms: C7_8  and  C8_9 
ROOT
HETATM    1  N1  UNL     1      -5.928   3.889  15.261  1.00  0.00    -0.356 N 
HETATM    2  C3  UNL     1      -5.274   3.610  14.110  1.00  0.00     0.106 A 
HETATM    3  C4  UNL     1      -4.824   2.308  14.161  1.00  0.00     0.020 A 
HETATM    4  C10 UNL     1      -5.238   1.831  15.385  1.00  0.00     0.005 A 
HETATM    5  C11 UNL     1      -5.088   0.604  16.001  1.00  0.00     0.014 A 
HETATM    6  C12 UNL     1      -5.606   0.373  17.257  1.00  0.00     0.001 A 
HETATM    7  C13 UNL     1      -6.292   1.356  17.942  1.00  0.00     0.002 A 
HETATM    8  C14 UNL     1      -6.451   2.590  17.338  1.00  0.00     0.030 A 
HETATM    9  C15 UNL     1      -5.924   2.807  16.075  1.00  0.00     0.045 A 
ENDROOT
BRANCH   3  10
HETATM   10  C5  UNL     1      -4.066   1.595  13.122  1.00  0.00     0.063 A 
HETATM   11  C6  UNL     1      -4.349   0.403  12.534  1.00  0.00     0.070 A 
HETATM   12  C7  UNL     1      -3.325   0.158  11.612  1.00  0.00     0.129 A 
HETATM   13  N2  UNL     1      -2.466   1.198  11.671  1.00  0.00    -0.290 N 
HETATM   14  C9  UNL     1      -1.254   1.327  10.860  1.00  0.00     0.178 C 
HETATM   15  N3  UNL     1      -2.923   2.026  12.563  1.00  0.00    -0.297 N 
ATOM     16  H3  UNL     1      -2.464   2.903  12.812  1.00  0.00     0.187 HD
BRANCH  12  17
HETATM   17  C8  UNL     1      -3.201  -0.996  10.749  1.00  0.00     0.228 C 
HETATM   18  O1  UNL     1      -3.442  -0.908   9.530  1.00  0.00    -0.643 OA
HETATM   19  O2  UNL     1      -2.812  -2.206  11.278  1.00  0.00    -0.643 OA
ENDBRANCH  12  17
ENDBRANCH   3  10
BRANCH   1  20
HETATM   20  C2  UNL     1      -6.535   5.162  15.563  1.00  0.00     0.124 C 
HETATM   21  C1  UNL     1      -6.958   5.903  14.326  1.00  0.00     0.027 C 
ENDBRANCH   1  20
TORSDOF 3
ENDMDL
