MODEL 2
REMARK VINA RESULT: -7.436500770      3.003      6.600
REMARK  3 active torsions:
REMARK  status: ('A' for Active; 'I' for Inactive)
REMARK    1  A    between atoms: C2_2  and  N1_3 
REMARK    2  A    between atoms: C4_5  and  C5_6 
REMARK    3  A    between atoms: C7_8  and  C8_9 
ROOT
HETATM    1  N1  UNL     1      -2.640   2.661  11.598  1.00  0.00    -0.356 N 
HETATM    2  C3  UNL     1      -3.209   3.044  12.764  1.00  0.00     0.106 A 
HETATM    3  C4  UNL     1      -3.896   1.973  13.295  1.00  0.00     0.020 A 
HETATM    4  C10 UNL     1      -3.711   0.945  12.396  1.00  0.00     0.005 A 
HETATM    5  C11 UNL     1      -4.151  -0.364  12.382  1.00  0.00     0.014 A 
HETATM    6  C12 UNL     1      -3.821  -1.211  11.345  1.00  0.00     0.001 A 
HETATM    7  C13 UNL     1      -3.040  -0.784  10.290  1.00  0.00     0.002 A 
HETATM    8  C14 UNL     1      -2.591   0.525  10.292  1.00  0.00     0.030 A 
HETATM    9  C15 UNL     1      -2.931   1.364  11.339  1.00  0.00     0.045 A 
ENDROOT
BRANCH   3  10
HETATM   10  C5  UNL     1      -4.659   1.948  14.551  1.00  0.00     0.063 A 
HETATM   11  C6  UNL     1      -4.681   0.988  15.511  1.00  0.00     0.070 A 
HETATM   12  C7  UNL     1      -5.561   1.432  16.504  1.00  0.00     0.129 A 
HETATM   13  N2  UNL     1      -6.038   2.634  16.116  1.00  0.00    -0.290 N 
HETATM   14  C9  UNL     1      -6.993   3.440  16.881  1.00  0.00     0.178 C 
HETATM   15  N3  UNL     1      -5.495   2.914  14.969  1.00  0.00    -0.297 N 
ATOM     16  H3  UNL     1      -5.682   3.769  14.445  1.00  0.00     0.187 HD
BRANCH  12  17
HETATM   17  C8  UNL     1      -5.903   0.738  17.726  1.00  0.00     0.228 C 
HETATM   18  O1  UNL     1      -5.887   1.331  18.821  1.00  0.00    -0.643 OA
HETATM   19  O2  UNL     1      -6.253  -0.592  17.680  1.00  0.00    -0.643 OA
ENDBRANCH  12  17
ENDBRANCH   3  10
BRANCH   1  20
HETATM   20  C2  UNL     1      -1.841   3.522  10.761  1.00  0.00     0.124 C 
HETATM   21  C1  UNL     1      -0.380   3.464  11.109  1.00  0.00     0.027 C 
ENDBRANCH   1  20
TORSDOF 3
ENDMDL
