MODEL 16
REMARK VINA RESULT: -6.596531739      4.484      6.409
REMARK  3 active torsions:
REMARK  status: ('A' for Active; 'I' for Inactive)
REMARK    1  A    between atoms: C2_2  and  N1_3 
REMARK    2  A    between atoms: C4_5  and  C5_6 
REMARK    3  A    between atoms: C7_8  and  C8_9 
ROOT
HETATM    1  N1  UNL     1      -0.324   6.547  12.446  1.00  0.00    -0.356 N 
HETATM    2  C3  UNL     1      -0.860   5.306  12.482  1.00  0.00     0.106 A 
HETATM    3  C4  UNL     1      -1.812   5.263  13.479  1.00  0.00     0.020 A 
HETATM    4  C10 UNL     1      -1.816   6.526  14.029  1.00  0.00     0.005 A 
HETATM    5  C11 UNL     1      -2.550   7.088  15.054  1.00  0.00     0.014 A 
HETATM    6  C12 UNL     1      -2.362   8.403  15.422  1.00  0.00     0.001 A 
HETATM    7  C13 UNL     1      -1.437   9.203  14.780  1.00  0.00     0.002 A 
HETATM    8  C14 UNL     1      -0.694   8.653  13.751  1.00  0.00     0.030 A 
HETATM    9  C15 UNL     1      -0.894   7.331  13.393  1.00  0.00     0.045 A 
ENDROOT
BRANCH   3  10
HETATM   10  C5  UNL     1      -2.637   4.108  13.862  1.00  0.00     0.063 A 
HETATM   11  C6  UNL     1      -3.054   3.737  15.101  1.00  0.00     0.070 A 
HETATM   12  C7  UNL     1      -3.812   2.573  14.937  1.00  0.00     0.129 A 
HETATM   13  N2  UNL     1      -3.831   2.281  13.619  1.00  0.00    -0.290 N 
HETATM   14  C9  UNL     1      -4.521   1.132  13.027  1.00  0.00     0.178 C 
HETATM   15  N3  UNL     1      -3.135   3.195  13.010  1.00  0.00    -0.297 N 
ATOM     16  H3  UNL     1      -2.984   3.217  12.002  1.00  0.00     0.187 HD
BRANCH  12  17
HETATM   17  C8  UNL     1      -4.463   1.813  15.983  1.00  0.00     0.228 C 
HETATM   18  O1  UNL     1      -5.577   2.156  16.419  1.00  0.00    -0.643 OA
HETATM   19  O2  UNL     1      -3.845   0.698  16.502  1.00  0.00    -0.643 OA
ENDBRANCH  12  17
ENDBRANCH   3  10
BRANCH   1  20
HETATM   20  C2  UNL     1       0.706   6.962  11.526  1.00  0.00     0.124 C 
HETATM   21  C1  UNL     1       2.084   6.614  12.016  1.00  0.00     0.027 C 
ENDBRANCH   1  20
TORSDOF 3
ENDMDL
