MODEL 14
REMARK VINA RESULT: -9.084981376      2.428      6.882
REMARK  6 active torsions:
REMARK  status: ('A' for Active; 'I' for Inactive)
REMARK    1  A    between atoms: C1_2  and  C2_4 
REMARK    2  A    between atoms: C9_13  and  C10_14 
REMARK    3  A    between atoms: C10_14  and  C11_15 
REMARK    4  A    between atoms: C11_15  and  C12_16 
REMARK    5  A    between atoms: C12_16  and  O3_17 
REMARK    6  A    between atoms: O3_17  and  C13_18 
ROOT
HETATM    1  C10 UNL     1       9.738  -8.469  10.756  1.00  0.00     0.044 C 
ENDROOT
BRANCH   1   2
HETATM    2  C9  UNL     1      10.734  -7.487  11.238  1.00  0.00    -0.012 A 
HETATM    3  C2  UNL     1      11.144  -7.185  12.506  1.00  0.00     0.117 A 
HETATM    4  N1  UNL     1      11.985  -6.100  12.387  1.00  0.00    -0.350 N 
HETATM    5  C3  UNL     1      12.092  -5.753  11.097  1.00  0.00     0.043 A 
ATOM      6  H1  UNL     1      12.456  -5.633  13.162  1.00  0.00     0.166 HD
HETATM    7  C4  UNL     1      12.809  -4.742  10.445  1.00  0.00     0.030 A 
HETATM    8  C8  UNL     1      11.327  -6.590  10.318  1.00  0.00    -0.001 A 
HETATM    9  C5  UNL     1      12.729  -4.617   9.074  1.00  0.00     0.002 A 
HETATM   10  C6  UNL     1      11.962  -5.458   8.296  1.00  0.00     0.001 A 
HETATM   11  C7  UNL     1      11.262  -6.448   8.950  1.00  0.00     0.014 A 
BRANCH   3  12
HETATM   12  C1  UNL     1      10.831  -7.860  13.755  1.00  0.00     0.227 C 
HETATM   13  O1  UNL     1      11.768  -8.344  14.437  1.00  0.00    -0.643 OA
HETATM   14  O2  UNL     1       9.550  -7.996  14.215  1.00  0.00    -0.643 OA
ENDBRANCH   3  12
ENDBRANCH   1   2
BRANCH   1  15
HETATM   15  C11 UNL     1      10.369  -9.773  10.389  1.00  0.00     0.031 C 
BRANCH  15  16
HETATM   16  C12 UNL     1       9.997 -10.993  11.128  1.00  0.00     0.176 C 
BRANCH  16  17
HETATM   17  O3  UNL     1      10.657 -11.078  12.342  1.00  0.00    -0.350 OA
BRANCH  17  18
HETATM   18  C13 UNL     1      11.837 -11.692  12.638  1.00  0.00     0.079 A 
HETATM   19  C14 UNL     1      13.006 -10.967  12.600  1.00  0.00     0.037 A 
HETATM   20  C15 UNL     1      14.182 -11.644  12.911  1.00  0.00     0.004 A 
HETATM   21  C16 UNL     1      14.174 -12.987  13.244  1.00  0.00     0.012 A 
HETATM   22  C17 UNL     1      12.991 -13.713  13.280  1.00  0.00    -0.023 A 
HETATM   23  C18 UNL     1      12.990 -15.056  13.611  1.00  0.00     0.012 A 
HETATM   24  C22 UNL     1      11.837 -13.031  12.970  1.00  0.00     0.007 A 
HETATM   25  C19 UNL     1      11.810 -15.778  13.646  1.00  0.00     0.001 A 
HETATM   26  C20 UNL     1      10.648 -15.104  13.337  1.00  0.00     0.001 A 
HETATM   27  C21 UNL     1      10.649 -13.768  13.007  1.00  0.00     0.015 A 
ENDBRANCH  17  18
ENDBRANCH  16  17
ENDBRANCH  15  16
ENDBRANCH   1  15
TORSDOF 6
ENDMDL
