MODEL 2
REMARK VINA RESULT: -10.207989769      0.862      1.140
REMARK  6 active torsions:
REMARK  status: ('A' for Active; 'I' for Inactive)
REMARK    1  A    between atoms: C1_2  and  C2_4 
REMARK    2  A    between atoms: C9_13  and  C10_14 
REMARK    3  A    between atoms: C10_14  and  C11_15 
REMARK    4  A    between atoms: C11_15  and  C12_16 
REMARK    5  A    between atoms: C12_16  and  O3_17 
REMARK    6  A    between atoms: O3_17  and  C13_18 
ROOT
HETATM    1  C10 UNL     1      11.642  -8.504  14.559  1.00  0.00     0.044 C 
ENDROOT
BRANCH   1   2
HETATM    2  C9  UNL     1      11.566  -9.937  14.916  1.00  0.00    -0.012 A 
HETATM    3  C2  UNL     1      10.828 -10.579  15.870  1.00  0.00     0.117 A 
HETATM    4  N1  UNL     1      11.248 -11.891  15.859  1.00  0.00    -0.350 N 
HETATM    5  C3  UNL     1      12.204 -12.050  14.932  1.00  0.00     0.043 A 
ATOM      6  H1  UNL     1      10.888 -12.629  16.464  1.00  0.00     0.166 HD
HETATM    7  C4  UNL     1      12.948 -13.162  14.522  1.00  0.00     0.030 A 
HETATM    8  C8  UNL     1      12.450 -10.854  14.300  1.00  0.00    -0.001 A 
HETATM    9  C5  UNL     1      13.886 -13.030  13.520  1.00  0.00     0.002 A 
HETATM   10  C6  UNL     1      14.131 -11.830  12.886  1.00  0.00     0.001 A 
HETATM   11  C7  UNL     1      13.391 -10.744  13.300  1.00  0.00     0.014 A 
BRANCH   3  12
HETATM   12  C1  UNL     1       9.770 -10.053  16.718  1.00  0.00     0.227 C 
HETATM   13  O1  UNL     1       9.990  -9.906  17.945  1.00  0.00    -0.643 OA
HETATM   14  O2  UNL     1       8.537  -9.717  16.230  1.00  0.00    -0.643 OA
ENDBRANCH   3  12
ENDBRANCH   1   2
BRANCH   1  15
HETATM   15  C11 UNL     1      10.434  -8.049  13.807  1.00  0.00     0.031 C 
BRANCH  15  16
HETATM   16  C12 UNL     1      10.100  -8.681  12.518  1.00  0.00     0.176 C 
BRANCH  16  17
HETATM   17  O3  UNL     1       9.789  -7.740  11.551  1.00  0.00    -0.350 OA
BRANCH  17  18
HETATM   18  C13 UNL     1      10.266  -7.624  10.280  1.00  0.00     0.079 A 
HETATM   19  C14 UNL     1       9.789  -8.462   9.298  1.00  0.00     0.037 A 
HETATM   20  C15 UNL     1      10.312  -8.300   8.017  1.00  0.00     0.004 A 
HETATM   21  C16 UNL     1      11.266  -7.336   7.745  1.00  0.00     0.012 A 
HETATM   22  C17 UNL     1      11.743  -6.494   8.741  1.00  0.00    -0.023 A 
HETATM   23  C18 UNL     1      12.700  -5.533   8.463  1.00  0.00     0.012 A 
HETATM   24  C22 UNL     1      11.218  -6.666  10.001  1.00  0.00     0.007 A 
HETATM   25  C19 UNL     1      13.174  -4.695   9.457  1.00  0.00     0.001 A 
HETATM   26  C20 UNL     1      12.655  -4.860  10.723  1.00  0.00     0.001 A 
HETATM   27  C21 UNL     1      11.703  -5.815  10.999  1.00  0.00     0.015 A 
ENDBRANCH  17  18
ENDBRANCH  16  17
ENDBRANCH  15  16
ENDBRANCH   1  15
TORSDOF 6
ENDMDL
