MODEL 1
REMARK VINA RESULT: -10.556176899      0.000      0.000
REMARK  6 active torsions:
REMARK  status: ('A' for Active; 'I' for Inactive)
REMARK    1  A    between atoms: C1_2  and  C2_4 
REMARK    2  A    between atoms: C9_13  and  C10_14 
REMARK    3  A    between atoms: C10_14  and  C11_15 
REMARK    4  A    between atoms: C11_15  and  C12_16 
REMARK    5  A    between atoms: C12_16  and  O3_17 
REMARK    6  A    between atoms: O3_17  and  C13_18 
ROOT
HETATM    1  C10 UNL     1      10.335  -8.075  13.969  1.00  0.00     0.044 C 
ENDROOT
BRANCH   1   2
HETATM    2  C9  UNL     1      10.614  -9.338  14.687  1.00  0.00    -0.012 A 
HETATM    3  C2  UNL     1      10.077  -9.844  15.837  1.00  0.00     0.117 A 
HETATM    4  N1  UNL     1      10.797 -10.982  16.127  1.00  0.00    -0.350 N 
HETATM    5  C3  UNL     1      11.737 -11.170  15.189  1.00  0.00     0.043 A 
ATOM      6  H1  UNL     1      10.640 -11.590  16.931  1.00  0.00     0.166 HD
HETATM    7  C4  UNL     1      12.714 -12.157  15.014  1.00  0.00     0.030 A 
HETATM    8  C8  UNL     1      11.673 -10.166  14.251  1.00  0.00    -0.001 A 
HETATM    9  C5  UNL     1      13.566 -12.097  13.930  1.00  0.00     0.002 A 
HETATM   10  C6  UNL     1      13.499 -11.090  12.990  1.00  0.00     0.001 A 
HETATM   11  C7  UNL     1      12.533 -10.125  13.176  1.00  0.00     0.014 A 
BRANCH   3  12
HETATM   12  C1  UNL     1       8.947  -9.357  16.613  1.00  0.00     0.227 C 
HETATM   13  O1  UNL     1       7.794  -9.432  16.123  1.00  0.00    -0.643 OA
HETATM   14  O2  UNL     1       9.094  -8.810  17.859  1.00  0.00    -0.643 OA
ENDBRANCH   3  12
ENDBRANCH   1   2
BRANCH   1  15
HETATM   15  C11 UNL     1       9.023  -8.115  13.255  1.00  0.00     0.031 C 
BRANCH  15  16
HETATM   16  C12 UNL     1       8.935  -8.753  11.930  1.00  0.00     0.176 C 
BRANCH  16  17
HETATM   17  O3  UNL     1      10.116  -8.625  11.220  1.00  0.00    -0.350 OA
BRANCH  17  18
HETATM   18  C13 UNL     1      10.319  -8.104   9.977  1.00  0.00     0.079 A 
HETATM   19  C14 UNL     1       9.793  -8.746   8.879  1.00  0.00     0.037 A 
HETATM   20  C15 UNL     1      10.031  -8.170   7.634  1.00  0.00     0.004 A 
HETATM   21  C16 UNL     1      10.763  -7.004   7.507  1.00  0.00     0.012 A 
HETATM   22  C17 UNL     1      11.292  -6.361   8.619  1.00  0.00    -0.023 A 
HETATM   23  C18 UNL     1      12.026  -5.195   8.486  1.00  0.00     0.012 A 
HETATM   24  C22 UNL     1      11.049  -6.942   9.843  1.00  0.00     0.007 A 
HETATM   25  C19 UNL     1      12.553  -4.558   9.595  1.00  0.00     0.001 A 
HETATM   26  C20 UNL     1      12.315  -5.131  10.826  1.00  0.00     0.001 A 
HETATM   27  C21 UNL     1      11.585  -6.290  10.958  1.00  0.00     0.015 A 
ENDBRANCH  17  18
ENDBRANCH  16  17
ENDBRANCH  15  16
ENDBRANCH   1  15
TORSDOF 6
ENDMDL
