MODEL 5
REMARK VINA RESULT: -9.869742735      1.026      1.504
REMARK  6 active torsions:
REMARK  status: ('A' for Active; 'I' for Inactive)
REMARK    1  A    between atoms: C1_2  and  C2_4 
REMARK    2  A    between atoms: C9_13  and  C10_14 
REMARK    3  A    between atoms: C10_14  and  C11_15 
REMARK    4  A    between atoms: C11_15  and  C12_16 
REMARK    5  A    between atoms: C12_16  and  O3_17 
REMARK    6  A    between atoms: O3_17  and  C13_18 
ROOT
HETATM    1  C10 UNL     1      11.987  -9.221  13.012  1.00  0.00     0.044 C 
ENDROOT
BRANCH   1   2
HETATM    2  C9  UNL     1      11.919 -10.190  14.128  1.00  0.00    -0.012 A 
HETATM    3  C2  UNL     1      11.232 -10.142  15.308  1.00  0.00     0.117 A 
HETATM    4  N1  UNL     1      11.640 -11.240  16.033  1.00  0.00    -0.350 N 
HETATM    5  C3  UNL     1      12.538 -11.938  15.324  1.00  0.00     0.043 A 
ATOM      6  H1  UNL     1      11.308 -11.485  16.966  1.00  0.00     0.166 HD
HETATM    7  C4  UNL     1      13.248 -13.114  15.594  1.00  0.00     0.030 A 
HETATM    8  C8  UNL     1      12.758 -11.329  14.111  1.00  0.00    -0.001 A 
HETATM    9  C5  UNL     1      14.127 -13.617  14.658  1.00  0.00     0.002 A 
HETATM   10  C6  UNL     1      14.346 -13.004  13.441  1.00  0.00     0.001 A 
HETATM   11  C7  UNL     1      13.640 -11.847  13.190  1.00  0.00     0.014 A 
BRANCH   3  12
HETATM   12  C1  UNL     1      10.230  -9.183  15.746  1.00  0.00     0.227 C 
HETATM   13  O1  UNL     1      10.541  -8.331  16.615  1.00  0.00    -0.643 OA
HETATM   14  O2  UNL     1       8.954  -9.178  15.253  1.00  0.00    -0.643 OA
ENDBRANCH   3  12
ENDBRANCH   1   2
BRANCH   1  15
HETATM   15  C11 UNL     1      11.142  -9.641  11.854  1.00  0.00     0.031 C 
BRANCH  15  16
HETATM   16  C12 UNL     1       9.764  -9.130  11.736  1.00  0.00     0.176 C 
BRANCH  16  17
HETATM   17  O3  UNL     1       9.721  -7.925  11.056  1.00  0.00    -0.350 OA
BRANCH  17  18
HETATM   18  C13 UNL     1      10.247  -7.604   9.841  1.00  0.00     0.079 A 
HETATM   19  C14 UNL     1       9.809  -8.268   8.717  1.00  0.00     0.037 A 
HETATM   20  C15 UNL     1      10.380  -7.900   7.502  1.00  0.00     0.004 A 
HETATM   21  C16 UNL     1      11.343  -6.911   7.427  1.00  0.00     0.012 A 
HETATM   22  C17 UNL     1      11.781  -6.245   8.565  1.00  0.00    -0.023 A 
HETATM   23  C18 UNL     1      12.747  -5.258   8.485  1.00  0.00     0.012 A 
HETATM   24  C22 UNL     1      11.209  -6.619   9.759  1.00  0.00     0.007 A 
HETATM   25  C19 UNL     1      13.182  -4.596   9.620  1.00  0.00     0.001 A 
HETATM   26  C20 UNL     1      12.615  -4.963  10.822  1.00  0.00     0.001 A 
HETATM   27  C21 UNL     1      11.654  -5.946  10.901  1.00  0.00     0.015 A 
ENDBRANCH  17  18
ENDBRANCH  16  17
ENDBRANCH  15  16
ENDBRANCH   1  15
TORSDOF 6
ENDMDL
