MODEL 13
REMARK VINA RESULT: -9.147845743      2.293      7.148
REMARK  6 active torsions:
REMARK  status: ('A' for Active; 'I' for Inactive)
REMARK    1  A    between atoms: C1_2  and  C2_4 
REMARK    2  A    between atoms: C9_13  and  C10_14 
REMARK    3  A    between atoms: C10_14  and  C11_15 
REMARK    4  A    between atoms: C11_15  and  C12_16 
REMARK    5  A    between atoms: C12_16  and  O3_17 
REMARK    6  A    between atoms: O3_17  and  C13_18 
ROOT
HETATM    1  C10 UNL     1      11.153  -6.719  12.758  1.00  0.00     0.044 C 
ENDROOT
BRANCH   1   2
HETATM    2  C9  UNL     1      11.027  -7.006  11.313  1.00  0.00    -0.012 A 
HETATM    3  C2  UNL     1      10.379  -8.016  10.659  1.00  0.00     0.117 A 
HETATM    4  N1  UNL     1      10.705  -7.880   9.327  1.00  0.00    -0.350 N 
HETATM    5  C3  UNL     1      11.517  -6.825   9.168  1.00  0.00     0.043 A 
ATOM      6  H1  UNL     1      10.377  -8.488   8.577  1.00  0.00     0.166 HD
HETATM    7  C4  UNL     1      12.124  -6.261   8.041  1.00  0.00     0.030 A 
HETATM    8  C8  UNL     1      11.758  -6.229  10.384  1.00  0.00    -0.001 A 
HETATM    9  C5  UNL     1      12.929  -5.149   8.177  1.00  0.00     0.002 A 
HETATM   10  C6  UNL     1      13.169  -4.552   9.397  1.00  0.00     0.001 A 
HETATM   11  C7  UNL     1      12.565  -5.119  10.498  1.00  0.00     0.014 A 
BRANCH   3  12
HETATM   12  C1  UNL     1       9.480  -9.026  11.195  1.00  0.00     0.227 C 
HETATM   13  O1  UNL     1       8.519  -8.663  11.918  1.00  0.00    -0.643 OA
HETATM   14  O2  UNL     1       9.645 -10.361  10.949  1.00  0.00    -0.643 OA
ENDBRANCH   3  12
ENDBRANCH   1   2
BRANCH   1  15
HETATM   15  C11 UNL     1      11.891  -7.798  13.482  1.00  0.00     0.031 C 
BRANCH  15  16
HETATM   16  C12 UNL     1      11.191  -8.599  14.502  1.00  0.00     0.176 C 
BRANCH  16  17
HETATM   17  O3  UNL     1      11.122  -9.935  14.147  1.00  0.00    -0.350 OA
BRANCH  17  18
HETATM   18  C13 UNL     1      12.132 -10.836  13.993  1.00  0.00     0.079 A 
HETATM   19  C14 UNL     1      12.918 -10.787  12.864  1.00  0.00     0.037 A 
HETATM   20  C15 UNL     1      13.935 -11.732  12.759  1.00  0.00     0.004 A 
HETATM   21  C16 UNL     1      14.146 -12.678  13.745  1.00  0.00     0.012 A 
HETATM   22  C17 UNL     1      13.348 -12.723  14.882  1.00  0.00    -0.023 A 
HETATM   23  C18 UNL     1      13.562 -13.673  15.864  1.00  0.00     0.012 A 
HETATM   24  C22 UNL     1      12.347 -11.783  14.972  1.00  0.00     0.007 A 
HETATM   25  C19 UNL     1      12.766 -13.716  16.995  1.00  0.00     0.001 A 
HETATM   26  C20 UNL     1      11.760 -12.779  17.096  1.00  0.00     0.001 A 
HETATM   27  C21 UNL     1      11.547 -11.835  16.118  1.00  0.00     0.015 A 
ENDBRANCH  17  18
ENDBRANCH  16  17
ENDBRANCH  15  16
ENDBRANCH   1  15
TORSDOF 6
ENDMDL
