MODEL 20
REMARK VINA RESULT: -8.902945461      1.446      2.486
REMARK  6 active torsions:
REMARK  status: ('A' for Active; 'I' for Inactive)
REMARK    1  A    between atoms: C1_2  and  C2_4 
REMARK    2  A    between atoms: C9_13  and  C10_14 
REMARK    3  A    between atoms: C10_14  and  C11_15 
REMARK    4  A    between atoms: C11_15  and  C12_16 
REMARK    5  A    between atoms: C12_16  and  O3_17 
REMARK    6  A    between atoms: O3_17  and  C13_18 
ROOT
HETATM    1  C10 UNL     1      11.501  -8.938  15.455  1.00  0.00     0.044 C 
ENDROOT
BRANCH   1   2
HETATM    2  C9  UNL     1      11.337 -10.396  15.269  1.00  0.00    -0.012 A 
HETATM    3  C2  UNL     1      10.480 -11.279  15.864  1.00  0.00     0.117 A 
HETATM    4  N1  UNL     1      10.853 -12.530  15.422  1.00  0.00    -0.350 N 
HETATM    5  C3  UNL     1      11.894 -12.419  14.585  1.00  0.00     0.043 A 
ATOM      6  H1  UNL     1      10.404 -13.406  15.690  1.00  0.00     0.166 HD
HETATM    7  C4  UNL     1      12.638 -13.366  13.871  1.00  0.00     0.030 A 
HETATM    8  C8  UNL     1      12.248 -11.098  14.445  1.00  0.00    -0.001 A 
HETATM    9  C5  UNL     1      13.680 -12.957  13.066  1.00  0.00     0.002 A 
HETATM   10  C6  UNL     1      14.033 -11.631  12.926  1.00  0.00     0.001 A 
HETATM   11  C7  UNL     1      13.292 -10.710  13.635  1.00  0.00     0.014 A 
BRANCH   3  12
HETATM   12  C1  UNL     1       9.358 -11.011  16.749  1.00  0.00     0.227 C 
HETATM   13  O1  UNL     1       9.189 -11.742  17.756  1.00  0.00    -0.643 OA
HETATM   14  O2  UNL     1       8.471  -9.994  16.524  1.00  0.00    -0.643 OA
ENDBRANCH   3  12
ENDBRANCH   1   2
BRANCH   1  15
HETATM   15  C11 UNL     1      10.879  -8.158  14.343  1.00  0.00     0.031 C 
BRANCH  15  16
HETATM   16  C12 UNL     1      11.741  -7.497  13.348  1.00  0.00     0.176 C 
BRANCH  16  17
HETATM   17  O3  UNL     1      11.097  -7.344  12.132  1.00  0.00    -0.350 OA
BRANCH  17  18
HETATM   18  C13 UNL     1      10.613  -8.299  11.290  1.00  0.00     0.079 A 
HETATM   19  C14 UNL     1      10.280  -9.537  11.790  1.00  0.00     0.037 A 
HETATM   20  C15 UNL     1       9.790 -10.475  10.884  1.00  0.00     0.004 A 
HETATM   21  C16 UNL     1       9.644 -10.175   9.542  1.00  0.00     0.012 A 
HETATM   22  C17 UNL     1       9.982  -8.923   9.044  1.00  0.00    -0.023 A 
HETATM   23  C18 UNL     1       9.836  -8.629   7.700  1.00  0.00     0.012 A 
HETATM   24  C22 UNL     1      10.465  -8.007   9.950  1.00  0.00     0.007 A 
HETATM   25  C19 UNL     1      10.174  -7.381   7.206  1.00  0.00     0.001 A 
HETATM   26  C20 UNL     1      10.659  -6.455   8.105  1.00  0.00     0.001 A 
HETATM   27  C21 UNL     1      10.804  -6.749   9.442  1.00  0.00     0.015 A 
ENDBRANCH  17  18
ENDBRANCH  16  17
ENDBRANCH  15  16
ENDBRANCH   1  15
TORSDOF 6
ENDMDL
