MODEL 8
REMARK VINA RESULT: -9.469346064      2.213      7.047
REMARK  6 active torsions:
REMARK  status: ('A' for Active; 'I' for Inactive)
REMARK    1  A    between atoms: C1_2  and  C2_4 
REMARK    2  A    between atoms: C9_13  and  C10_14 
REMARK    3  A    between atoms: C10_14  and  C11_15 
REMARK    4  A    between atoms: C11_15  and  C12_16 
REMARK    5  A    between atoms: C12_16  and  O3_17 
REMARK    6  A    between atoms: O3_17  and  C13_18 
ROOT
HETATM    1  C10 UNL     1      11.138  -6.601  12.651  1.00  0.00     0.044 C 
ENDROOT
BRANCH   1   2
HETATM    2  C9  UNL     1      11.005  -6.917  11.213  1.00  0.00    -0.012 A 
HETATM    3  C2  UNL     1      10.318  -7.914  10.580  1.00  0.00     0.117 A 
HETATM    4  N1  UNL     1      10.653  -7.824   9.247  1.00  0.00    -0.350 N 
HETATM    5  C3  UNL     1      11.509  -6.809   9.066  1.00  0.00     0.043 A 
ATOM      6  H1  UNL     1      10.303  -8.436   8.510  1.00  0.00     0.166 HD
HETATM    7  C4  UNL     1      12.143  -6.298   7.928  1.00  0.00     0.030 A 
HETATM    8  C8  UNL     1      11.772  -6.194  10.269  1.00  0.00    -0.001 A 
HETATM    9  C5  UNL     1      12.994  -5.218   8.041  1.00  0.00     0.002 A 
HETATM   10  C6  UNL     1      13.255  -4.602   9.247  1.00  0.00     0.001 A 
HETATM   11  C7  UNL     1      12.624  -5.116  10.360  1.00  0.00     0.014 A 
BRANCH   3  12
HETATM   12  C1  UNL     1       9.375  -8.872  11.137  1.00  0.00     0.227 C 
HETATM   13  O1  UNL     1       9.370 -10.048  10.695  1.00  0.00    -0.643 OA
HETATM   14  O2  UNL     1       8.485  -8.540  12.121  1.00  0.00    -0.643 OA
ENDBRANCH   3  12
ENDBRANCH   1   2
BRANCH   1  15
HETATM   15  C11 UNL     1      11.782  -7.713  13.412  1.00  0.00     0.031 C 
BRANCH  15  16
HETATM   16  C12 UNL     1      11.067  -8.329  14.544  1.00  0.00     0.176 C 
BRANCH  16  17
HETATM   17  O3  UNL     1      10.810  -9.671  14.319  1.00  0.00    -0.350 OA
BRANCH  17  18
HETATM   18  C13 UNL     1      11.289 -10.761  14.982  1.00  0.00     0.079 A 
HETATM   19  C14 UNL     1      10.699 -11.148  16.164  1.00  0.00     0.037 A 
HETATM   20  C15 UNL     1      11.229 -12.268  16.799  1.00  0.00     0.004 A 
HETATM   21  C16 UNL     1      12.299 -12.961  16.264  1.00  0.00     0.012 A 
HETATM   22  C17 UNL     1      12.891 -12.565  15.071  1.00  0.00    -0.023 A 
HETATM   23  C18 UNL     1      13.963 -13.261  14.542  1.00  0.00     0.012 A 
HETATM   24  C22 UNL     1      12.357 -11.456  14.455  1.00  0.00     0.007 A 
HETATM   25  C19 UNL     1      14.550 -12.864  13.354  1.00  0.00     0.001 A 
HETATM   26  C20 UNL     1      14.023 -11.754  12.728  1.00  0.00     0.001 A 
HETATM   27  C21 UNL     1      12.957 -11.063  13.255  1.00  0.00     0.015 A 
ENDBRANCH  17  18
ENDBRANCH  16  17
ENDBRANCH  15  16
ENDBRANCH   1  15
TORSDOF 6
ENDMDL
