MODEL 16
REMARK VINA RESULT: -9.430732384      2.518     10.645
REMARK  16 active torsions:
REMARK  status: ('A' for Active; 'I' for Inactive)
REMARK    1  A    between atoms: O1_2  and  C2_3 
REMARK    2  A    between atoms: C2_3  and  C3_5 
REMARK    3  A    between atoms: C5_8  and  C6_9 
REMARK    4  A    between atoms: C9_12  and  S1_13 
REMARK    5  A    between atoms: S1_13  and  N1_16 
REMARK    6  A    between atoms: N1_16  and  C10_17 
REMARK    7  A    between atoms: N1_16  and  C14_21 
REMARK    8  A    between atoms: C10_17  and  C11_18 
REMARK    9  A    between atoms: C14_21  and  C15_22 
REMARK   10  A    between atoms: C15_22  and  O6_23 
REMARK   11  A    between atoms: C15_22  and  C16_25 
REMARK   12  A    between atoms: C16_25  and  C17_26 
REMARK   13  A    between atoms: C16_25  and  N2_33 
REMARK   14  A    between atoms: C17_26  and  C18_27 
REMARK       I    between atoms: N2_33  and  C24_35 
REMARK   15  A    between atoms: C24_35  and  O8_37 
REMARK   16  A    between atoms: O8_37  and  C25_38 
ROOT
HETATM    1  C14 UNL     1      16.491  24.377  17.996  1.00  0.00     0.141 C 
ENDROOT
BRANCH   1   2
HETATM    2  N1  UNL     1      17.473  23.755  17.193  1.00  0.00    -0.204 NA
BRANCH   2   3
HETATM    3  S1  UNL     1      17.766  24.840  15.846  1.00  0.00     0.243 S 
HETATM    4  O4  UNL     1      16.725  25.927  15.871  1.00  0.00    -0.206 OA
HETATM    5  O5  UNL     1      17.455  24.016  14.603  1.00  0.00    -0.206 OA
BRANCH   3   6
HETATM    6  C9  UNL     1      19.367  25.442  15.748  1.00  0.00     0.074 A 
HETATM    7  C8  UNL     1      20.342  24.911  14.945  1.00  0.00     0.026 A 
HETATM    8  C7  UNL     1      21.632  25.436  14.915  1.00  0.00     0.017 A 
HETATM    9  C6  UNL     1      21.973  26.515  15.700  1.00  0.00     0.015 A 
HETATM   10  C32 UNL     1      21.004  27.066  16.521  1.00  0.00     0.017 A 
HETATM   11  C31 UNL     1      19.731  26.538  16.540  1.00  0.00     0.026 A 
BRANCH   9  12
HETATM   12  C5  UNL     1      23.323  27.060  15.672  1.00  0.00     0.158 A 
HETATM   13  O3  UNL     1      24.420  26.369  15.786  1.00  0.00    -0.302 OA
HETATM   14  C4  UNL     1      25.488  27.109  15.727  1.00  0.00     0.180 A 
HETATM   15  C3  UNL     1      25.052  28.401  15.557  1.00  0.00     0.133 A 
HETATM   16  N3  UNL     1      23.718  28.335  15.528  1.00  0.00    -0.330 N 
ATOM     17  H3  UNL     1      23.093  29.133  15.414  1.00  0.00     0.168 HD
BRANCH  15  18
HETATM   18  C2  UNL     1      25.896  29.595  15.436  1.00  0.00     0.311 C 
HETATM   19  O2  UNL     1      27.060  29.494  14.998  1.00  0.00    -0.258 OA
BRANCH  18  20
HETATM   20  O1  UNL     1      25.441  30.846  15.798  1.00  0.00    -0.321 OA
HETATM   21  C1  UNL     1      25.275  31.926  14.902  1.00  0.00     0.213 C 
ENDBRANCH  18  20
ENDBRANCH  15  18
ENDBRANCH   9  12
ENDBRANCH   3   6
ENDBRANCH   2   3
BRANCH   2  22
HETATM   22  C10 UNL     1      18.726  23.511  17.831  1.00  0.00     0.111 C 
BRANCH  22  23
HETATM   23  C11 UNL     1      18.704  23.653  19.340  1.00  0.00    -0.009 C 
HETATM   24  C12 UNL     1      18.702  22.341  20.080  1.00  0.00     0.011 C 
HETATM   25  C13 UNL     1      20.029  24.338  19.705  1.00  0.00     0.011 C 
ENDBRANCH  22  23
ENDBRANCH   2  22
ENDBRANCH   1   2
BRANCH   1  26
HETATM   26  C15 UNL     1      15.207  23.696  18.314  1.00  0.00     0.155 C 
BRANCH  26  27
HETATM   27  O6  UNL     1      14.247  24.774  18.264  1.00  0.00    -0.392 OA
ATOM     28  H6  UNL     1      14.541  25.354  18.956  1.00  0.00     0.210 HD
ENDBRANCH  26  27
BRANCH  26  29
HETATM   29  C16 UNL     1      14.758  22.764  17.240  1.00  0.00     0.120 C 
BRANCH  29  30
HETATM   30  C17 UNL     1      14.214  23.520  16.058  1.00  0.00     0.066 C 
BRANCH  30  31
HETATM   31  C18 UNL     1      13.851  22.503  14.986  1.00  0.00    -0.056 A 
HETATM   32  C19 UNL     1      12.555  22.176  14.703  1.00  0.00     0.007 A 
HETATM   33  C20 UNL     1      12.217  21.259  13.731  1.00  0.00     0.001 A 
HETATM   34  C21 UNL     1      13.212  20.651  13.022  1.00  0.00     0.000 A 
HETATM   35  C22 UNL     1      14.524  20.969  13.296  1.00  0.00     0.001 A 
HETATM   36  C23 UNL     1      14.850  21.885  14.266  1.00  0.00     0.007 A 
ENDBRANCH  30  31
ENDBRANCH  29  30
BRANCH  29  37
HETATM   37  N2  UNL     1      13.752  21.827  17.662  1.00  0.00    -0.329 N 
HETATM   38  C24 UNL     1      14.054  20.471  17.811  1.00  0.00     0.361 C 
HETATM   39  O7  UNL     1      15.214  20.094  17.572  1.00  0.00    -0.238 OA
ATOM     40  H2  UNL     1      12.807  22.156  17.856  1.00  0.00     0.165 HD
BRANCH  38  41
HETATM   41  O8  UNL     1      13.157  19.492  18.209  1.00  0.00    -0.296 OA
BRANCH  41  42
HETATM   42  C25 UNL     1      11.759  19.626  18.011  1.00  0.00     0.166 C 
HETATM   43  C26 UNL     1      11.281  18.807  16.831  1.00  0.00     0.204 C 
HETATM   44  O9  UNL     1      11.677  17.526  17.209  1.00  0.00    -0.358 OA
HETATM   45  C27 UNL     1      11.360  17.394  18.542  1.00  0.00     0.266 C 
HETATM   46  O10 UNL     1      12.382  16.793  19.209  1.00  0.00    -0.361 OA
HETATM   47  C30 UNL     1      11.131  18.758  19.121  1.00  0.00     0.075 C 
HETATM   48  C28 UNL     1      12.848  17.597  20.209  1.00  0.00     0.171 C 
HETATM   49  C29 UNL     1      11.969  18.787  20.362  1.00  0.00     0.038 C 
ENDBRANCH  41  42
ENDBRANCH  38  41
ENDBRANCH  29  37
ENDBRANCH  26  29
ENDBRANCH   1  26
TORSDOF 16
ENDMDL
