MODEL 1
REMARK VINA RESULT: -10.130435514      0.000      0.000
REMARK  16 active torsions:
REMARK  status: ('A' for Active; 'I' for Inactive)
REMARK    1  A    between atoms: O1_2  and  C2_3 
REMARK    2  A    between atoms: C2_3  and  C3_5 
REMARK    3  A    between atoms: C5_8  and  C6_9 
REMARK    4  A    between atoms: C9_12  and  S1_13 
REMARK    5  A    between atoms: S1_13  and  N1_16 
REMARK    6  A    between atoms: N1_16  and  C10_17 
REMARK    7  A    between atoms: N1_16  and  C14_21 
REMARK    8  A    between atoms: C10_17  and  C11_18 
REMARK    9  A    between atoms: C14_21  and  C15_22 
REMARK   10  A    between atoms: C15_22  and  O6_23 
REMARK   11  A    between atoms: C15_22  and  C16_25 
REMARK   12  A    between atoms: C16_25  and  C17_26 
REMARK   13  A    between atoms: C16_25  and  N2_33 
REMARK   14  A    between atoms: C17_26  and  C18_27 
REMARK       I    between atoms: N2_33  and  C24_35 
REMARK   15  A    between atoms: C24_35  and  O8_37 
REMARK   16  A    between atoms: O8_37  and  C25_38 
ROOT
HETATM    1  C14 UNL     1      17.936  24.642  18.398  1.00  0.00     0.141 C 
ENDROOT
BRANCH   1   2
HETATM    2  N1  UNL     1      17.764  24.048  19.668  1.00  0.00    -0.204 NA
BRANCH   2   3
HETATM    3  S1  UNL     1      17.765  22.314  19.404  1.00  0.00     0.243 S 
HETATM    4  O4  UNL     1      18.220  21.637  20.670  1.00  0.00    -0.206 OA
HETATM    5  O5  UNL     1      18.881  22.071  18.397  1.00  0.00    -0.206 OA
BRANCH   3   6
HETATM    6  C9  UNL     1      16.295  21.682  18.794  1.00  0.00     0.074 A 
HETATM    7  C8  UNL     1      15.055  22.173  19.111  1.00  0.00     0.026 A 
HETATM    8  C7  UNL     1      13.890  21.611  18.593  1.00  0.00     0.017 A 
HETATM    9  C6  UNL     1      13.947  20.533  17.737  1.00  0.00     0.015 A 
HETATM   10  C32 UNL     1      15.190  20.021  17.403  1.00  0.00     0.017 A 
HETATM   11  C31 UNL     1      16.334  20.587  17.923  1.00  0.00     0.026 A 
BRANCH   9  12
HETATM   12  C5  UNL     1      12.730  19.943  17.199  1.00  0.00     0.158 A 
HETATM   13  O3  UNL     1      12.353  18.708  17.361  1.00  0.00    -0.302 OA
HETATM   14  C4  UNL     1      11.223  18.446  16.771  1.00  0.00     0.180 A 
HETATM   15  C3  UNL     1      10.823  19.616  16.171  1.00  0.00     0.133 A 
HETATM   16  N3  UNL     1      11.771  20.514  16.453  1.00  0.00    -0.330 N 
ATOM     17  H3  UNL     1      11.767  21.487  16.148  1.00  0.00     0.168 HD
BRANCH  15  18
HETATM   18  C2  UNL     1       9.601  19.816  15.384  1.00  0.00     0.311 C 
HETATM   19  O2  UNL     1       9.071  18.848  14.800  1.00  0.00    -0.258 OA
BRANCH  18  20
HETATM   20  O1  UNL     1       9.008  21.056  15.263  1.00  0.00    -0.321 OA
HETATM   21  C1  UNL     1       8.993  21.821  14.076  1.00  0.00     0.213 C 
ENDBRANCH  18  20
ENDBRANCH  15  18
ENDBRANCH   9  12
ENDBRANCH   3   6
ENDBRANCH   2   3
BRANCH   2  22
HETATM   22  C10 UNL     1      18.780  24.338  20.626  1.00  0.00     0.111 C 
BRANCH  22  23
HETATM   23  C11 UNL     1      19.921  25.186  20.098  1.00  0.00    -0.009 C 
HETATM   24  C12 UNL     1      20.406  26.235  21.066  1.00  0.00     0.011 C 
HETATM   25  C13 UNL     1      21.097  24.217  19.908  1.00  0.00     0.011 C 
ENDBRANCH  22  23
ENDBRANCH   2  22
ENDBRANCH   1   2
BRANCH   1  26
HETATM   26  C15 UNL     1      16.875  24.567  17.358  1.00  0.00     0.155 C 
BRANCH  26  27
HETATM   27  O6  UNL     1      16.313  25.898  17.371  1.00  0.00    -0.392 OA
ATOM     28  H6  UNL     1      15.417  25.754  17.090  1.00  0.00     0.210 HD
ENDBRANCH  26  27
BRANCH  26  29
HETATM   29  C16 UNL     1      17.418  24.420  15.978  1.00  0.00     0.120 C 
BRANCH  29  30
HETATM   30  C17 UNL     1      17.213  23.021  15.460  1.00  0.00     0.066 C 
BRANCH  30  31
HETATM   31  C18 UNL     1      15.777  22.918  14.968  1.00  0.00    -0.056 A 
HETATM   32  C19 UNL     1      14.756  23.611  15.555  1.00  0.00     0.007 A 
HETATM   33  C20 UNL     1      13.453  23.527  15.114  1.00  0.00     0.001 A 
HETATM   34  C21 UNL     1      13.166  22.721  14.050  1.00  0.00     0.000 A 
HETATM   35  C22 UNL     1      14.185  22.016  13.447  1.00  0.00     0.001 A 
HETATM   36  C23 UNL     1      15.480  22.106  13.894  1.00  0.00     0.007 A 
ENDBRANCH  30  31
ENDBRANCH  29  30
BRANCH  29  37
HETATM   37  N2  UNL     1      18.818  24.728  15.865  1.00  0.00    -0.329 N 
HETATM   38  C24 UNL     1      19.244  26.018  15.535  1.00  0.00     0.361 C 
HETATM   39  O7  UNL     1      18.381  26.893  15.342  1.00  0.00    -0.238 OA
ATOM     40  H2  UNL     1      19.510  23.997  16.029  1.00  0.00     0.165 HD
BRANCH  38  41
HETATM   41  O8  UNL     1      20.565  26.413  15.400  1.00  0.00    -0.296 OA
BRANCH  41  42
HETATM   42  C25 UNL     1      21.005  27.213  14.316  1.00  0.00     0.166 C 
HETATM   43  C26 UNL     1      20.354  28.581  14.330  1.00  0.00     0.204 C 
HETATM   44  O9  UNL     1      20.746  29.056  15.579  1.00  0.00    -0.358 OA
HETATM   45  C27 UNL     1      22.074  28.728  15.724  1.00  0.00     0.266 C 
HETATM   46  O10 UNL     1      22.302  28.250  16.978  1.00  0.00    -0.361 OA
HETATM   47  C30 UNL     1      22.422  27.667  14.725  1.00  0.00     0.075 C 
HETATM   48  C28 UNL     1      22.806  26.982  16.930  1.00  0.00     0.171 C 
HETATM   49  C29 UNL     1      23.113  26.605  15.524  1.00  0.00     0.038 C 
ENDBRANCH  41  42
ENDBRANCH  38  41
ENDBRANCH  29  37
ENDBRANCH  26  29
ENDBRANCH   1  26
TORSDOF 16
ENDMDL
