MODEL 4
REMARK VINA RESULT: -10.000921567      1.926      5.544
REMARK  16 active torsions:
REMARK  status: ('A' for Active; 'I' for Inactive)
REMARK    1  A    between atoms: O1_2  and  C2_3 
REMARK    2  A    between atoms: C2_3  and  C3_5 
REMARK    3  A    between atoms: C5_8  and  C6_9 
REMARK    4  A    between atoms: C9_12  and  S1_13 
REMARK    5  A    between atoms: S1_13  and  N1_16 
REMARK    6  A    between atoms: N1_16  and  C10_17 
REMARK    7  A    between atoms: N1_16  and  C14_21 
REMARK    8  A    between atoms: C10_17  and  C11_18 
REMARK    9  A    between atoms: C14_21  and  C15_22 
REMARK   10  A    between atoms: C15_22  and  O6_23 
REMARK   11  A    between atoms: C15_22  and  C16_25 
REMARK   12  A    between atoms: C16_25  and  C17_26 
REMARK   13  A    between atoms: C16_25  and  N2_33 
REMARK   14  A    between atoms: C17_26  and  C18_27 
REMARK       I    between atoms: N2_33  and  C24_35 
REMARK   15  A    between atoms: C24_35  and  O8_37 
REMARK   16  A    between atoms: O8_37  and  C25_38 
ROOT
HETATM    1  C14 UNL     1      19.129  24.804  19.922  1.00  0.00     0.141 C 
ENDROOT
BRANCH   1   2
HETATM    2  N1  UNL     1      18.657  24.176  18.749  1.00  0.00    -0.204 NA
BRANCH   2   3
HETATM    3  S1  UNL     1      17.940  22.657  19.257  1.00  0.00     0.243 S 
HETATM    4  O4  UNL     1      17.690  22.719  20.741  1.00  0.00    -0.206 OA
HETATM    5  O5  UNL     1      19.044  21.623  19.080  1.00  0.00    -0.206 OA
BRANCH   3   6
HETATM    6  C9  UNL     1      16.560  22.183  18.361  1.00  0.00     0.074 A 
HETATM    7  C8  UNL     1      15.268  22.414  18.754  1.00  0.00     0.026 A 
HETATM    8  C7  UNL     1      14.182  21.994  17.989  1.00  0.00     0.017 A 
HETATM    9  C6  UNL     1      14.374  21.325  16.801  1.00  0.00     0.015 A 
HETATM   10  C32 UNL     1      15.672  21.079  16.384  1.00  0.00     0.017 A 
HETATM   11  C31 UNL     1      16.737  21.501  17.151  1.00  0.00     0.026 A 
BRANCH   9  12
HETATM   12  C5  UNL     1      13.239  20.882  16.003  1.00  0.00     0.158 A 
HETATM   13  O3  UNL     1      13.297  20.472  14.770  1.00  0.00    -0.302 OA
HETATM   14  C4  UNL     1      12.132  20.135  14.297  1.00  0.00     0.180 A 
HETATM   15  C3  UNL     1      11.231  20.343  15.314  1.00  0.00     0.133 A 
HETATM   16  N3  UNL     1      11.944  20.802  16.346  1.00  0.00    -0.330 N 
ATOM     17  H3  UNL     1      11.562  21.053  17.258  1.00  0.00     0.168 HD
BRANCH  15  18
HETATM   18  C2  UNL     1       9.784  20.104  15.255  1.00  0.00     0.311 C 
HETATM   19  O2  UNL     1       9.333  18.958  15.459  1.00  0.00    -0.258 OA
BRANCH  18  20
HETATM   20  O1  UNL     1       8.891  21.118  14.977  1.00  0.00    -0.321 OA
HETATM   21  C1  UNL     1       8.825  21.807  13.745  1.00  0.00     0.213 C 
ENDBRANCH  18  20
ENDBRANCH  15  18
ENDBRANCH   9  12
ENDBRANCH   3   6
ENDBRANCH   2   3
BRANCH   2  22
HETATM   22  C10 UNL     1      17.665  24.898  18.021  1.00  0.00     0.111 C 
BRANCH  22  23
HETATM   23  C11 UNL     1      18.021  25.175  16.573  1.00  0.00    -0.009 C 
HETATM   24  C12 UNL     1      19.017  24.207  15.990  1.00  0.00     0.011 C 
HETATM   25  C13 UNL     1      16.720  24.963  15.785  1.00  0.00     0.011 C 
ENDBRANCH  22  23
ENDBRANCH   2  22
ENDBRANCH   1   2
BRANCH   1  26
HETATM   26  C15 UNL     1      20.579  24.827  20.257  1.00  0.00     0.155 C 
BRANCH  26  27
HETATM   27  O6  UNL     1      21.172  24.063  19.184  1.00  0.00    -0.392 OA
ATOM     28  H6  UNL     1      21.751  23.465  19.643  1.00  0.00     0.210 HD
ENDBRANCH  26  27
BRANCH  26  29
HETATM   29  C16 UNL     1      21.190  26.180  20.115  1.00  0.00     0.120 C 
BRANCH  29  30
HETATM   30  C17 UNL     1      20.759  27.091  21.233  1.00  0.00     0.066 C 
BRANCH  30  31
HETATM   31  C18 UNL     1      21.854  27.074  22.290  1.00  0.00    -0.056 A 
HETATM   32  C19 UNL     1      23.100  26.571  22.038  1.00  0.00     0.007 A 
HETATM   33  C20 UNL     1      24.099  26.556  22.987  1.00  0.00     0.001 A 
HETATM   34  C21 UNL     1      23.839  27.061  24.228  1.00  0.00     0.000 A 
HETATM   35  C22 UNL     1      22.588  27.571  24.498  1.00  0.00     0.001 A 
HETATM   36  C23 UNL     1      21.599  27.582  23.545  1.00  0.00     0.007 A 
ENDBRANCH  30  31
ENDBRANCH  29  30
BRANCH  29  37
HETATM   37  N2  UNL     1      20.880  26.833  18.872  1.00  0.00    -0.329 N 
HETATM   38  C24 UNL     1      21.889  27.397  18.087  1.00  0.00     0.361 C 
HETATM   39  O7  UNL     1      23.063  27.318  18.489  1.00  0.00    -0.238 OA
ATOM     40  H2  UNL     1      19.910  26.887  18.560  1.00  0.00     0.165 HD
BRANCH  38  41
HETATM   41  O8  UNL     1      21.692  28.048  16.880  1.00  0.00    -0.296 OA
BRANCH  41  42
HETATM   42  C25 UNL     1      21.302  27.356  15.706  1.00  0.00     0.166 C 
HETATM   43  C26 UNL     1      20.021  27.917  15.124  1.00  0.00     0.204 C 
HETATM   44  O9  UNL     1      20.381  29.245  14.904  1.00  0.00    -0.358 OA
HETATM   45  C27 UNL     1      21.644  29.224  14.359  1.00  0.00     0.266 C 
HETATM   46  O10 UNL     1      22.417  30.186  14.934  1.00  0.00    -0.361 OA
HETATM   47  C30 UNL     1      22.260  27.882  14.616  1.00  0.00     0.075 C 
HETATM   48  C28 UNL     1      23.517  29.635  15.525  1.00  0.00     0.171 C 
HETATM   49  C29 UNL     1      23.608  28.188  15.191  1.00  0.00     0.038 C 
ENDBRANCH  41  42
ENDBRANCH  38  41
ENDBRANCH  29  37
ENDBRANCH  26  29
ENDBRANCH   1  26
TORSDOF 16
ENDMDL
