MODEL 8
REMARK VINA RESULT: -9.742664465      2.539     10.728
REMARK  16 active torsions:
REMARK  status: ('A' for Active; 'I' for Inactive)
REMARK    1  A    between atoms: O1_2  and  C2_3 
REMARK    2  A    between atoms: C2_3  and  C3_5 
REMARK    3  A    between atoms: C5_8  and  C6_9 
REMARK    4  A    between atoms: C9_12  and  S1_13 
REMARK    5  A    between atoms: S1_13  and  N1_16 
REMARK    6  A    between atoms: N1_16  and  C10_17 
REMARK    7  A    between atoms: N1_16  and  C14_21 
REMARK    8  A    between atoms: C10_17  and  C11_18 
REMARK    9  A    between atoms: C14_21  and  C15_22 
REMARK   10  A    between atoms: C15_22  and  O6_23 
REMARK   11  A    between atoms: C15_22  and  C16_25 
REMARK   12  A    between atoms: C16_25  and  C17_26 
REMARK   13  A    between atoms: C16_25  and  N2_33 
REMARK   14  A    between atoms: C17_26  and  C18_27 
REMARK       I    between atoms: N2_33  and  C24_35 
REMARK   15  A    between atoms: C24_35  and  O8_37 
REMARK   16  A    between atoms: O8_37  and  C25_38 
ROOT
HETATM    1  C14 UNL     1      16.461  24.617  17.497  1.00  0.00     0.141 C 
ENDROOT
BRANCH   1   2
HETATM    2  N1  UNL     1      17.805  24.189  17.566  1.00  0.00    -0.204 NA
BRANCH   2   3
HETATM    3  S1  UNL     1      18.428  24.255  15.927  1.00  0.00     0.243 S 
HETATM    4  O4  UNL     1      17.264  24.304  14.974  1.00  0.00    -0.206 OA
HETATM    5  O5  UNL     1      19.077  22.896  15.698  1.00  0.00    -0.206 OA
BRANCH   3   6
HETATM    6  C9  UNL     1      19.578  25.494  15.650  1.00  0.00     0.074 A 
HETATM    7  C8  UNL     1      19.293  26.834  15.687  1.00  0.00     0.026 A 
HETATM    8  C7  UNL     1      20.268  27.798  15.441  1.00  0.00     0.017 A 
HETATM    9  C6  UNL     1      21.563  27.432  15.149  1.00  0.00     0.015 A 
HETATM   10  C32 UNL     1      21.874  26.083  15.104  1.00  0.00     0.017 A 
HETATM   11  C31 UNL     1      20.900  25.140  15.351  1.00  0.00     0.026 A 
BRANCH   9  12
HETATM   12  C5  UNL     1      22.581  28.440  14.887  1.00  0.00     0.158 A 
HETATM   13  O3  UNL     1      22.453  29.450  14.076  1.00  0.00    -0.302 OA
HETATM   14  C4  UNL     1      23.519  30.195  14.032  1.00  0.00     0.180 A 
HETATM   15  C3  UNL     1      24.425  29.623  14.892  1.00  0.00     0.133 A 
HETATM   16  N3  UNL     1      23.817  28.547  15.400  1.00  0.00    -0.330 N 
ATOM     17  H3  UNL     1      24.230  27.903  16.075  1.00  0.00     0.168 HD
BRANCH  15  18
HETATM   18  C2  UNL     1      25.780  30.109  15.179  1.00  0.00     0.311 C 
HETATM   19  O2  UNL     1      26.044  31.323  15.057  1.00  0.00    -0.258 OA
BRANCH  18  20
HETATM   20  O1  UNL     1      26.787  29.257  15.582  1.00  0.00    -0.321 OA
HETATM   21  C1  UNL     1      27.359  28.255  14.767  1.00  0.00     0.213 C 
ENDBRANCH  18  20
ENDBRANCH  15  18
ENDBRANCH   9  12
ENDBRANCH   3   6
ENDBRANCH   2   3
BRANCH   2  22
HETATM   22  C10 UNL     1      18.663  24.982  18.385  1.00  0.00     0.111 C 
BRANCH  22  23
HETATM   23  C11 UNL     1      19.729  24.199  19.126  1.00  0.00    -0.009 C 
HETATM   24  C12 UNL     1      21.087  24.852  19.119  1.00  0.00     0.011 C 
HETATM   25  C13 UNL     1      19.279  24.185  20.594  1.00  0.00     0.011 C 
ENDBRANCH  22  23
ENDBRANCH   2  22
ENDBRANCH   1   2
BRANCH   1  26
HETATM   26  C15 UNL     1      15.362  23.818  18.105  1.00  0.00     0.155 C 
BRANCH  26  27
HETATM   27  O6  UNL     1      14.320  24.799  18.303  1.00  0.00    -0.392 OA
ATOM     28  H6  UNL     1      13.526  24.282  18.235  1.00  0.00     0.210 HD
ENDBRANCH  26  27
BRANCH  26  29
HETATM   29  C16 UNL     1      14.759  22.839  17.156  1.00  0.00     0.120 C 
BRANCH  29  30
HETATM   30  C17 UNL     1      14.126  23.538  15.983  1.00  0.00     0.066 C 
BRANCH  30  31
HETATM   31  C18 UNL     1      13.798  22.482  14.938  1.00  0.00    -0.056 A 
HETATM   32  C19 UNL     1      12.511  22.156  14.613  1.00  0.00     0.007 A 
HETATM   33  C20 UNL     1      12.204  21.204  13.665  1.00  0.00     0.001 A 
HETATM   34  C21 UNL     1      13.222  20.559  13.023  1.00  0.00     0.000 A 
HETATM   35  C22 UNL     1      14.524  20.876  13.339  1.00  0.00     0.001 A 
HETATM   36  C23 UNL     1      14.820  21.827  14.286  1.00  0.00     0.007 A 
ENDBRANCH  30  31
ENDBRANCH  29  30
BRANCH  29  37
HETATM   37  N2  UNL     1      13.763  21.988  17.749  1.00  0.00    -0.329 N 
HETATM   38  C24 UNL     1      13.987  20.616  17.894  1.00  0.00     0.361 C 
HETATM   39  O7  UNL     1      15.069  20.149  17.499  1.00  0.00    -0.238 OA
ATOM     40  H2  UNL     1      12.882  22.390  18.069  1.00  0.00     0.165 HD
BRANCH  38  41
HETATM   41  O8  UNL     1      13.091  19.715  18.449  1.00  0.00    -0.296 OA
BRANCH  41  42
HETATM   42  C25 UNL     1      13.506  18.696  19.344  1.00  0.00     0.166 C 
HETATM   43  C26 UNL     1      12.997  18.945  20.748  1.00  0.00     0.204 C 
HETATM   44  O9  UNL     1      11.621  18.986  20.537  1.00  0.00    -0.358 OA
HETATM   45  C27 UNL     1      11.325  17.952  19.678  1.00  0.00     0.266 C 
HETATM   46  O10 UNL     1      10.446  18.371  18.728  1.00  0.00    -0.361 OA
HETATM   47  C30 UNL     1      12.589  17.500  19.012  1.00  0.00     0.075 C 
HETATM   48  C28 UNL     1      10.972  18.216  17.477  1.00  0.00     0.171 C 
HETATM   49  C29 UNL     1      12.257  17.470  17.551  1.00  0.00     0.038 C 
ENDBRANCH  41  42
ENDBRANCH  38  41
ENDBRANCH  29  37
ENDBRANCH  26  29
ENDBRANCH   1  26
TORSDOF 16
ENDMDL
