MODEL 2
REMARK VINA RESULT: -10.098177602      2.556     10.621
REMARK  16 active torsions:
REMARK  status: ('A' for Active; 'I' for Inactive)
REMARK    1  A    between atoms: O1_2  and  C2_3 
REMARK    2  A    between atoms: C2_3  and  C3_5 
REMARK    3  A    between atoms: C5_8  and  C6_9 
REMARK    4  A    between atoms: C9_12  and  S1_13 
REMARK    5  A    between atoms: S1_13  and  N1_16 
REMARK    6  A    between atoms: N1_16  and  C10_17 
REMARK    7  A    between atoms: N1_16  and  C14_21 
REMARK    8  A    between atoms: C10_17  and  C11_18 
REMARK    9  A    between atoms: C14_21  and  C15_22 
REMARK   10  A    between atoms: C15_22  and  O6_23 
REMARK   11  A    between atoms: C15_22  and  C16_25 
REMARK   12  A    between atoms: C16_25  and  C17_26 
REMARK   13  A    between atoms: C16_25  and  N2_33 
REMARK   14  A    between atoms: C17_26  and  C18_27 
REMARK       I    between atoms: N2_33  and  C24_35 
REMARK   15  A    between atoms: C24_35  and  O8_37 
REMARK   16  A    between atoms: O8_37  and  C25_38 
ROOT
HETATM    1  C14 UNL     1      16.518  24.270  18.019  1.00  0.00     0.141 C 
ENDROOT
BRANCH   1   2
HETATM    2  N1  UNL     1      17.435  23.642  17.148  1.00  0.00    -0.204 NA
BRANCH   2   3
HETATM    3  S1  UNL     1      17.755  24.788  15.859  1.00  0.00     0.243 S 
HETATM    4  O4  UNL     1      16.676  25.839  15.873  1.00  0.00    -0.206 OA
HETATM    5  O5  UNL     1      17.532  24.004  14.572  1.00  0.00    -0.206 OA
BRANCH   3   6
HETATM    6  C9  UNL     1      19.336  25.446  15.863  1.00  0.00     0.074 A 
HETATM    7  C8  UNL     1      19.748  26.457  16.692  1.00  0.00     0.026 A 
HETATM    8  C7  UNL     1      21.046  26.961  16.643  1.00  0.00     0.017 A 
HETATM    9  C6  UNL     1      21.965  26.457  15.750  1.00  0.00     0.015 A 
HETATM   10  C32 UNL     1      21.570  25.436  14.902  1.00  0.00     0.017 A 
HETATM   11  C31 UNL     1      20.283  24.946  14.961  1.00  0.00     0.026 A 
BRANCH   9  12
HETATM   12  C5  UNL     1      23.320  26.988  15.696  1.00  0.00     0.158 A 
HETATM   13  O3  UNL     1      24.411  26.288  15.818  1.00  0.00    -0.302 OA
HETATM   14  C4  UNL     1      25.486  27.015  15.731  1.00  0.00     0.180 A 
HETATM   15  C3  UNL     1      25.061  28.307  15.532  1.00  0.00     0.133 A 
HETATM   16  N3  UNL     1      23.727  28.254  15.516  1.00  0.00    -0.330 N 
ATOM     17  H3  UNL     1      23.109  29.055  15.386  1.00  0.00     0.168 HD
BRANCH  15  18
HETATM   18  C2  UNL     1      25.916  29.489  15.373  1.00  0.00     0.311 C 
HETATM   19  O2  UNL     1      27.075  29.364  14.925  1.00  0.00    -0.258 OA
BRANCH  18  20
HETATM   20  O1  UNL     1      25.478  30.753  15.709  1.00  0.00    -0.321 OA
HETATM   21  C1  UNL     1      24.912  31.671  14.796  1.00  0.00     0.213 C 
ENDBRANCH  18  20
ENDBRANCH  15  18
ENDBRANCH   9  12
ENDBRANCH   3   6
ENDBRANCH   2   3
BRANCH   2  22
HETATM   22  C10 UNL     1      18.689  23.286  17.727  1.00  0.00     0.111 C 
BRANCH  22  23
HETATM   23  C11 UNL     1      18.728  23.360  19.241  1.00  0.00    -0.009 C 
HETATM   24  C12 UNL     1      18.761  22.016  19.922  1.00  0.00     0.011 C 
HETATM   25  C13 UNL     1      20.064  24.035  19.583  1.00  0.00     0.011 C 
ENDBRANCH  22  23
ENDBRANCH   2  22
ENDBRANCH   1   2
BRANCH   1  26
HETATM   26  C15 UNL     1      15.203  23.650  18.335  1.00  0.00     0.155 C 
BRANCH  26  27
HETATM   27  O6  UNL     1      14.292  24.769  18.268  1.00  0.00    -0.392 OA
ATOM     28  H6  UNL     1      13.439  24.352  18.303  1.00  0.00     0.210 HD
ENDBRANCH  26  27
BRANCH  26  29
HETATM   29  C16 UNL     1      14.719  22.728  17.268  1.00  0.00     0.120 C 
BRANCH  29  30
HETATM   30  C17 UNL     1      14.139  23.495  16.110  1.00  0.00     0.066 C 
BRANCH  30  31
HETATM   31  C18 UNL     1      13.806  22.494  15.014  1.00  0.00    -0.056 A 
HETATM   32  C19 UNL     1      12.518  22.221  14.645  1.00  0.00     0.007 A 
HETATM   33  C20 UNL     1      12.207  21.319  13.651  1.00  0.00     0.001 A 
HETATM   34  C21 UNL     1      13.220  20.671  13.006  1.00  0.00     0.000 A 
HETATM   35  C22 UNL     1      14.523  20.935  13.366  1.00  0.00     0.001 A 
HETATM   36  C23 UNL     1      14.823  21.835  14.359  1.00  0.00     0.007 A 
ENDBRANCH  30  31
ENDBRANCH  29  30
BRANCH  29  37
HETATM   37  N2  UNL     1      13.727  21.788  17.713  1.00  0.00    -0.329 N 
HETATM   38  C24 UNL     1      14.056  20.448  17.932  1.00  0.00     0.361 C 
HETATM   39  O7  UNL     1      15.230  20.088  17.733  1.00  0.00    -0.238 OA
ATOM     40  H2  UNL     1      12.770  22.103  17.872  1.00  0.00     0.165 HD
BRANCH  38  41
HETATM   41  O8  UNL     1      13.174  19.467  18.357  1.00  0.00    -0.296 OA
BRANCH  41  42
HETATM   42  C25 UNL     1      13.523  18.520  19.353  1.00  0.00     0.166 C 
HETATM   43  C26 UNL     1      13.022  18.937  20.720  1.00  0.00     0.204 C 
HETATM   44  O9  UNL     1      11.652  19.036  20.490  1.00  0.00    -0.358 OA
HETATM   45  C27 UNL     1      11.301  17.940  19.736  1.00  0.00     0.266 C 
HETATM   46  O10 UNL     1      10.453  18.313  18.739  1.00  0.00    -0.361 OA
HETATM   47  C30 UNL     1      12.540  17.352  19.131  1.00  0.00     0.075 C 
HETATM   48  C28 UNL     1      10.975  18.002  17.516  1.00  0.00     0.171 C 
HETATM   49  C29 UNL     1      12.214  17.195  17.678  1.00  0.00     0.038 C 
ENDBRANCH  41  42
ENDBRANCH  38  41
ENDBRANCH  29  37
ENDBRANCH  26  29
ENDBRANCH   1  26
TORSDOF 16
ENDMDL
