MODEL 3
REMARK VINA RESULT: -10.029993211      2.401     10.401
REMARK  16 active torsions:
REMARK  status: ('A' for Active; 'I' for Inactive)
REMARK    1  A    between atoms: O1_2  and  C2_3 
REMARK    2  A    between atoms: C2_3  and  C3_5 
REMARK    3  A    between atoms: C5_8  and  C6_9 
REMARK    4  A    between atoms: C9_12  and  S1_13 
REMARK    5  A    between atoms: S1_13  and  N1_16 
REMARK    6  A    between atoms: N1_16  and  C10_17 
REMARK    7  A    between atoms: N1_16  and  C14_21 
REMARK    8  A    between atoms: C10_17  and  C11_18 
REMARK    9  A    between atoms: C14_21  and  C15_22 
REMARK   10  A    between atoms: C15_22  and  O6_23 
REMARK   11  A    between atoms: C15_22  and  C16_25 
REMARK   12  A    between atoms: C16_25  and  C17_26 
REMARK   13  A    between atoms: C16_25  and  N2_33 
REMARK   14  A    between atoms: C17_26  and  C18_27 
REMARK       I    between atoms: N2_33  and  C24_35 
REMARK   15  A    between atoms: C24_35  and  O8_37 
REMARK   16  A    between atoms: O8_37  and  C25_38 
ROOT
HETATM    1  C14 UNL     1      13.976  22.734  16.544  1.00  0.00     0.141 C 
ENDROOT
BRANCH   1   2
HETATM    2  N1  UNL     1      14.196  23.238  15.244  1.00  0.00    -0.204 NA
BRANCH   2   3
HETATM    3  S1  UNL     1      15.812  22.730  14.785  1.00  0.00     0.243 S 
HETATM    4  O4  UNL     1      15.857  22.572  13.289  1.00  0.00    -0.206 OA
HETATM    5  O5  UNL     1      15.952  21.319  15.342  1.00  0.00    -0.206 OA
BRANCH   3   6
HETATM    6  C9  UNL     1      17.072  23.716  15.397  1.00  0.00     0.074 A 
HETATM    7  C8  UNL     1      17.022  25.084  15.454  1.00  0.00     0.026 A 
HETATM    8  C7  UNL     1      18.084  25.836  15.952  1.00  0.00     0.017 A 
HETATM    9  C6  UNL     1      19.230  25.223  16.407  1.00  0.00     0.015 A 
HETATM   10  C32 UNL     1      19.302  23.841  16.359  1.00  0.00     0.017 A 
HETATM   11  C31 UNL     1      18.244  23.109  15.864  1.00  0.00     0.026 A 
BRANCH   9  12
HETATM   12  C5  UNL     1      20.341  26.009  16.924  1.00  0.00     0.158 A 
HETATM   13  O3  UNL     1      20.672  27.202  16.523  1.00  0.00    -0.302 OA
HETATM   14  C4  UNL     1      21.708  27.674  17.155  1.00  0.00     0.180 A 
HETATM   15  C3  UNL     1      22.087  26.703  18.050  1.00  0.00     0.133 A 
HETATM   16  N3  UNL     1      21.227  25.695  17.881  1.00  0.00    -0.330 N 
ATOM     17  H3  UNL     1      21.242  24.818  18.402  1.00  0.00     0.168 HD
BRANCH  15  18
HETATM   18  C2  UNL     1      23.212  26.778  18.990  1.00  0.00     0.311 C 
HETATM   19  O2  UNL     1      24.266  26.153  18.751  1.00  0.00    -0.258 OA
BRANCH  18  20
HETATM   20  O1  UNL     1      23.143  27.526  20.147  1.00  0.00    -0.321 OA
HETATM   21  C1  UNL     1      22.034  27.542  21.022  1.00  0.00     0.213 C 
ENDBRANCH  18  20
ENDBRANCH  15  18
ENDBRANCH   9  12
ENDBRANCH   3   6
ENDBRANCH   2   3
BRANCH   2  22
HETATM   22  C10 UNL     1      13.297  22.769  14.241  1.00  0.00     0.111 C 
BRANCH  22  23
HETATM   23  C11 UNL     1      12.546  21.504  14.610  1.00  0.00    -0.009 C 
HETATM   24  C12 UNL     1      11.048  21.623  14.496  1.00  0.00     0.011 C 
HETATM   25  C13 UNL     1      12.964  20.461  13.563  1.00  0.00     0.011 C 
ENDBRANCH  22  23
ENDBRANCH   2  22
ENDBRANCH   1   2
BRANCH   1  26
HETATM   26  C15 UNL     1      14.754  23.234  17.710  1.00  0.00     0.155 C 
BRANCH  26  27
HETATM   27  O6  UNL     1      13.857  24.194  18.311  1.00  0.00    -0.392 OA
ATOM     28  H6  UNL     1      14.409  24.630  18.950  1.00  0.00     0.210 HD
ENDBRANCH  26  27
BRANCH  26  29
HETATM   29  C16 UNL     1      14.943  22.205  18.772  1.00  0.00     0.120 C 
BRANCH  29  30
HETATM   30  C17 UNL     1      16.302  21.566  18.674  1.00  0.00     0.066 C 
BRANCH  30  31
HETATM   31  C18 UNL     1      17.278  22.436  19.452  1.00  0.00    -0.056 A 
HETATM   32  C19 UNL     1      18.196  21.906  20.315  1.00  0.00     0.007 A 
HETATM   33  C20 UNL     1      19.087  22.685  21.020  1.00  0.00     0.001 A 
HETATM   34  C21 UNL     1      19.056  24.040  20.854  1.00  0.00     0.000 A 
HETATM   35  C22 UNL     1      18.136  24.589  19.988  1.00  0.00     0.001 A 
HETATM   36  C23 UNL     1      17.252  23.804  19.289  1.00  0.00     0.007 A 
ENDBRANCH  30  31
ENDBRANCH  29  30
BRANCH  29  37
HETATM   37  N2  UNL     1      13.961  21.154  18.748  1.00  0.00    -0.329 N 
HETATM   38  C24 UNL     1      14.300  19.866  18.323  1.00  0.00     0.361 C 
HETATM   39  O7  UNL     1      15.472  19.651  17.969  1.00  0.00    -0.238 OA
ATOM     40  H2  UNL     1      13.005  21.351  19.044  1.00  0.00     0.165 HD
BRANCH  38  41
HETATM   41  O8  UNL     1      13.428  18.790  18.262  1.00  0.00    -0.296 OA
BRANCH  41  42
HETATM   42  C25 UNL     1      13.290  17.871  19.332  1.00  0.00     0.166 C 
HETATM   43  C26 UNL     1      12.817  18.554  20.598  1.00  0.00     0.204 C 
HETATM   44  O9  UNL     1      11.613  19.111  20.174  1.00  0.00    -0.358 OA
HETATM   45  C27 UNL     1      10.980  18.150  19.419  1.00  0.00     0.266 C 
HETATM   46  O10 UNL     1      10.449  18.711  18.299  1.00  0.00    -0.361 OA
HETATM   47  C30 UNL     1      11.984  17.112  19.018  1.00  0.00     0.075 C 
HETATM   48  C28 UNL     1      10.964  18.132  17.175  1.00  0.00     0.171 C 
HETATM   49  C29 UNL     1      11.798  16.956  17.540  1.00  0.00     0.038 C 
ENDBRANCH  41  42
ENDBRANCH  38  41
ENDBRANCH  29  37
ENDBRANCH  26  29
ENDBRANCH   1  26
TORSDOF 16
ENDMDL
