MODEL 3
REMARK VINA RESULT: -10.904482965      1.715      2.354
REMARK  10 active torsions:
REMARK  status: ('A' for Active; 'I' for Inactive)
REMARK    1  A    between atoms: C7_7  and  C8_8 
REMARK    2  A    between atoms: C13_13  and  C14_14 
REMARK    3  A    between atoms: C14_14  and  C15_15 
REMARK    4  A    between atoms: C15_15  and  C16_16 
REMARK    5  A    between atoms: C16_16  and  O1_17 
REMARK    6  A    between atoms: O1_17  and  C17_18 
REMARK    7  A    between atoms: C27_28  and  C28_29 
REMARK    8  A    between atoms: N1_32  and  C29_33 
REMARK    9  A    between atoms: C29_33  and  C30_34 
REMARK   10  A    between atoms: C30_34  and  N2_35 
ROOT
HETATM    1  C8  UNL     1      -7.873  17.007  -2.245  1.00  0.00     0.003 A 
HETATM    2  C9  UNL     1      -7.402  15.705  -2.055  1.00  0.00     0.014 A 
HETATM    3  C10 UNL     1      -6.727  15.360  -0.935  1.00  0.00     0.002 A 
HETATM    4  C11 UNL     1      -6.514  16.322   0.015  1.00  0.00     0.014 A 
HETATM    5  C12 UNL     1      -6.974  17.597  -0.165  1.00  0.00     0.001 A 
HETATM    6  C13 UNL     1      -6.867  18.691   0.660  1.00  0.00    -0.011 A 
HETATM    7  C27 UNL     1      -7.506  19.713   0.019  1.00  0.00     0.123 A 
HETATM    8  N1  UNL     1      -8.011  19.307  -1.179  1.00  0.00    -0.317 N 
HETATM    9  C35 UNL     1      -7.687  18.009  -1.314  1.00  0.00     0.061 A 
ENDROOT
BRANCH   6  10
HETATM   10  C14 UNL     1      -6.145  18.699   1.985  1.00  0.00     0.044 C 
BRANCH  10  11
HETATM   11  C15 UNL     1      -4.869  19.498   1.918  1.00  0.00     0.031 C 
BRANCH  11  12
HETATM   12  C16 UNL     1      -3.623  18.722   1.700  1.00  0.00     0.176 C 
BRANCH  12  13
HETATM   13  O1  UNL     1      -3.693  17.374   1.927  1.00  0.00    -0.350 OA
BRANCH  13  14
HETATM   14  C17 UNL     1      -2.791  16.379   2.030  1.00  0.00     0.079 A 
HETATM   15  C18 UNL     1      -1.734  16.223   1.179  1.00  0.00     0.037 A 
HETATM   16  C19 UNL     1      -0.813  15.182   1.314  1.00  0.00     0.004 A 
HETATM   17  C20 UNL     1      -0.953  14.278   2.319  1.00  0.00     0.012 A 
HETATM   18  C21 UNL     1      -2.011  14.394   3.209  1.00  0.00    -0.023 A 
HETATM   19  C22 UNL     1      -2.156  13.482   4.232  1.00  0.00     0.012 A 
HETATM   20  C26 UNL     1      -2.906  15.427   3.059  1.00  0.00     0.007 A 
HETATM   21  C23 UNL     1      -3.195  13.570   5.136  1.00  0.00     0.001 A 
HETATM   22  C24 UNL     1      -4.095  14.599   4.996  1.00  0.00     0.001 A 
HETATM   23  C25 UNL     1      -3.940  15.509   3.968  1.00  0.00     0.015 A 
ENDBRANCH  13  14
ENDBRANCH  12  13
ENDBRANCH  11  12
ENDBRANCH  10  11
ENDBRANCH   6  10
BRANCH   7  24
HETATM   24  C28 UNL     1      -7.662  21.018   0.555  1.00  0.00     0.228 C 
HETATM   25  O2  UNL     1      -8.666  21.337   1.248  1.00  0.00    -0.643 OA
HETATM   26  O3  UNL     1      -6.748  22.028   0.371  1.00  0.00    -0.643 OA
ENDBRANCH   7  24
BRANCH   8  27
HETATM   27  C29 UNL     1      -8.748  20.085  -2.092  1.00  0.00     0.101 C 
BRANCH  27  28
HETATM   28  C30 UNL     1      -8.024  20.836  -3.160  1.00  0.00     0.317 C 
BRANCH  28  29
HETATM   29  N2  UNL     1      -7.821  22.212  -2.844  1.00  0.00     0.097 N 
HETATM   30  C31 UNL     1      -8.946  23.054  -3.287  1.00  0.00     0.299 C 
HETATM   31  C32 UNL     1      -8.957  23.094  -4.785  1.00  0.00     0.198 C 
HETATM   32  O4  UNL     1      -8.052  22.224  -5.383  1.00  0.00    -0.388 OA
HETATM   33  C33 UNL     1      -6.748  22.457  -4.963  1.00  0.00     0.198 C 
HETATM   34  C34 UNL     1      -6.660  22.785  -3.516  1.00  0.00     0.299 C 
ENDBRANCH  28  29
ENDBRANCH  27  28
ENDBRANCH   8  27
BRANCH   1  35
HETATM   35  C7  UNL     1      -8.418  17.259  -3.564  1.00  0.00    -0.018 A 
HETATM   36  C2  UNL     1      -9.766  17.075  -3.769  1.00  0.00    -0.051 A 
HETATM   37  C1  UNL     1     -10.730  16.726  -2.675  1.00  0.00     0.049 C 
HETATM   38  C3  UNL     1     -10.291  17.183  -5.029  1.00  0.00     0.007 A 
HETATM   39  C4  UNL     1      -9.464  17.475  -6.084  1.00  0.00     0.001 A 
HETATM   40  C5  UNL     1      -8.111  17.662  -5.894  1.00  0.00     0.001 A 
HETATM   41  C6  UNL     1      -7.593  17.551  -4.619  1.00  0.00     0.013 A 
ENDBRANCH   1  35
TORSDOF 10
ENDMDL
