MODEL 20
REMARK VINA RESULT: -9.227961627      2.026      3.522
REMARK  10 active torsions:
REMARK  status: ('A' for Active; 'I' for Inactive)
REMARK    1  A    between atoms: C7_7  and  C8_8 
REMARK    2  A    between atoms: C13_13  and  C14_14 
REMARK    3  A    between atoms: C14_14  and  C15_15 
REMARK    4  A    between atoms: C15_15  and  C16_16 
REMARK    5  A    between atoms: C16_16  and  O1_17 
REMARK    6  A    between atoms: O1_17  and  C17_18 
REMARK    7  A    between atoms: C27_28  and  C28_29 
REMARK    8  A    between atoms: N1_32  and  C29_33 
REMARK    9  A    between atoms: C29_33  and  C30_34 
REMARK   10  A    between atoms: C30_34  and  N2_35 
ROOT
HETATM    1  C8  UNL     1      -7.728  16.562  -2.853  1.00  0.00     0.003 A 
HETATM    2  C9  UNL     1      -7.411  15.293  -2.359  1.00  0.00     0.014 A 
HETATM    3  C10 UNL     1      -7.110  15.103  -1.055  1.00  0.00     0.002 A 
HETATM    4  C11 UNL     1      -7.123  16.190  -0.222  1.00  0.00     0.014 A 
HETATM    5  C12 UNL     1      -7.434  17.433  -0.699  1.00  0.00     0.001 A 
HETATM    6  C13 UNL     1      -7.505  18.634  -0.034  1.00  0.00    -0.011 A 
HETATM    7  C27 UNL     1      -7.869  19.563  -0.967  1.00  0.00     0.123 A 
HETATM    8  N1  UNL     1      -8.030  18.995  -2.194  1.00  0.00    -0.317 N 
HETATM    9  C35 UNL     1      -7.759  17.686  -2.052  1.00  0.00     0.061 A 
ENDROOT
BRANCH   6  10
HETATM   10  C14 UNL     1      -7.197  18.822   1.431  1.00  0.00     0.044 C 
BRANCH  10  11
HETATM   11  C15 UNL     1      -5.779  19.284   1.646  1.00  0.00     0.031 C 
BRANCH  11  12
HETATM   12  C16 UNL     1      -5.000  18.546   2.671  1.00  0.00     0.176 C 
BRANCH  12  13
HETATM   13  O1  UNL     1      -4.916  17.189   2.516  1.00  0.00    -0.350 OA
BRANCH  13  14
HETATM   14  C17 UNL     1      -4.232  16.202   3.128  1.00  0.00     0.079 A 
HETATM   15  C18 UNL     1      -4.676  15.552   4.244  1.00  0.00     0.037 A 
HETATM   16  C19 UNL     1      -3.945  14.531   4.855  1.00  0.00     0.004 A 
HETATM   17  C20 UNL     1      -2.746  14.154   4.340  1.00  0.00     0.012 A 
HETATM   18  C21 UNL     1      -2.252  14.785   3.207  1.00  0.00    -0.023 A 
HETATM   19  C22 UNL     1      -1.037  14.403   2.679  1.00  0.00     0.012 A 
HETATM   20  C26 UNL     1      -2.988  15.787   2.621  1.00  0.00     0.007 A 
HETATM   21  C23 UNL     1      -0.518  15.008   1.552  1.00  0.00     0.001 A 
HETATM   22  C24 UNL     1      -1.246  16.011   0.958  1.00  0.00     0.001 A 
HETATM   23  C25 UNL     1      -2.462  16.385   1.495  1.00  0.00     0.015 A 
ENDBRANCH  13  14
ENDBRANCH  12  13
ENDBRANCH  11  12
ENDBRANCH  10  11
ENDBRANCH   6  10
BRANCH   7  24
HETATM   24  C28 UNL     1      -8.095  20.934  -0.681  1.00  0.00     0.228 C 
HETATM   25  O2  UNL     1      -9.255  21.427  -0.657  1.00  0.00    -0.643 OA
HETATM   26  O3  UNL     1      -7.087  21.828  -0.407  1.00  0.00    -0.643 OA
ENDBRANCH   7  24
BRANCH   8  27
HETATM   27  C29 UNL     1      -8.424  19.645  -3.379  1.00  0.00     0.101 C 
BRANCH  27  28
HETATM   28  C30 UNL     1      -7.455  20.543  -4.075  1.00  0.00     0.317 C 
BRANCH  28  29
HETATM   29  N2  UNL     1      -6.868  19.951  -5.232  1.00  0.00     0.097 N 
HETATM   30  C31 UNL     1      -5.405  20.128  -5.262  1.00  0.00     0.299 C 
HETATM   31  C32 UNL     1      -5.099  21.578  -5.486  1.00  0.00     0.198 C 
HETATM   32  O4  UNL     1      -6.215  22.407  -5.437  1.00  0.00    -0.388 OA
HETATM   33  C33 UNL     1      -7.185  22.033  -6.358  1.00  0.00     0.198 C 
HETATM   34  C34 UNL     1      -7.327  20.557  -6.476  1.00  0.00     0.299 C 
ENDBRANCH  28  29
ENDBRANCH  27  28
ENDBRANCH   8  27
BRANCH   1  35
HETATM   35  C7  UNL     1      -7.853  16.629  -4.295  1.00  0.00    -0.018 A 
HETATM   36  C2  UNL     1      -9.112  16.635  -4.850  1.00  0.00    -0.051 A 
HETATM   37  C1  UNL     1     -10.373  16.682  -4.042  1.00  0.00     0.049 C 
HETATM   38  C3  UNL     1      -9.264  16.571  -6.209  1.00  0.00     0.007 A 
HETATM   39  C4  UNL     1      -8.153  16.499  -7.013  1.00  0.00     0.001 A 
HETATM   40  C5  UNL     1      -6.885  16.492  -6.470  1.00  0.00     0.001 A 
HETATM   41  C6  UNL     1      -6.744  16.558  -5.099  1.00  0.00     0.013 A 
ENDBRANCH   1  35
TORSDOF 10
ENDMDL
