MODEL 8
REMARK VINA RESULT: -10.373353547      2.043      4.110
REMARK  10 active torsions:
REMARK  status: ('A' for Active; 'I' for Inactive)
REMARK    1  A    between atoms: C7_7  and  C8_8 
REMARK    2  A    between atoms: C13_13  and  C14_14 
REMARK    3  A    between atoms: C14_14  and  C15_15 
REMARK    4  A    between atoms: C15_15  and  C16_16 
REMARK    5  A    between atoms: C16_16  and  O1_17 
REMARK    6  A    between atoms: O1_17  and  C17_18 
REMARK    7  A    between atoms: C27_28  and  C28_29 
REMARK    8  A    between atoms: N1_32  and  C29_33 
REMARK    9  A    between atoms: C29_33  and  C30_34 
REMARK   10  A    between atoms: C30_34  and  N2_35 
ROOT
HETATM    1  C8  UNL     1      -8.776  20.450  -0.476  1.00  0.00     0.003 A 
HETATM    2  C9  UNL     1      -8.522  21.002   0.783  1.00  0.00     0.014 A 
HETATM    3  C10 UNL     1      -7.739  20.367   1.683  1.00  0.00     0.002 A 
HETATM    4  C11 UNL     1      -7.195  19.161   1.331  1.00  0.00     0.014 A 
HETATM    5  C12 UNL     1      -7.437  18.617   0.100  1.00  0.00     0.001 A 
HETATM    6  C13 UNL     1      -6.988  17.435  -0.438  1.00  0.00    -0.011 A 
HETATM    7  C27 UNL     1      -7.509  17.370  -1.698  1.00  0.00     0.123 A 
HETATM    8  N1  UNL     1      -8.271  18.465  -1.976  1.00  0.00    -0.317 N 
HETATM    9  C35 UNL     1      -8.245  19.240  -0.878  1.00  0.00     0.061 A 
ENDROOT
BRANCH   6  10
HETATM   10  C14 UNL     1      -6.118  16.438   0.287  1.00  0.00     0.044 C 
BRANCH  10  11
HETATM   11  C15 UNL     1      -4.662  16.616  -0.057  1.00  0.00     0.031 C 
BRANCH  11  12
HETATM   12  C16 UNL     1      -3.964  17.737   0.619  1.00  0.00     0.176 C 
BRANCH  12  13
HETATM   13  O1  UNL     1      -3.118  17.404   1.642  1.00  0.00    -0.350 OA
BRANCH  13  14
HETATM   14  C17 UNL     1      -2.339  16.341   1.925  1.00  0.00     0.079 A 
HETATM   15  C18 UNL     1      -1.173  16.062   1.270  1.00  0.00     0.037 A 
HETATM   16  C19 UNL     1      -0.385  14.953   1.588  1.00  0.00     0.004 A 
HETATM   17  C20 UNL     1      -0.772  14.107   2.579  1.00  0.00     0.012 A 
HETATM   18  C21 UNL     1      -1.949  14.350   3.273  1.00  0.00    -0.023 A 
HETATM   19  C22 UNL     1      -2.344  13.497   4.281  1.00  0.00     0.012 A 
HETATM   20  C26 UNL     1      -2.709  15.447   2.945  1.00  0.00     0.007 A 
HETATM   21  C23 UNL     1      -3.508  13.709   4.993  1.00  0.00     0.001 A 
HETATM   22  C24 UNL     1      -4.275  14.804   4.673  1.00  0.00     0.001 A 
HETATM   23  C25 UNL     1      -3.870  15.653   3.662  1.00  0.00     0.015 A 
ENDBRANCH  13  14
ENDBRANCH  12  13
ENDBRANCH  11  12
ENDBRANCH  10  11
ENDBRANCH   6  10
BRANCH   7  24
HETATM   24  C28 UNL     1      -7.252  16.319  -2.616  1.00  0.00     0.228 C 
HETATM   25  O2  UNL     1      -6.526  16.485  -3.633  1.00  0.00    -0.643 OA
HETATM   26  O3  UNL     1      -7.760  15.049  -2.476  1.00  0.00    -0.643 OA
ENDBRANCH   7  24
BRANCH   8  27
HETATM   27  C29 UNL     1      -8.940  18.743  -3.182  1.00  0.00     0.101 C 
BRANCH  27  28
HETATM   28  C30 UNL     1     -10.367  18.331  -3.337  1.00  0.00     0.317 C 
BRANCH  28  29
HETATM   29  N2  UNL     1     -10.524  17.085  -4.010  1.00  0.00     0.097 N 
HETATM   30  C31 UNL     1     -11.517  17.163  -5.096  1.00  0.00     0.299 C 
HETATM   31  C32 UNL     1     -12.877  17.346  -4.494  1.00  0.00     0.198 C 
HETATM   32  O4  UNL     1     -12.864  17.567  -3.121  1.00  0.00    -0.388 OA
HETATM   33  C33 UNL     1     -12.231  16.540  -2.431  1.00  0.00     0.198 C 
HETATM   34  C34 UNL     1     -11.029  16.028  -3.141  1.00  0.00     0.299 C 
ENDBRANCH  28  29
ENDBRANCH  27  28
ENDBRANCH   8  27
BRANCH   1  35
HETATM   35  C7  UNL     1      -9.770  21.162  -1.253  1.00  0.00    -0.018 A 
HETATM   36  C2  UNL     1      -9.346  22.016  -2.245  1.00  0.00    -0.051 A 
HETATM   37  C1  UNL     1      -7.910  22.176  -2.642  1.00  0.00     0.049 C 
HETATM   38  C3  UNL     1     -10.251  22.797  -2.912  1.00  0.00     0.007 A 
HETATM   39  C4  UNL     1     -11.582  22.723  -2.584  1.00  0.00     0.001 A 
HETATM   40  C5  UNL     1     -12.021  21.872  -1.592  1.00  0.00     0.001 A 
HETATM   41  C6  UNL     1     -11.100  21.089  -0.927  1.00  0.00     0.013 A 
ENDBRANCH   1  35
TORSDOF 10
ENDMDL
