MODEL 16
REMARK VINA RESULT: -9.596109895      2.136      4.327
REMARK  10 active torsions:
REMARK  status: ('A' for Active; 'I' for Inactive)
REMARK    1  A    between atoms: C7_7  and  C8_8 
REMARK    2  A    between atoms: C13_13  and  C14_14 
REMARK    3  A    between atoms: C14_14  and  C15_15 
REMARK    4  A    between atoms: C15_15  and  C16_16 
REMARK    5  A    between atoms: C16_16  and  O1_17 
REMARK    6  A    between atoms: O1_17  and  C17_18 
REMARK    7  A    between atoms: C27_28  and  C28_29 
REMARK    8  A    between atoms: N1_32  and  C29_33 
REMARK    9  A    between atoms: C29_33  and  C30_34 
REMARK   10  A    between atoms: C30_34  and  N2_35 
ROOT
HETATM    1  C8  UNL     1      -8.889  20.464  -0.712  1.00  0.00     0.003 A 
HETATM    2  C9  UNL     1      -8.515  20.957   0.541  1.00  0.00     0.014 A 
HETATM    3  C10 UNL     1      -7.755  20.224   1.386  1.00  0.00     0.002 A 
HETATM    4  C11 UNL     1      -7.357  18.978   0.983  1.00  0.00     0.014 A 
HETATM    5  C12 UNL     1      -7.717  18.491  -0.243  1.00  0.00     0.001 A 
HETATM    6  C13 UNL     1      -7.420  17.283  -0.827  1.00  0.00    -0.011 A 
HETATM    7  C27 UNL     1      -8.010  17.302  -2.058  1.00  0.00     0.123 A 
HETATM    8  N1  UNL     1      -8.668  18.474  -2.274  1.00  0.00    -0.317 N 
HETATM    9  C35 UNL     1      -8.507  19.216  -1.164  1.00  0.00     0.061 A 
ENDROOT
BRANCH   6  10
HETATM   10  C14 UNL     1      -6.621  16.185  -0.169  1.00  0.00     0.044 C 
BRANCH  10  11
HETATM   11  C15 UNL     1      -5.187  16.188  -0.630  1.00  0.00     0.031 C 
BRANCH  11  12
HETATM   12  C16 UNL     1      -4.392  17.393  -0.287  1.00  0.00     0.176 C 
BRANCH  12  13
HETATM   13  O1  UNL     1      -4.060  17.554   1.031  1.00  0.00    -0.350 OA
BRANCH  13  14
HETATM   14  C17 UNL     1      -3.928  16.726   2.086  1.00  0.00     0.079 A 
HETATM   15  C18 UNL     1      -4.867  16.595   3.069  1.00  0.00     0.037 A 
HETATM   16  C19 UNL     1      -4.702  15.726   4.150  1.00  0.00     0.004 A 
HETATM   17  C20 UNL     1      -3.574  14.975   4.250  1.00  0.00     0.012 A 
HETATM   18  C21 UNL     1      -2.590  15.073   3.275  1.00  0.00    -0.023 A 
HETATM   19  C22 UNL     1      -1.446  14.311   3.371  1.00  0.00     0.012 A 
HETATM   20  C26 UNL     1      -2.774  15.934   2.220  1.00  0.00     0.007 A 
HETATM   21  C23 UNL     1      -0.449  14.383   2.419  1.00  0.00     0.001 A 
HETATM   22  C24 UNL     1      -0.623  15.240   1.358  1.00  0.00     0.001 A 
HETATM   23  C25 UNL     1      -1.773  15.999   1.272  1.00  0.00     0.015 A 
ENDBRANCH  13  14
ENDBRANCH  12  13
ENDBRANCH  11  12
ENDBRANCH  10  11
ENDBRANCH   6  10
BRANCH   7  24
HETATM   24  C28 UNL     1      -7.909  16.252  -3.008  1.00  0.00     0.228 C 
HETATM   25  O2  UNL     1      -8.848  15.432  -3.196  1.00  0.00    -0.643 OA
HETATM   26  O3  UNL     1      -6.800  16.044  -3.793  1.00  0.00    -0.643 OA
ENDBRANCH   7  24
BRANCH   8  27
HETATM   27  C29 UNL     1      -9.367  18.848  -3.437  1.00  0.00     0.101 C 
BRANCH  27  28
HETATM   28  C30 UNL     1     -10.819  18.521  -3.554  1.00  0.00     0.317 C 
BRANCH  28  29
HETATM   29  N2  UNL     1     -11.441  19.114  -4.690  1.00  0.00     0.097 N 
HETATM   30  C31 UNL     1     -12.722  19.758  -4.347  1.00  0.00     0.299 C 
HETATM   31  C32 UNL     1     -13.715  18.696  -3.988  1.00  0.00     0.198 C 
HETATM   32  O4  UNL     1     -13.172  17.419  -3.896  1.00  0.00    -0.388 OA
HETATM   33  C33 UNL     1     -12.544  17.031  -5.073  1.00  0.00     0.198 C 
HETATM   34  C34 UNL     1     -11.796  18.142  -5.718  1.00  0.00     0.299 C 
ENDBRANCH  28  29
ENDBRANCH  27  28
ENDBRANCH   8  27
BRANCH   1  35
HETATM   35  C7  UNL     1      -9.843  21.292  -1.421  1.00  0.00    -0.018 A 
HETATM   36  C2  UNL     1      -9.379  22.158  -2.385  1.00  0.00    -0.051 A 
HETATM   37  C1  UNL     1      -7.947  22.221  -2.821  1.00  0.00     0.049 C 
HETATM   38  C3  UNL     1     -10.237  23.042  -2.983  1.00  0.00     0.007 A 
HETATM   39  C4  UNL     1     -11.559  23.058  -2.616  1.00  0.00     0.001 A 
HETATM   40  C5  UNL     1     -12.037  22.196  -1.651  1.00  0.00     0.001 A 
HETATM   41  C6  UNL     1     -11.164  21.310  -1.055  1.00  0.00     0.013 A 
ENDBRANCH   1  35
TORSDOF 10
ENDMDL
