MODEL 3
REMARK VINA RESULT: -7.899979374      2.356      3.911
REMARK  7 active torsions:
REMARK  status: ('A' for Active; 'I' for Inactive)
REMARK    1  A    between atoms: N5_13  and  C6_14 
REMARK    2  A    between atoms: C6_14  and  C7_15 
REMARK       I    between atoms: C7_15  and  N6_17 
REMARK    3  A    between atoms: N6_17  and  C8_19 
REMARK    4  A    between atoms: C8_19  and  C9_20 
REMARK    5  A    between atoms: C9_20  and  C10_21 
REMARK    6  A    between atoms: C13_24  and  S1_25 
REMARK    7  A    between atoms: S1_25  and  N7_26 
ROOT
HETATM    1  C7  UNL     1      -3.959   4.345  11.258  1.00  0.00     0.235 C 
HETATM    2  O1  UNL     1      -4.865   3.606  11.704  1.00  0.00    -0.272 OA
HETATM    3  N6  UNL     1      -3.782   5.642  11.794  1.00  0.00    -0.359 N 
ATOM      4  H6  UNL     1      -3.043   6.249  11.440  1.00  0.00     0.162 HD
ENDROOT
BRANCH   1   5
HETATM    5  C6  UNL     1      -3.053   3.853  10.139  1.00  0.00     0.234 C 
BRANCH   5   6
HETATM    6  N5  UNL     1      -1.707   3.827  10.737  1.00  0.00    -0.319 N 
HETATM    7  C3  UNL     1      -0.620   4.506  10.339  1.00  0.00     0.140 A 
HETATM    8  N3  UNL     1      -0.406   5.376   9.336  1.00  0.00    -0.336 N 
HETATM    9  C4  UNL     1       0.434   4.193  11.198  1.00  0.00     0.119 A 
HETATM   10  C2  UNL     1       0.814   5.942   9.156  1.00  0.00     0.183 A 
ATOM     11  H3  UNL     1      -1.170   5.612   8.702  1.00  0.00     0.168 HD
HETATM   12  N2  UNL     1       1.834   5.648   9.975  1.00  0.00    -0.339 N 
HETATM   13  C1  UNL     1       1.664   4.790  10.985  1.00  0.00     0.148 A 
ATOM     14  H2  UNL     1       2.745   6.082   9.826  1.00  0.00     0.167 HD
HETATM   15  N1  UNL     1       2.751   4.486  11.848  1.00  0.00    -0.080 NA
HETATM   16  N4  UNL     1      -0.067   3.329  12.084  1.00  0.00    -0.346 N 
HETATM   17  C5  UNL     1      -1.362   3.088  11.828  1.00  0.00     0.185 A 
ATOM     18  H4  UNL     1       0.461   2.909  12.849  1.00  0.00     0.167 HD
ENDBRANCH   5   6
ENDBRANCH   1   5
BRANCH   3  19
HETATM   19  C8  UNL     1      -4.651   6.094  12.838  1.00  0.00     0.127 C 
BRANCH  19  20
HETATM   20  C9  UNL     1      -4.094   6.033  14.218  1.00  0.00     0.058 C 
BRANCH  20  21
HETATM   21  C10 UNL     1      -4.507   4.805  14.927  1.00  0.00    -0.057 A 
HETATM   22  C11 UNL     1      -3.589   3.831  15.244  1.00  0.00     0.009 A 
HETATM   23  C12 UNL     1      -3.974   2.677  15.901  1.00  0.00     0.026 A 
HETATM   24  C13 UNL     1      -5.296   2.487  16.249  1.00  0.00     0.079 A 
HETATM   25  C14 UNL     1      -6.237   3.465  15.933  1.00  0.00     0.026 A 
HETATM   26  C15 UNL     1      -5.839   4.601  15.282  1.00  0.00     0.009 A 
BRANCH  24  27
HETATM   27  S1  UNL     1      -5.885   1.049  17.048  1.00  0.00     0.256 S 
HETATM   28  O2  UNL     1      -5.312   0.896  18.414  1.00  0.00    -0.201 OA
HETATM   29  O3  UNL     1      -5.498  -0.143  16.206  1.00  0.00    -0.201 OA
BRANCH  27  30
HETATM   30  N7  UNL     1      -7.634   1.103  17.085  1.00  0.00    -0.324 N 
ATOM     31  H72 UNL     1      -8.207   1.780  16.581  1.00  0.00     0.169 HD
ATOM     32  H71 UNL     1      -7.973   0.352  17.687  1.00  0.00     0.169 HD
ENDBRANCH  27  30
ENDBRANCH  24  27
ENDBRANCH  20  21
ENDBRANCH  19  20
ENDBRANCH   3  19
TORSDOF 7
ENDMDL
