MODEL 1
REMARK VINA RESULT: -8.549957010      0.000      0.000
REMARK  7 active torsions:
REMARK  status: ('A' for Active; 'I' for Inactive)
REMARK    1  A    between atoms: N5_13  and  C6_14 
REMARK    2  A    between atoms: C6_14  and  C7_15 
REMARK       I    between atoms: C7_15  and  N6_17 
REMARK    3  A    between atoms: N6_17  and  C8_19 
REMARK    4  A    between atoms: C8_19  and  C9_20 
REMARK    5  A    between atoms: C9_20  and  C10_21 
REMARK    6  A    between atoms: C13_24  and  S1_25 
REMARK    7  A    between atoms: S1_25  and  N7_26 
ROOT
HETATM    1  C7  UNL     1      -1.831   5.209  12.110  1.00  0.00     0.235 C 
HETATM    2  O1  UNL     1      -0.892   5.139  12.934  1.00  0.00    -0.272 OA
HETATM    3  N6  UNL     1      -3.017   5.899  12.453  1.00  0.00    -0.359 N 
ATOM      4  H6  UNL     1      -3.785   5.966  11.786  1.00  0.00     0.162 HD
ENDROOT
BRANCH   1   5
HETATM    5  C6  UNL     1      -1.700   4.552  10.743  1.00  0.00     0.234 C 
BRANCH   5   6
HETATM    6  N5  UNL     1      -1.852   3.110  11.010  1.00  0.00    -0.319 N 
HETATM    7  C3  UNL     1      -2.992   2.413  11.122  1.00  0.00     0.140 A 
HETATM    8  N3  UNL     1      -4.287   2.764  11.034  1.00  0.00    -0.336 N 
HETATM    9  C4  UNL     1      -2.670   1.077  11.364  1.00  0.00     0.119 A 
HETATM   10  C2  UNL     1      -5.270   1.839  11.178  1.00  0.00     0.183 A 
ATOM     11  H3  UNL     1      -4.534   3.738  10.856  1.00  0.00     0.168 HD
HETATM   12  N2  UNL     1      -4.971   0.553  11.412  1.00  0.00    -0.339 N 
HETATM   13  C1  UNL     1      -3.698   0.161  11.506  1.00  0.00     0.148 A 
ATOM     14  H2  UNL     1      -5.721  -0.130  11.519  1.00  0.00     0.167 HD
HETATM   15  N1  UNL     1      -3.392  -1.205  11.752  1.00  0.00    -0.080 NA
HETATM   16  N4  UNL     1      -1.336   1.027  11.391  1.00  0.00    -0.346 N 
HETATM   17  C5  UNL     1      -0.814   2.244  11.180  1.00  0.00     0.185 A 
ATOM     18  H4  UNL     1      -0.789   0.181  11.550  1.00  0.00     0.167 HD
ENDBRANCH   5   6
ENDBRANCH   1   5
BRANCH   3  19
HETATM   19  C8  UNL     1      -3.129   6.500  13.747  1.00  0.00     0.127 C 
BRANCH  19  20
HETATM   20  C9  UNL     1      -4.485   6.468  14.363  1.00  0.00     0.058 C 
BRANCH  20  21
HETATM   21  C10 UNL     1      -4.796   5.146  14.945  1.00  0.00    -0.057 A 
HETATM   22  C11 UNL     1      -6.080   4.826  15.319  1.00  0.00     0.009 A 
HETATM   23  C12 UNL     1      -6.373   3.592  15.870  1.00  0.00     0.026 A 
HETATM   24  C13 UNL     1      -5.372   2.660  16.053  1.00  0.00     0.079 A 
HETATM   25  C14 UNL     1      -4.066   2.972  15.679  1.00  0.00     0.026 A 
HETATM   26  C15 UNL     1      -3.794   4.198  15.135  1.00  0.00     0.009 A 
BRANCH  24  27
HETATM   27  S1  UNL     1      -5.636   1.090  16.774  1.00  0.00     0.256 S 
HETATM   28  O2  UNL     1      -7.059   0.663  16.673  1.00  0.00    -0.201 OA
HETATM   29  O3  UNL     1      -5.239   1.173  18.228  1.00  0.00    -0.201 OA
BRANCH  27  30
HETATM   30  N7  UNL     1      -4.562  -0.065  16.014  1.00  0.00    -0.324 N 
ATOM     31  H72 UNL     1      -4.460  -0.192  15.008  1.00  0.00     0.169 HD
ATOM     32  H71 UNL     1      -4.064  -0.577  16.743  1.00  0.00     0.169 HD
ENDBRANCH  27  30
ENDBRANCH  24  27
ENDBRANCH  20  21
ENDBRANCH  19  20
ENDBRANCH   3  19
TORSDOF 7
ENDMDL
