MODEL 2
REMARK VINA RESULT: -8.513688589      0.775      1.342
REMARK  7 active torsions:
REMARK  status: ('A' for Active; 'I' for Inactive)
REMARK    1  A    between atoms: N5_13  and  C6_14 
REMARK    2  A    between atoms: C6_14  and  C7_15 
REMARK       I    between atoms: C7_15  and  N6_17 
REMARK    3  A    between atoms: N6_17  and  C8_19 
REMARK    4  A    between atoms: C8_19  and  C9_20 
REMARK    5  A    between atoms: C9_20  and  C10_21 
REMARK    6  A    between atoms: C13_24  and  S1_25 
REMARK    7  A    between atoms: S1_25  and  N7_26 
ROOT
HETATM    1  C7  UNL     1      -1.779   5.204  12.006  1.00  0.00     0.235 C 
HETATM    2  O1  UNL     1      -0.751   5.341  12.705  1.00  0.00    -0.272 OA
HETATM    3  N6  UNL     1      -3.020   5.692  12.477  1.00  0.00    -0.359 N 
ATOM      4  H6  UNL     1      -3.862   5.589  11.912  1.00  0.00     0.162 HD
ENDROOT
BRANCH   1   5
HETATM    5  C6  UNL     1      -1.697   4.511  10.654  1.00  0.00     0.234 C 
BRANCH   5   6
HETATM    6  N5  UNL     1      -1.852   3.078  10.963  1.00  0.00    -0.319 N 
HETATM    7  C3  UNL     1      -2.995   2.387  11.094  1.00  0.00     0.140 A 
HETATM    8  N3  UNL     1      -4.289   2.740  10.996  1.00  0.00    -0.336 N 
HETATM    9  C4  UNL     1      -2.676   1.058  11.376  1.00  0.00     0.119 A 
HETATM   10  C2  UNL     1      -5.274   1.821  11.168  1.00  0.00     0.183 A 
ATOM     11  H3  UNL     1      -4.533   3.708  10.791  1.00  0.00     0.168 HD
HETATM   12  N2  UNL     1      -4.978   0.542  11.439  1.00  0.00    -0.339 N 
HETATM   13  C1  UNL     1      -3.706   0.149  11.544  1.00  0.00     0.148 A 
ATOM     14  H2  UNL     1      -5.730  -0.136  11.565  1.00  0.00     0.167 HD
HETATM   15  N1  UNL     1      -3.403  -1.210  11.829  1.00  0.00    -0.080 NA
HETATM   16  N4  UNL     1      -1.342   1.005  11.403  1.00  0.00    -0.346 N 
HETATM   17  C5  UNL     1      -0.817   2.215  11.157  1.00  0.00     0.185 A 
ATOM     18  H4  UNL     1      -0.797   0.163  11.587  1.00  0.00     0.167 HD
ENDBRANCH   5   6
ENDBRANCH   1   5
BRANCH   3  19
HETATM   19  C8  UNL     1      -3.082   6.330  13.757  1.00  0.00     0.127 C 
BRANCH  19  20
HETATM   20  C9  UNL     1      -4.423   6.351  14.408  1.00  0.00     0.058 C 
BRANCH  20  21
HETATM   21  C10 UNL     1      -4.746   5.059  15.048  1.00  0.00    -0.057 A 
HETATM   22  C11 UNL     1      -3.773   4.106  15.240  1.00  0.00     0.009 A 
HETATM   23  C12 UNL     1      -4.075   2.893  15.833  1.00  0.00     0.026 A 
HETATM   24  C13 UNL     1      -5.365   2.623  16.240  1.00  0.00     0.079 A 
HETATM   25  C14 UNL     1      -6.360   3.580  16.050  1.00  0.00     0.026 A 
HETATM   26  C15 UNL     1      -6.045   4.774  15.462  1.00  0.00     0.009 A 
BRANCH  24  27
HETATM   27  S1  UNL     1      -5.850   1.108  16.964  1.00  0.00     0.256 S 
HETATM   28  O2  UNL     1      -5.263   0.926  18.320  1.00  0.00    -0.201 OA
HETATM   29  O3  UNL     1      -5.383  -0.010  16.062  1.00  0.00    -0.201 OA
BRANCH  27  30
HETATM   30  N7  UNL     1      -7.599   1.038  17.003  1.00  0.00    -0.324 N 
ATOM     31  H72 UNL     1      -8.216   1.845  16.920  1.00  0.00     0.169 HD
ATOM     32  H71 UNL     1      -7.885   0.067  17.122  1.00  0.00     0.169 HD
ENDBRANCH  27  30
ENDBRANCH  24  27
ENDBRANCH  20  21
ENDBRANCH  19  20
ENDBRANCH   3  19
TORSDOF 7
ENDMDL
