MODEL 2
REMARK VINA RESULT: -9.997462482      3.415      4.886
REMARK  15 active torsions:
REMARK  status: ('A' for Active; 'I' for Inactive)
REMARK    1  A    between atoms: C1_2  and  C2_4 
REMARK    2  A    between atoms: N2_8  and  C6_9 
REMARK    3  A    between atoms: C7_11  and  C8_12 
REMARK    4  A    between atoms: C8_12  and  O3_13 
REMARK    5  A    between atoms: O3_13  and  P1_14 
REMARK    6  A    between atoms: P1_14  and  O6_17 
REMARK    7  A    between atoms: O6_17  and  P2_18 
REMARK    8  A    between atoms: P2_18  and  O9_21 
REMARK    9  A    between atoms: O9_21  and  C9_22 
REMARK   10  A    between atoms: C9_22  and  C10_23 
REMARK   11  A    between atoms: C11_25  and  N3_26 
REMARK   12  A    between atoms: C17_39  and  O11_40 
REMARK   13  A    between atoms: C18_42  and  O12_43 
REMARK   14  A    between atoms: C19_45  and  O13_46 
REMARK   15  A    between atoms: C20_48  and  O14_49 
ROOT
HETATM    1  P2  UNL     1      -1.423 -20.397  -7.599  1.00  0.00     0.417 P 
HETATM    2  O7  UNL     1      -2.442 -19.780  -8.509  1.00  0.00    -0.624 OA
HETATM    3  O8  UNL     1      -2.230 -21.761  -6.858  1.00  0.00    -0.624 OA
ENDROOT
BRANCH   1   4
HETATM    4  O6  UNL     1      -0.082 -20.895  -8.343  1.00  0.00    -0.180 OA
BRANCH   4   5
HETATM    5  P1  UNL     1       1.032 -21.740  -7.461  1.00  0.00     0.417 P 
HETATM    6  O4  UNL     1       0.921 -21.576  -6.006  1.00  0.00    -0.624 OA
HETATM    7  O5  UNL     1       2.630 -21.018  -7.839  1.00  0.00    -0.624 OA
BRANCH   5   8
HETATM    8  O3  UNL     1       1.164 -23.282  -7.998  1.00  0.00    -0.287 OA
BRANCH   8   9
HETATM    9  C8  UNL     1       0.403 -23.550  -9.157  1.00  0.00     0.216 C 
BRANCH   9  10
HETATM   10  C7  UNL     1      -0.729 -24.432  -8.547  1.00  0.00     0.180 C 
HETATM   11  O2  UNL     1      -1.864 -24.285  -9.306  1.00  0.00    -0.353 OA
HETATM   12  C6  UNL     1      -2.429 -25.505  -9.596  1.00  0.00     0.259 C 
HETATM   13  C20 UNL     1      -1.846 -26.440  -8.531  1.00  0.00     0.198 C 
HETATM   14  C19 UNL     1      -0.401 -25.861  -8.462  1.00  0.00     0.182 C 
BRANCH  12  15
HETATM   15  N2  UNL     1      -1.814 -25.912 -10.878  1.00  0.00    -0.336 N 
HETATM   16  C5  UNL     1      -1.321 -27.138 -11.062  1.00  0.00     0.093 A 
HETATM   17  C4  UNL     1      -0.645 -27.444 -12.242  1.00  0.00     0.018 A 
HETATM   18  C3  UNL     1      -0.489 -26.486 -13.202  1.00  0.00     0.019 A 
HETATM   19  C2  UNL     1      -1.006 -25.238 -12.978  1.00  0.00     0.044 A 
HETATM   20  C21 UNL     1      -1.672 -24.957 -11.805  1.00  0.00     0.110 A 
BRANCH  19  21
HETATM   21  C1  UNL     1      -0.825 -24.173 -13.947  1.00  0.00     0.266 C 
HETATM   22  N1  UNL     1       0.468 -23.860 -14.422  1.00  0.00    -0.057 NA
HETATM   23  O1  UNL     1      -1.796 -23.480 -14.407  1.00  0.00    -0.271 OA
ENDBRANCH  19  21
ENDBRANCH  12  15
BRANCH  13  24
HETATM   24  O14 UNL     1      -2.415 -26.155  -7.291  1.00  0.00    -0.388 OA
ATOM     25  H14 UNL     1      -1.943 -26.617  -6.607  1.00  0.00     0.210 HD
ENDBRANCH  13  24
BRANCH  14  26
HETATM   26  O13 UNL     1       0.222 -26.259  -7.273  1.00  0.00    -0.390 OA
ATOM     27  H13 UNL     1       0.372 -27.193  -7.189  1.00  0.00     0.210 HD
ENDBRANCH  14  26
ENDBRANCH   9  10
ENDBRANCH   8   9
ENDBRANCH   5   8
ENDBRANCH   4   5
ENDBRANCH   1   4
BRANCH   1  28
HETATM   28  O9  UNL     1      -1.266 -19.307  -6.265  1.00  0.00    -0.287 OA
BRANCH  28  29
HETATM   29  C9  UNL     1      -0.938 -18.072  -6.916  1.00  0.00     0.216 C 
BRANCH  29  30
HETATM   30  C10 UNL     1      -1.780 -17.004  -6.361  1.00  0.00     0.180 C 
HETATM   31  O10 UNL     1      -2.876 -16.777  -7.240  1.00  0.00    -0.353 OA
HETATM   32  C11 UNL     1      -3.565 -15.798  -6.494  1.00  0.00     0.262 C 
HETATM   33  C17 UNL     1      -3.816 -16.686  -5.245  1.00  0.00     0.198 C 
HETATM   34  C18 UNL     1      -2.374 -17.231  -5.037  1.00  0.00     0.182 C 
BRANCH  32  35
HETATM   35  N3  UNL     1      -4.749 -15.437  -7.171  1.00  0.00    -0.297 N 
HETATM   36  C12 UNL     1      -5.137 -14.196  -7.620  1.00  0.00     0.188 A 
HETATM   37  N4  UNL     1      -6.325 -14.266  -8.223  1.00  0.00    -0.346 N 
HETATM   38  C13 UNL     1      -6.710 -15.575  -8.172  1.00  0.00     0.119 A 
ATOM     39  H4  UNL     1      -6.844 -13.493  -8.639  1.00  0.00     0.167 HD
HETATM   40  C14 UNL     1      -7.836 -16.199  -8.624  1.00  0.00     0.148 A 
HETATM   41  C16 UNL     1      -5.717 -16.283  -7.511  1.00  0.00     0.142 A 
HETATM   42  N5  UNL     1      -8.839 -15.480  -9.336  1.00  0.00    -0.080 NA
HETATM   43  N6  UNL     1      -7.999 -17.516  -8.419  1.00  0.00    -0.339 N 
HETATM   44  C15 UNL     1      -7.063 -18.219  -7.775  1.00  0.00     0.183 A 
ATOM     45  H6  UNL     1      -8.841 -17.982  -8.756  1.00  0.00     0.167 HD
HETATM   46  N7  UNL     1      -5.932 -17.592  -7.330  1.00  0.00    -0.336 N 
ATOM     47  H7  UNL     1      -5.225 -18.142  -6.843  1.00  0.00     0.168 HD
ENDBRANCH  32  35
BRANCH  33  48
HETATM   48  O11 UNL     1      -4.326 -16.022  -4.184  1.00  0.00    -0.388 OA
ATOM     49  H11 UNL     1      -3.747 -15.363  -3.820  1.00  0.00     0.210 HD
ENDBRANCH  33  48
BRANCH  34  50
HETATM   50  O12 UNL     1      -1.779 -16.341  -4.091  1.00  0.00    -0.390 OA
ATOM     51  H12 UNL     1      -0.841 -16.308  -4.234  1.00  0.00     0.210 HD
ENDBRANCH  34  50
ENDBRANCH  29  30
ENDBRANCH  28  29
ENDBRANCH   1  28
TORSDOF 15
ENDMDL
