MODEL 3
REMARK VINA RESULT: -9.975284349      3.456      4.751
REMARK  15 active torsions:
REMARK  status: ('A' for Active; 'I' for Inactive)
REMARK    1  A    between atoms: C1_2  and  C2_4 
REMARK    2  A    between atoms: N2_8  and  C6_9 
REMARK    3  A    between atoms: C7_11  and  C8_12 
REMARK    4  A    between atoms: C8_12  and  O3_13 
REMARK    5  A    between atoms: O3_13  and  P1_14 
REMARK    6  A    between atoms: P1_14  and  O6_17 
REMARK    7  A    between atoms: O6_17  and  P2_18 
REMARK    8  A    between atoms: P2_18  and  O9_21 
REMARK    9  A    between atoms: O9_21  and  C9_22 
REMARK   10  A    between atoms: C9_22  and  C10_23 
REMARK   11  A    between atoms: C11_25  and  N3_26 
REMARK   12  A    between atoms: C17_39  and  O11_40 
REMARK   13  A    between atoms: C18_42  and  O12_43 
REMARK   14  A    between atoms: C19_45  and  O13_46 
REMARK   15  A    between atoms: C20_48  and  O14_49 
ROOT
HETATM    1  P2  UNL     1      -0.815 -19.884  -6.964  1.00  0.00     0.417 P 
HETATM    2  O7  UNL     1      -1.766 -19.728  -8.112  1.00  0.00    -0.624 OA
HETATM    3  O8  UNL     1      -1.392 -21.274  -6.072  1.00  0.00    -0.624 OA
ENDROOT
BRANCH   1   4
HETATM    4  O6  UNL     1       0.720 -20.114  -7.399  1.00  0.00    -0.180 OA
BRANCH   4   5
HETATM    5  P1  UNL     1       1.202 -21.649  -7.782  1.00  0.00     0.417 P 
HETATM    6  O4  UNL     1       1.633 -22.464  -6.639  1.00  0.00    -0.624 OA
HETATM    7  O5  UNL     1       2.697 -21.481  -8.759  1.00  0.00    -0.624 OA
BRANCH   5   8
HETATM    8  O3  UNL     1       0.142 -22.361  -8.808  1.00  0.00    -0.287 OA
BRANCH   8   9
HETATM    9  C8  UNL     1       0.534 -23.652  -9.228  1.00  0.00     0.216 C 
BRANCH   9  10
HETATM   10  C7  UNL     1      -0.614 -24.505  -8.607  1.00  0.00     0.180 C 
HETATM   11  O2  UNL     1      -1.755 -24.321  -9.349  1.00  0.00    -0.353 OA
HETATM   12  C6  UNL     1      -2.359 -25.522  -9.638  1.00  0.00     0.259 C 
HETATM   13  C20 UNL     1      -1.787 -26.481  -8.589  1.00  0.00     0.198 C 
HETATM   14  C19 UNL     1      -0.325 -25.944  -8.537  1.00  0.00     0.182 C 
BRANCH  12  15
HETATM   15  N2  UNL     1      -1.775 -25.936 -10.932  1.00  0.00    -0.336 N 
HETATM   16  C5  UNL     1      -1.306 -27.170 -11.127  1.00  0.00     0.093 A 
HETATM   17  C4  UNL     1      -0.658 -27.485 -12.321  1.00  0.00     0.018 A 
HETATM   18  C3  UNL     1      -0.503 -26.528 -13.282  1.00  0.00     0.019 A 
HETATM   19  C2  UNL     1      -0.995 -25.271 -13.046  1.00  0.00     0.044 A 
HETATM   20  C21 UNL     1      -1.633 -24.982 -11.860  1.00  0.00     0.110 A 
BRANCH  19  21
HETATM   21  C1  UNL     1      -0.813 -24.208 -14.016  1.00  0.00     0.266 C 
HETATM   22  N1  UNL     1       0.480 -23.896 -14.493  1.00  0.00    -0.057 NA
HETATM   23  O1  UNL     1      -1.783 -23.513 -14.475  1.00  0.00    -0.271 OA
ENDBRANCH  19  21
ENDBRANCH  12  15
BRANCH  13  24
HETATM   24  O14 UNL     1      -2.329 -26.189  -7.339  1.00  0.00    -0.388 OA
ATOM     25  H14 UNL     1      -2.114 -26.882  -6.725  1.00  0.00     0.210 HD
ENDBRANCH  13  24
BRANCH  14  26
HETATM   26  O13 UNL     1       0.303 -26.368  -7.361  1.00  0.00    -0.390 OA
ATOM     27  H13 UNL     1       0.092 -27.253  -7.086  1.00  0.00     0.210 HD
ENDBRANCH  14  26
ENDBRANCH   9  10
ENDBRANCH   8   9
ENDBRANCH   5   8
ENDBRANCH   4   5
ENDBRANCH   1   4
BRANCH   1  28
HETATM   28  O9  UNL     1      -1.176 -18.588  -5.877  1.00  0.00    -0.287 OA
BRANCH  28  29
HETATM   29  C9  UNL     1      -1.085 -17.439  -6.731  1.00  0.00     0.216 C 
BRANCH  29  30
HETATM   30  C10 UNL     1      -2.170 -16.508  -6.392  1.00  0.00     0.180 C 
HETATM   31  O10 UNL     1      -3.303 -16.807  -7.199  1.00  0.00    -0.353 OA
HETATM   32  C11 UNL     1      -4.213 -15.869  -6.667  1.00  0.00     0.262 C 
HETATM   33  C17 UNL     1      -4.196 -16.425  -5.216  1.00  0.00     0.198 C 
HETATM   34  C18 UNL     1      -2.657 -16.514  -5.006  1.00  0.00     0.182 C 
BRANCH  32  35
HETATM   35  N3  UNL     1      -5.463 -16.012  -7.305  1.00  0.00    -0.297 N 
HETATM   36  C12 UNL     1      -6.302 -17.103  -7.318  1.00  0.00     0.188 A 
HETATM   37  N4  UNL     1      -7.400 -16.842  -8.028  1.00  0.00    -0.346 N 
HETATM   38  C13 UNL     1      -7.277 -15.557  -8.476  1.00  0.00     0.119 A 
ATOM     39  H4  UNL     1      -8.178 -17.477  -8.203  1.00  0.00     0.167 HD
HETATM   40  C14 UNL     1      -8.102 -14.793  -9.250  1.00  0.00     0.148 A 
HETATM   41  C16 UNL     1      -6.065 -15.064  -8.017  1.00  0.00     0.142 A 
HETATM   42  N5  UNL     1      -9.363 -15.287  -9.690  1.00  0.00    -0.080 NA
HETATM   43  N6  UNL     1      -7.734 -13.547  -9.587  1.00  0.00    -0.339 N 
HETATM   44  C15 UNL     1      -6.567 -13.050  -9.169  1.00  0.00     0.183 A 
ATOM     45  H6  UNL     1      -8.350 -12.976 -10.167  1.00  0.00     0.167 HD
HETATM   46  N7  UNL     1      -5.747 -13.817  -8.386  1.00  0.00    -0.336 N 
ATOM     47  H7  UNL     1      -4.860 -13.423  -8.072  1.00  0.00     0.168 HD
ENDBRANCH  32  35
BRANCH  33  48
HETATM   48  O11 UNL     1      -4.844 -15.651  -4.318  1.00  0.00    -0.388 OA
ATOM     49  H11 UNL     1      -4.717 -15.913  -3.413  1.00  0.00     0.210 HD
ENDBRANCH  33  48
BRANCH  34  50
HETATM   50  O12 UNL     1      -2.303 -15.283  -4.373  1.00  0.00    -0.390 OA
ATOM     51  H12 UNL     1      -3.063 -14.927  -3.928  1.00  0.00     0.210 HD
ENDBRANCH  34  50
ENDBRANCH  29  30
ENDBRANCH  28  29
ENDBRANCH   1  28
TORSDOF 15
ENDMDL
