MODEL 4
REMARK VINA RESULT: -9.956525038      1.723      3.023
REMARK  15 active torsions:
REMARK  status: ('A' for Active; 'I' for Inactive)
REMARK    1  A    between atoms: C1_2  and  C2_4 
REMARK    2  A    between atoms: N2_8  and  C6_9 
REMARK    3  A    between atoms: C7_11  and  C8_12 
REMARK    4  A    between atoms: C8_12  and  O3_13 
REMARK    5  A    between atoms: O3_13  and  P1_14 
REMARK    6  A    between atoms: P1_14  and  O6_17 
REMARK    7  A    between atoms: O6_17  and  P2_18 
REMARK    8  A    between atoms: P2_18  and  O9_21 
REMARK    9  A    between atoms: O9_21  and  C9_22 
REMARK   10  A    between atoms: C9_22  and  C10_23 
REMARK   11  A    between atoms: C11_25  and  N3_26 
REMARK   12  A    between atoms: C17_39  and  O11_40 
REMARK   13  A    between atoms: C18_42  and  O12_43 
REMARK   14  A    between atoms: C19_45  and  O13_46 
REMARK   15  A    between atoms: C20_48  and  O14_49 
ROOT
HETATM    1  P2  UNL     1      -3.314 -22.370  -5.177  1.00  0.00     0.417 P 
HETATM    2  O7  UNL     1      -3.867 -22.979  -3.924  1.00  0.00    -0.624 OA
HETATM    3  O8  UNL     1      -1.835 -23.246  -5.504  1.00  0.00    -0.624 OA
ENDROOT
BRANCH   1   4
HETATM    4  O6  UNL     1      -4.298 -22.467  -6.452  1.00  0.00    -0.180 OA
BRANCH   4   5
HETATM    5  P1  UNL     1      -4.421 -23.918  -7.235  1.00  0.00     0.417 P 
HETATM    6  O4  UNL     1      -5.535 -24.014  -8.186  1.00  0.00    -0.624 OA
HETATM    7  O5  UNL     1      -4.837 -25.134  -5.984  1.00  0.00    -0.624 OA
BRANCH   5   8
HETATM    8  O3  UNL     1      -2.962 -24.414  -7.791  1.00  0.00    -0.287 OA
BRANCH   8   9
HETATM    9  C8  UNL     1      -2.569 -23.792  -8.997  1.00  0.00     0.216 C 
BRANCH   9  10
HETATM   10  C7  UNL     1      -1.299 -24.629  -9.339  1.00  0.00     0.180 C 
HETATM   11  O2  UNL     1      -0.396 -23.820  -9.985  1.00  0.00    -0.353 OA
HETATM   12  C6  UNL     1       0.865 -23.961  -9.454  1.00  0.00     0.259 C 
HETATM   13  C20 UNL     1       0.809 -25.313  -8.734  1.00  0.00     0.198 C 
HETATM   14  C19 UNL     1      -0.641 -25.231  -8.172  1.00  0.00     0.182 C 
BRANCH  12  15
HETATM   15  N2  UNL     1       0.946 -22.935  -8.393  1.00  0.00    -0.336 N 
HETATM   16  C5  UNL     1       1.753 -23.078  -7.339  1.00  0.00     0.093 A 
HETATM   17  C4  UNL     1       1.712 -22.146  -6.303  1.00  0.00     0.018 A 
HETATM   18  C3  UNL     1       0.844 -21.094  -6.371  1.00  0.00     0.019 A 
HETATM   19  C2  UNL     1       0.029 -20.981  -7.466  1.00  0.00     0.044 A 
HETATM   20  C21 UNL     1       0.087 -21.913  -8.479  1.00  0.00     0.110 A 
BRANCH  19  21
HETATM   21  C1  UNL     1      -0.943 -19.908  -7.561  1.00  0.00     0.266 C 
HETATM   22  N1  UNL     1      -2.116 -20.081  -8.331  1.00  0.00    -0.057 NA
HETATM   23  O1  UNL     1      -0.794 -18.782  -6.976  1.00  0.00    -0.271 OA
ENDBRANCH  19  21
ENDBRANCH  12  15
BRANCH  13  24
HETATM   24  O14 UNL     1       0.782 -26.345  -9.671  1.00  0.00    -0.388 OA
ATOM     25  H14 UNL     1       0.012 -26.883  -9.533  1.00  0.00     0.210 HD
ENDBRANCH  13  24
BRANCH  14  26
HETATM   26  O13 UNL     1      -1.097 -26.509  -7.826  1.00  0.00    -0.390 OA
ATOM     27  H13 UNL     1      -1.056 -26.715  -6.900  1.00  0.00     0.210 HD
ENDBRANCH  14  26
ENDBRANCH   9  10
ENDBRANCH   8   9
ENDBRANCH   5   8
ENDBRANCH   4   5
ENDBRANCH   1   4
BRANCH   1  28
HETATM   28  O9  UNL     1      -2.715 -20.815  -4.718  1.00  0.00    -0.287 OA
BRANCH  28  29
HETATM   29  C9  UNL     1      -3.919 -20.044  -4.603  1.00  0.00     0.216 C 
BRANCH  29  30
HETATM   30  C10 UNL     1      -3.734 -18.766  -5.302  1.00  0.00     0.180 C 
HETATM   31  O10 UNL     1      -4.929 -18.448  -6.006  1.00  0.00    -0.353 OA
HETATM   32  C11 UNL     1      -4.559 -17.189  -6.523  1.00  0.00     0.262 C 
HETATM   33  C17 UNL     1      -4.331 -16.504  -5.147  1.00  0.00     0.198 C 
HETATM   34  C18 UNL     1      -3.432 -17.585  -4.481  1.00  0.00     0.182 C 
BRANCH  32  35
HETATM   35  N3  UNL     1      -5.638 -16.641  -7.248  1.00  0.00    -0.297 N 
HETATM   36  C12 UNL     1      -6.865 -17.204  -7.517  1.00  0.00     0.188 A 
HETATM   37  N4  UNL     1      -7.620 -16.364  -8.226  1.00  0.00    -0.346 N 
HETATM   38  C13 UNL     1      -6.876 -15.234  -8.411  1.00  0.00     0.119 A 
ATOM     39  H4  UNL     1      -8.568 -16.533  -8.564  1.00  0.00     0.167 HD
HETATM   40  C14 UNL     1      -7.156 -14.072  -9.071  1.00  0.00     0.148 A 
HETATM   41  C16 UNL     1      -5.648 -15.431  -7.798  1.00  0.00     0.142 A 
HETATM   42  N5  UNL     1      -8.430 -13.855  -9.669  1.00  0.00    -0.080 NA
HETATM   43  N6  UNL     1      -6.228 -13.105  -9.142  1.00  0.00    -0.339 N 
HETATM   44  C15 UNL     1      -5.032 -13.273  -8.570  1.00  0.00     0.183 A 
ATOM     45  H6  UNL     1      -6.436 -12.237  -9.635  1.00  0.00     0.167 HD
HETATM   46  N7  UNL     1      -4.759 -14.436  -7.903  1.00  0.00    -0.336 N 
ATOM     47  H7  UNL     1      -3.843 -14.548  -7.469  1.00  0.00     0.168 HD
ENDBRANCH  32  35
BRANCH  33  48
HETATM   48  O11 UNL     1      -3.774 -15.275  -5.224  1.00  0.00    -0.388 OA
ATOM     49  H11 UNL     1      -2.985 -15.171  -4.705  1.00  0.00     0.210 HD
ENDBRANCH  33  48
BRANCH  34  50
HETATM   50  O12 UNL     1      -2.093 -17.157  -4.741  1.00  0.00    -0.390 OA
ATOM     51  H12 UNL     1      -2.000 -16.245  -4.491  1.00  0.00     0.210 HD
ENDBRANCH  34  50
ENDBRANCH  29  30
ENDBRANCH  28  29
ENDBRANCH   1  28
TORSDOF 15
ENDMDL
