MODEL 4
REMARK VINA RESULT: -5.100447592      3.307      4.643
REMARK  1 active torsions:
REMARK  status: ('A' for Active; 'I' for Inactive)
REMARK    1  A    between atoms: C4_6  and  O1_7 
ROOT
HETATM    1  C1  UNL     1     -36.161 -34.274  55.180  1.00  0.00     0.089 C 
HETATM    2  C2  UNL     1     -35.558 -35.638  55.358  1.00  0.00     0.078 A 
HETATM    3  N1  UNL     1     -35.101 -36.185  56.480  1.00  0.00    -0.342 N 
ATOM      4  H1  UNL     1     -35.106 -35.723  57.389  1.00  0.00     0.167 HD
HETATM    5  C3  UNL     1     -34.630 -37.428  56.263  1.00  0.00     0.094 A 
HETATM    6  C4  UNL     1     -34.059 -38.420  57.038  1.00  0.00     0.094 A 
HETATM    7  C5  UNL     1     -33.664 -39.632  56.514  1.00  0.00     0.039 A 
HETATM    8  C6  UNL     1     -33.841 -39.877  55.166  1.00  0.00     0.005 A 
HETATM    9  C7  UNL     1     -34.411 -38.889  54.388  1.00  0.00     0.032 A 
HETATM   10  C8  UNL     1     -34.809 -37.671  54.909  1.00  0.00     0.063 A 
HETATM   11  N2  UNL     1     -35.376 -36.558  54.392  1.00  0.00    -0.344 N 
ATOM     12  H2  UNL     1     -35.630 -36.433  53.412  1.00  0.00     0.167 HD
ENDROOT
BRANCH   6  13
HETATM   13  O1  UNL     1     -33.880 -38.179  58.390  1.00  0.00    -0.358 OA
ATOM     14  H1  UNL     1     -34.159 -38.844  59.008  1.00  0.00     0.217 HD
ENDBRANCH   6  13
TORSDOF 1
ENDMDL
