MODEL 1
REMARK VINA RESULT: -5.249600598      0.000      0.000
REMARK  1 active torsions:
REMARK  status: ('A' for Active; 'I' for Inactive)
REMARK    1  A    between atoms: C4_6  and  O1_7 
ROOT
HETATM    1  C1  UNL     1     -36.698 -42.368  60.155  1.00  0.00     0.089 C 
HETATM    2  C2  UNL     1     -36.101 -41.561  59.038  1.00  0.00     0.078 A 
HETATM    3  N1  UNL     1     -35.390 -40.442  59.132  1.00  0.00    -0.342 N 
ATOM      4  H1  UNL     1     -35.157 -39.981  60.012  1.00  0.00     0.167 HD
HETATM    5  C3  UNL     1     -35.016 -39.994  57.919  1.00  0.00     0.094 A 
HETATM    6  C4  UNL     1     -34.292 -38.918  57.440  1.00  0.00     0.094 A 
HETATM    7  C5  UNL     1     -34.067 -38.718  56.095  1.00  0.00     0.039 A 
HETATM    8  C6  UNL     1     -34.578 -39.620  55.181  1.00  0.00     0.005 A 
HETATM    9  C7  UNL     1     -35.302 -40.696  55.656  1.00  0.00     0.032 A 
HETATM   10  C8  UNL     1     -35.531 -40.901  57.004  1.00  0.00     0.063 A 
HETATM   11  N2  UNL     1     -36.185 -41.841  57.724  1.00  0.00    -0.344 N 
ATOM     12  H2  UNL     1     -36.672 -42.645  57.328  1.00  0.00     0.167 HD
ENDROOT
BRANCH   6  13
HETATM   13  O1  UNL     1     -33.778 -38.012  58.352  1.00  0.00    -0.358 OA
ATOM     14  H1  UNL     1     -34.374 -37.399  58.766  1.00  0.00     0.217 HD
ENDBRANCH   6  13
TORSDOF 1
ENDMDL
