MODEL 2
REMARK VINA RESULT: -5.221021132      4.784      5.818
REMARK  1 active torsions:
REMARK  status: ('A' for Active; 'I' for Inactive)
REMARK    1  A    between atoms: C4_6  and  O1_7 
ROOT
HETATM    1  C1  UNL     1     -35.406 -38.266  57.008  1.00  0.00     0.089 C 
HETATM    2  C2  UNL     1     -35.240 -36.889  56.433  1.00  0.00     0.078 A 
HETATM    3  N1  UNL     1     -34.470 -35.905  56.887  1.00  0.00    -0.342 N 
ATOM      4  H1  UNL     1     -33.877 -35.973  57.714  1.00  0.00     0.167 HD
HETATM    5  C3  UNL     1     -34.573 -34.806  56.116  1.00  0.00     0.094 A 
HETATM    6  C4  UNL     1     -34.020 -33.538  56.118  1.00  0.00     0.094 A 
HETATM    7  C5  UNL     1     -34.330 -32.595  55.162  1.00  0.00     0.039 A 
HETATM    8  C6  UNL     1     -35.223 -32.916  54.158  1.00  0.00     0.005 A 
HETATM    9  C7  UNL     1     -35.777 -34.181  54.152  1.00  0.00     0.032 A 
HETATM   10  C8  UNL     1     -35.470 -35.131  55.109  1.00  0.00     0.063 A 
HETATM   11  N2  UNL     1     -35.855 -36.407  55.337  1.00  0.00    -0.344 N 
ATOM     12  H2  UNL     1     -36.515 -36.930  54.761  1.00  0.00     0.167 HD
ENDROOT
BRANCH   6  13
HETATM   13  O1  UNL     1     -33.124 -33.213  57.122  1.00  0.00    -0.358 OA
ATOM     14  H1  UNL     1     -32.294 -32.820  56.878  1.00  0.00     0.217 HD
ENDBRANCH   6  13
TORSDOF 1
ENDMDL
