MODEL 3
REMARK VINA RESULT: -5.133216341      1.601      2.329
REMARK  1 active torsions:
REMARK  status: ('A' for Active; 'I' for Inactive)
REMARK    1  A    between atoms: C4_6  and  O1_7 
ROOT
HETATM    1  C1  UNL     1     -36.558 -42.425  60.163  1.00  0.00     0.089 C 
HETATM    2  C2  UNL     1     -35.935 -41.596  59.077  1.00  0.00     0.078 A 
HETATM    3  N1  UNL     1     -36.013 -41.784  57.763  1.00  0.00    -0.342 N 
ATOM      4  H1  UNL     1     -36.528 -42.546  57.321  1.00  0.00     0.167 HD
HETATM    5  C3  UNL     1     -35.327 -40.842  57.090  1.00  0.00     0.094 A 
HETATM    6  C4  UNL     1     -35.076 -40.559  55.760  1.00  0.00     0.094 A 
HETATM    7  C5  UNL     1     -34.308 -39.483  55.365  1.00  0.00     0.039 A 
HETATM    8  C6  UNL     1     -33.766 -38.650  56.324  1.00  0.00     0.005 A 
HETATM    9  C7  UNL     1     -34.015 -38.929  57.654  1.00  0.00     0.032 A 
HETATM   10  C8  UNL     1     -34.784 -40.006  58.055  1.00  0.00     0.063 A 
HETATM   11  N2  UNL     1     -35.176 -40.498  59.252  1.00  0.00    -0.344 N 
ATOM     12  H2  UNL     1     -34.932 -40.096  60.157  1.00  0.00     0.167 HD
ENDROOT
BRANCH   6  13
HETATM   13  O1  UNL     1     -35.617 -41.392  54.796  1.00  0.00    -0.358 OA
ATOM     14  H1  UNL     1     -36.510 -41.696  54.912  1.00  0.00     0.217 HD
ENDBRANCH   6  13
TORSDOF 1
ENDMDL
