MODEL 3
REMARK VINA RESULT: -5.092091462      2.376      4.600
REMARK  1 active torsions:
REMARK  status: ('A' for Active; 'I' for Inactive)
REMARK    1  A    between atoms: O1_2  and  C2_3 
ROOT
HETATM    1  C2  UNL     1     -34.653  36.331  55.106  1.00  0.00     0.069 A 
HETATM    2  C3  UNL     1     -34.973  37.581  55.594  1.00  0.00     0.039 A 
HETATM    3  C4  UNL     1     -36.058  37.689  56.432  1.00  0.00     0.033 A 
HETATM    4  C5  UNL     1     -36.828  36.589  56.795  1.00  0.00     0.043 A 
HETATM    5  N1  UNL     1     -37.922  36.464  57.593  1.00  0.00    -0.359 N 
ATOM      6  H1  UNL     1     -38.387  37.222  58.092  1.00  0.00     0.166 HD
HETATM    7  C6  UNL     1     -38.283  35.172  57.611  1.00  0.00     0.006 A 
HETATM    8  C7  UNL     1     -39.450  34.628  58.382  1.00  0.00     0.068 C 
HETATM    9  C8  UNL     1     -37.419  34.477  56.823  1.00  0.00     0.038 A 
HETATM   10  C9  UNL     1     -36.478  35.357  56.288  1.00  0.00    -0.005 A 
HETATM   11  C10 UNL     1     -35.410  35.214  55.456  1.00  0.00     0.050 A 
ENDROOT
BRANCH   1  12
HETATM   12  O1  UNL     1     -33.566  36.231  54.268  1.00  0.00    -0.356 OA
HETATM   13  C1  UNL     1     -32.795  35.069  54.094  1.00  0.00     0.210 C 
ENDBRANCH   1  12
TORSDOF 1
ENDMDL
