MODEL 1
REMARK VINA RESULT: -5.262205251      0.000      0.000
REMARK  1 active torsions:
REMARK  status: ('A' for Active; 'I' for Inactive)
REMARK    1  A    between atoms: O1_2  and  C2_3 
ROOT
HETATM    1  C2  UNL     1     -36.979  36.656  56.730  1.00  0.00     0.069 A 
HETATM    2  C3  UNL     1     -36.467  37.844  56.251  1.00  0.00     0.039 A 
HETATM    3  C4  UNL     1     -35.355  37.788  55.444  1.00  0.00     0.033 A 
HETATM    4  C5  UNL     1     -34.744  36.587  55.103  1.00  0.00     0.043 A 
HETATM    5  N1  UNL     1     -33.658  36.299  54.336  1.00  0.00    -0.359 N 
ATOM      6  H1  UNL     1     -33.074  36.979  53.850  1.00  0.00     0.166 HD
HETATM    7  C6  UNL     1     -33.489  34.968  54.329  1.00  0.00     0.006 A 
HETATM    8  C7  UNL     1     -32.394  34.257  53.591  1.00  0.00     0.068 C 
HETATM    9  C8  UNL     1     -34.467  34.411  55.093  1.00  0.00     0.038 A 
HETATM   10  C9  UNL     1     -35.284  35.421  55.601  1.00  0.00    -0.005 A 
HETATM   11  C10 UNL     1     -36.384  35.440  56.403  1.00  0.00     0.050 A 
ENDROOT
BRANCH   1  12
HETATM   12  O1  UNL     1     -38.092  36.720  57.538  1.00  0.00    -0.356 OA
HETATM   13  C1  UNL     1     -38.360  35.841  58.601  1.00  0.00     0.210 C 
ENDBRANCH   1  12
TORSDOF 1
ENDMDL
