MODEL 5
REMARK VINA RESULT: -5.068668354      3.257      6.052
REMARK  1 active torsions:
REMARK  status: ('A' for Active; 'I' for Inactive)
REMARK    1  A    between atoms: O1_2  and  C2_3 
ROOT
HETATM    1  C2  UNL     1     -37.202  34.374  56.375  1.00  0.00     0.069 A 
HETATM    2  C3  UNL     1     -36.641  35.389  57.123  1.00  0.00     0.039 A 
HETATM    3  C4  UNL     1     -37.393  35.934  58.137  1.00  0.00     0.033 A 
HETATM    4  C5  UNL     1     -38.681  35.497  58.424  1.00  0.00     0.043 A 
HETATM    5  N1  UNL     1     -39.590  35.883  59.360  1.00  0.00    -0.359 N 
ATOM      6  H1  UNL     1     -39.455  36.616  60.056  1.00  0.00     0.166 HD
HETATM    7  C6  UNL     1     -40.693  35.133  59.209  1.00  0.00     0.006 A 
HETATM    8  C7  UNL     1     -41.924  35.257  60.057  1.00  0.00     0.068 C 
HETATM    9  C8  UNL     1     -40.484  34.272  58.176  1.00  0.00     0.038 A 
HETATM   10  C9  UNL     1     -39.207  34.482  57.655  1.00  0.00    -0.005 A 
HETATM   11  C10 UNL     1     -38.491  33.920  56.643  1.00  0.00     0.050 A 
ENDROOT
BRANCH   1  12
HETATM   12  O1  UNL     1     -36.443  33.834  55.362  1.00  0.00    -0.356 OA
HETATM   13  C1  UNL     1     -35.075  33.525  55.465  1.00  0.00     0.210 C 
ENDBRANCH   1  12
TORSDOF 1
ENDMDL
