MODEL 8
REMARK VINA RESULT: -4.983990031      4.874      6.787
REMARK  1 active torsions:
REMARK  status: ('A' for Active; 'I' for Inactive)
REMARK    1  A    between atoms: O1_2  and  C2_3 
ROOT
HETATM    1  C2  UNL     1     -35.885  30.630  53.203  1.00  0.00     0.069 A 
HETATM    2  C3  UNL     1     -35.351  31.903  53.186  1.00  0.00     0.039 A 
HETATM    3  C4  UNL     1     -36.032  32.897  53.848  1.00  0.00     0.033 A 
HETATM    4  C5  UNL     1     -37.224  32.658  54.524  1.00  0.00     0.043 A 
HETATM    5  N1  UNL     1     -38.052  33.472  55.232  1.00  0.00    -0.359 N 
ATOM      6  H1  UNL     1     -37.915  34.470  55.392  1.00  0.00     0.166 HD
HETATM    7  C6  UNL     1     -39.079  32.737  55.685  1.00  0.00     0.006 A 
HETATM    8  C7  UNL     1     -40.207  33.276  56.512  1.00  0.00     0.068 C 
HETATM    9  C8  UNL     1     -38.903  31.455  55.263  1.00  0.00     0.038 A 
HETATM   10  C9  UNL     1     -37.726  31.375  54.519  1.00  0.00    -0.005 A 
HETATM   11  C10 UNL     1     -37.078  30.367  53.873  1.00  0.00     0.050 A 
ENDROOT
BRANCH   1  12
HETATM   12  O1  UNL     1     -35.198  29.641  52.537  1.00  0.00    -0.356 OA
HETATM   13  C1  UNL     1     -34.354  29.858  51.434  1.00  0.00     0.210 C 
ENDBRANCH   1  12
TORSDOF 1
ENDMDL
