MODEL 3
REMARK VINA RESULT: -9.652462452      4.269      5.707
REMARK  4 active torsions:
REMARK  status: ('A' for Active; 'I' for Inactive)
REMARK    1  A    between atoms: C1_2  and  C2_5 
REMARK    2  A    between atoms: C5_8  and  C6_9 
REMARK    3  A    between atoms: C6_9  and  N1_10 
REMARK    4  A    between atoms: N1_10  and  C7_12 
ROOT
HETATM    1  N1  UNL     1      28.614  -4.405  14.723  1.00  0.00    -0.355 N 
ATOM      2  H1  UNL     1      28.288  -5.273  15.149  1.00  0.00     0.163 HD
ENDROOT
BRANCH   1   3
HETATM    3  C6  UNL     1      30.018  -4.184  14.505  1.00  0.00     0.095 A 
HETATM    4  C12 UNL     1      30.797  -5.071  13.647  1.00  0.00     0.012 A 
HETATM    5  C13 UNL     1      30.901  -5.269  15.025  1.00  0.00     0.012 A 
BRANCH   3   6
HETATM    6  C5  UNL     1      30.508  -2.818  14.786  1.00  0.00    -0.022 A 
HETATM    7  C4  UNL     1      30.613  -2.254  16.008  1.00  0.00     0.011 A 
HETATM    8  C3  UNL     1      31.131  -0.999  16.181  1.00  0.00     0.017 A 
HETATM    9  C2  UNL     1      31.566  -0.280  15.063  1.00  0.00     0.047 A 
HETATM   10  C15 UNL     1      31.468  -0.833  13.812  1.00  0.00     0.017 A 
HETATM   11  C14 UNL     1      30.950  -2.078  13.677  1.00  0.00     0.011 A 
BRANCH   9  12
HETATM   12  C1  UNL     1      32.148   1.076  15.193  1.00  0.00     0.417 C 
HETATM   13  F1  UNL     1      31.175   2.003  15.532  1.00  0.00    -0.166 F 
HETATM   14  F2  UNL     1      32.784   1.410  14.004  1.00  0.00    -0.166 F 
HETATM   15  F3  UNL     1      33.106   1.009  16.199  1.00  0.00    -0.166 F 
ENDBRANCH   9  12
ENDBRANCH   3   6
ENDBRANCH   1   3
BRANCH   1  16
HETATM   16  C7  UNL     1      27.687  -3.402  14.337  1.00  0.00     0.120 A 
HETATM   17  N2  UNL     1      27.434  -3.176  13.012  1.00  0.00    -0.318 N 
HETATM   18  C8  UNL     1      26.605  -2.204  12.611  1.00  0.00     0.182 A 
ATOM     19  H2  UNL     1      27.888  -3.763  12.312  1.00  0.00     0.170 HD
HETATM   20 CL1  UNL     1      26.287  -1.912  10.895  1.00  0.00    -0.045 Cl
HETATM   21  N3  UNL     1      26.010  -1.430  13.510  1.00  0.00    -0.317 N 
HETATM   22  C9  UNL     1      26.188  -1.563  14.842  1.00  0.00     0.137 A 
ATOM     23  H3  UNL     1      25.386  -0.695  13.178  1.00  0.00     0.170 HD
HETATM   24  N4  UNL     1      25.715  -0.963  15.940  1.00  0.00    -0.285 N 
HETATM   25  C11 UNL     1      27.048  -2.574  15.251  1.00  0.00     0.070 A 
HETATM   26  N5  UNL     1      26.239  -1.549  17.006  1.00  0.00    -0.309 N 
ATOM     27  H4  UNL     1      25.058  -0.183  15.954  1.00  0.00     0.188 HD
HETATM   28  C10 UNL     1      27.068  -2.547  16.621  1.00  0.00     0.126 A 
ATOM     29  H5  UNL     1      26.047  -1.287  17.973  1.00  0.00     0.186 HD
ENDBRANCH   1  16
TORSDOF 4
ENDMDL
