MODEL 19
REMARK VINA RESULT: -8.988450121      4.932      6.819
REMARK  4 active torsions:
REMARK  status: ('A' for Active; 'I' for Inactive)
REMARK    1  A    between atoms: C1_2  and  C2_5 
REMARK    2  A    between atoms: C5_8  and  C6_9 
REMARK    3  A    between atoms: C6_9  and  N1_10 
REMARK    4  A    between atoms: N1_10  and  C7_12 
ROOT
HETATM    1  N1  UNL     1      30.709  -5.590  14.552  1.00  0.00    -0.355 N 
ATOM      2  H1  UNL     1      30.667  -6.001  15.485  1.00  0.00     0.163 HD
ENDROOT
BRANCH   1   3
HETATM    3  C6  UNL     1      29.861  -4.481  14.206  1.00  0.00     0.095 A 
HETATM    4  C12 UNL     1      28.411  -4.629  14.152  1.00  0.00     0.012 A 
HETATM    5  C13 UNL     1      29.097  -4.663  12.936  1.00  0.00     0.012 A 
BRANCH   3   6
HETATM    6  C5  UNL     1      30.457  -3.138  14.366  1.00  0.00    -0.022 A 
HETATM    7  C4  UNL     1      31.005  -2.395  13.381  1.00  0.00     0.011 A 
HETATM    8  C3  UNL     1      31.484  -1.134  13.610  1.00  0.00     0.017 A 
HETATM    9  C2  UNL     1      31.405  -0.598  14.899  1.00  0.00     0.047 A 
HETATM   10  C15 UNL     1      30.854  -1.335  15.916  1.00  0.00     0.017 A 
HETATM   11  C14 UNL     1      30.388  -2.580  15.654  1.00  0.00     0.011 A 
BRANCH   9  12
HETATM   12  C1  UNL     1      31.896   0.767  15.201  1.00  0.00     0.417 C 
HETATM   13  F1  UNL     1      30.842   1.620  15.487  1.00  0.00    -0.166 F 
HETATM   14  F2  UNL     1      32.649   1.223  14.126  1.00  0.00    -0.166 F 
HETATM   15  F3  UNL     1      32.730   0.661  16.308  1.00  0.00    -0.166 F 
ENDBRANCH   9  12
ENDBRANCH   3   6
ENDBRANCH   1   3
BRANCH   1  16
HETATM   16  C7  UNL     1      31.605  -6.106  13.579  1.00  0.00     0.120 A 
HETATM   17  N2  UNL     1      31.205  -6.230  12.276  1.00  0.00    -0.318 N 
HETATM   18  C8  UNL     1      32.006  -6.760  11.343  1.00  0.00     0.182 A 
ATOM     19  H2  UNL     1      30.273  -5.912  12.010  1.00  0.00     0.170 HD
HETATM   20 CL1  UNL     1      31.480  -6.925   9.661  1.00  0.00    -0.045 Cl
HETATM   21  N3  UNL     1      33.219  -7.182  11.676  1.00  0.00    -0.317 N 
HETATM   22  C9  UNL     1      33.716  -7.108  12.929  1.00  0.00     0.137 A 
ATOM     23  H3  UNL     1      33.808  -7.583  10.947  1.00  0.00     0.170 HD
HETATM   24  N4  UNL     1      34.872  -7.421  13.525  1.00  0.00    -0.285 N 
HETATM   25  C11 UNL     1      32.880  -6.557  13.892  1.00  0.00     0.070 A 
HETATM   26  N5  UNL     1      34.794  -7.093  14.806  1.00  0.00    -0.309 N 
ATOM     27  H4  UNL     1      35.681  -7.842  13.068  1.00  0.00     0.188 HD
HETATM   28  C10 UNL     1      33.579  -6.558  15.071  1.00  0.00     0.126 A 
ATOM     29  H5  UNL     1      35.538  -7.225  15.492  1.00  0.00     0.186 HD
ENDBRANCH   1  16
TORSDOF 4
ENDMDL
