MODEL 1
REMARK VINA RESULT: -9.961395016      0.000      0.000
REMARK  4 active torsions:
REMARK  status: ('A' for Active; 'I' for Inactive)
REMARK    1  A    between atoms: C1_2  and  C2_5 
REMARK    2  A    between atoms: C5_8  and  C6_9 
REMARK    3  A    between atoms: C6_9  and  N1_10 
REMARK    4  A    between atoms: N1_10  and  C7_12 
ROOT
HETATM    1  N1  UNL     1      28.861  -4.760  13.779  1.00  0.00    -0.355 N 
ATOM      2  H1  UNL     1      28.386  -5.625  13.518  1.00  0.00     0.163 HD
ENDROOT
BRANCH   1   3
HETATM    3  C6  UNL     1      30.051  -4.345  13.086  1.00  0.00     0.095 A 
HETATM    4  C12 UNL     1      30.414  -2.935  12.991  1.00  0.00     0.012 A 
HETATM    5  C13 UNL     1      29.798  -3.507  11.877  1.00  0.00     0.012 A 
BRANCH   3   6
HETATM    6  C5  UNL     1      31.085  -5.384  12.898  1.00  0.00    -0.022 A 
HETATM    7  C4  UNL     1      31.227  -6.167  11.807  1.00  0.00     0.011 A 
HETATM    8  C3  UNL     1      32.250  -7.067  11.694  1.00  0.00     0.017 A 
HETATM    9  C2  UNL     1      33.177  -7.181  12.735  1.00  0.00     0.047 A 
HETATM   10  C15 UNL     1      33.052  -6.398  13.853  1.00  0.00     0.017 A 
HETATM   11  C14 UNL     1      32.027  -5.515  13.932  1.00  0.00     0.011 A 
BRANCH   9  12
HETATM   12  C1  UNL     1      34.313  -8.130  12.660  1.00  0.00     0.417 C 
HETATM   13  F1  UNL     1      35.442  -7.511  12.147  1.00  0.00    -0.166 F 
HETATM   14  F2  UNL     1      33.935  -9.226  11.895  1.00  0.00    -0.166 F 
HETATM   15  F3  UNL     1      34.562  -8.565  13.957  1.00  0.00    -0.166 F 
ENDBRANCH   9  12
ENDBRANCH   3   6
ENDBRANCH   1   3
BRANCH   1  16
HETATM   16  C7  UNL     1      28.354  -3.951  14.830  1.00  0.00     0.120 A 
HETATM   17  N2  UNL     1      27.384  -3.021  14.573  1.00  0.00    -0.318 N 
HETATM   18  C8  UNL     1      26.920  -2.207  15.529  1.00  0.00     0.182 A 
ATOM     19  H2  UNL     1      27.005  -2.947  13.629  1.00  0.00     0.170 HD
HETATM   20 CL1  UNL     1      25.671  -1.001  15.188  1.00  0.00    -0.045 Cl
HETATM   21  N3  UNL     1      27.407  -2.290  16.761  1.00  0.00    -0.317 N 
HETATM   22  C9  UNL     1      28.365  -3.168  17.125  1.00  0.00     0.137 A 
ATOM     23  H3  UNL     1      27.039  -1.656  17.469  1.00  0.00     0.170 HD
HETATM   24  N4  UNL     1      29.002  -3.480  18.260  1.00  0.00    -0.285 N 
HETATM   25  C11 UNL     1      28.841  -4.011  16.129  1.00  0.00     0.070 A 
HETATM   26  N5  UNL     1      29.848  -4.470  18.016  1.00  0.00    -0.309 N 
ATOM     27  H4  UNL     1      28.860  -3.029  19.164  1.00  0.00     0.188 HD
HETATM   28  C10 UNL     1      29.778  -4.824  16.712  1.00  0.00     0.126 A 
ATOM     29  H5  UNL     1      30.461  -4.901  18.708  1.00  0.00     0.186 HD
ENDBRANCH   1  16
TORSDOF 4
ENDMDL
