MODEL 4
REMARK VINA RESULT: -9.599777654      0.279      1.014
REMARK  4 active torsions:
REMARK  status: ('A' for Active; 'I' for Inactive)
REMARK    1  A    between atoms: C1_2  and  C2_5 
REMARK    2  A    between atoms: C5_8  and  C6_9 
REMARK    3  A    between atoms: C6_9  and  N1_10 
REMARK    4  A    between atoms: N1_10  and  C7_12 
ROOT
HETATM    1  N1  UNL     1      28.842  -5.026  13.738  1.00  0.00    -0.355 N 
ATOM      2  H1  UNL     1      28.396  -5.932  13.596  1.00  0.00     0.163 HD
ENDROOT
BRANCH   1   3
HETATM    3  C6  UNL     1      29.921  -4.604  12.886  1.00  0.00     0.095 A 
HETATM    4  C12 UNL     1      30.013  -3.226  12.412  1.00  0.00     0.012 A 
HETATM    5  C13 UNL     1      29.495  -4.170  11.523  1.00  0.00     0.012 A 
BRANCH   3   6
HETATM    6  C5  UNL     1      31.128  -5.457  12.900  1.00  0.00    -0.022 A 
HETATM    7  C4  UNL     1      32.022  -5.543  13.907  1.00  0.00     0.011 A 
HETATM    8  C3  UNL     1      33.084  -6.404  13.858  1.00  0.00     0.017 A 
HETATM    9  C2  UNL     1      33.249  -7.220  12.734  1.00  0.00     0.047 A 
HETATM   10  C15 UNL     1      32.354  -7.149  11.698  1.00  0.00     0.017 A 
HETATM   11  C14 UNL     1      31.313  -6.286  11.780  1.00  0.00     0.011 A 
BRANCH   9  12
HETATM   12  C1  UNL     1      34.372  -8.181  12.633  1.00  0.00     0.417 C 
HETATM   13  F1  UNL     1      35.502  -7.569  12.114  1.00  0.00    -0.166 F 
HETATM   14  F2  UNL     1      33.972  -9.263  11.860  1.00  0.00    -0.166 F 
HETATM   15  F3  UNL     1      34.632  -8.634  13.922  1.00  0.00    -0.166 F 
ENDBRANCH   9  12
ENDBRANCH   3   6
ENDBRANCH   1   3
BRANCH   1  16
HETATM   16  C7  UNL     1      28.405  -4.164  14.778  1.00  0.00     0.120 A 
HETATM   17  N2  UNL     1      27.452  -3.215  14.527  1.00  0.00    -0.318 N 
HETATM   18  C8  UNL     1      27.054  -2.352  15.470  1.00  0.00     0.182 A 
ATOM     19  H2  UNL     1      27.036  -3.163  13.597  1.00  0.00     0.170 HD
HETATM   20 CL1  UNL     1      25.827  -1.122  15.137  1.00  0.00    -0.045 Cl
HETATM   21  N3  UNL     1      27.590  -2.406  16.683  1.00  0.00    -0.317 N 
HETATM   22  C9  UNL     1      28.535  -3.301  17.040  1.00  0.00     0.137 A 
ATOM     23  H3  UNL     1      27.271  -1.737  17.383  1.00  0.00     0.170 HD
HETATM   24  N4  UNL     1      29.211  -3.591  18.158  1.00  0.00    -0.285 N 
HETATM   25  C11 UNL     1      28.944  -4.193  16.057  1.00  0.00     0.070 A 
HETATM   26  N5  UNL     1      30.016  -4.615  17.917  1.00  0.00    -0.309 N 
ATOM     27  H4  UNL     1      29.120  -3.104  19.050  1.00  0.00     0.188 HD
HETATM   28  C10 UNL     1      29.880  -5.013  16.631  1.00  0.00     0.126 A 
ATOM     29  H5  UNL     1      30.645  -5.040  18.599  1.00  0.00     0.186 HD
ENDBRANCH   1  16
TORSDOF 4
ENDMDL
