MODEL 2
REMARK VINA RESULT: -9.689260360      4.718      7.503
REMARK  4 active torsions:
REMARK  status: ('A' for Active; 'I' for Inactive)
REMARK    1  A    between atoms: C2_2  and  N1_3 
REMARK    2  A    between atoms: C2_2  and  C9_19 
REMARK    3  A    between atoms: N1_3  and  C3_5 
REMARK    4  A    between atoms: C12_22  and  C13_23 
ROOT
HETATM    1  C3  UNL     1      29.235  -2.973  13.772  1.00  0.00     0.119 A 
HETATM    2  N2  UNL     1      28.036  -2.946  14.375  1.00  0.00    -0.318 N 
ATOM      3  H2  UNL     1      27.404  -3.736  14.249  1.00  0.00     0.170 HD
HETATM    4  C4  UNL     1      27.640  -1.914  15.140  1.00  0.00     0.182 A 
HETATM    5 CL1  UNL     1      26.031  -2.046  15.849  1.00  0.00    -0.045 Cl
HETATM    6  N3  UNL     1      28.442  -0.861  15.329  1.00  0.00    -0.317 N 
ATOM      7  H3  UNL     1      28.118  -0.090  15.914  1.00  0.00     0.170 HD
HETATM    8  C5  UNL     1      29.663  -0.788  14.770  1.00  0.00     0.139 A 
HETATM    9  C6  UNL     1      30.052  -1.859  13.987  1.00  0.00     0.070 A 
HETATM   10  C7  UNL     1      31.303  -1.545  13.549  1.00  0.00     0.126 A 
HETATM   11  N4  UNL     1      31.617  -0.335  14.064  1.00  0.00    -0.307 N 
ATOM     12  H4  UNL     1      32.500   0.146  13.896  1.00  0.00     0.186 HD
HETATM   13  N5  UNL     1      30.648   0.145  14.805  1.00  0.00    -0.281 N 
HETATM   14  C8  UNL     1      30.624   1.412  15.516  1.00  0.00     0.179 C 
ENDROOT
BRANCH   1  15
HETATM   15  N1  UNL     1      29.695  -4.018  12.932  1.00  0.00    -0.367 N 
ATOM     16  H1  UNL     1      29.831  -3.867  11.931  1.00  0.00     0.161 HD
BRANCH  15  17
HETATM   17  C2  UNL     1      29.967  -5.303  13.537  1.00  0.00     0.112 C 
HETATM   18  C1  UNL     1      30.215  -5.131  15.005  1.00  0.00     0.037 C 
BRANCH  17  19
HETATM   19  C9  UNL     1      30.987  -6.030  12.790  1.00  0.00    -0.036 A 
HETATM   20  C10 UNL     1      32.117  -6.439  13.497  1.00  0.00     0.010 A 
HETATM   21  C11 UNL     1      33.157  -7.110  12.920  1.00  0.00     0.017 A 
HETATM   22  C12 UNL     1      33.099  -7.403  11.577  1.00  0.00     0.047 A 
HETATM   23  C14 UNL     1      31.993  -7.014  10.843  1.00  0.00     0.017 A 
HETATM   24  C15 UNL     1      30.972  -6.346  11.454  1.00  0.00     0.010 A 
BRANCH  22  25
HETATM   25  C13 UNL     1      34.190  -8.125  10.876  1.00  0.00     0.417 C 
HETATM   26  F1  UNL     1      35.393  -7.754  11.431  1.00  0.00    -0.166 F 
HETATM   27  F2  UNL     1      33.975  -9.495  10.964  1.00  0.00    -0.166 F 
HETATM   28  F3  UNL     1      34.194  -7.776   9.541  1.00  0.00    -0.166 F 
ENDBRANCH  22  25
ENDBRANCH  17  19
ENDBRANCH  15  17
ENDBRANCH   1  15
TORSDOF 4
ENDMDL
