MODEL 4
REMARK VINA RESULT: -9.596568261      1.924      2.997
REMARK  4 active torsions:
REMARK  status: ('A' for Active; 'I' for Inactive)
REMARK    1  A    between atoms: C2_2  and  N1_3 
REMARK    2  A    between atoms: C2_2  and  C9_19 
REMARK    3  A    between atoms: N1_3  and  C3_5 
REMARK    4  A    between atoms: C12_22  and  C13_23 
ROOT
HETATM    1  C3  UNL     1      30.324  -5.409  13.095  1.00  0.00     0.119 A 
HETATM    2  N2  UNL     1      30.591  -5.894  11.872  1.00  0.00    -0.318 N 
ATOM      3  H2  UNL     1      29.939  -5.698  11.112  1.00  0.00     0.170 HD
HETATM    4  C4  UNL     1      31.687  -6.628  11.614  1.00  0.00     0.182 A 
HETATM    5 CL1  UNL     1      31.872  -7.188   9.952  1.00  0.00    -0.045 Cl
HETATM    6  N3  UNL     1      32.564  -6.906  12.585  1.00  0.00    -0.317 N 
ATOM      7  H3  UNL     1      33.387  -7.465  12.364  1.00  0.00     0.170 HD
HETATM    8  C5  UNL     1      32.390  -6.468  13.845  1.00  0.00     0.139 A 
HETATM    9  C6  UNL     1      31.257  -5.714  14.090  1.00  0.00     0.070 A 
HETATM   10  C7  UNL     1      31.318  -5.400  15.414  1.00  0.00     0.126 A 
HETATM   11  N4  UNL     1      32.446  -5.956  15.908  1.00  0.00    -0.307 N 
ATOM     12  H4  UNL     1      32.743  -5.880  16.881  1.00  0.00     0.186 HD
HETATM   13  N5  UNL     1      33.114  -6.605  14.985  1.00  0.00    -0.281 N 
HETATM   14  C8  UNL     1      34.366  -7.326  15.142  1.00  0.00     0.179 C 
ENDROOT
BRANCH   1  15
HETATM   15  N1  UNL     1      29.172  -4.655  13.433  1.00  0.00    -0.367 N 
ATOM     16  H1  UNL     1      28.465  -5.030  14.066  1.00  0.00     0.161 HD
BRANCH  15  17
HETATM   17  C2  UNL     1      29.032  -3.337  12.853  1.00  0.00     0.112 C 
HETATM   18  C1  UNL     1      29.293  -3.400  11.379  1.00  0.00     0.037 C 
BRANCH  17  19
HETATM   19  C9  UNL     1      29.800  -2.349  13.604  1.00  0.00    -0.036 A 
HETATM   20  C10 UNL     1      29.464  -2.175  14.945  1.00  0.00     0.010 A 
HETATM   21  C11 UNL     1      30.087  -1.273  15.760  1.00  0.00     0.017 A 
HETATM   22  C12 UNL     1      31.095  -0.493  15.244  1.00  0.00     0.047 A 
HETATM   23  C14 UNL     1      31.457  -0.638  13.916  1.00  0.00     0.017 A 
HETATM   24  C15 UNL     1      30.813  -1.551  13.133  1.00  0.00     0.010 A 
BRANCH  22  25
HETATM   25  C13 UNL     1      31.817   0.513  16.062  1.00  0.00     0.417 C 
HETATM   26  F1  UNL     1      32.562   1.312  15.226  1.00  0.00    -0.166 F 
HETATM   27  F2  UNL     1      30.905   1.248  16.810  1.00  0.00    -0.166 F 
HETATM   28  F3  UNL     1      32.671  -0.126  16.937  1.00  0.00    -0.166 F 
ENDBRANCH  22  25
ENDBRANCH  17  19
ENDBRANCH  15  17
ENDBRANCH   1  15
TORSDOF 4
ENDMDL
