MODEL 3
REMARK VINA RESULT: -9.601859721      4.808      7.505
REMARK  4 active torsions:
REMARK  status: ('A' for Active; 'I' for Inactive)
REMARK    1  A    between atoms: C2_2  and  N1_3 
REMARK    2  A    between atoms: C2_2  and  C9_19 
REMARK    3  A    between atoms: N1_3  and  C3_5 
REMARK    4  A    between atoms: C12_22  and  C13_23 
ROOT
HETATM    1  C3  UNL     1      28.838  -4.270  14.672  1.00  0.00     0.119 A 
HETATM    2  N2  UNL     1      28.001  -5.299  14.472  1.00  0.00    -0.318 N 
ATOM      3  H2  UNL     1      28.390  -6.236  14.364  1.00  0.00     0.170 HD
HETATM    4  C4  UNL     1      26.668  -5.140  14.409  1.00  0.00     0.182 A 
HETATM    5 CL1  UNL     1      25.723  -6.603  14.133  1.00  0.00    -0.045 Cl
HETATM    6  N3  UNL     1      26.121  -3.927  14.547  1.00  0.00    -0.317 N 
ATOM      7  H3  UNL     1      25.107  -3.832  14.495  1.00  0.00     0.170 HD
HETATM    8  C5  UNL     1      26.870  -2.829  14.751  1.00  0.00     0.139 A 
HETATM    9  C6  UNL     1      28.239  -3.014  14.813  1.00  0.00     0.070 A 
HETATM   10  C7  UNL     1      28.757  -1.772  15.024  1.00  0.00     0.126 A 
HETATM   11  N4  UNL     1      27.719  -0.908  15.081  1.00  0.00    -0.307 N 
ATOM     12  H4  UNL     1      27.819   0.096  15.230  1.00  0.00     0.186 HD
HETATM   13  N5  UNL     1      26.569  -1.517  14.920  1.00  0.00    -0.281 N 
HETATM   14  C8  UNL     1      25.245  -0.917  14.920  1.00  0.00     0.179 C 
ENDROOT
BRANCH   1  15
HETATM   15  N1  UNL     1      30.251  -4.371  14.718  1.00  0.00    -0.367 N 
ATOM     16  H1  UNL     1      30.844  -3.630  14.344  1.00  0.00     0.161 HD
BRANCH  15  17
HETATM   17  C2  UNL     1      30.824  -5.559  15.313  1.00  0.00     0.112 C 
HETATM   18  C1  UNL     1      31.350  -5.240  16.679  1.00  0.00     0.037 C 
BRANCH  17  19
HETATM   19  C9  UNL     1      31.756  -6.207  14.397  1.00  0.00    -0.036 A 
HETATM   20  C10 UNL     1      31.421  -6.197  13.043  1.00  0.00     0.010 A 
HETATM   21  C11 UNL     1      32.191  -6.782  12.079  1.00  0.00     0.017 A 
HETATM   22  C12 UNL     1      33.357  -7.414  12.448  1.00  0.00     0.047 A 
HETATM   23  C14 UNL     1      33.723  -7.443  13.782  1.00  0.00     0.017 A 
HETATM   24  C15 UNL     1      32.928  -6.847  14.717  1.00  0.00     0.010 A 
BRANCH  22  25
HETATM   25  C13 UNL     1      34.245  -8.076  11.460  1.00  0.00     0.417 C 
HETATM   26  F1  UNL     1      34.185  -9.437  11.654  1.00  0.00    -0.166 F 
HETATM   27  F2  UNL     1      33.864  -7.716  10.174  1.00  0.00    -0.166 F 
HETATM   28  F3  UNL     1      35.547  -7.660  11.655  1.00  0.00    -0.166 F 
ENDBRANCH  22  25
ENDBRANCH  17  19
ENDBRANCH  15  17
ENDBRANCH   1  15
TORSDOF 4
ENDMDL
