MODEL 7
REMARK VINA RESULT: -9.567740400      1.848      3.189
REMARK  4 active torsions:
REMARK  status: ('A' for Active; 'I' for Inactive)
REMARK    1  A    between atoms: C2_2  and  N1_3 
REMARK    2  A    between atoms: C2_2  and  C9_19 
REMARK    3  A    between atoms: N1_3  and  C3_5 
REMARK    4  A    between atoms: C12_22  and  C13_23 
ROOT
HETATM    1  C3  UNL     1      30.426  -5.596  13.126  1.00  0.00     0.119 A 
HETATM    2  N2  UNL     1      30.746  -6.075  11.914  1.00  0.00    -0.318 N 
ATOM      3  H2  UNL     1      30.091  -5.942  11.143  1.00  0.00     0.170 HD
HETATM    4  C4  UNL     1      31.900  -6.723  11.680  1.00  0.00     0.182 A 
HETATM    5 CL1  UNL     1      32.151  -7.290  10.028  1.00  0.00    -0.045 Cl
HETATM    6  N3  UNL     1      32.783  -6.917  12.665  1.00  0.00    -0.317 N 
ATOM      7  H3  UNL     1      33.651  -7.413  12.462  1.00  0.00     0.170 HD
HETATM    8  C5  UNL     1      32.559  -6.478  13.916  1.00  0.00     0.139 A 
HETATM    9  C6  UNL     1      31.367  -5.812  14.137  1.00  0.00     0.070 A 
HETATM   10  C7  UNL     1      31.386  -5.477  15.457  1.00  0.00     0.126 A 
HETATM   11  N4  UNL     1      32.548  -5.935  15.972  1.00  0.00    -0.307 N 
ATOM     12  H4  UNL     1      32.825  -5.822  16.947  1.00  0.00     0.186 HD
HETATM   13  N5  UNL     1      33.276  -6.541  15.066  1.00  0.00    -0.281 N 
HETATM   14  C8  UNL     1      34.580  -7.158  15.249  1.00  0.00     0.179 C 
ENDROOT
BRANCH   1  15
HETATM   15  N1  UNL     1      29.214  -4.931  13.440  1.00  0.00    -0.367 N 
ATOM     16  H1  UNL     1      28.513  -5.369  14.038  1.00  0.00     0.161 HD
BRANCH  15  17
HETATM   17  C2  UNL     1      29.003  -3.612  12.885  1.00  0.00     0.112 C 
HETATM   18  C1  UNL     1      29.340  -3.614  11.425  1.00  0.00     0.037 C 
BRANCH  17  19
HETATM   19  C9  UNL     1      29.657  -2.591  13.697  1.00  0.00    -0.036 A 
HETATM   20  C10 UNL     1      30.579  -1.767  13.055  1.00  0.00     0.010 A 
HETATM   21  C11 UNL     1      31.277  -0.784  13.696  1.00  0.00     0.017 A 
HETATM   22  C12 UNL     1      31.069  -0.588  15.042  1.00  0.00     0.047 A 
HETATM   23  C14 UNL     1      30.160  -1.386  15.714  1.00  0.00     0.017 A 
HETATM   24  C15 UNL     1      29.480  -2.357  15.039  1.00  0.00     0.010 A 
BRANCH  22  25
HETATM   25  C13 UNL     1      31.791   0.456  15.811  1.00  0.00     0.417 C 
HETATM   26  F1  UNL     1      30.894   1.431  16.185  1.00  0.00    -0.166 F 
HETATM   27  F2  UNL     1      32.419  -0.122  16.908  1.00  0.00    -0.166 F 
HETATM   28  F3  UNL     1      32.760   1.032  15.016  1.00  0.00    -0.166 F 
ENDBRANCH  22  25
ENDBRANCH  17  19
ENDBRANCH  15  17
ENDBRANCH   1  15
TORSDOF 4
ENDMDL
