MODEL 5
REMARK VINA RESULT: -9.596281312      4.728      7.537
REMARK  4 active torsions:
REMARK  status: ('A' for Active; 'I' for Inactive)
REMARK    1  A    between atoms: C2_2  and  N1_3 
REMARK    2  A    between atoms: C2_2  and  C9_19 
REMARK    3  A    between atoms: N1_3  and  C3_5 
REMARK    4  A    between atoms: C12_22  and  C13_23 
ROOT
HETATM    1  C3  UNL     1      28.352  -4.607  14.202  1.00  0.00     0.119 A 
HETATM    2  N2  UNL     1      29.163  -3.679  14.732  1.00  0.00    -0.318 N 
ATOM      3  H2  UNL     1      30.105  -3.574  14.352  1.00  0.00     0.170 HD
HETATM    4  C4  UNL     1      28.781  -2.882  15.744  1.00  0.00     0.182 A 
HETATM    5 CL1  UNL     1      29.981  -1.725  16.318  1.00  0.00    -0.045 Cl
HETATM    6  N3  UNL     1      27.555  -2.990  16.268  1.00  0.00    -0.317 N 
ATOM      7  H3  UNL     1      27.288  -2.374  17.036  1.00  0.00     0.170 HD
HETATM    8  C5  UNL     1      26.664  -3.887  15.811  1.00  0.00     0.139 A 
HETATM    9  C6  UNL     1      27.076  -4.697  14.769  1.00  0.00     0.070 A 
HETATM   10  C7  UNL     1      26.010  -5.500  14.497  1.00  0.00     0.126 A 
HETATM   11  N4  UNL     1      25.022  -5.160  15.355  1.00  0.00    -0.307 N 
ATOM     12  H4  UNL     1      24.105  -5.604  15.376  1.00  0.00     0.186 HD
HETATM   13  N5  UNL     1      25.387  -4.190  16.158  1.00  0.00    -0.281 N 
HETATM   14  C8  UNL     1      24.597  -3.566  17.206  1.00  0.00     0.179 C 
ENDROOT
BRANCH   1  15
HETATM   15  N1  UNL     1      28.708  -5.494  13.156  1.00  0.00    -0.367 N 
ATOM     16  H1  UNL     1      28.288  -6.421  13.085  1.00  0.00     0.161 HD
BRANCH  15  17
HETATM   17  C2  UNL     1      29.688  -5.043  12.191  1.00  0.00     0.112 C 
HETATM   18  C1  UNL     1      29.042  -4.882  10.849  1.00  0.00     0.037 C 
BRANCH  17  19
HETATM   19  C9  UNL     1      30.888  -5.870  12.236  1.00  0.00    -0.036 A 
HETATM   20  C10 UNL     1      31.269  -6.495  11.050  1.00  0.00     0.010 A 
HETATM   21  C11 UNL     1      32.360  -7.312  10.953  1.00  0.00     0.017 A 
HETATM   22  C12 UNL     1      33.127  -7.536  12.073  1.00  0.00     0.047 A 
HETATM   23  C14 UNL     1      32.780  -6.932  13.268  1.00  0.00     0.017 A 
HETATM   24  C15 UNL     1      31.685  -6.121  13.327  1.00  0.00     0.010 A 
BRANCH  22  25
HETATM   25  C13 UNL     1      34.324  -8.414  12.050  1.00  0.00     0.417 C 
HETATM   26  F1  UNL     1      34.049  -9.517  11.275  1.00  0.00    -0.166 F 
HETATM   27  F2  UNL     1      35.417  -7.701  11.574  1.00  0.00    -0.166 F 
HETATM   28  F3  UNL     1      34.613  -8.838  13.331  1.00  0.00    -0.166 F 
ENDBRANCH  22  25
ENDBRANCH  17  19
ENDBRANCH  15  17
ENDBRANCH   1  15
TORSDOF 4
ENDMDL
