MODEL 12
REMARK VINA RESULT: -5.527141153      2.523      4.350
REMARK  1 active torsions:
REMARK  status: ('A' for Active; 'I' for Inactive)
REMARK    1  A    between atoms: N1_2  and  C2_4 
ROOT
HETATM    1  C2  UNL     1      31.633  -5.202  13.449  1.00  0.00     0.118 A 
HETATM    2  N2  UNL     1      32.584  -5.471  14.353  1.00  0.00    -0.318 N 
ATOM      3  H2  UNL     1      32.499  -5.050  15.277  1.00  0.00     0.170 HD
HETATM    4  C3  UNL     1      33.645  -6.264  14.114  1.00  0.00     0.182 A 
HETATM    5 CL1  UNL     1      34.848  -6.555  15.386  1.00  0.00    -0.045 Cl
HETATM    6  N3  UNL     1      33.771  -6.824  12.903  1.00  0.00    -0.317 N 
ATOM      7  H3  UNL     1      34.573  -7.426  12.713  1.00  0.00     0.170 HD
HETATM    8  C4  UNL     1      32.867  -6.610  11.934  1.00  0.00     0.139 A 
HETATM    9  C5  UNL     1      31.779  -5.789  12.203  1.00  0.00     0.070 A 
HETATM   10  C6  UNL     1      31.037  -5.757  11.042  1.00  0.00     0.126 A 
HETATM   11  N4  UNL     1      31.668  -6.519  10.163  1.00  0.00    -0.307 N 
ATOM     12  H4  UNL     1      31.339  -6.677   9.211  1.00  0.00     0.186 HD
HETATM   13  N5  UNL     1      32.761  -7.047  10.649  1.00  0.00    -0.281 N 
HETATM   14  C7  UNL     1      33.711  -7.933   9.984  1.00  0.00     0.179 C 
ENDROOT
BRANCH   1  15
HETATM   15  N1  UNL     1      30.522  -4.381  13.675  1.00  0.00    -0.380 N 
HETATM   16  C1  UNL     1      30.600  -3.371  14.738  1.00  0.00     0.147 C 
ATOM     17  H1  UNL     1      29.676  -4.482  13.114  1.00  0.00     0.160 HD
ENDBRANCH   1  15
TORSDOF 1
ENDMDL
