MODEL 10
REMARK VINA RESULT: -5.557740401      2.112      3.338
REMARK  1 active torsions:
REMARK  status: ('A' for Active; 'I' for Inactive)
REMARK    1  A    between atoms: N1_2  and  C2_4 
ROOT
HETATM    1  C2  UNL     1      33.083  -6.752  12.004  1.00  0.00     0.118 A 
HETATM    2  N2  UNL     1      32.044  -6.177  11.386  1.00  0.00    -0.318 N 
ATOM      3  H2  UNL     1      31.923  -6.351  10.389  1.00  0.00     0.170 HD
HETATM    4  C3  UNL     1      31.148  -5.383  12.002  1.00  0.00     0.182 A 
HETATM    5 CL1  UNL     1      29.805  -4.672  11.086  1.00  0.00    -0.045 Cl
HETATM    6  N3  UNL     1      31.293  -5.144  13.313  1.00  0.00    -0.317 N 
ATOM      7  H3  UNL     1      30.619  -4.543  13.788  1.00  0.00     0.170 HD
HETATM    8  C4  UNL     1      32.305  -5.677  14.015  1.00  0.00     0.139 A 
HETATM    9  C5  UNL     1      33.218  -6.494  13.358  1.00  0.00     0.070 A 
HETATM   10  C6  UNL     1      34.127  -6.887  14.317  1.00  0.00     0.126 A 
HETATM   11  N4  UNL     1      33.751  -6.324  15.455  1.00  0.00    -0.307 N 
ATOM     12  H4  UNL     1      34.248  -6.445  16.337  1.00  0.00     0.186 HD
HETATM   13  N5  UNL     1      32.673  -5.596  15.323  1.00  0.00    -0.281 N 
HETATM   14  C7  UNL     1      31.969  -4.830  16.346  1.00  0.00     0.179 C 
ENDROOT
BRANCH   1  15
HETATM   15  N1  UNL     1      34.026  -7.580  11.385  1.00  0.00    -0.380 N 
HETATM   16  C1  UNL     1      33.878  -7.860   9.951  1.00  0.00     0.147 C 
ATOM     17  H1  UNL     1      34.798  -7.981  11.917  1.00  0.00     0.160 HD
ENDBRANCH   1  15
TORSDOF 1
ENDMDL
