MODEL 4
REMARK VINA RESULT: -5.843075219      2.228      3.945
REMARK  1 active torsions:
REMARK  status: ('A' for Active; 'I' for Inactive)
REMARK    1  A    between atoms: N1_2  and  C2_4 
ROOT
HETATM    1  C2  UNL     1      33.958  -7.237  12.055  1.00  0.00     0.118 A 
HETATM    2  N2  UNL     1      33.106  -6.925  11.069  1.00  0.00    -0.318 N 
ATOM      3  H2  UNL     1      33.305  -7.280  10.134  1.00  0.00     0.170 HD
HETATM    4  C3  UNL     1      32.004  -6.172  11.238  1.00  0.00     0.182 A 
HETATM    5 CL1  UNL     1      30.942  -5.819   9.861  1.00  0.00    -0.045 Cl
HETATM    6  N3  UNL     1      31.729  -5.697  12.461  1.00  0.00    -0.317 N 
ATOM      7  H3  UNL     1      30.896  -5.125  12.599  1.00  0.00     0.170 HD
HETATM    8  C4  UNL     1      32.526  -5.958  13.510  1.00  0.00     0.139 A 
HETATM    9  C5  UNL     1      33.659  -6.739  13.311  1.00  0.00     0.070 A 
HETATM   10  C6  UNL     1      34.269  -6.834  14.544  1.00  0.00     0.126 A 
HETATM   11  N4  UNL     1      33.523  -6.146  15.394  1.00  0.00    -0.307 N 
ATOM     12  H4  UNL     1      33.741  -6.046  16.386  1.00  0.00     0.186 HD
HETATM   13  N5  UNL     1      32.477  -5.607  14.824  1.00  0.00    -0.281 N 
HETATM   14  C7  UNL     1      31.437  -4.786  15.434  1.00  0.00     0.179 C 
ENDROOT
BRANCH   1  15
HETATM   15  N1  UNL     1      35.109  -8.019  11.902  1.00  0.00    -0.380 N 
HETATM   16  C1  UNL     1      35.032  -9.450  12.221  1.00  0.00     0.147 C 
ATOM     17  H1  UNL     1      35.981  -7.604  11.576  1.00  0.00     0.160 HD
ENDBRANCH   1  15
TORSDOF 1
ENDMDL
