MODEL 18
REMARK VINA RESULT: -5.336813008      2.460      4.909
REMARK  1 active torsions:
REMARK  status: ('A' for Active; 'I' for Inactive)
REMARK    1  A    between atoms: N1_2  and  C2_4 
ROOT
HETATM    1  C2  UNL     1      31.977  -5.551  13.214  1.00  0.00     0.118 A 
HETATM    2  N2  UNL     1      33.020  -6.390  13.254  1.00  0.00    -0.318 N 
ATOM      3  H2  UNL     1      33.500  -6.514  14.145  1.00  0.00     0.170 HD
HETATM    4  C3  UNL     1      33.472  -7.079  12.190  1.00  0.00     0.182 A 
HETATM    5 CL1  UNL     1      34.865  -8.166  12.355  1.00  0.00    -0.045 Cl
HETATM    6  N3  UNL     1      32.852  -6.926  11.012  1.00  0.00    -0.317 N 
ATOM      7  H3  UNL     1      33.189  -7.444  10.200  1.00  0.00     0.170 HD
HETATM    8  C4  UNL     1      31.798  -6.106  10.876  1.00  0.00     0.139 A 
HETATM    9  C5  UNL     1      31.348  -5.405  11.989  1.00  0.00     0.070 A 
HETATM   10  C6  UNL     1      30.274  -4.659  11.552  1.00  0.00     0.126 A 
HETATM   11  N4  UNL     1      30.123  -4.922  10.264  1.00  0.00    -0.307 N 
ATOM     12  H4  UNL     1      29.397  -4.504   9.682  1.00  0.00     0.186 HD
HETATM   13  N5  UNL     1      31.007  -5.777   9.819  1.00  0.00    -0.281 N 
HETATM   14  C7  UNL     1      31.155  -6.303   8.466  1.00  0.00     0.179 C 
ENDROOT
BRANCH   1  15
HETATM   15  N1  UNL     1      31.489  -4.825  14.306  1.00  0.00    -0.380 N 
HETATM   16  C1  UNL     1      31.837  -5.277  15.660  1.00  0.00     0.147 C 
ATOM     17  H1  UNL     1      30.904  -4.002  14.166  1.00  0.00     0.160 HD
ENDBRANCH   1  15
TORSDOF 1
ENDMDL
