MODEL 1
REMARK VINA RESULT: -6.376148768      0.000      0.000
REMARK  1 active torsions:
REMARK  status: ('A' for Active; 'I' for Inactive)
REMARK    1  A    between atoms: N1_2  and  C2_4 
ROOT
HETATM    1  C2  UNL     1      31.686  -6.421   9.508  1.00  0.00     0.118 A 
HETATM    2  N2  UNL     1      30.806  -5.651  10.160  1.00  0.00    -0.318 N 
ATOM      3  H2  UNL     1      30.045  -5.234   9.625  1.00  0.00     0.170 HD
HETATM    4  C3  UNL     1      30.864  -5.394  11.480  1.00  0.00     0.182 A 
HETATM    5 CL1  UNL     1      29.644  -4.358  12.245  1.00  0.00    -0.045 Cl
HETATM    6  N3  UNL     1      31.859  -5.934  12.199  1.00  0.00    -0.317 N 
ATOM      7  H3  UNL     1      31.911  -5.744  13.200  1.00  0.00     0.170 HD
HETATM    8  C4  UNL     1      32.788  -6.719  11.630  1.00  0.00     0.139 A 
HETATM    9  C5  UNL     1      32.707  -6.971  10.266  1.00  0.00     0.070 A 
HETATM   10  C6  UNL     1      33.775  -7.792   9.972  1.00  0.00     0.126 A 
HETATM   11  N4  UNL     1      34.425  -7.995  11.107  1.00  0.00    -0.307 N 
ATOM     12  H4  UNL     1      35.264  -8.570  11.184  1.00  0.00     0.186 HD
HETATM   13  N5  UNL     1      33.874  -7.377  12.119  1.00  0.00    -0.281 N 
HETATM   14  C7  UNL     1      34.304  -7.364  13.513  1.00  0.00     0.179 C 
ENDROOT
BRANCH   1  15
HETATM   15  N1  UNL     1      31.644  -6.702   8.138  1.00  0.00    -0.380 N 
HETATM   16  C1  UNL     1      31.497  -5.584   7.197  1.00  0.00     0.147 C 
ATOM     17  H1  UNL     1      31.715  -7.662   7.800  1.00  0.00     0.160 HD
ENDBRANCH   1  15
TORSDOF 1
ENDMDL
