MODEL 1
REMARK VINA RESULT: -6.710752707      0.000      0.000
REMARK  16 active torsions:
REMARK  status: ('A' for Active; 'I' for Inactive)
REMARK    1  A    between atoms: O1_2  and  C2_3 
REMARK    2  A    between atoms: C2_3  and  C3_4 
REMARK    3  A    between atoms: N1_6  and  C5_7 
REMARK    4  A    between atoms: C5_7  and  C6_8 
REMARK    5  A    between atoms: C7_9  and  C8_10 
REMARK    6  A    between atoms: C8_10  and  C9_11 
REMARK    7  A    between atoms: C9_11  and  C10_12 
REMARK    8  A    between atoms: C10_12  and  C11_13 
REMARK    9  A    between atoms: C11_13  and  C12_14 
REMARK   10  A    between atoms: C12_14  and  C13_15 
REMARK   11  A    between atoms: C13_15  and  N2_16 
REMARK   12  A    between atoms: C15_18  and  O2_19 
REMARK   13  A    between atoms: C16_21  and  O3_22 
REMARK   14  A    between atoms: C17_24  and  O4_25 
REMARK   15  A    between atoms: C18_27  and  C19_28 
REMARK   16  A    between atoms: C19_28  and  O5_29 
ROOT
HETATM    1  C11 UNL     1     -23.933  11.711 -14.238  1.00  0.00     0.002 C 
ENDROOT
BRANCH   1   2
HETATM    2  C10 UNL     1     -23.556  13.152 -14.147  1.00  0.00     0.004 C 
BRANCH   2   3
HETATM    3  C9  UNL     1     -24.716  13.970 -14.737  1.00  0.00     0.027 C 
BRANCH   3   4
HETATM    4  C8  UNL     1     -25.767  13.087 -15.233  1.00  0.00    -0.027 C 
BRANCH   4   5
HETATM    5  C7  UNL     1     -27.184  13.297 -14.974  1.00  0.00    -0.003 C 
HETATM    6  C6  UNL     1     -28.278  13.006 -15.855  1.00  0.00     0.019 C 
BRANCH   6   7
HETATM    7  C5  UNL     1     -28.637  13.630 -17.115  1.00  0.00     0.117 C 
BRANCH   7   8
HETATM    8  N1  UNL     1     -28.206  13.160 -18.381  1.00  0.00    -0.263 N 
HETATM    9  C4  UNL     1     -26.932  13.218 -18.878  1.00  0.00     0.145 A 
HETATM   10  C3  UNL     1     -26.886  12.578 -20.092  1.00  0.00     0.068 A 
HETATM   11  N4  UNL     1     -28.133  12.140 -20.319  1.00  0.00    -0.287 N 
HETATM   12  N3  UNL     1     -28.889  12.488 -19.310  1.00  0.00    -0.237 N 
ATOM     13  H4  UNL     1     -28.442  11.620 -21.141  1.00  0.00     0.188 HD
ATOM     14  H3  UNL     1     -29.883  12.272 -19.241  1.00  0.00     0.209 HD
BRANCH  10  15
HETATM   15  C2  UNL     1     -25.687  12.410 -20.987  1.00  0.00     0.227 C 
BRANCH  15  16
HETATM   16  O1  UNL     1     -25.234  13.598 -21.505  1.00  0.00    -0.390 OA
HETATM   17  C1  UNL     1     -26.183  14.328 -22.188  1.00  0.00     0.201 C 
ENDBRANCH  15  16
ENDBRANCH  10  15
ENDBRANCH   7   8
ENDBRANCH   6   7
ENDBRANCH   4   5
ENDBRANCH   3   4
ENDBRANCH   2   3
ENDBRANCH   1   2
BRANCH   1  18
HETATM   18  C12 UNL     1     -23.668  10.916 -12.980  1.00  0.00     0.020 C 
BRANCH  18  19
HETATM   19  C13 UNL     1     -24.942  10.540 -12.309  1.00  0.00     0.122 C 
BRANCH  19  20
HETATM   20  N2  UNL     1     -24.963   9.231 -11.752  1.00  0.00    -0.382 N 
HETATM   21  C14 UNL     1     -24.278   9.000 -10.559  1.00  0.00     0.093 C 
HETATM   22  C15 UNL     1     -23.420   7.758 -10.663  1.00  0.00     0.187 C 
HETATM   23  C16 UNL     1     -24.421   6.630 -10.832  1.00  0.00     0.182 C 
HETATM   24  C17 UNL     1     -25.024   6.800 -12.206  1.00  0.00     0.174 C 
HETATM   25  C18 UNL     1     -25.368   8.182 -12.573  1.00  0.00     0.138 C 
BRANCH  22  26
HETATM   26  O2  UNL     1     -22.661   7.782 -11.846  1.00  0.00    -0.388 OA
ATOM     27  H2  UNL     1     -23.137   7.366 -12.555  1.00  0.00     0.210 HD
ENDBRANCH  22  26
BRANCH  23  28
HETATM   28  O3  UNL     1     -25.404   6.763  -9.879  1.00  0.00    -0.390 OA
ATOM     29  H3  UNL     1     -26.170   7.154 -10.283  1.00  0.00     0.210 HD
ENDBRANCH  23  28
BRANCH  24  30
HETATM   30  O4  UNL     1     -24.117   6.220 -13.106  1.00  0.00    -0.391 OA
ATOM     31  H4  UNL     1     -24.437   6.428 -13.976  1.00  0.00     0.210 HD
ENDBRANCH  24  30
BRANCH  25  32
HETATM   32  C19 UNL     1     -26.892   8.263 -12.743  1.00  0.00     0.192 C 
BRANCH  32  33
HETATM   33  O5  UNL     1     -27.406   7.123 -13.311  1.00  0.00    -0.399 OA
ATOM     34  H5  UNL     1     -27.973   6.653 -12.711  1.00  0.00     0.209 HD
ENDBRANCH  32  33
ENDBRANCH  25  32
ENDBRANCH  19  20
ENDBRANCH  18  19
ENDBRANCH   1  18
TORSDOF 16
ENDMDL
