MODEL 3
REMARK VINA RESULT: -6.419847037      2.020      2.582
REMARK  16 active torsions:
REMARK  status: ('A' for Active; 'I' for Inactive)
REMARK    1  A    between atoms: O1_2  and  C2_3 
REMARK    2  A    between atoms: C2_3  and  C3_4 
REMARK    3  A    between atoms: N1_6  and  C5_7 
REMARK    4  A    between atoms: C5_7  and  C6_8 
REMARK    5  A    between atoms: C7_9  and  C8_10 
REMARK    6  A    between atoms: C8_10  and  C9_11 
REMARK    7  A    between atoms: C9_11  and  C10_12 
REMARK    8  A    between atoms: C10_12  and  C11_13 
REMARK    9  A    between atoms: C11_13  and  C12_14 
REMARK   10  A    between atoms: C12_14  and  C13_15 
REMARK   11  A    between atoms: C13_15  and  N2_16 
REMARK   12  A    between atoms: C15_18  and  O2_19 
REMARK   13  A    between atoms: C16_21  and  O3_22 
REMARK   14  A    between atoms: C17_24  and  O4_25 
REMARK   15  A    between atoms: C18_27  and  C19_28 
REMARK   16  A    between atoms: C19_28  and  O5_29 
ROOT
HETATM    1  C11 UNL     1     -26.970   9.885 -13.759  1.00  0.00     0.002 C 
ENDROOT
BRANCH   1   2
HETATM    2  C10 UNL     1     -27.987  10.965 -13.595  1.00  0.00     0.004 C 
BRANCH   2   3
HETATM    3  C9  UNL     1     -29.340  10.396 -14.051  1.00  0.00     0.027 C 
BRANCH   3   4
HETATM    4  C8  UNL     1     -29.894  11.196 -15.139  1.00  0.00    -0.027 C 
BRANCH   4   5
HETATM    5  C7  UNL     1     -29.798  12.646 -15.201  1.00  0.00    -0.003 C 
HETATM    6  C6  UNL     1     -29.363  13.440 -16.315  1.00  0.00     0.019 C 
BRANCH   6   7
HETATM    7  C5  UNL     1     -28.046  13.542 -16.914  1.00  0.00     0.117 C 
BRANCH   7   8
HETATM    8  N1  UNL     1     -27.710  13.010 -18.184  1.00  0.00    -0.263 N 
HETATM    9  C4  UNL     1     -26.586  13.295 -18.912  1.00  0.00     0.145 A 
HETATM   10  C3  UNL     1     -26.566  12.517 -20.044  1.00  0.00     0.068 A 
HETATM   11  N4  UNL     1     -27.678  11.769 -19.989  1.00  0.00    -0.287 N 
HETATM   12  N3  UNL     1     -28.332  12.071 -18.898  1.00  0.00    -0.237 N 
ATOM     13  H4  UNL     1     -27.965  11.079 -20.684  1.00  0.00     0.188 HD
ATOM     14  H3  UNL     1     -29.214  11.638 -18.625  1.00  0.00     0.209 HD
BRANCH  10  15
HETATM   15  C2  UNL     1     -25.517  12.509 -21.124  1.00  0.00     0.227 C 
BRANCH  15  16
HETATM   16  O1  UNL     1     -25.218  13.767 -21.589  1.00  0.00    -0.390 OA
HETATM   17  C1  UNL     1     -26.264  14.416 -22.207  1.00  0.00     0.201 C 
ENDBRANCH  15  16
ENDBRANCH  10  15
ENDBRANCH   7   8
ENDBRANCH   6   7
ENDBRANCH   4   5
ENDBRANCH   3   4
ENDBRANCH   2   3
ENDBRANCH   1   2
BRANCH   1  18
HETATM   18  C12 UNL     1     -27.294   8.605 -13.021  1.00  0.00     0.020 C 
BRANCH  18  19
HETATM   19  C13 UNL     1     -27.188   8.798 -11.550  1.00  0.00     0.122 C 
BRANCH  19  20
HETATM   20  N2  UNL     1     -26.038   8.212 -10.950  1.00  0.00    -0.382 N 
HETATM   21  C14 UNL     1     -24.849   8.941 -10.929  1.00  0.00     0.093 C 
HETATM   22  C15 UNL     1     -23.689   8.091 -11.399  1.00  0.00     0.187 C 
HETATM   23  C16 UNL     1     -23.570   7.009 -10.342  1.00  0.00     0.182 C 
HETATM   24  C17 UNL     1     -24.785   6.126 -10.500  1.00  0.00     0.174 C 
HETATM   25  C18 UNL     1     -26.054   6.839 -10.719  1.00  0.00     0.138 C 
BRANCH  22  26
HETATM   26  O2  UNL     1     -24.015   7.429 -12.595  1.00  0.00    -0.388 OA
ATOM     27  H2  UNL     1     -23.566   7.829 -13.330  1.00  0.00     0.210 HD
ENDBRANCH  22  26
BRANCH  23  28
HETATM   28  O3  UNL     1     -23.590   7.599  -9.099  1.00  0.00    -0.390 OA
ATOM     29  H3  UNL     1     -22.720   7.549  -8.723  1.00  0.00     0.210 HD
ENDBRANCH  23  28
BRANCH  24  30
HETATM   30  O4  UNL     1     -24.488   5.235 -11.542  1.00  0.00    -0.391 OA
ATOM     31  H4  UNL     1     -24.760   4.376 -11.241  1.00  0.00     0.210 HD
ENDBRANCH  24  30
BRANCH  25  32
HETATM   32  C19 UNL     1     -26.969   6.562  -9.518  1.00  0.00     0.192 C 
BRANCH  32  33
HETATM   33  O5  UNL     1     -27.479   5.286  -9.546  1.00  0.00    -0.399 OA
ATOM     34  H5  UNL     1     -26.815   4.635  -9.355  1.00  0.00     0.209 HD
ENDBRANCH  32  33
ENDBRANCH  25  32
ENDBRANCH  19  20
ENDBRANCH  18  19
ENDBRANCH   1  18
TORSDOF 16
ENDMDL
