MODEL 2
REMARK VINA RESULT: -6.434781705      1.384      1.838
REMARK  16 active torsions:
REMARK  status: ('A' for Active; 'I' for Inactive)
REMARK    1  A    between atoms: O1_2  and  C2_3 
REMARK    2  A    between atoms: C2_3  and  C3_4 
REMARK    3  A    between atoms: N1_6  and  C5_7 
REMARK    4  A    between atoms: C5_7  and  C6_8 
REMARK    5  A    between atoms: C7_9  and  C8_10 
REMARK    6  A    between atoms: C8_10  and  C9_11 
REMARK    7  A    between atoms: C9_11  and  C10_12 
REMARK    8  A    between atoms: C10_12  and  C11_13 
REMARK    9  A    between atoms: C11_13  and  C12_14 
REMARK   10  A    between atoms: C12_14  and  C13_15 
REMARK   11  A    between atoms: C13_15  and  N2_16 
REMARK   12  A    between atoms: C15_18  and  O2_19 
REMARK   13  A    between atoms: C16_21  and  O3_22 
REMARK   14  A    between atoms: C17_24  and  O4_25 
REMARK   15  A    between atoms: C18_27  and  C19_28 
REMARK   16  A    between atoms: C19_28  and  O5_29 
ROOT
HETATM    1  C11 UNL     1     -23.138  11.552 -12.009  1.00  0.00     0.002 C 
ENDROOT
BRANCH   1   2
HETATM    2  C10 UNL     1     -22.336  12.376 -12.960  1.00  0.00     0.004 C 
BRANCH   2   3
HETATM    3  C9  UNL     1     -23.192  12.592 -14.218  1.00  0.00     0.027 C 
BRANCH   3   4
HETATM    4  C8  UNL     1     -23.384  14.016 -14.472  1.00  0.00    -0.027 C 
BRANCH   4   5
HETATM    5  C7  UNL     1     -24.687  14.664 -14.479  1.00  0.00    -0.003 C 
HETATM    6  C6  UNL     1     -25.972  14.026 -14.518  1.00  0.00     0.019 C 
BRANCH   6   7
HETATM    7  C5  UNL     1     -26.587  13.259 -15.585  1.00  0.00     0.117 C 
BRANCH   7   8
HETATM    8  N1  UNL     1     -26.738  13.729 -16.913  1.00  0.00    -0.263 N 
HETATM    9  C4  UNL     1     -26.805  12.960 -18.044  1.00  0.00     0.145 A 
HETATM   10  C3  UNL     1     -27.048  13.766 -19.129  1.00  0.00     0.068 A 
HETATM   11  N4  UNL     1     -27.125  15.014 -18.645  1.00  0.00    -0.287 N 
HETATM   12  N3  UNL     1     -26.941  14.973 -17.350  1.00  0.00    -0.237 N 
ATOM     13  H4  UNL     1     -27.298  15.856 -19.194  1.00  0.00     0.188 HD
ATOM     14  H3  UNL     1     -26.953  15.795 -16.747  1.00  0.00     0.209 HD
BRANCH  10  15
HETATM   15  C2  UNL     1     -27.192  13.338 -20.565  1.00  0.00     0.227 C 
BRANCH  15  16
HETATM   16  O1  UNL     1     -26.338  12.319 -20.908  1.00  0.00    -0.390 OA
HETATM   17  C1  UNL     1     -25.242  12.709 -21.648  1.00  0.00     0.201 C 
ENDBRANCH  15  16
ENDBRANCH  10  15
ENDBRANCH   7   8
ENDBRANCH   6   7
ENDBRANCH   4   5
ENDBRANCH   3   4
ENDBRANCH   2   3
ENDBRANCH   1   2
BRANCH   1  18
HETATM   18  C12 UNL     1     -24.501  11.150 -12.528  1.00  0.00     0.020 C 
BRANCH  18  19
HETATM   19  C13 UNL     1     -25.295  10.473 -11.468  1.00  0.00     0.122 C 
BRANCH  19  20
HETATM   20  N2  UNL     1     -25.192   9.054 -11.457  1.00  0.00    -0.382 N 
HETATM   21  C14 UNL     1     -24.731   8.426 -10.300  1.00  0.00     0.093 C 
HETATM   22  C15 UNL     1     -23.660   7.408 -10.632  1.00  0.00     0.187 C 
HETATM   23  C16 UNL     1     -24.388   6.359 -11.452  1.00  0.00     0.182 C 
HETATM   24  C17 UNL     1     -24.724   7.011 -12.773  1.00  0.00     0.174 C 
HETATM   25  C18 UNL     1     -25.230   8.390 -12.680  1.00  0.00     0.138 C 
BRANCH  22  26
HETATM   26  O2  UNL     1     -22.696   7.968 -11.487  1.00  0.00    -0.388 OA
ATOM     27  H2  UNL     1     -23.006   7.963 -12.386  1.00  0.00     0.210 HD
ENDBRANCH  22  26
BRANCH  23  28
HETATM   28  O3  UNL     1     -25.550   6.015 -10.802  1.00  0.00    -0.390 OA
ATOM     29  H3  UNL     1     -26.280   6.127 -11.399  1.00  0.00     0.210 HD
ENDBRANCH  23  28
BRANCH  24  30
HETATM   30  O4  UNL     1     -23.566   6.921 -13.559  1.00  0.00    -0.391 OA
ATOM     31  H4  UNL     1     -23.022   7.661 -13.316  1.00  0.00     0.210 HD
ENDBRANCH  24  30
BRANCH  25  32
HETATM   32  C19 UNL     1     -26.678   8.400 -13.190  1.00  0.00     0.192 C 
BRANCH  32  33
HETATM   33  O5  UNL     1     -27.256   7.156 -13.116  1.00  0.00    -0.399 OA
ATOM     34  H5  UNL     1     -27.469   6.812 -13.976  1.00  0.00     0.209 HD
ENDBRANCH  32  33
ENDBRANCH  25  32
ENDBRANCH  19  20
ENDBRANCH  18  19
ENDBRANCH   1  18
TORSDOF 16
ENDMDL
