MODEL 5
REMARK VINA RESULT: -9.537882128      2.683      9.997
REMARK  10 active torsions:
REMARK  status: ('A' for Active; 'I' for Inactive)
REMARK    1  A    between atoms: O1_2  and  C2_3 
REMARK    2  A    between atoms: C2_3  and  C3_5 
REMARK    3  A    between atoms: C3_5  and  O3_6 
REMARK    4  A    between atoms: C3_5  and  C4_8 
REMARK    5  A    between atoms: C4_8  and  O4_10 
REMARK    6  A    between atoms: C4_8  and  C6_12 
REMARK    7  A    between atoms: C10_17  and  O6_18 
REMARK    8  A    between atoms: C21_32  and  O7_33 
REMARK    9  A    between atoms: C27_41  and  O9_42 
REMARK   10  A    between atoms: C28_44  and  O10_45 
ROOT
HETATM    1  C6  UNL     1     -16.139   3.375   7.829  1.00  0.00     0.166 A 
HETATM    2  O5  UNL     1     -15.082   4.090   8.261  1.00  0.00    -0.347 OA
HETATM    3  C7  UNL     1     -15.791   3.322   9.158  1.00  0.00     0.165 A 
HETATM    4  C8  UNL     1     -14.750   2.328   9.578  1.00  0.00     0.013 A 
HETATM    5  C9  UNL     1     -13.899   2.590  10.625  1.00  0.00     0.050 A 
HETATM    6  C10 UNL     1     -12.899   1.708  10.984  1.00  0.00     0.081 A 
HETATM    7  C11 UNL     1     -12.795   0.552  10.243  1.00  0.00     0.064 A 
HETATM    8  C12 UNL     1     -13.657   0.269   9.169  1.00  0.00     0.059 A 
HETATM    9  C13 UNL     1     -14.644   1.175   8.845  1.00  0.00     0.054 A 
HETATM   10  N1  UNL     1     -15.566   0.923   7.818  1.00  0.00    -0.371 N 
ATOM     11  H1  UNL     1     -15.702  -0.026   7.471  1.00  0.00     0.161 HD
HETATM   12  C14 UNL     1     -16.324   2.024   7.255  1.00  0.00     0.203 C 
HETATM   13  C15 UNL     1     -17.711   1.698   7.583  1.00  0.00    -0.073 C 
HETATM   14  C16 UNL     1     -18.730   1.516   7.916  1.00  0.00    -0.076 C 
HETATM   15  C17 UNL     1     -20.025   1.379   8.486  1.00  0.00     0.073 C 
HETATM   16  C18 UNL     1     -20.144   2.084   9.695  1.00  0.00     0.073 C 
HETATM   17  C19 UNL     1     -18.936   2.730   9.998  1.00  0.00    -0.075 C 
HETATM   18  C20 UNL     1     -17.946   3.203  10.153  1.00  0.00    -0.066 C 
HETATM   19  C21 UNL     1     -16.642   3.779  10.278  1.00  0.00     0.239 C 
HETATM   20  C22 UNL     1     -13.515  -0.945   8.401  1.00  0.00     0.199 A 
HETATM   21  O8  UNL     1     -14.233  -1.254   7.446  1.00  0.00    -0.286 OA
HETATM   22  C23 UNL     1     -12.437  -1.885   8.777  1.00  0.00     0.065 A 
HETATM   23  C24 UNL     1     -11.599  -1.602   9.828  1.00  0.00     0.032 A 
HETATM   24  C25 UNL     1     -10.602  -2.487  10.166  1.00  0.00     0.019 A 
HETATM   25  C26 UNL     1     -10.401  -3.665   9.485  1.00  0.00     0.040 A 
HETATM   26  C27 UNL     1     -11.247  -3.963   8.414  1.00  0.00     0.099 A 
HETATM   27  C28 UNL     1     -12.250  -3.079   8.071  1.00  0.00     0.114 A 
HETATM   28  C29 UNL     1     -11.729  -0.381  10.612  1.00  0.00     0.197 A 
HETATM   29  O11 UNL     1     -10.945  -0.153  11.568  1.00  0.00    -0.286 OA
ENDROOT
BRANCH   1  30
HETATM   30  C4  UNL     1     -16.989   4.363   7.073  1.00  0.00     0.127 C 
HETATM   31  C5  UNL     1     -18.378   4.535   7.628  1.00  0.00     0.052 C 
BRANCH  30  32
HETATM   32  C3  UNL     1     -16.335   5.735   7.225  1.00  0.00     0.254 C 
BRANCH  32  33
HETATM   33  C2  UNL     1     -17.168   6.758   7.835  1.00  0.00     0.290 C 
HETATM   34  O2  UNL     1     -17.868   7.558   7.142  1.00  0.00    -0.262 OA
BRANCH  33  35
HETATM   35  O1  UNL     1     -17.268   6.948   9.228  1.00  0.00    -0.324 OA
HETATM   36  C1  UNL     1     -17.308   8.266   9.784  1.00  0.00     0.213 C 
ENDBRANCH  33  35
ENDBRANCH  32  33
BRANCH  32  37
HETATM   37  O3  UNL     1     -15.751   6.153   6.049  1.00  0.00    -0.382 OA
ATOM     38  H3  UNL     1     -15.226   5.476   5.637  1.00  0.00     0.210 HD
ENDBRANCH  32  37
ENDBRANCH  30  32
BRANCH  30  39
HETATM   39  O4  UNL     1     -17.117   4.083   5.730  1.00  0.00    -0.384 OA
ATOM     40  H4  UNL     1     -17.826   3.463   5.616  1.00  0.00     0.210 HD
ENDBRANCH  30  39
ENDBRANCH   1  30
BRANCH  19  41
HETATM   41  O7  UNL     1     -16.196   3.293  11.545  1.00  0.00    -0.380 OA
ATOM     42  H7  UNL     1     -15.357   3.656  11.803  1.00  0.00     0.211 HD
ENDBRANCH  19  41
BRANCH   6  43
HETATM   43  O6  UNL     1     -12.023   1.941  12.037  1.00  0.00    -0.360 OA
ATOM     44  H6  UNL     1     -12.051   1.457  12.854  1.00  0.00     0.217 HD
ENDBRANCH   6  43
BRANCH  27  45
HETATM   45  O10 UNL     1     -13.119  -3.322   7.018  1.00  0.00    -0.357 OA
ATOM     46  H10 UNL     1     -13.138  -4.208   6.677  1.00  0.00     0.217 HD
ENDBRANCH  27  45
BRANCH  26  47
HETATM   47  O9  UNL     1     -11.039  -5.148   7.735  1.00  0.00    -0.358 OA
ATOM     48  H9  UNL     1     -11.597  -5.338   6.990  1.00  0.00     0.217 HD
ENDBRANCH  26  47
TORSDOF 10
ENDMDL
