MODEL 7
REMARK VINA RESULT: -9.378384819      3.308     10.470
REMARK  10 active torsions:
REMARK  status: ('A' for Active; 'I' for Inactive)
REMARK    1  A    between atoms: O1_2  and  C2_3 
REMARK    2  A    between atoms: C2_3  and  C3_5 
REMARK    3  A    between atoms: C3_5  and  O3_6 
REMARK    4  A    between atoms: C3_5  and  C4_8 
REMARK    5  A    between atoms: C4_8  and  O4_10 
REMARK    6  A    between atoms: C4_8  and  C6_12 
REMARK    7  A    between atoms: C10_17  and  O6_18 
REMARK    8  A    between atoms: C21_32  and  O7_33 
REMARK    9  A    between atoms: C27_41  and  O9_42 
REMARK   10  A    between atoms: C28_44  and  O10_45 
ROOT
HETATM    1  C6  UNL     1     -17.302   4.166   6.653  1.00  0.00     0.166 A 
HETATM    2  O5  UNL     1     -16.292   4.954   7.070  1.00  0.00    -0.347 OA
HETATM    3  C7  UNL     1     -17.041   4.267   7.999  1.00  0.00     0.165 A 
HETATM    4  C8  UNL     1     -16.008   3.356   8.591  1.00  0.00     0.013 A 
HETATM    5  C9  UNL     1     -15.234   3.754   9.653  1.00  0.00     0.050 A 
HETATM    6  C10 UNL     1     -14.241   2.945  10.170  1.00  0.00     0.081 A 
HETATM    7  C11 UNL     1     -14.062   1.720   9.568  1.00  0.00     0.064 A 
HETATM    8  C12 UNL     1     -14.845   1.297   8.479  1.00  0.00     0.059 A 
HETATM    9  C13 UNL     1     -15.828   2.133   7.996  1.00  0.00     0.054 A 
HETATM   10  N1  UNL     1     -16.675   1.746   6.947  1.00  0.00    -0.371 N 
ATOM     11  H1  UNL     1     -16.767   0.761   6.698  1.00  0.00     0.161 HD
HETATM   12  C14 UNL     1     -17.418   2.757   6.220  1.00  0.00     0.203 C 
HETATM   13  C15 UNL     1     -18.816   2.427   6.494  1.00  0.00    -0.073 C 
HETATM   14  C16 UNL     1     -19.851   2.252   6.780  1.00  0.00    -0.076 C 
HETATM   15  C17 UNL     1     -21.177   2.140   7.278  1.00  0.00     0.073 C 
HETATM   16  C18 UNL     1     -21.392   2.967   8.393  1.00  0.00     0.073 C 
HETATM   17  C19 UNL     1     -20.221   3.678   8.700  1.00  0.00    -0.075 C 
HETATM   18  C20 UNL     1     -19.254   4.193   8.864  1.00  0.00    -0.066 C 
HETATM   19  C21 UNL     1     -17.974   4.817   9.007  1.00  0.00     0.239 C 
HETATM   20  C22 UNL     1     -14.626   0.012   7.859  1.00  0.00     0.199 A 
HETATM   21  O8  UNL     1     -15.272  -0.419   6.900  1.00  0.00    -0.286 OA
HETATM   22  C23 UNL     1     -13.554  -0.850   8.403  1.00  0.00     0.065 A 
HETATM   23  C24 UNL     1     -12.794  -0.431   9.467  1.00  0.00     0.032 A 
HETATM   24  C25 UNL     1     -11.801  -1.244   9.962  1.00  0.00     0.019 A 
HETATM   25  C26 UNL     1     -11.530  -2.483   9.428  1.00  0.00     0.040 A 
HETATM   26  C27 UNL     1     -12.298  -2.920   8.345  1.00  0.00     0.099 A 
HETATM   27  C28 UNL     1     -13.295  -2.108   7.845  1.00  0.00     0.114 A 
HETATM   28  C29 UNL     1     -13.002   0.863  10.103  1.00  0.00     0.197 A 
HETATM   29  O11 UNL     1     -12.289   1.216  11.076  1.00  0.00    -0.286 OA
ENDROOT
BRANCH   1  30
HETATM   30  C4  UNL     1     -18.123   5.042   5.741  1.00  0.00     0.127 C 
HETATM   31  C5  UNL     1     -18.246   6.470   6.201  1.00  0.00     0.052 C 
BRANCH  30  32
HETATM   32  C3  UNL     1     -17.385   5.123   4.406  1.00  0.00     0.254 C 
BRANCH  32  33
HETATM   33  C2  UNL     1     -18.184   4.809   3.233  1.00  0.00     0.290 C 
HETATM   34  O2  UNL     1     -18.600   3.633   2.997  1.00  0.00    -0.262 OA
BRANCH  33  35
HETATM   35  O1  UNL     1     -18.561   5.768   2.272  1.00  0.00    -0.324 OA
HETATM   36  C1  UNL     1     -19.935   5.936   1.908  1.00  0.00     0.213 C 
ENDBRANCH  33  35
ENDBRANCH  32  33
BRANCH  32  37
HETATM   37  O3  UNL     1     -16.194   4.431   4.441  1.00  0.00    -0.382 OA
ATOM     38  H3  UNL     1     -15.502   4.865   3.955  1.00  0.00     0.210 HD
ENDBRANCH  32  37
ENDBRANCH  30  32
BRANCH  30  39
HETATM   39  O4  UNL     1     -19.398   4.575   5.511  1.00  0.00    -0.384 OA
ATOM     40  H4  UNL     1     -19.394   3.629   5.592  1.00  0.00     0.210 HD
ENDBRANCH  30  39
ENDBRANCH   1  30
BRANCH  19  41
HETATM   41  O7  UNL     1     -17.602   4.484  10.345  1.00  0.00    -0.380 OA
ATOM     42  H7  UNL     1     -18.290   4.664  10.973  1.00  0.00     0.211 HD
ENDBRANCH  19  41
BRANCH   6  43
HETATM   43  O6  UNL     1     -13.441   3.316  11.243  1.00  0.00    -0.360 OA
ATOM     44  H6  UNL     1     -13.786   3.512  12.106  1.00  0.00     0.217 HD
ENDBRANCH   6  43
BRANCH  27  45
HETATM   45  O10 UNL     1     -14.087  -2.488   6.773  1.00  0.00    -0.357 OA
ATOM     46  H10 UNL     1     -13.793  -2.220   5.910  1.00  0.00     0.217 HD
ENDBRANCH  27  45
BRANCH  26  47
HETATM   47  O9  UNL     1     -12.019  -4.164   7.815  1.00  0.00    -0.358 OA
ATOM     48  H9  UNL     1     -11.146  -4.517   7.943  1.00  0.00     0.217 HD
ENDBRANCH  26  47
TORSDOF 10
ENDMDL
