MODEL 3
REMARK VINA RESULT: -10.656145420      2.821      9.859
REMARK  10 active torsions:
REMARK  status: ('A' for Active; 'I' for Inactive)
REMARK    1  A    between atoms: O1_2  and  C2_3 
REMARK    2  A    between atoms: C2_3  and  C3_5 
REMARK    3  A    between atoms: C3_5  and  O3_6 
REMARK    4  A    between atoms: C3_5  and  C4_8 
REMARK    5  A    between atoms: C4_8  and  O4_10 
REMARK    6  A    between atoms: C4_8  and  C6_12 
REMARK    7  A    between atoms: C10_17  and  O6_18 
REMARK    8  A    between atoms: C21_32  and  O7_33 
REMARK    9  A    between atoms: C27_41  and  O9_42 
REMARK   10  A    between atoms: C28_44  and  O10_45 
ROOT
HETATM    1  C6  UNL     1     -16.681   3.151   6.968  1.00  0.00     0.166 A 
HETATM    2  O5  UNL     1     -15.711   3.998   7.361  1.00  0.00    -0.347 OA
HETATM    3  C7  UNL     1     -16.420   3.296   8.310  1.00  0.00     0.165 A 
HETATM    4  C8  UNL     1     -15.340   2.451   8.917  1.00  0.00     0.013 A 
HETATM    5  C9  UNL     1     -14.583   2.912   9.966  1.00  0.00     0.050 A 
HETATM    6  C10 UNL     1     -13.548   2.167  10.496  1.00  0.00     0.081 A 
HETATM    7  C11 UNL     1     -13.310   0.938   9.921  1.00  0.00     0.064 A 
HETATM    8  C12 UNL     1     -14.075   0.451   8.846  1.00  0.00     0.059 A 
HETATM    9  C13 UNL     1     -15.102   1.226   8.349  1.00  0.00     0.054 A 
HETATM   10  N1  UNL     1     -15.931   0.772   7.314  1.00  0.00    -0.371 N 
ATOM     11  H1  UNL     1     -15.974  -0.221   7.087  1.00  0.00     0.161 HD
HETATM   12  C14 UNL     1     -16.728   1.728   6.567  1.00  0.00     0.203 C 
HETATM   13  C15 UNL     1     -18.106   1.335   6.856  1.00  0.00    -0.073 C 
HETATM   14  C16 UNL     1     -19.130   1.114   7.151  1.00  0.00    -0.076 C 
HETATM   15  C17 UNL     1     -20.446   0.947   7.658  1.00  0.00     0.073 C 
HETATM   16  C18 UNL     1     -20.698   1.788   8.755  1.00  0.00     0.073 C 
HETATM   17  C19 UNL     1     -19.563   2.563   9.039  1.00  0.00    -0.075 C 
HETATM   18  C20 UNL     1     -18.623   3.130   9.187  1.00  0.00    -0.066 C 
HETATM   19  C21 UNL     1     -17.376   3.821   9.309  1.00  0.00     0.239 C 
HETATM   20  C22 UNL     1     -13.794  -0.834   8.255  1.00  0.00     0.199 A 
HETATM   21  O8  UNL     1     -14.422  -1.319   7.309  1.00  0.00    -0.286 OA
HETATM   22  C23 UNL     1     -12.678  -1.629   8.813  1.00  0.00     0.065 A 
HETATM   23  C24 UNL     1     -11.936  -1.147   9.863  1.00  0.00     0.032 A 
HETATM   24  C25 UNL     1     -10.902  -1.898  10.371  1.00  0.00     0.019 A 
HETATM   25  C26 UNL     1     -10.570  -3.134   9.865  1.00  0.00     0.040 A 
HETATM   26  C27 UNL     1     -11.319  -3.633   8.796  1.00  0.00     0.099 A 
HETATM   27  C28 UNL     1     -12.358  -2.884   8.282  1.00  0.00     0.114 A 
HETATM   28  C29 UNL     1     -12.207   0.149  10.470  1.00  0.00     0.197 A 
HETATM   29  O11 UNL     1     -11.508   0.559  11.431  1.00  0.00    -0.286 OA
ENDROOT
BRANCH   1  30
HETATM   30  C4  UNL     1     -17.548   3.963   6.040  1.00  0.00     0.127 C 
HETATM   31  C5  UNL     1     -18.226   5.136   6.696  1.00  0.00     0.052 C 
BRANCH  30  32
HETATM   32  C3  UNL     1     -16.631   4.581   4.987  1.00  0.00     0.254 C 
BRANCH  32  33
HETATM   33  C2  UNL     1     -17.293   5.413   3.996  1.00  0.00     0.290 C 
HETATM   34  O2  UNL     1     -16.940   6.613   3.781  1.00  0.00    -0.262 OA
BRANCH  33  35
HETATM   35  O1  UNL     1     -18.368   4.966   3.201  1.00  0.00    -0.324 OA
HETATM   36  C1  UNL     1     -18.146   4.511   1.863  1.00  0.00     0.213 C 
ENDBRANCH  33  35
ENDBRANCH  32  33
BRANCH  32  37
HETATM   37  O3  UNL     1     -15.798   3.639   4.423  1.00  0.00    -0.382 OA
ATOM     38  H3  UNL     1     -15.094   3.375   5.004  1.00  0.00     0.210 HD
ENDBRANCH  32  37
ENDBRANCH  30  32
BRANCH  30  39
HETATM   39  O4  UNL     1     -18.524   3.232   5.399  1.00  0.00    -0.384 OA
ATOM     40  H4  UNL     1     -19.046   2.783   6.053  1.00  0.00     0.210 HD
ENDBRANCH  30  39
ENDBRANCH   1  30
BRANCH  19  41
HETATM   41  O7  UNL     1     -16.982   3.538  10.653  1.00  0.00    -0.380 OA
ATOM     42  H7  UNL     1     -16.955   4.314  11.199  1.00  0.00     0.211 HD
ENDBRANCH  19  41
BRANCH   6  43
HETATM   43  O6  UNL     1     -12.764   2.602  11.557  1.00  0.00    -0.360 OA
ATOM     44  H6  UNL     1     -12.696   3.513  11.814  1.00  0.00     0.217 HD
ENDBRANCH   6  43
BRANCH  27  45
HETATM   45  O10 UNL     1     -13.134  -3.328   7.223  1.00  0.00    -0.357 OA
ATOM     46  H10 UNL     1     -13.894  -3.854   7.442  1.00  0.00     0.217 HD
ENDBRANCH  27  45
BRANCH  26  47
HETATM   47  O9  UNL     1     -10.980  -4.874   8.293  1.00  0.00    -0.358 OA
ATOM     48  H9  UNL     1     -10.505  -4.907   7.471  1.00  0.00     0.217 HD
ENDBRANCH  26  47
TORSDOF 10
ENDMDL
