MODEL 2
REMARK VINA RESULT: -7.111375440      2.671      7.074
REMARK  11 active torsions:
REMARK  status: ('A' for Active; 'I' for Inactive)
REMARK    1  A    between atoms: N5_13  and  C6_14 
REMARK    2  A    between atoms: C7_16  and  C8_17 
REMARK    3  A    between atoms: C8_17  and  C9_18 
REMARK    4  A    between atoms: C9_18  and  N6_19 
REMARK    5  A    between atoms: C9_18  and  C10_23 
REMARK    6  A    between atoms: C10_23  and  C11_24 
REMARK    7  A    between atoms: C11_24  and  C12_25 
REMARK    8  A    between atoms: C12_25  and  N7_26 
REMARK    9  A    between atoms: C12_25  and  C13_30 
REMARK   10  A    between atoms: C14_33  and  O4_34 
REMARK   11  A    between atoms: C15_36  and  O5_37 
ROOT
HETATM    1  C6  UNL     1      -9.083  17.556 -16.886  1.00  0.00     0.262 C 
HETATM    2  O1  UNL     1      -8.696  17.912 -15.628  1.00  0.00    -0.355 OA
HETATM    3  C7  UNL     1      -9.764  18.378 -14.917  1.00  0.00     0.157 C 
HETATM    4  C14 UNL     1     -11.022  17.968 -15.635  1.00  0.00     0.180 C 
HETATM    5  C15 UNL     1     -10.520  17.912 -17.084  1.00  0.00     0.198 C 
ENDROOT
BRANCH   3   6
HETATM    6  C8  UNL     1      -9.691  17.827 -13.509  1.00  0.00     0.067 C 
BRANCH   6   7
HETATM    7  C9  UNL     1      -8.727  18.697 -12.741  1.00  0.00     0.186 C 
BRANCH   7   8
HETATM    8  N6  UNL     1      -7.378  18.297 -13.167  1.00  0.00    -0.075 N 
ATOM      9  H63 UNL     1      -6.957  18.942 -13.835  1.00  0.00     0.274 HD
ATOM     10  H62 UNL     1      -6.675  18.399 -12.434  1.00  0.00     0.274 HD
ATOM     11  H61 UNL     1      -7.459  17.344 -13.520  1.00  0.00     0.274 HD
ENDBRANCH   7   8
BRANCH   7  12
HETATM   12  C10 UNL     1      -8.870  20.151 -13.068  1.00  0.00     0.035 C 
BRANCH  12  13
HETATM   13  C11 UNL     1      -7.576  20.798 -13.470  1.00  0.00     0.046 C 
BRANCH  13  14
HETATM   14  C12 UNL     1      -7.769  21.380 -14.868  1.00  0.00     0.283 C 
BRANCH  14  15
HETATM   15  N7  UNL     1      -6.955  20.725 -15.851  1.00  0.00    -0.065 N 
ATOM     16  H73 UNL     1      -7.065  21.161 -16.767  1.00  0.00     0.275 HD
ATOM     17  H72 UNL     1      -5.966  20.917 -15.696  1.00  0.00     0.275 HD
ATOM     18  H71 UNL     1      -7.131  19.722 -15.899  1.00  0.00     0.275 HD
ENDBRANCH  14  15
BRANCH  14  19
HETATM   19  C13 UNL     1      -7.448  22.830 -14.884  1.00  0.00     0.204 C 
HETATM   20  O2  UNL     1      -8.106  23.608 -15.608  1.00  0.00    -0.646 OA
HETATM   21  O3  UNL     1      -6.428  23.356 -14.106  1.00  0.00    -0.646 OA
ENDBRANCH  14  19
ENDBRANCH  13  14
ENDBRANCH  12  13
ENDBRANCH   7  12
ENDBRANCH   6   7
ENDBRANCH   3   6
BRANCH   4  22
HETATM   22  O4  UNL     1     -11.947  19.003 -15.567  1.00  0.00    -0.390 OA
ATOM     23  H4  UNL     1     -12.778  18.705 -15.917  1.00  0.00     0.210 HD
ENDBRANCH   4  22
BRANCH   1  24
HETATM   24  N5  UNL     1      -8.844  16.168 -17.184  1.00  0.00    -0.297 N 
HETATM   25  C3  UNL     1      -7.736  15.468 -16.883  1.00  0.00     0.142 A 
HETATM   26  N3  UNL     1      -6.611  15.849 -16.255  1.00  0.00    -0.336 N 
HETATM   27  C4  UNL     1      -7.883  14.181 -17.328  1.00  0.00     0.119 A 
HETATM   28  C2  UNL     1      -5.581  14.989 -16.035  1.00  0.00     0.183 A 
ATOM     29  H3  UNL     1      -6.527  16.813 -15.933  1.00  0.00     0.168 HD
HETATM   30  N2  UNL     1      -5.743  13.741 -16.477  1.00  0.00    -0.339 N 
HETATM   31  C1  UNL     1      -6.846  13.303 -17.112  1.00  0.00     0.148 A 
ATOM     32  H2  UNL     1      -4.983  13.077 -16.325  1.00  0.00     0.167 HD
HETATM   33  N1  UNL     1      -6.947  11.974 -17.548  1.00  0.00    -0.080 NA
HETATM   34  N4  UNL     1      -9.086  14.096 -17.904  1.00  0.00    -0.346 N 
HETATM   35  C5  UNL     1      -9.668  15.324 -17.810  1.00  0.00     0.188 A 
ATOM     36  H4  UNL     1      -9.493  13.266 -18.335  1.00  0.00     0.167 HD
ENDBRANCH   1  24
BRANCH   5  37
HETATM   37  O5  UNL     1     -10.606  19.187 -17.641  1.00  0.00    -0.388 OA
ATOM     38  H5  UNL     1     -11.110  19.748 -17.063  1.00  0.00     0.210 HD
ENDBRANCH   5  37
TORSDOF 11
ENDMDL
