MODEL 6
REMARK VINA RESULT: -6.947863523      3.034      8.403
REMARK  11 active torsions:
REMARK  status: ('A' for Active; 'I' for Inactive)
REMARK    1  A    between atoms: N5_13  and  C6_14 
REMARK    2  A    between atoms: C7_16  and  C8_17 
REMARK    3  A    between atoms: C8_17  and  C9_18 
REMARK    4  A    between atoms: C9_18  and  N6_19 
REMARK    5  A    between atoms: C9_18  and  C10_23 
REMARK    6  A    between atoms: C10_23  and  C11_24 
REMARK    7  A    between atoms: C11_24  and  C12_25 
REMARK    8  A    between atoms: C12_25  and  N7_26 
REMARK    9  A    between atoms: C12_25  and  C13_30 
REMARK   10  A    between atoms: C14_33  and  O4_34 
REMARK   11  A    between atoms: C15_36  and  O5_37 
ROOT
HETATM    1  C6  UNL     1      -8.219  13.257 -16.746  1.00  0.00     0.262 C 
HETATM    2  O1  UNL     1      -8.206  14.177 -15.740  1.00  0.00    -0.355 OA
HETATM    3  C7  UNL     1      -8.512  15.416 -16.226  1.00  0.00     0.157 C 
HETATM    4  C14 UNL     1      -9.123  15.248 -17.591  1.00  0.00     0.180 C 
HETATM    5  C15 UNL     1      -8.447  13.949 -18.050  1.00  0.00     0.198 C 
ENDROOT
BRANCH   3   6
HETATM    6  C8  UNL     1      -9.443  16.106 -15.252  1.00  0.00     0.067 C 
BRANCH   6   7
HETATM    7  C9  UNL     1      -8.584  16.933 -14.327  1.00  0.00     0.186 C 
BRANCH   7   8
HETATM    8  N6  UNL     1      -7.339  17.212 -15.057  1.00  0.00    -0.075 N 
ATOM      9  H63 UNL     1      -6.718  16.406 -15.121  1.00  0.00     0.274 HD
ATOM     10  H62 UNL     1      -7.478  17.346 -16.058  1.00  0.00     0.274 HD
ATOM     11  H61 UNL     1      -6.910  18.015 -14.597  1.00  0.00     0.274 HD
ENDBRANCH   7   8
BRANCH   7  12
HETATM   12  C10 UNL     1      -9.197  18.258 -13.996  1.00  0.00     0.035 C 
BRANCH  12  13
HETATM   13  C11 UNL     1      -9.326  19.166 -15.186  1.00  0.00     0.046 C 
BRANCH  13  14
HETATM   14  C12 UNL     1      -9.006  20.583 -14.718  1.00  0.00     0.283 C 
BRANCH  14  15
HETATM   15  N7  UNL     1      -9.874  21.563 -15.304  1.00  0.00    -0.065 N 
ATOM     16  H73 UNL     1     -10.841  21.416 -15.015  1.00  0.00     0.275 HD
ATOM     17  H72 UNL     1      -9.719  22.484 -14.892  1.00  0.00     0.275 HD
ATOM     18  H71 UNL     1      -9.795  21.597 -16.320  1.00  0.00     0.275 HD
ENDBRANCH  14  15
BRANCH  14  19
HETATM   19  C13 UNL     1      -7.602  20.942 -15.048  1.00  0.00     0.204 C 
HETATM   20  O2  UNL     1      -6.912  20.178 -15.756  1.00  0.00    -0.646 OA
HETATM   21  O3  UNL     1      -7.027  22.116 -14.588  1.00  0.00    -0.646 OA
ENDBRANCH  14  19
ENDBRANCH  13  14
ENDBRANCH  12  13
ENDBRANCH   7  12
ENDBRANCH   6   7
ENDBRANCH   3   6
BRANCH   4  22
HETATM   22  O4  UNL     1      -8.664  16.260 -18.426  1.00  0.00    -0.390 OA
ATOM     23  H4  UNL     1      -8.627  15.937 -19.318  1.00  0.00     0.210 HD
ENDBRANCH   4  22
BRANCH   1  24
HETATM   24  N5  UNL     1      -9.177  12.202 -16.541  1.00  0.00    -0.297 N 
HETATM   25  C3  UNL     1      -9.170  10.993 -17.130  1.00  0.00     0.142 A 
HETATM   26  N3  UNL     1      -8.314  10.466 -18.023  1.00  0.00    -0.336 N 
HETATM   27  C4  UNL     1     -10.241  10.268 -16.681  1.00  0.00     0.119 A 
HETATM   28  C2  UNL     1      -8.468   9.208 -18.514  1.00  0.00     0.183 A 
ATOM     29  H3  UNL     1      -7.524  11.028 -18.340  1.00  0.00     0.168 HD
HETATM   30  N2  UNL     1      -9.518   8.519 -18.065  1.00  0.00    -0.339 N 
HETATM   31  C1  UNL     1     -10.408   8.993 -17.174  1.00  0.00     0.148 A 
ATOM     32  H2  UNL     1      -9.656   7.572 -18.420  1.00  0.00     0.167 HD
HETATM   33  N1  UNL     1     -11.489   8.210 -16.745  1.00  0.00    -0.080 NA
HETATM   34  N4  UNL     1     -10.905  11.038 -15.815  1.00  0.00    -0.346 N 
HETATM   35  C5  UNL     1     -10.242  12.226 -15.737  1.00  0.00     0.188 A 
ATOM     36  H4  UNL     1     -11.752  10.784 -15.306  1.00  0.00     0.167 HD
ENDBRANCH   1  24
BRANCH   5  37
HETATM   37  O5  UNL     1      -7.217  14.260 -18.627  1.00  0.00    -0.388 OA
ATOM     38  H5  UNL     1      -7.362  14.730 -19.439  1.00  0.00     0.210 HD
ENDBRANCH   5  37
TORSDOF 11
ENDMDL
