MODEL 1
REMARK VINA RESULT: -7.196268981      0.000      0.000
REMARK  11 active torsions:
REMARK  status: ('A' for Active; 'I' for Inactive)
REMARK    1  A    between atoms: N5_13  and  C6_14 
REMARK    2  A    between atoms: C7_16  and  C8_17 
REMARK    3  A    between atoms: C8_17  and  C9_18 
REMARK    4  A    between atoms: C9_18  and  N6_19 
REMARK    5  A    between atoms: C9_18  and  C10_23 
REMARK    6  A    between atoms: C10_23  and  C11_24 
REMARK    7  A    between atoms: C11_24  and  C12_25 
REMARK    8  A    between atoms: C12_25  and  N7_26 
REMARK    9  A    between atoms: C12_25  and  C13_30 
REMARK   10  A    between atoms: C14_33  and  O4_34 
REMARK   11  A    between atoms: C15_36  and  O5_37 
ROOT
HETATM    1  C6  UNL     1     -10.152  17.672 -14.639  1.00  0.00     0.262 C 
HETATM    2  O1  UNL     1      -8.900  17.132 -14.618  1.00  0.00    -0.355 OA
HETATM    3  C7  UNL     1      -8.739  16.269 -15.664  1.00  0.00     0.157 C 
HETATM    4  C14 UNL     1      -9.840  16.524 -16.658  1.00  0.00     0.180 C 
HETATM    5  C15 UNL     1     -10.949  17.039 -15.732  1.00  0.00     0.198 C 
ENDROOT
BRANCH   3   6
HETATM    6  C8  UNL     1      -7.360  16.473 -16.256  1.00  0.00     0.067 C 
BRANCH   6   7
HETATM    7  C9  UNL     1      -6.525  15.281 -15.856  1.00  0.00     0.186 C 
BRANCH   7   8
HETATM    8  N6  UNL     1      -6.213  15.454 -14.430  1.00  0.00    -0.075 N 
ATOM      9  H63 UNL     1      -5.855  16.381 -14.204  1.00  0.00     0.274 HD
ATOM     10  H62 UNL     1      -7.041  15.489 -13.836  1.00  0.00     0.274 HD
ATOM     11  H61 UNL     1      -5.570  14.701 -14.183  1.00  0.00     0.274 HD
ENDBRANCH   7   8
BRANCH   7  12
HETATM   12  C10 UNL     1      -7.264  13.985 -15.983  1.00  0.00     0.035 C 
BRANCH  12  13
HETATM   13  C11 UNL     1      -6.566  12.988 -16.863  1.00  0.00     0.046 C 
BRANCH  13  14
HETATM   14  C12 UNL     1      -7.487  12.700 -18.047  1.00  0.00     0.283 C 
BRANCH  14  15
HETATM   15  N7  UNL     1      -7.962  13.897 -18.676  1.00  0.00    -0.065 N 
ATOM     16  H73 UNL     1      -8.578  14.420 -18.053  1.00  0.00     0.275 HD
ATOM     17  H72 UNL     1      -7.212  14.582 -18.777  1.00  0.00     0.275 HD
ATOM     18  H71 UNL     1      -8.415  13.715 -19.571  1.00  0.00     0.275 HD
ENDBRANCH  14  15
BRANCH  14  19
HETATM   19  C13 UNL     1      -8.661  11.897 -17.617  1.00  0.00     0.204 C 
HETATM   20  O2  UNL     1      -8.580  10.651 -17.564  1.00  0.00    -0.646 OA
HETATM   21  O3  UNL     1      -9.860  12.497 -17.267  1.00  0.00    -0.646 OA
ENDBRANCH  14  19
ENDBRANCH  13  14
ENDBRANCH  12  13
ENDBRANCH   7  12
ENDBRANCH   6   7
ENDBRANCH   3   6
BRANCH   4  22
HETATM   22  O4  UNL     1     -10.277  15.310 -17.178  1.00  0.00    -0.390 OA
ATOM     23  H4  UNL     1     -11.224  15.321 -17.244  1.00  0.00     0.210 HD
ENDBRANCH   4  22
BRANCH   1  24
HETATM   24  N5  UNL     1     -10.152  19.107 -14.758  1.00  0.00    -0.297 N 
HETATM   25  C3  UNL     1      -9.081  19.887 -14.987  1.00  0.00     0.142 A 
HETATM   26  N3  UNL     1      -7.788  19.561 -15.159  1.00  0.00    -0.336 N 
HETATM   27  C4  UNL     1      -9.480  21.197 -15.033  1.00  0.00     0.119 A 
HETATM   28  C2  UNL     1      -6.831  20.500 -15.384  1.00  0.00     0.183 A 
ATOM     29  H3  UNL     1      -7.518  18.578 -15.120  1.00  0.00     0.168 HD
HETATM   30  N2  UNL     1      -7.241  21.768 -15.425  1.00  0.00    -0.339 N 
HETATM   31  C1  UNL     1      -8.519  22.155 -15.259  1.00  0.00     0.148 A 
ATOM     32  H2  UNL     1      -6.540  22.492 -15.592  1.00  0.00     0.167 HD
HETATM   33  N1  UNL     1      -8.876  23.510 -15.316  1.00  0.00    -0.080 NA
HETATM   34  N4  UNL     1     -10.801  21.214 -14.831  1.00  0.00    -0.346 N 
HETATM   35  C5  UNL     1     -11.203  19.924 -14.662  1.00  0.00     0.188 A 
ATOM     36  H4  UNL     1     -11.398  22.042 -14.807  1.00  0.00     0.167 HD
ENDBRANCH   1  24
BRANCH   5  37
HETATM   37  O5  UNL     1     -11.651  15.949 -15.218  1.00  0.00    -0.388 OA
ATOM     38  H5  UNL     1     -12.161  16.231 -14.468  1.00  0.00     0.210 HD
ENDBRANCH   5  37
TORSDOF 11
ENDMDL
