MODEL 16
REMARK VINA RESULT: -6.686026528      2.933      8.155
REMARK  11 active torsions:
REMARK  status: ('A' for Active; 'I' for Inactive)
REMARK    1  A    between atoms: N5_13  and  C6_14 
REMARK    2  A    between atoms: C7_16  and  C8_17 
REMARK    3  A    between atoms: C8_17  and  C9_18 
REMARK    4  A    between atoms: C9_18  and  N6_19 
REMARK    5  A    between atoms: C9_18  and  C10_23 
REMARK    6  A    between atoms: C10_23  and  C11_24 
REMARK    7  A    between atoms: C11_24  and  C12_25 
REMARK    8  A    between atoms: C12_25  and  N7_26 
REMARK    9  A    between atoms: C12_25  and  C13_30 
REMARK   10  A    between atoms: C14_33  and  O4_34 
REMARK   11  A    between atoms: C15_36  and  O5_37 
ROOT
HETATM    1  C6  UNL     1      -8.094  13.105 -16.794  1.00  0.00     0.262 C 
HETATM    2  O1  UNL     1      -7.933  13.942 -15.730  1.00  0.00    -0.355 OA
HETATM    3  C7  UNL     1      -8.203  15.230 -16.094  1.00  0.00     0.157 C 
HETATM    4  C14 UNL     1      -8.945  15.202 -17.404  1.00  0.00     0.180 C 
HETATM    5  C15 UNL     1      -8.396  13.907 -18.016  1.00  0.00     0.198 C 
ENDROOT
BRANCH   3   6
HETATM    6  C8  UNL     1      -8.997  15.894 -14.989  1.00  0.00     0.067 C 
BRANCH   6   7
HETATM    7  C9  UNL     1      -8.141  17.006 -14.434  1.00  0.00     0.186 C 
BRANCH   7   8
HETATM    8  N6  UNL     1      -7.331  17.504 -15.555  1.00  0.00    -0.075 N 
ATOM      9  H63 UNL     1      -7.824  17.492 -16.447  1.00  0.00     0.274 HD
ATOM     10  H62 UNL     1      -7.163  18.509 -15.517  1.00  0.00     0.274 HD
ATOM     11  H61 UNL     1      -6.474  16.950 -15.559  1.00  0.00     0.274 HD
ENDBRANCH   7   8
BRANCH   7  12
HETATM   12  C10 UNL     1      -8.947  18.164 -13.936  1.00  0.00     0.035 C 
BRANCH  12  13
HETATM   13  C11 UNL     1      -8.703  19.431 -14.704  1.00  0.00     0.046 C 
BRANCH  13  14
HETATM   14  C12 UNL     1     -10.060  19.954 -15.169  1.00  0.00     0.283 C 
BRANCH  14  15
HETATM   15  N7  UNL     1     -10.968  20.167 -14.080  1.00  0.00    -0.065 N 
ATOM     16  H73 UNL     1     -11.250  19.281 -13.660  1.00  0.00     0.275 HD
ATOM     17  H72 UNL     1     -10.491  20.583 -13.280  1.00  0.00     0.275 HD
ATOM     18  H71 UNL     1     -11.781  20.720 -14.352  1.00  0.00     0.275 HD
ENDBRANCH  14  15
BRANCH  14  19
HETATM   19  C13 UNL     1     -10.688  19.008 -16.127  1.00  0.00     0.204 C 
HETATM   20  O2  UNL     1     -11.871  18.641 -15.958  1.00  0.00    -0.646 OA
HETATM   21  O3  UNL     1      -9.993  18.514 -17.219  1.00  0.00    -0.646 OA
ENDBRANCH  14  19
ENDBRANCH  13  14
ENDBRANCH  12  13
ENDBRANCH   7  12
ENDBRANCH   6   7
ENDBRANCH   3   6
BRANCH   4  22
HETATM   22  O4  UNL     1      -8.501  16.248 -18.204  1.00  0.00    -0.390 OA
ATOM     23  H4  UNL     1      -7.649  16.030 -18.561  1.00  0.00     0.210 HD
ENDBRANCH   4  22
BRANCH   1  24
HETATM   24  N5  UNL     1      -9.093  12.091 -16.574  1.00  0.00    -0.297 N 
HETATM   25  C3  UNL     1      -9.143  10.881 -17.159  1.00  0.00     0.142 A 
HETATM   26  N3  UNL     1      -8.319  10.316 -18.057  1.00  0.00    -0.336 N 
HETATM   27  C4  UNL     1     -10.239  10.203 -16.696  1.00  0.00     0.119 A 
HETATM   28  C2  UNL     1      -8.531   9.063 -18.542  1.00  0.00     0.183 A 
ATOM     29  H3  UNL     1      -7.509  10.842 -18.385  1.00  0.00     0.168 HD
HETATM   30  N2  UNL     1      -9.605   8.421 -18.079  1.00  0.00    -0.339 N 
HETATM   31  C1  UNL     1     -10.464   8.935 -17.181  1.00  0.00     0.148 A 
ATOM     32  H2  UNL     1      -9.786   7.479 -18.429  1.00  0.00     0.167 HD
HETATM   33  N1  UNL     1     -11.573   8.199 -16.738  1.00  0.00    -0.080 NA
HETATM   34  N4  UNL     1     -10.861  11.005 -15.826  1.00  0.00    -0.346 N 
HETATM   35  C5  UNL     1     -10.148  12.163 -15.759  1.00  0.00     0.188 A 
ATOM     36  H4  UNL     1     -11.713  10.788 -15.307  1.00  0.00     0.167 HD
ENDBRANCH   1  24
BRANCH   5  37
HETATM   37  O5  UNL     1      -7.206  14.192 -18.685  1.00  0.00    -0.388 OA
ATOM     38  H5  UNL     1      -6.476  14.079 -18.088  1.00  0.00     0.210 HD
ENDBRANCH   5  37
TORSDOF 11
ENDMDL
