MODEL 3
REMARK VINA RESULT: -7.074242276      2.021      2.853
REMARK  11 active torsions:
REMARK  status: ('A' for Active; 'I' for Inactive)
REMARK    1  A    between atoms: N5_13  and  C6_14 
REMARK    2  A    between atoms: C7_16  and  C8_17 
REMARK    3  A    between atoms: C8_17  and  C9_18 
REMARK    4  A    between atoms: C9_18  and  N6_19 
REMARK    5  A    between atoms: C9_18  and  C10_23 
REMARK    6  A    between atoms: C10_23  and  C11_24 
REMARK    7  A    between atoms: C11_24  and  C12_25 
REMARK    8  A    between atoms: C12_25  and  N7_26 
REMARK    9  A    between atoms: C12_25  and  C13_30 
REMARK   10  A    between atoms: C14_33  and  O4_34 
REMARK   11  A    between atoms: C15_36  and  O5_37 
ROOT
HETATM    1  C6  UNL     1     -10.302  19.128 -14.827  1.00  0.00     0.262 C 
HETATM    2  O1  UNL     1     -10.266  17.827 -14.420  1.00  0.00    -0.355 OA
HETATM    3  C7  UNL     1     -10.267  16.992 -15.501  1.00  0.00     0.157 C 
HETATM    4  C14 UNL     1      -9.918  17.802 -16.721  1.00  0.00     0.180 C 
HETATM    5  C15 UNL     1     -10.451  19.181 -16.312  1.00  0.00     0.198 C 
ENDROOT
BRANCH   3   6
HETATM    6  C8  UNL     1      -9.288  15.866 -15.249  1.00  0.00     0.067 C 
BRANCH   6   7
HETATM    7  C9  UNL     1     -10.065  14.575 -15.333  1.00  0.00     0.186 C 
BRANCH   7   8
HETATM    8  N6  UNL     1     -11.017  14.736 -16.441  1.00  0.00    -0.075 N 
ATOM      9  H63 UNL     1     -10.758  15.475 -17.093  1.00  0.00     0.274 HD
ATOM     10  H62 UNL     1     -10.996  13.965 -17.109  1.00  0.00     0.274 HD
ATOM     11  H61 UNL     1     -11.933  14.876 -16.015  1.00  0.00     0.274 HD
ENDBRANCH   7   8
BRANCH   7  12
HETATM   12  C10 UNL     1      -9.202  13.399 -15.673  1.00  0.00     0.035 C 
BRANCH  12  13
HETATM   13  C11 UNL     1      -9.267  13.016 -17.124  1.00  0.00     0.046 C 
BRANCH  13  14
HETATM   14  C12 UNL     1      -7.882  13.250 -17.722  1.00  0.00     0.283 C 
BRANCH  14  15
HETATM   15  N7  UNL     1      -6.831  13.055 -16.766  1.00  0.00    -0.065 N 
ATOM     16  H73 UNL     1      -5.965  13.493 -17.079  1.00  0.00     0.275 HD
ATOM     17  H72 UNL     1      -6.997  13.604 -15.922  1.00  0.00     0.275 HD
ATOM     18  H71 UNL     1      -6.685  12.071 -16.542  1.00  0.00     0.275 HD
ENDBRANCH  14  15
BRANCH  14  19
HETATM   19  C13 UNL     1      -7.771  14.628 -18.268  1.00  0.00     0.204 C 
HETATM   20  O2  UNL     1      -8.787  15.212 -18.699  1.00  0.00    -0.646 OA
HETATM   21  O3  UNL     1      -6.557  15.294 -18.312  1.00  0.00    -0.646 OA
ENDBRANCH  14  19
ENDBRANCH  13  14
ENDBRANCH  12  13
ENDBRANCH   7  12
ENDBRANCH   6   7
ENDBRANCH   3   6
BRANCH   4  22
HETATM   22  O4  UNL     1     -10.691  17.371 -17.793  1.00  0.00    -0.390 OA
ATOM     23  H4  UNL     1     -10.815  16.432 -17.732  1.00  0.00     0.210 HD
ENDBRANCH   4  22
BRANCH   1  24
HETATM   24  N5  UNL     1      -9.164  19.894 -14.389  1.00  0.00    -0.297 N 
HETATM   25  C3  UNL     1      -8.891  21.170 -14.710  1.00  0.00     0.142 A 
HETATM   26  N3  UNL     1      -9.567  22.036 -15.484  1.00  0.00    -0.336 N 
HETATM   27  C4  UNL     1      -7.722  21.547 -14.101  1.00  0.00     0.119 A 
HETATM   28  C2  UNL     1      -9.132  23.306 -15.696  1.00  0.00     0.183 A 
ATOM     29  H3  UNL     1     -10.435  21.730 -15.925  1.00  0.00     0.168 HD
HETATM   30  N2  UNL     1      -7.992  23.653 -15.095  1.00  0.00    -0.339 N 
HETATM   31  C1  UNL     1      -7.272  22.830 -14.311  1.00  0.00     0.148 A 
ATOM     32  H2  UNL     1      -7.645  24.601 -15.240  1.00  0.00     0.167 HD
HETATM   33  N1  UNL     1      -6.082  23.265 -13.710  1.00  0.00    -0.080 NA
HETATM   34  N4  UNL     1      -7.281  20.494 -13.407  1.00  0.00    -0.346 N 
HETATM   35  C5  UNL     1      -8.175  19.483 -13.591  1.00  0.00     0.188 A 
ATOM     36  H4  UNL     1      -6.432  20.455 -12.842  1.00  0.00     0.167 HD
ENDBRANCH   1  24
BRANCH   5  37
HETATM   37  O5  UNL     1     -11.804  19.257 -16.637  1.00  0.00    -0.388 OA
ATOM     38  H5  UNL     1     -12.010  18.589 -17.280  1.00  0.00     0.210 HD
ENDBRANCH   5  37
TORSDOF 11
ENDMDL
