MODEL 4
REMARK VINA RESULT: -6.446320155      1.626      4.014
REMARK  6 active torsions:
REMARK  status: ('A' for Active; 'I' for Inactive)
REMARK    1  A    between atoms: O1_1  and  C1_3 
REMARK    2  A    between atoms: C1_3  and  C2_4 
REMARK    3  A    between atoms: C3_6  and  O3_7 
REMARK    4  A    between atoms: C4_9  and  O4_10 
REMARK    5  A    between atoms: C5_12  and  O5_13 
REMARK    6  A    between atoms: C6_15  and  O6_16 
ROOT
HETATM    1  C2  UNL     1     -20.614  50.084 -60.648  1.00  0.00     0.179 C 
HETATM    2  O2  UNL     1     -20.035  49.199 -59.753  1.00  0.00    -0.349 OA
HETATM    3  C3  UNL     1     -19.757  49.772 -58.525  1.00  0.00     0.288 C 
HETATM    4  C4  UNL     1     -18.732  50.869 -58.762  1.00  0.00     0.204 C 
HETATM    5  C5  UNL     1     -19.449  51.933 -59.568  1.00  0.00     0.183 C 
HETATM    6  C6  UNL     1     -19.748  51.286 -60.915  1.00  0.00     0.180 C 
ENDROOT
BRANCH   1   7
HETATM    7  C1  UNL     1     -20.798  49.305 -61.958  1.00  0.00     0.198 C 
BRANCH   7   8
HETATM    8  O1  UNL     1     -21.891  49.826 -62.668  1.00  0.00    -0.398 OA
ATOM      9  H1  UNL     1     -21.970  49.382 -63.504  1.00  0.00     0.209 HD
ENDBRANCH   7   8
ENDBRANCH   1   7
BRANCH   6  10
HETATM   10  O6  UNL     1     -20.460  52.200 -61.676  1.00  0.00    -0.390 OA
ATOM     11  H6  UNL     1     -19.996  52.356 -62.491  1.00  0.00     0.210 HD
ENDBRANCH   6  10
BRANCH   3  12
HETATM   12  O3  UNL     1     -19.285  48.787 -57.673  1.00  0.00    -0.369 OA
ATOM     13  H3  UNL     1     -18.920  49.203 -56.901  1.00  0.00     0.212 HD
ENDBRANCH   3  12
BRANCH   5  14
HETATM   14  O5  UNL     1     -18.696  53.084 -59.705  1.00  0.00    -0.390 OA
ATOM     15  H5  UNL     1     -19.171  53.775 -60.151  1.00  0.00     0.210 HD
ENDBRANCH   5  14
BRANCH   4  16
HETATM   16  O4  UNL     1     -18.216  51.366 -57.577  1.00  0.00    -0.388 OA
ATOM     17  H4  UNL     1     -17.432  51.883 -57.717  1.00  0.00     0.210 HD
ENDBRANCH   4  16
TORSDOF 6
ENDMDL
