MODEL 17
REMARK VINA RESULT: -5.999397607      2.225      2.713
REMARK  6 active torsions:
REMARK  status: ('A' for Active; 'I' for Inactive)
REMARK    1  A    between atoms: O1_1  and  C1_3 
REMARK    2  A    between atoms: C1_3  and  C2_4 
REMARK    3  A    between atoms: C3_6  and  O3_7 
REMARK    4  A    between atoms: C4_9  and  O4_10 
REMARK    5  A    between atoms: C5_12  and  O5_13 
REMARK    6  A    between atoms: C6_15  and  O6_16 
ROOT
HETATM    1  C2  UNL     1     -20.151  52.594 -60.174  1.00  0.00     0.179 C 
HETATM    2  O2  UNL     1     -19.970  53.003 -61.486  1.00  0.00    -0.349 OA
HETATM    3  C3  UNL     1     -21.123  53.510 -62.060  1.00  0.00     0.288 C 
HETATM    4  C4  UNL     1     -22.138  52.381 -62.103  1.00  0.00     0.204 C 
HETATM    5  C5  UNL     1     -22.486  52.086 -60.657  1.00  0.00     0.183 C 
HETATM    6  C6  UNL     1     -21.207  51.531 -60.041  1.00  0.00     0.180 C 
ENDROOT
BRANCH   1   7
HETATM    7  C1  UNL     1     -18.803  52.014 -59.722  1.00  0.00     0.198 C 
BRANCH   7   8
HETATM    8  O1  UNL     1     -18.609  52.280 -58.356  1.00  0.00    -0.398 OA
ATOM      9  H1  UNL     1     -17.881  52.880 -58.249  1.00  0.00     0.209 HD
ENDBRANCH   7   8
ENDBRANCH   1   7
BRANCH   6  10
HETATM   10  O6  UNL     1     -21.451  51.297 -58.697  1.00  0.00    -0.390 OA
ATOM     11  H6  UNL     1     -22.179  51.838 -58.413  1.00  0.00     0.210 HD
ENDBRANCH   6  10
BRANCH   3  12
HETATM   12  O3  UNL     1     -20.815  53.989 -63.323  1.00  0.00    -0.369 OA
ATOM     13  H3  UNL     1     -20.468  54.869 -63.237  1.00  0.00     0.212 HD
ENDBRANCH   3  12
BRANCH   5  14
HETATM   14  O5  UNL     1     -23.541  51.201 -60.541  1.00  0.00    -0.390 OA
ATOM     15  H5  UNL     1     -24.334  51.529 -60.948  1.00  0.00     0.210 HD
ENDBRANCH   5  14
BRANCH   4  16
HETATM   16  O4  UNL     1     -23.254  52.710 -62.853  1.00  0.00    -0.388 OA
ATOM     17  H4  UNL     1     -23.493  53.624 -62.757  1.00  0.00     0.210 HD
ENDBRANCH   4  16
TORSDOF 6
ENDMDL
