MODEL 3
REMARK VINA RESULT: -9.778882305      3.338      5.462
REMARK  15 active torsions:
REMARK  status: ('A' for Active; 'I' for Inactive)
REMARK    1  A    between atoms: C1_2  and  C2_4 
REMARK    2  A    between atoms: C6_8  and  C7_9 
REMARK    3  A    between atoms: C8_11  and  C9_12 
REMARK    4  A    between atoms: C9_12  and  O3_13 
REMARK    5  A    between atoms: O3_13  and  P1_14 
REMARK    6  A    between atoms: P1_14  and  O6_17 
REMARK    7  A    between atoms: O6_17  and  P2_18 
REMARK    8  A    between atoms: P2_18  and  O9_21 
REMARK    9  A    between atoms: O9_21  and  C10_22 
REMARK   10  A    between atoms: C10_22  and  C11_23 
REMARK   11  A    between atoms: C12_25  and  N2_26 
REMARK   12  A    between atoms: C18_39  and  O11_40 
REMARK   13  A    between atoms: C19_42  and  O12_43 
REMARK   14  A    between atoms: C20_45  and  O13_46 
REMARK   15  A    between atoms: C21_48  and  O14_49 
ROOT
HETATM    1  P2  UNL     1     -19.716  24.850  40.811  1.00  0.00     0.417 P 
HETATM    2  O7  UNL     1     -18.927  23.433  41.092  1.00  0.00    -0.624 OA
HETATM    3  O8  UNL     1     -21.343  24.923  41.110  1.00  0.00    -0.624 OA
ENDROOT
BRANCH   1   4
HETATM    4  O6  UNL     1     -19.990  24.482  39.353  1.00  0.00    -0.180 OA
BRANCH   4   5
HETATM    5  P1  UNL     1     -19.502  23.209  38.672  1.00  0.00     0.417 P 
HETATM    6  O4  UNL     1     -20.885  23.017  37.807  1.00  0.00    -0.624 OA
HETATM    7  O5  UNL     1     -18.264  24.073  37.997  1.00  0.00    -0.624 OA
BRANCH   5   8
HETATM    8  O3  UNL     1     -18.872  21.916  38.078  1.00  0.00    -0.287 OA
BRANCH   8   9
HETATM    9  C9  UNL     1     -17.848  22.055  37.129  1.00  0.00     0.216 C 
BRANCH   9  10
HETATM   10  C8  UNL     1     -16.637  21.282  37.483  1.00  0.00     0.178 C 
HETATM   11  O2  UNL     1     -15.534  22.132  37.498  1.00  0.00    -0.368 OA
HETATM   12  C7  UNL     1     -14.659  21.481  38.328  1.00  0.00     0.186 C 
HETATM   13  C21 UNL     1     -15.541  21.214  39.555  1.00  0.00     0.182 C 
HETATM   14  C20 UNL     1     -16.803  20.716  38.864  1.00  0.00     0.180 C 
BRANCH  12  15
HETATM   15  C6  UNL     1     -13.483  22.300  38.707  1.00  0.00    -0.026 A 
HETATM   16  C5  UNL     1     -12.411  21.650  39.282  1.00  0.00     0.010 A 
HETATM   17  C4  UNL     1     -11.263  22.343  39.668  1.00  0.00     0.002 A 
HETATM   18  C3  UNL     1     -11.219  23.710  39.464  1.00  0.00     0.016 A 
HETATM   19  C2  UNL     1     -12.309  24.326  38.887  1.00  0.00     0.029 A 
HETATM   20  C22 UNL     1     -13.438  23.646  38.507  1.00  0.00     0.026 A 
BRANCH  19  21
HETATM   21  C1  UNL     1     -12.245  25.776  38.678  1.00  0.00     0.265 C 
HETATM   22  N1  UNL     1     -13.350  26.475  38.116  1.00  0.00    -0.057 NA
HETATM   23  O1  UNL     1     -11.232  26.451  38.980  1.00  0.00    -0.271 OA
ENDBRANCH  19  21
ENDBRANCH  12  15
BRANCH  13  24
HETATM   24  O14 UNL     1     -14.983  20.226  40.350  1.00  0.00    -0.390 OA
ATOM     25  H14 UNL     1     -15.662  19.732  40.794  1.00  0.00     0.210 HD
ENDBRANCH  13  24
BRANCH  14  26
HETATM   26  O13 UNL     1     -16.713  19.317  38.855  1.00  0.00    -0.390 OA
ATOM     27  H13 UNL     1     -17.162  18.937  39.602  1.00  0.00     0.210 HD
ENDBRANCH  14  26
ENDBRANCH   9  10
ENDBRANCH   8   9
ENDBRANCH   5   8
ENDBRANCH   4   5
ENDBRANCH   1   4
BRANCH   1  28
HETATM   28  O9  UNL     1     -18.850  26.158  40.336  1.00  0.00    -0.287 OA
BRANCH  28  29
HETATM   29  C10 UNL     1     -19.428  27.318  40.712  1.00  0.00     0.216 C 
BRANCH  29  30
HETATM   30  C11 UNL     1     -19.970  28.035  39.497  1.00  0.00     0.180 C 
HETATM   31  O10 UNL     1     -19.533  27.378  38.359  1.00  0.00    -0.353 OA
HETATM   32  C12 UNL     1     -20.430  27.669  37.347  1.00  0.00     0.262 C 
HETATM   33  C18 UNL     1     -21.784  27.840  38.006  1.00  0.00     0.198 C 
HETATM   34  C19 UNL     1     -21.459  28.103  39.456  1.00  0.00     0.182 C 
BRANCH  32  35
HETATM   35  N2  UNL     1     -20.458  26.564  36.402  1.00  0.00    -0.297 N 
HETATM   36  C13 UNL     1     -21.501  25.833  35.972  1.00  0.00     0.188 A 
HETATM   37  N3  UNL     1     -21.083  24.895  35.084  1.00  0.00    -0.346 N 
HETATM   38  C14 UNL     1     -19.770  25.011  34.936  1.00  0.00     0.119 A 
ATOM     39  H3  UNL     1     -21.678  24.215  34.612  1.00  0.00     0.167 HD
HETATM   40  C15 UNL     1     -18.845  24.322  34.166  1.00  0.00     0.148 A 
HETATM   41  C17 UNL     1     -19.378  26.049  35.753  1.00  0.00     0.142 A 
HETATM   42  N4  UNL     1     -19.211  23.247  33.311  1.00  0.00    -0.080 NA
HETATM   43  N5  UNL     1     -17.565  24.728  34.273  1.00  0.00    -0.339 N 
HETATM   44  C16 UNL     1     -17.208  25.751  35.085  1.00  0.00     0.183 A 
ATOM     45  H5  UNL     1     -16.845  24.253  33.728  1.00  0.00     0.167 HD
HETATM   46  N6  UNL     1     -18.101  26.419  35.829  1.00  0.00    -0.336 N 
ATOM     47  H6  UNL     1     -17.812  27.187  36.434  1.00  0.00     0.168 HD
ENDBRANCH  32  35
BRANCH  33  48
HETATM   48  O11 UNL     1     -22.458  28.908  37.467  1.00  0.00    -0.388 OA
ATOM     49  H11 UNL     1     -22.754  29.501  38.149  1.00  0.00     0.210 HD
ENDBRANCH  33  48
BRANCH  34  50
HETATM   50  O12 UNL     1     -21.874  29.411  39.788  1.00  0.00    -0.390 OA
ATOM     51  H12 UNL     1     -22.021  29.906  38.990  1.00  0.00     0.210 HD
ENDBRANCH  34  50
ENDBRANCH  29  30
ENDBRANCH  28  29
ENDBRANCH   1  28
TORSDOF 15
ENDMDL
