MODEL 4
REMARK VINA RESULT: -9.713264246      2.683      4.644
REMARK  15 active torsions:
REMARK  status: ('A' for Active; 'I' for Inactive)
REMARK    1  A    between atoms: C1_2  and  C2_4 
REMARK    2  A    between atoms: C6_8  and  C7_9 
REMARK    3  A    between atoms: C8_11  and  C9_12 
REMARK    4  A    between atoms: C9_12  and  O3_13 
REMARK    5  A    between atoms: O3_13  and  P1_14 
REMARK    6  A    between atoms: P1_14  and  O6_17 
REMARK    7  A    between atoms: O6_17  and  P2_18 
REMARK    8  A    between atoms: P2_18  and  O9_21 
REMARK    9  A    between atoms: O9_21  and  C10_22 
REMARK   10  A    between atoms: C10_22  and  C11_23 
REMARK   11  A    between atoms: C12_25  and  N2_26 
REMARK   12  A    between atoms: C18_39  and  O11_40 
REMARK   13  A    between atoms: C19_42  and  O12_43 
REMARK   14  A    between atoms: C20_45  and  O13_46 
REMARK   15  A    between atoms: C21_48  and  O14_49 
ROOT
HETATM    1  P2  UNL     1     -21.633  27.262  39.248  1.00  0.00     0.417 P 
HETATM    2  O7  UNL     1     -20.190  27.733  39.882  1.00  0.00    -0.624 OA
HETATM    3  O8  UNL     1     -21.798  25.698  38.729  1.00  0.00    -0.624 OA
ENDROOT
BRANCH   1   4
HETATM    4  O6  UNL     1     -21.229  27.698  37.840  1.00  0.00    -0.180 OA
BRANCH   4   5
HETATM    5  P1  UNL     1     -19.913  27.335  37.162  1.00  0.00     0.417 P 
HETATM    6  O4  UNL     1     -20.644  26.822  35.783  1.00  0.00    -0.624 OA
HETATM    7  O5  UNL     1     -19.450  28.919  37.266  1.00  0.00    -0.624 OA
BRANCH   5   8
HETATM    8  O3  UNL     1     -18.496  26.997  36.616  1.00  0.00    -0.287 OA
BRANCH   8   9
HETATM    9  C9  UNL     1     -18.350  25.852  35.819  1.00  0.00     0.216 C 
BRANCH   9  10
HETATM   10  C8  UNL     1     -17.936  24.665  36.600  1.00  0.00     0.178 C 
HETATM   11  O2  UNL     1     -16.546  24.586  36.617  1.00  0.00    -0.368 OA
HETATM   12  C7  UNL     1     -16.297  23.851  37.747  1.00  0.00     0.186 C 
HETATM   13  C21 UNL     1     -17.117  24.615  38.796  1.00  0.00     0.182 C 
HETATM   14  C20 UNL     1     -18.408  24.821  38.017  1.00  0.00     0.180 C 
BRANCH  12  15
HETATM   15  C6  UNL     1     -14.866  23.824  38.131  1.00  0.00    -0.026 A 
HETATM   16  C5  UNL     1     -14.326  22.608  38.498  1.00  0.00     0.010 A 
HETATM   17  C4  UNL     1     -12.988  22.491  38.873  1.00  0.00     0.002 A 
HETATM   18  C3  UNL     1     -12.202  23.629  38.873  1.00  0.00     0.016 A 
HETATM   19  C2  UNL     1     -12.774  24.826  38.501  1.00  0.00     0.029 A 
HETATM   20  C22 UNL     1     -14.091  24.943  38.132  1.00  0.00     0.026 A 
BRANCH  19  21
HETATM   21  C1  UNL     1     -11.926  26.022  38.507  1.00  0.00     0.265 C 
HETATM   22  N1  UNL     1     -12.325  27.194  37.805  1.00  0.00    -0.057 NA
HETATM   23  O1  UNL     1     -10.832  26.063  39.119  1.00  0.00    -0.271 OA
ENDBRANCH  19  21
ENDBRANCH  12  15
BRANCH  13  24
HETATM   24  O14 UNL     1     -17.328  23.828  39.916  1.00  0.00    -0.390 OA
ATOM     25  H14 UNL     1     -18.256  23.664  40.038  1.00  0.00     0.210 HD
ENDBRANCH  13  24
BRANCH  14  26
HETATM   26  O13 UNL     1     -19.257  23.770  38.390  1.00  0.00    -0.390 OA
ATOM     27  H13 UNL     1     -18.779  22.953  38.472  1.00  0.00     0.210 HD
ENDBRANCH  14  26
ENDBRANCH   9  10
ENDBRANCH   8   9
ENDBRANCH   5   8
ENDBRANCH   4   5
ENDBRANCH   1   4
BRANCH   1  28
HETATM   28  O9  UNL     1     -22.879  28.327  39.238  1.00  0.00    -0.287 OA
BRANCH  28  29
HETATM   29  C10 UNL     1     -22.458  29.607  39.323  1.00  0.00     0.216 C 
BRANCH  29  30
HETATM   30  C11 UNL     1     -23.450  30.517  38.637  1.00  0.00     0.180 C 
HETATM   31  O10 UNL     1     -23.575  30.125  37.315  1.00  0.00    -0.353 OA
HETATM   32  C12 UNL     1     -24.812  30.558  36.874  1.00  0.00     0.262 C 
HETATM   33  C18 UNL     1     -25.737  30.515  38.073  1.00  0.00     0.198 C 
HETATM   34  C19 UNL     1     -24.804  30.504  39.259  1.00  0.00     0.182 C 
BRANCH  32  35
HETATM   35  N2  UNL     1     -25.287  29.663  35.831  1.00  0.00    -0.297 N 
HETATM   36  C13 UNL     1     -26.009  29.938  34.730  1.00  0.00     0.188 A 
HETATM   37  N3  UNL     1     -26.235  28.803  34.022  1.00  0.00    -0.346 N 
HETATM   38  C14 UNL     1     -25.664  27.788  34.657  1.00  0.00     0.119 A 
ATOM     39  H3  UNL     1     -26.757  28.741  33.148  1.00  0.00     0.167 HD
HETATM   40  C15 UNL     1     -25.584  26.431  34.383  1.00  0.00     0.148 A 
HETATM   41  C17 UNL     1     -25.073  28.319  35.782  1.00  0.00     0.142 A 
HETATM   42  N4  UNL     1     -26.181  25.847  33.233  1.00  0.00    -0.080 NA
HETATM   43  N5  UNL     1     -24.905  25.686  35.276  1.00  0.00    -0.339 N 
HETATM   44  C16 UNL     1     -24.334  26.234  36.373  1.00  0.00     0.183 A 
ATOM     45  H5  UNL     1     -24.818  24.681  35.121  1.00  0.00     0.167 HD
HETATM   46  N6  UNL     1     -24.409  27.546  36.640  1.00  0.00    -0.336 N 
ATOM     47  H6  UNL     1     -23.971  27.940  37.472  1.00  0.00     0.168 HD
ENDBRANCH  32  35
BRANCH  33  48
HETATM   48  O11 UNL     1     -26.542  31.628  38.110  1.00  0.00    -0.388 OA
ATOM     49  H11 UNL     1     -27.317  31.467  38.636  1.00  0.00     0.210 HD
ENDBRANCH  33  48
BRANCH  34  50
HETATM   50  O12 UNL     1     -24.988  31.694  39.998  1.00  0.00    -0.390 OA
ATOM     51  H12 UNL     1     -25.724  31.584  40.590  1.00  0.00     0.210 HD
ENDBRANCH  34  50
ENDBRANCH  29  30
ENDBRANCH  28  29
ENDBRANCH   1  28
TORSDOF 15
ENDMDL
