MODEL 2
REMARK VINA RESULT: -9.787141798      2.144      3.490
REMARK  15 active torsions:
REMARK  status: ('A' for Active; 'I' for Inactive)
REMARK    1  A    between atoms: C1_2  and  C2_4 
REMARK    2  A    between atoms: C6_8  and  C7_9 
REMARK    3  A    between atoms: C8_11  and  C9_12 
REMARK    4  A    between atoms: C9_12  and  O3_13 
REMARK    5  A    between atoms: O3_13  and  P1_14 
REMARK    6  A    between atoms: P1_14  and  O6_17 
REMARK    7  A    between atoms: O6_17  and  P2_18 
REMARK    8  A    between atoms: P2_18  and  O9_21 
REMARK    9  A    between atoms: O9_21  and  C10_22 
REMARK   10  A    between atoms: C10_22  and  C11_23 
REMARK   11  A    between atoms: C12_25  and  N2_26 
REMARK   12  A    between atoms: C18_39  and  O11_40 
REMARK   13  A    between atoms: C19_42  and  O12_43 
REMARK   14  A    between atoms: C20_45  and  O13_46 
REMARK   15  A    between atoms: C21_48  and  O14_49 
ROOT
HETATM    1  P2  UNL     1     -21.715  24.480  34.848  1.00  0.00     0.417 P 
HETATM    2  O7  UNL     1     -20.498  23.890  35.785  1.00  0.00    -0.624 OA
HETATM    3  O8  UNL     1     -22.408  23.477  33.727  1.00  0.00    -0.624 OA
ENDROOT
BRANCH   1   4
HETATM    4  O6  UNL     1     -20.737  24.999  33.795  1.00  0.00    -0.180 OA
BRANCH   4   5
HETATM    5  P1  UNL     1     -19.232  25.132  33.996  1.00  0.00     0.417 P 
HETATM    6  O4  UNL     1     -18.906  23.674  33.313  1.00  0.00    -0.624 OA
HETATM    7  O5  UNL     1     -19.245  26.471  33.026  1.00  0.00    -0.624 OA
BRANCH   5   8
HETATM    8  O3  UNL     1     -17.730  25.406  34.289  1.00  0.00    -0.287 OA
BRANCH   8   9
HETATM    9  C9  UNL     1     -17.358  25.717  35.606  1.00  0.00     0.216 C 
BRANCH   9  10
HETATM   10  C8  UNL     1     -17.128  24.510  36.431  1.00  0.00     0.178 C 
HETATM   11  O2  UNL     1     -15.759  24.298  36.567  1.00  0.00    -0.368 OA
HETATM   12  C7  UNL     1     -15.678  23.562  37.721  1.00  0.00     0.186 C 
HETATM   13  C21 UNL     1     -16.505  24.419  38.689  1.00  0.00     0.182 C 
HETATM   14  C20 UNL     1     -17.700  24.735  37.801  1.00  0.00     0.180 C 
BRANCH  12  15
HETATM   15  C6  UNL     1     -14.293  23.404  38.226  1.00  0.00    -0.026 A 
HETATM   16  C5  UNL     1     -13.967  22.209  38.832  1.00  0.00     0.010 A 
HETATM   17  C4  UNL     1     -12.687  21.975  39.335  1.00  0.00     0.002 A 
HETATM   18  C3  UNL     1     -11.740  22.975  39.216  1.00  0.00     0.016 A 
HETATM   19  C2  UNL     1     -12.101  24.157  38.605  1.00  0.00     0.029 A 
HETATM   20  C22 UNL     1     -13.360  24.388  38.110  1.00  0.00     0.026 A 
BRANCH  19  21
HETATM   21  C1  UNL     1     -11.083  25.206  38.487  1.00  0.00     0.265 C 
HETATM   22  N1  UNL     1     -11.210  26.420  39.219  1.00  0.00    -0.057 NA
HETATM   23  O1  UNL     1     -10.077  25.081  37.750  1.00  0.00    -0.271 OA
ENDBRANCH  19  21
ENDBRANCH  12  15
BRANCH  13  24
HETATM   24  O14 UNL     1     -16.885  23.675  39.794  1.00  0.00    -0.390 OA
ATOM     25  H14 UNL     1     -16.155  23.570  40.393  1.00  0.00     0.210 HD
ENDBRANCH  13  24
BRANCH  14  26
HETATM   26  O13 UNL     1     -18.675  23.776  38.109  1.00  0.00    -0.390 OA
ATOM     27  H13 UNL     1     -19.244  24.075  38.810  1.00  0.00     0.210 HD
ENDBRANCH  14  26
ENDBRANCH   9  10
ENDBRANCH   8   9
ENDBRANCH   5   8
ENDBRANCH   4   5
ENDBRANCH   1   4
BRANCH   1  28
HETATM   28  O9  UNL     1     -22.258  26.003  35.120  1.00  0.00    -0.287 OA
BRANCH  28  29
HETATM   29  C10 UNL     1     -23.595  26.045  35.297  1.00  0.00     0.216 C 
BRANCH  29  30
HETATM   30  C11 UNL     1     -23.925  26.908  36.492  1.00  0.00     0.180 C 
HETATM   31  O10 UNL     1     -23.117  26.532  37.551  1.00  0.00    -0.353 OA
HETATM   32  C12 UNL     1     -23.022  27.618  38.402  1.00  0.00     0.262 C 
HETATM   33  C18 UNL     1     -23.103  28.856  37.532  1.00  0.00     0.198 C 
HETATM   34  C19 UNL     1     -23.729  28.366  36.249  1.00  0.00     0.182 C 
BRANCH  32  35
HETATM   35  N2  UNL     1     -21.748  27.567  39.100  1.00  0.00    -0.297 N 
HETATM   36  C13 UNL     1     -20.857  28.549  39.327  1.00  0.00     0.188 A 
HETATM   37  N3  UNL     1     -19.796  28.068  40.023  1.00  0.00    -0.346 N 
HETATM   38  C14 UNL     1     -19.991  26.776  40.250  1.00  0.00     0.119 A 
ATOM     39  H3  UNL     1     -18.984  28.609  40.321  1.00  0.00     0.167 HD
HETATM   40  C15 UNL     1     -19.239  25.810  40.903  1.00  0.00     0.148 A 
HETATM   41  C17 UNL     1     -21.204  26.461  39.678  1.00  0.00     0.142 A 
HETATM   42  N4  UNL     1     -17.985  26.097  41.505  1.00  0.00    -0.080 NA
HETATM   43  N5  UNL     1     -19.768  24.571  40.937  1.00  0.00    -0.339 N 
HETATM   44  C16 UNL     1     -20.962  24.291  40.366  1.00  0.00     0.183 A 
ATOM     45  H5  UNL     1     -19.254  23.825  41.405  1.00  0.00     0.167 HD
HETATM   46  N6  UNL     1     -21.691  25.222  39.735  1.00  0.00    -0.336 N 
ATOM     47  H6  UNL     1     -22.589  24.990  39.312  1.00  0.00     0.168 HD
ENDBRANCH  32  35
BRANCH  33  48
HETATM   48  O11 UNL     1     -23.897  29.813  38.115  1.00  0.00    -0.388 OA
ATOM     49  H11 UNL     1     -23.416  30.624  38.235  1.00  0.00     0.210 HD
ENDBRANCH  33  48
BRANCH  34  50
HETATM   50  O12 UNL     1     -24.990  28.984  36.090  1.00  0.00    -0.390 OA
ATOM     51  H12 UNL     1     -25.432  28.605  35.339  1.00  0.00     0.210 HD
ENDBRANCH  34  50
ENDBRANCH  29  30
ENDBRANCH  28  29
ENDBRANCH   1  28
TORSDOF 15
ENDMDL
