MODEL 2
REMARK VINA RESULT: -7.466218765      1.223      1.968
REMARK  8 active torsions:
REMARK  status: ('A' for Active; 'I' for Inactive)
REMARK    1  A    between atoms: C2_2  and  O1_5 
REMARK    2  A    between atoms: O1_5  and  C5_6 
REMARK       I    between atoms: C5_6  and  N1_8 
REMARK    3  A    between atoms: C9_12  and  C10_13 
REMARK       I    between atoms: C10_13  and  N2_15 
REMARK    4  A    between atoms: C13_18  and  C14_19 
REMARK    5  A    between atoms: C13_18  and  C22_32 
REMARK       I    between atoms: C14_19  and  N3_21 
REMARK    6  A    between atoms: N3_21  and  C15_23 
REMARK    7  A    between atoms: C15_23  and  C16_24 
REMARK    8  A    between atoms: C15_23  and  C17_27 
ROOT
HETATM    1  C10 UNL     1     -17.642  37.117  -2.782  1.00  0.00     0.242 C 
HETATM    2  O3  UNL     1     -18.667  37.814  -3.032  1.00  0.00    -0.271 OA
HETATM    3  N2  UNL     1     -16.932  36.618  -3.901  1.00  0.00    -0.350 N 
HETATM    4  C11 UNL     1     -17.341  36.965  -5.253  1.00  0.00     0.127 C 
HETATM    5  C12 UNL     1     -16.153  37.643  -5.910  1.00  0.00     0.044 C 
HETATM    6  C13 UNL     1     -14.898  36.819  -5.815  1.00  0.00     0.071 C 
HETATM    7  C28 UNL     1     -15.074  35.552  -5.080  1.00  0.00     0.044 C 
HETATM    8  C29 UNL     1     -15.815  35.749  -3.753  1.00  0.00     0.127 C 
ENDROOT
BRANCH   6   9
HETATM    9  C14 UNL     1     -13.778  37.621  -5.138  1.00  0.00     0.235 C 
HETATM   10  O4  UNL     1     -13.728  38.813  -5.386  1.00  0.00    -0.272 OA
HETATM   11  N3  UNL     1     -12.894  36.974  -4.301  1.00  0.00    -0.324 N 
ATOM     12  H3  UNL     1     -13.096  35.981  -4.188  1.00  0.00     0.169 HD
BRANCH  11  13
HETATM   13  C15 UNL     1     -11.759  37.406  -3.564  1.00  0.00     0.093 C 
BRANCH  13  14
HETATM   14  C16 UNL     1     -12.121  37.740  -2.154  1.00  0.00     0.223 C 
HETATM   15  O5  UNL     1     -11.390  37.239  -1.239  1.00  0.00    -0.643 OA
HETATM   16  O6  UNL     1     -13.160  38.530  -1.760  1.00  0.00    -0.643 OA
ENDBRANCH  13  14
BRANCH  13  17
HETATM   17  C17 UNL     1     -10.777  38.356  -4.181  1.00  0.00     0.043 C 
HETATM   18  C18 UNL     1      -9.391  37.814  -4.272  1.00  0.00     0.011 C 
HETATM   19  C19 UNL     1      -8.483  38.774  -3.463  1.00  0.00     0.001 C 
HETATM   20  C20 UNL     1      -9.245  40.092  -3.514  1.00  0.00     0.001 C 
HETATM   21  C21 UNL     1     -10.689  39.620  -3.338  1.00  0.00     0.011 C 
ENDBRANCH  13  17
ENDBRANCH  11  13
ENDBRANCH   6   9
BRANCH   6  22
HETATM   22  C22 UNL     1     -14.388  36.594  -7.179  1.00  0.00    -0.040 A 
HETATM   23  C23 UNL     1     -15.274  36.687  -8.272  1.00  0.00     0.010 A 
HETATM   24  C24 UNL     1     -14.855  36.488  -9.557  1.00  0.00     0.019 A 
HETATM   25  C25 UNL     1     -13.532  36.186  -9.804  1.00  0.00     0.011 A 
HETATM   26 BR1  UNL     1     -12.891  35.898 -11.586  1.00  0.00    -0.051 Br
HETATM   27  C26 UNL     1     -12.676  36.097  -8.742  1.00  0.00     0.019 A 
HETATM   28  C27 UNL     1     -13.076  36.295  -7.416  1.00  0.00     0.010 A 
ENDBRANCH   6  22
BRANCH   1  29
HETATM   29  C9  UNL     1     -17.171  36.817  -1.420  1.00  0.00     0.181 C 
HETATM   30  N1  UNL     1     -16.642  37.869  -0.646  1.00  0.00    -0.315 N 
HETATM   31  C5  UNL     1     -16.240  39.191  -0.862  1.00  0.00     0.364 C 
HETATM   32  C6  UNL     1     -16.550  37.280   0.726  1.00  0.00     0.129 C 
HETATM   33  O2  UNL     1     -16.273  39.759  -1.972  1.00  0.00    -0.238 OA
HETATM   34  C7  UNL     1     -18.020  36.819   0.807  1.00  0.00     0.022 C 
HETATM   35  C8  UNL     1     -18.259  36.212  -0.565  1.00  0.00     0.037 C 
BRANCH  31  36
HETATM   36  O1  UNL     1     -15.754  40.012   0.176  1.00  0.00    -0.294 OA
BRANCH  36  37
HETATM   37  C2  UNL     1     -16.454  41.056   0.768  1.00  0.00     0.061 C 
HETATM   38  C1  UNL     1     -15.704  41.387   2.069  1.00  0.00     0.046 C 
HETATM   39  C3  UNL     1     -17.847  40.595   1.204  1.00  0.00     0.046 C 
HETATM   40  C4  UNL     1     -16.529  42.332  -0.001  1.00  0.00     0.046 C 
ENDBRANCH  36  37
ENDBRANCH  31  36
ENDBRANCH   1  29
TORSDOF 8
ENDMDL
