MODEL 1
REMARK VINA RESULT: -8.597764230      0.000      0.000
REMARK  8 active torsions:
REMARK  status: ('A' for Active; 'I' for Inactive)
REMARK    1  A    between atoms: C2_2  and  O1_5 
REMARK    2  A    between atoms: O1_5  and  C5_6 
REMARK       I    between atoms: C5_6  and  N1_8 
REMARK    3  A    between atoms: C9_12  and  C10_13 
REMARK       I    between atoms: C10_13  and  N2_15 
REMARK    4  A    between atoms: C13_18  and  C14_19 
REMARK    5  A    between atoms: C13_18  and  C22_32 
REMARK       I    between atoms: C14_19  and  N3_21 
REMARK    6  A    between atoms: N3_21  and  C15_23 
REMARK    7  A    between atoms: C15_23  and  C16_24 
REMARK    8  A    between atoms: C15_23  and  C17_27 
ROOT
HETATM    1  C10 UNL     1     -17.324  36.471  -2.929  1.00  0.00     0.242 C 
HETATM    2  O3  UNL     1     -18.477  36.937  -3.159  1.00  0.00    -0.271 OA
HETATM    3  N2  UNL     1     -16.561  36.090  -4.060  1.00  0.00    -0.350 N 
HETATM    4  C11 UNL     1     -17.075  36.303  -5.405  1.00  0.00     0.127 C 
HETATM    5  C12 UNL     1     -16.070  37.186  -6.121  1.00  0.00     0.044 C 
HETATM    6  C13 UNL     1     -14.671  36.637  -6.051  1.00  0.00     0.071 C 
HETATM    7  C28 UNL     1     -14.563  35.386  -5.279  1.00  0.00     0.044 C 
HETATM    8  C29 UNL     1     -15.287  35.472  -3.931  1.00  0.00     0.127 C 
ENDROOT
BRANCH   6   9
HETATM    9  C14 UNL     1     -13.718  37.672  -5.437  1.00  0.00     0.235 C 
HETATM   10  O4  UNL     1     -13.867  38.830  -5.783  1.00  0.00    -0.272 OA
HETATM   11  N3  UNL     1     -12.755  37.256  -4.543  1.00  0.00    -0.324 N 
ATOM     12  H3  UNL     1     -12.787  36.255  -4.348  1.00  0.00     0.169 HD
BRANCH  11  13
HETATM   13  C15 UNL     1     -11.725  37.935  -3.837  1.00  0.00     0.093 C 
BRANCH  13  14
HETATM   14  C16 UNL     1     -10.421  37.850  -4.560  1.00  0.00     0.223 C 
HETATM   15  O5  UNL     1     -10.274  36.877  -5.367  1.00  0.00    -0.643 OA
HETATM   16  O6  UNL     1      -9.378  38.718  -4.432  1.00  0.00    -0.643 OA
ENDBRANCH  13  14
BRANCH  13  17
HETATM   17  C17 UNL     1     -11.607  37.784  -2.350  1.00  0.00     0.043 C 
HETATM   18  C18 UNL     1     -10.411  37.006  -1.918  1.00  0.00     0.011 C 
HETATM   19  C19 UNL     1     -10.937  35.785  -1.122  1.00  0.00     0.001 C 
HETATM   20  C20 UNL     1     -12.286  36.268  -0.605  1.00  0.00     0.001 C 
HETATM   21  C21 UNL     1     -12.820  37.040  -1.813  1.00  0.00     0.011 C 
ENDBRANCH  13  17
ENDBRANCH  11  13
ENDBRANCH   6   9
BRANCH   6  22
HETATM   22  C22 UNL     1     -14.168  36.477  -7.427  1.00  0.00    -0.040 A 
HETATM   23  C23 UNL     1     -15.067  36.585  -8.509  1.00  0.00     0.010 A 
HETATM   24  C24 UNL     1     -14.654  36.444  -9.804  1.00  0.00     0.019 A 
HETATM   25  C25 UNL     1     -13.325  36.188 -10.072  1.00  0.00     0.011 A 
HETATM   26 BR1  UNL     1     -12.694  35.983 -11.869  1.00  0.00    -0.051 Br
HETATM   27  C26 UNL     1     -12.458  36.085  -9.021  1.00  0.00     0.019 A 
HETATM   28  C27 UNL     1     -12.851  36.223  -7.686  1.00  0.00     0.010 A 
ENDBRANCH   6  22
BRANCH   1  29
HETATM   29  C9  UNL     1     -16.760  36.317  -1.578  1.00  0.00     0.181 C 
HETATM   30  N1  UNL     1     -16.374  37.477  -0.876  1.00  0.00    -0.315 N 
HETATM   31  C5  UNL     1     -16.193  38.832  -1.169  1.00  0.00     0.364 C 
HETATM   32  C6  UNL     1     -16.139  36.979   0.514  1.00  0.00     0.129 C 
HETATM   33  O2  UNL     1     -16.357  39.331  -2.300  1.00  0.00    -0.238 OA
HETATM   34  C7  UNL     1     -17.514  36.302   0.683  1.00  0.00     0.022 C 
HETATM   35  C8  UNL     1     -17.708  35.596  -0.648  1.00  0.00     0.037 C 
BRANCH  31  36
HETATM   36  O1  UNL     1     -15.803  39.770  -0.192  1.00  0.00    -0.294 OA
BRANCH  36  37
HETATM   37  C2  UNL     1     -16.666  40.585   0.529  1.00  0.00     0.061 C 
HETATM   38  C1  UNL     1     -16.539  41.989  -0.086  1.00  0.00     0.046 C 
HETATM   39  C3  UNL     1     -16.193  40.727   1.978  1.00  0.00     0.046 C 
HETATM   40  C4  UNL     1     -18.116  40.240   0.471  1.00  0.00     0.046 C 
ENDBRANCH  36  37
ENDBRANCH  31  36
ENDBRANCH   1  29
TORSDOF 8
ENDMDL
