MODEL 3
REMARK VINA RESULT: -7.268112346      3.235      6.583
REMARK  8 active torsions:
REMARK  status: ('A' for Active; 'I' for Inactive)
REMARK    1  A    between atoms: C2_2  and  O1_5 
REMARK    2  A    between atoms: O1_5  and  C5_6 
REMARK       I    between atoms: C5_6  and  N1_8 
REMARK    3  A    between atoms: C9_12  and  C10_13 
REMARK       I    between atoms: C10_13  and  N2_15 
REMARK    4  A    between atoms: C13_18  and  C14_19 
REMARK    5  A    between atoms: C13_18  and  C22_32 
REMARK       I    between atoms: C14_19  and  N3_21 
REMARK    6  A    between atoms: N3_21  and  C15_23 
REMARK    7  A    between atoms: C15_23  and  C16_24 
REMARK    8  A    between atoms: C15_23  and  C17_27 
ROOT
HETATM    1  C10 UNL     1     -16.959  35.111   0.463  1.00  0.00     0.242 C 
HETATM    2  O3  UNL     1     -16.535  34.235   1.271  1.00  0.00    -0.271 OA
HETATM    3  N2  UNL     1     -15.996  36.012  -0.052  1.00  0.00    -0.350 N 
HETATM    4  C11 UNL     1     -14.590  35.869   0.293  1.00  0.00     0.127 C 
HETATM    5  C12 UNL     1     -13.836  35.695  -1.013  1.00  0.00     0.044 C 
HETATM    6  C13 UNL     1     -14.143  36.784  -2.003  1.00  0.00     0.071 C 
HETATM    7  C28 UNL     1     -15.130  37.767  -1.517  1.00  0.00     0.044 C 
HETATM    8  C29 UNL     1     -16.360  37.095  -0.899  1.00  0.00     0.127 C 
ENDROOT
BRANCH   6   9
HETATM    9  C14 UNL     1     -14.660  36.185  -3.318  1.00  0.00     0.235 C 
HETATM   10  O4  UNL     1     -14.888  34.988  -3.325  1.00  0.00    -0.272 OA
HETATM   11  N3  UNL     1     -14.837  37.006  -4.411  1.00  0.00    -0.324 N 
ATOM     12  H3  UNL     1     -14.620  37.985  -4.223  1.00  0.00     0.169 HD
BRANCH  11  13
HETATM   13  C15 UNL     1     -15.260  36.770  -5.747  1.00  0.00     0.093 C 
BRANCH  13  14
HETATM   14  C16 UNL     1     -16.720  36.462  -5.810  1.00  0.00     0.223 C 
HETATM   15  O5  UNL     1     -17.512  37.454  -5.918  1.00  0.00    -0.643 OA
HETATM   16  O6  UNL     1     -17.279  35.219  -5.760  1.00  0.00    -0.643 OA
ENDBRANCH  13  14
BRANCH  13  17
HETATM   17  C17 UNL     1     -14.423  35.931  -6.665  1.00  0.00     0.043 C 
HETATM   18  C18 UNL     1     -12.958  36.183  -6.541  1.00  0.00     0.011 C 
HETATM   19  C19 UNL     1     -12.466  36.644  -7.936  1.00  0.00     0.001 C 
HETATM   20  C20 UNL     1     -13.485  36.023  -8.882  1.00  0.00     0.001 C 
HETATM   21  C21 UNL     1     -14.789  36.231  -8.110  1.00  0.00     0.011 C 
ENDBRANCH  13  17
ENDBRANCH  11  13
ENDBRANCH   6   9
BRANCH   6  22
HETATM   22  C22 UNL     1     -12.875  37.427  -2.391  1.00  0.00    -0.040 A 
HETATM   23  C23 UNL     1     -11.670  36.988  -1.805  1.00  0.00     0.010 A 
HETATM   24  C24 UNL     1     -10.466  37.550  -2.128  1.00  0.00     0.019 A 
HETATM   25  C25 UNL     1     -10.417  38.575  -3.050  1.00  0.00     0.011 A 
HETATM   26 BR1  UNL     1      -8.757  39.397  -3.538  1.00  0.00    -0.051 Br
HETATM   27  C26 UNL     1     -11.588  38.998  -3.615  1.00  0.00     0.019 A 
HETATM   28  C27 UNL     1     -12.834  38.443  -3.304  1.00  0.00     0.010 A 
ENDBRANCH   6  22
BRANCH   1  29
HETATM   29  C9  UNL     1     -18.366  35.224   0.047  1.00  0.00     0.181 C 
HETATM   30  N1  UNL     1     -18.953  34.139  -0.635  1.00  0.00    -0.315 N 
HETATM   31  C5  UNL     1     -18.514  32.956  -1.237  1.00  0.00     0.364 C 
HETATM   32  C6  UNL     1     -20.411  34.474  -0.633  1.00  0.00     0.129 C 
HETATM   33  O2  UNL     1     -17.319  32.602  -1.294  1.00  0.00    -0.238 OA
HETATM   34  C7  UNL     1     -20.529  34.685   0.891  1.00  0.00     0.022 C 
HETATM   35  C8  UNL     1     -19.283  35.490   1.218  1.00  0.00     0.037 C 
BRANCH  31  36
HETATM   36  O1  UNL     1     -19.401  32.041  -1.841  1.00  0.00    -0.294 OA
BRANCH  36  37
HETATM   37  C2  UNL     1     -19.705  31.991  -3.195  1.00  0.00     0.061 C 
HETATM   38  C1  UNL     1     -21.195  31.625  -3.284  1.00  0.00     0.046 C 
HETATM   39  C3  UNL     1     -18.958  30.841  -3.875  1.00  0.00     0.046 C 
HETATM   40  C4  UNL     1     -19.545  33.260  -3.963  1.00  0.00     0.046 C 
ENDBRANCH  36  37
ENDBRANCH  31  36
ENDBRANCH   1  29
TORSDOF 8
ENDMDL
