MODEL 1
REMARK VINA RESULT: -8.069085699      0.000      0.000
REMARK  5 active torsions:
REMARK  status: ('A' for Active; 'I' for Inactive)
REMARK    1  A    between atoms: C2_2  and  C3_4 
REMARK    2  A    between atoms: C4_5  and  C5_6 
REMARK    3  A    between atoms: C6_7  and  C8_9 
REMARK    4  A    between atoms: C8_9  and  C9_10 
REMARK    5  A    between atoms: C9_10  and  C10_11 
ROOT
HETATM    1  C5  UNL     1       7.794   6.353  24.901  1.00  0.00     0.002 C 
HETATM    2  C6  UNL     1       7.841   5.171  24.314  1.00  0.00    -0.084 C 
HETATM    3  C7  UNL     1       6.627   4.620  23.679  1.00  0.00     0.043 C 
ENDROOT
BRANCH   2   4
HETATM    4  C8  UNL     1       9.124   4.427  24.314  1.00  0.00     0.037 C 
BRANCH   4   5
HETATM    5  C9  UNL     1       9.399   3.838  22.923  1.00  0.00     0.031 C 
BRANCH   5   6
HETATM    6  C10 UNL     1      10.863   3.903  22.683  1.00  0.00    -0.024 C 
HETATM    7  C11 UNL     1      11.635   2.837  22.635  1.00  0.00    -0.091 C 
HETATM    8  C12 UNL     1      11.048   1.494  22.823  1.00  0.00     0.042 C 
HETATM    9  C13 UNL     1      13.087   2.955  22.393  1.00  0.00     0.042 C 
ENDBRANCH   5   6
ENDBRANCH   4   5
ENDBRANCH   2   4
BRANCH   1  10
HETATM   10  C4  UNL     1       6.549   7.123  24.927  1.00  0.00     0.004 C 
HETATM   11  C3  UNL     1       6.204   7.698  26.073  1.00  0.00     0.049 C 
BRANCH  11  12
HETATM   12  C2  UNL     1       4.976   8.472  26.145  1.00  0.00     0.145 C 
HETATM   13  C1  UNL     1       4.824   9.563  27.124  1.00  0.00     0.096 C 
HETATM   14  O1  UNL     1       4.015   8.226  25.368  1.00  0.00    -0.294 OA
ENDBRANCH  11  12
ENDBRANCH   1  10
TORSDOF 5
ENDMDL
