MODEL 4
REMARK VINA RESULT: -7.652496387      1.037      1.437
REMARK  5 active torsions:
REMARK  status: ('A' for Active; 'I' for Inactive)
REMARK    1  A    between atoms: C2_2  and  C3_4 
REMARK    2  A    between atoms: C4_5  and  C5_6 
REMARK    3  A    between atoms: C6_7  and  C8_9 
REMARK    4  A    between atoms: C8_9  and  C9_10 
REMARK    5  A    between atoms: C9_10  and  C10_11 
ROOT
HETATM    1  C5  UNL     1       7.767   6.501  25.316  1.00  0.00     0.002 C 
HETATM    2  C6  UNL     1       7.824   5.325  24.719  1.00  0.00    -0.084 C 
HETATM    3  C7  UNL     1       6.697   4.877  23.875  1.00  0.00     0.043 C 
ENDROOT
BRANCH   2   4
HETATM    4  C8  UNL     1       9.029   4.484  24.917  1.00  0.00     0.037 C 
BRANCH   4   5
HETATM    5  C9  UNL     1       9.564   3.990  23.565  1.00  0.00     0.031 C 
BRANCH   5   6
HETATM    6  C10 UNL     1      10.205   5.140  22.880  1.00  0.00    -0.024 C 
HETATM    7  C11 UNL     1      11.441   5.114  22.426  1.00  0.00    -0.091 C 
HETATM    8  C12 UNL     1      12.258   3.893  22.588  1.00  0.00     0.042 C 
HETATM    9  C13 UNL     1      12.033   6.287  21.752  1.00  0.00     0.042 C 
ENDBRANCH   5   6
ENDBRANCH   4   5
ENDBRANCH   2   4
BRANCH   1  10
HETATM   10  C4  UNL     1       6.597   7.365  25.150  1.00  0.00     0.004 C 
HETATM   11  C3  UNL     1       6.000   7.812  26.249  1.00  0.00     0.049 C 
BRANCH  11  12
HETATM   12  C2  UNL     1       4.835   8.672  26.132  1.00  0.00     0.145 C 
HETATM   13  C1  UNL     1       4.676   9.856  26.996  1.00  0.00     0.096 C 
HETATM   14  O1  UNL     1       3.935   8.424  25.286  1.00  0.00    -0.294 OA
ENDBRANCH  11  12
ENDBRANCH   1  10
TORSDOF 5
ENDMDL
