MODEL 7
REMARK VINA RESULT: -7.432830403      2.509      7.536
REMARK  5 active torsions:
REMARK  status: ('A' for Active; 'I' for Inactive)
REMARK    1  A    between atoms: C2_2  and  C3_4 
REMARK    2  A    between atoms: C4_5  and  C5_6 
REMARK    3  A    between atoms: C6_7  and  C8_9 
REMARK    4  A    between atoms: C8_9  and  C9_10 
REMARK    5  A    between atoms: C9_10  and  C10_11 
ROOT
HETATM    1  C5  UNL     1       7.749   6.131  24.545  1.00  0.00     0.002 C 
HETATM    2  C6  UNL     1       6.489   6.065  24.159  1.00  0.00    -0.084 C 
HETATM    3  C7  UNL     1       5.985   4.837  23.510  1.00  0.00     0.043 C 
ENDROOT
BRANCH   2   4
HETATM    4  C8  UNL     1       5.611   7.238  24.389  1.00  0.00     0.037 C 
BRANCH   4   5
HETATM    5  C9  UNL     1       5.933   7.888  25.743  1.00  0.00     0.031 C 
BRANCH   5   6
HETATM    6  C10 UNL     1       4.805   8.786  26.097  1.00  0.00    -0.024 C 
HETATM    7  C11 UNL     1       4.786   9.530  27.183  1.00  0.00    -0.091 C 
HETATM    8  C12 UNL     1       5.931   9.495  28.117  1.00  0.00     0.042 C 
HETATM    9  C13 UNL     1       3.638  10.407  27.490  1.00  0.00     0.042 C 
ENDBRANCH   5   6
ENDBRANCH   4   5
ENDBRANCH   2   4
BRANCH   1  10
HETATM   10  C4  UNL     1       8.653   4.999  24.336  1.00  0.00     0.004 C 
HETATM   11  C3  UNL     1       9.574   5.112  23.387  1.00  0.00     0.049 C 
BRANCH  11  12
HETATM   12  C2  UNL     1      10.493   4.012  23.145  1.00  0.00     0.145 C 
HETATM   13  C1  UNL     1      11.909   4.264  22.822  1.00  0.00     0.096 C 
HETATM   14  O1  UNL     1      10.097   2.818  23.209  1.00  0.00    -0.294 OA
ENDBRANCH  11  12
ENDBRANCH   1  10
TORSDOF 5
ENDMDL
