MODEL 6
REMARK VINA RESULT: -7.555154662      2.855      7.181
REMARK  5 active torsions:
REMARK  status: ('A' for Active; 'I' for Inactive)
REMARK    1  A    between atoms: C2_2  and  C3_4 
REMARK    2  A    between atoms: C4_5  and  C5_6 
REMARK    3  A    between atoms: C6_7  and  C8_9 
REMARK    4  A    between atoms: C8_9  and  C9_10 
REMARK    5  A    between atoms: C9_10  and  C10_11 
ROOT
HETATM    1  C5  UNL     1       8.407   4.314  23.353  1.00  0.00     0.002 C 
HETATM    2  C6  UNL     1       7.813   4.816  24.419  1.00  0.00    -0.084 C 
HETATM    3  C7  UNL     1       8.537   4.861  25.707  1.00  0.00     0.043 C 
ENDROOT
BRANCH   2   4
HETATM    4  C8  UNL     1       6.426   5.323  24.290  1.00  0.00     0.037 C 
BRANCH   4   5
HETATM    5  C9  UNL     1       6.421   6.857  24.222  1.00  0.00     0.031 C 
BRANCH   5   6
HETATM    6  C10 UNL     1       5.707   7.364  25.420  1.00  0.00    -0.024 C 
HETATM    7  C11 UNL     1       6.304   8.022  26.393  1.00  0.00    -0.091 C 
HETATM    8  C12 UNL     1       7.756   8.288  26.318  1.00  0.00     0.042 C 
HETATM    9  C13 UNL     1       5.547   8.506  27.565  1.00  0.00     0.042 C 
ENDBRANCH   5   6
ENDBRANCH   4   5
ENDBRANCH   2   4
BRANCH   1  10
HETATM   10  C4  UNL     1       9.775   3.801  23.433  1.00  0.00     0.004 C 
HETATM   11  C3  UNL     1      10.682   4.331  22.621  1.00  0.00     0.049 C 
BRANCH  11  12
HETATM   12  C2  UNL     1      12.053   3.853  22.667  1.00  0.00     0.145 C 
HETATM   13  C1  UNL     1      12.378   2.451  22.347  1.00  0.00     0.096 C 
HETATM   14  O1  UNL     1      12.994   4.629  22.980  1.00  0.00    -0.294 OA
ENDBRANCH  11  12
ENDBRANCH   1  10
TORSDOF 5
ENDMDL
