MODEL 3
REMARK VINA RESULT: -7.781509969      1.347      1.865
REMARK  5 active torsions:
REMARK  status: ('A' for Active; 'I' for Inactive)
REMARK    1  A    between atoms: C2_2  and  C3_4 
REMARK    2  A    between atoms: C4_5  and  C5_6 
REMARK    3  A    between atoms: C6_7  and  C8_9 
REMARK    4  A    between atoms: C8_9  and  C9_10 
REMARK    5  A    between atoms: C9_10  and  C10_11 
ROOT
HETATM    1  C5  UNL     1       7.185   5.848  24.237  1.00  0.00     0.002 C 
HETATM    2  C6  UNL     1       8.056   4.911  24.561  1.00  0.00    -0.084 C 
HETATM    3  C7  UNL     1       8.630   4.883  25.922  1.00  0.00     0.043 C 
ENDROOT
BRANCH   2   4
HETATM    4  C8  UNL     1       8.436   3.908  23.537  1.00  0.00     0.037 C 
BRANCH   4   5
HETATM    5  C9  UNL     1       9.964   3.827  23.409  1.00  0.00     0.031 C 
BRANCH   5   6
HETATM    6  C10 UNL     1      10.428   5.053  22.712  1.00  0.00    -0.024 C 
HETATM    7  C11 UNL     1      11.686   5.264  22.379  1.00  0.00    -0.091 C 
HETATM    8  C12 UNL     1      12.711   4.249  22.700  1.00  0.00     0.042 C 
HETATM    9  C13 UNL     1      12.095   6.501  21.686  1.00  0.00     0.042 C 
ENDBRANCH   5   6
ENDBRANCH   4   5
ENDBRANCH   2   4
BRANCH   1  10
HETATM   10  C4  UNL     1       6.781   6.859  25.215  1.00  0.00     0.004 C 
HETATM   11  C3  UNL     1       5.582   7.413  25.071  1.00  0.00     0.049 C 
BRANCH  11  12
HETATM   12  C2  UNL     1       5.140   8.422  26.018  1.00  0.00     0.145 C 
HETATM   13  C1  UNL     1       5.935   8.735  27.219  1.00  0.00     0.096 C 
HETATM   14  O1  UNL     1       4.065   9.052  25.831  1.00  0.00    -0.294 OA
ENDBRANCH  11  12
ENDBRANCH   1  10
TORSDOF 5
ENDMDL
