MODEL 3
REMARK VINA RESULT: -7.471040428      3.906      8.985
REMARK  10 active torsions:
REMARK  status: ('A' for Active; 'I' for Inactive)
REMARK    1  A    between atoms: N5_13  and  C6_14 
REMARK    2  A    between atoms: C7_16  and  C8_17 
REMARK    3  A    between atoms: C8_17  and  S1_18 
REMARK    4  A    between atoms: S1_18  and  C9_19 
REMARK    5  A    between atoms: C9_19  and  C10_20 
REMARK    6  A    between atoms: C10_20  and  C11_21 
REMARK    7  A    between atoms: C11_21  and  N6_22 
REMARK    8  A    between atoms: C11_21  and  C12_26 
REMARK    9  A    between atoms: C13_29  and  O4_30 
REMARK   10  A    between atoms: C14_32  and  O5_33 
ROOT
HETATM    1  C6  UNL     1      -7.270  16.468 -15.821  1.00  0.00     0.262 C 
HETATM    2  O1  UNL     1      -7.363  15.525 -16.860  1.00  0.00    -0.355 OA
HETATM    3  C7  UNL     1      -6.241  14.699 -16.663  1.00  0.00     0.165 C 
HETATM    4  C13 UNL     1      -6.123  14.549 -15.167  1.00  0.00     0.180 C 
HETATM    5  C14 UNL     1      -7.146  15.538 -14.652  1.00  0.00     0.198 C 
ENDROOT
BRANCH   1   6
HETATM    6  N5  UNL     1      -8.412  17.324 -15.810  1.00  0.00    -0.297 N 
HETATM    7  C3  UNL     1      -8.535  18.451 -15.089  1.00  0.00     0.142 A 
HETATM    8  N3  UNL     1      -7.725  19.089 -14.229  1.00  0.00    -0.336 N 
HETATM    9  C4  UNL     1      -9.798  18.967 -15.384  1.00  0.00     0.119 A 
HETATM   10  C2  UNL     1      -8.162  20.224 -13.664  1.00  0.00     0.183 A 
ATOM     11  H3  UNL     1      -6.800  18.719 -14.010  1.00  0.00     0.168 HD
HETATM   12  N2  UNL     1      -9.370  20.735 -13.933  1.00  0.00    -0.339 N 
HETATM   13  C1  UNL     1     -10.201  20.122 -14.788  1.00  0.00     0.148 A 
ATOM     14  H2  UNL     1      -9.662  21.602 -13.481  1.00  0.00     0.167 HD
HETATM   15  N1  UNL     1     -11.490  20.670 -15.074  1.00  0.00    -0.080 NA
HETATM   16  N4  UNL     1     -10.361  18.109 -16.271  1.00  0.00    -0.346 N 
HETATM   17  C5  UNL     1      -9.528  17.110 -16.535  1.00  0.00     0.188 A 
ATOM     18  H4  UNL     1     -11.290  18.216 -16.676  1.00  0.00     0.167 HD
ENDBRANCH   1   6
BRANCH   5  19
HETATM   19  O5  UNL     1      -6.728  16.152 -13.481  1.00  0.00    -0.388 OA
ATOM     20  H5  UNL     1      -5.908  15.817 -13.138  1.00  0.00     0.210 HD
ENDBRANCH   5  19
BRANCH   3  21
HETATM   21  C8  UNL     1      -6.534  13.353 -17.254  1.00  0.00     0.108 C 
BRANCH  21  22
HETATM   22  S1  UNL     1      -8.090  13.130 -18.049  1.00  0.00    -0.166 SA
BRANCH  22  23
HETATM   23  C9  UNL     1      -9.234  12.038 -17.258  1.00  0.00     0.076 C 
BRANCH  23  24
HETATM   24  C10 UNL     1      -9.088  10.600 -17.663  1.00  0.00     0.054 C 
BRANCH  24  25
HETATM   25  C11 UNL     1     -10.301   9.812 -17.310  1.00  0.00     0.284 C 
BRANCH  25  26
HETATM   26  N6  UNL     1     -10.610   9.849 -15.916  1.00  0.00    -0.065 N 
ATOM     27  H63 UNL     1     -10.201  10.673 -15.475  1.00  0.00     0.275 HD
ATOM     28  H62 UNL     1     -11.598  10.053 -15.768  1.00  0.00     0.275 HD
ATOM     29  H61 UNL     1     -10.338   8.999 -15.422  1.00  0.00     0.275 HD
ENDBRANCH  25  26
BRANCH  25  30
HETATM   30  C12 UNL     1     -10.253   8.420 -17.777  1.00  0.00     0.204 C 
HETATM   31  O2  UNL     1     -11.195   7.646 -17.520  1.00  0.00    -0.646 OA
HETATM   32  O3  UNL     1      -9.172   7.962 -18.498  1.00  0.00    -0.646 OA
ENDBRANCH  25  30
ENDBRANCH  24  25
ENDBRANCH  23  24
ENDBRANCH  22  23
ENDBRANCH  21  22
ENDBRANCH   3  21
BRANCH   4  33
HETATM   33  O4  UNL     1      -4.858  14.988 -14.731  1.00  0.00    -0.390 OA
ATOM     34  H4  UNL     1      -4.755  15.916 -14.905  1.00  0.00     0.210 HD
ENDBRANCH   4  33
TORSDOF 10
ENDMDL
