MODEL 15
REMARK VINA RESULT: -7.029137246      2.546      3.640
REMARK  10 active torsions:
REMARK  status: ('A' for Active; 'I' for Inactive)
REMARK    1  A    between atoms: N5_13  and  C6_14 
REMARK    2  A    between atoms: C7_16  and  C8_17 
REMARK    3  A    between atoms: C8_17  and  S1_18 
REMARK    4  A    between atoms: S1_18  and  C9_19 
REMARK    5  A    between atoms: C9_19  and  C10_20 
REMARK    6  A    between atoms: C10_20  and  C11_21 
REMARK    7  A    between atoms: C11_21  and  N6_22 
REMARK    8  A    between atoms: C11_21  and  C12_26 
REMARK    9  A    between atoms: C13_29  and  O4_30 
REMARK   10  A    between atoms: C14_32  and  O5_33 
ROOT
HETATM    1  C6  UNL     1      -8.309  13.350 -16.791  1.00  0.00     0.262 C 
HETATM    2  O1  UNL     1      -8.439  14.361 -15.822  1.00  0.00    -0.355 OA
HETATM    3  C7  UNL     1      -7.506  15.332 -16.226  1.00  0.00     0.165 C 
HETATM    4  C13 UNL     1      -7.593  15.357 -17.732  1.00  0.00     0.180 C 
HETATM    5  C14 UNL     1      -8.485  14.172 -18.033  1.00  0.00     0.198 C 
ENDROOT
BRANCH   1   6
HETATM    6  N5  UNL     1      -9.282  12.325 -16.588  1.00  0.00    -0.297 N 
HETATM    7  C3  UNL     1      -9.292  11.127 -17.195  1.00  0.00     0.142 A 
HETATM    8  N3  UNL     1      -8.488  10.546 -18.100  1.00  0.00    -0.336 N 
HETATM    9  C4  UNL     1     -10.406  10.448 -16.701  1.00  0.00     0.119 A 
HETATM   10  C2  UNL     1      -8.785   9.305 -18.513  1.00  0.00     0.183 A 
ATOM     11  H3  UNL     1      -7.671  11.035 -18.464  1.00  0.00     0.168 HD
HETATM   12  N2  UNL     1      -9.849   8.636 -18.052  1.00  0.00    -0.339 N 
HETATM   13  C1  UNL     1     -10.670   9.190 -17.147  1.00  0.00     0.148 A 
ATOM     14  H2  UNL     1     -10.039   7.693 -18.393  1.00  0.00     0.167 HD
HETATM   15  N1  UNL     1     -11.805   8.473 -16.656  1.00  0.00    -0.080 NA
HETATM   16  N4  UNL     1     -11.003  11.288 -15.819  1.00  0.00    -0.346 N 
HETATM   17  C5  UNL     1     -10.328  12.428 -15.744  1.00  0.00     0.188 A 
ATOM     18  H4  UNL     1     -11.848  11.074 -15.290  1.00  0.00     0.167 HD
ENDBRANCH   1   6
BRANCH   5  19
HETATM   19  O5  UNL     1      -8.109  13.524 -19.199  1.00  0.00    -0.388 OA
ATOM     20  H5  UNL     1      -7.890  14.109 -19.915  1.00  0.00     0.210 HD
ENDBRANCH   5  19
BRANCH   3  21
HETATM   21  C8  UNL     1      -7.952  16.665 -15.704  1.00  0.00     0.108 C 
BRANCH  21  22
HETATM   22  S1  UNL     1      -9.606  17.166 -16.049  1.00  0.00    -0.166 SA
BRANCH  22  23
HETATM   23  C9  UNL     1     -10.017  18.847 -15.687  1.00  0.00     0.076 C 
BRANCH  23  24
HETATM   24  C10 UNL     1      -8.946  19.592 -14.943  1.00  0.00     0.054 C 
BRANCH  24  25
HETATM   25  C11 UNL     1      -9.004  19.308 -13.483  1.00  0.00     0.284 C 
BRANCH  25  26
HETATM   26  N6  UNL     1     -10.293  19.543 -12.915  1.00  0.00    -0.065 N 
ATOM     27  H63 UNL     1     -10.547  20.529 -12.982  1.00  0.00     0.275 HD
ATOM     28  H62 UNL     1     -11.026  19.141 -13.500  1.00  0.00     0.275 HD
ATOM     29  H61 UNL     1     -10.375  19.211 -11.953  1.00  0.00     0.275 HD
ENDBRANCH  25  26
BRANCH  25  30
HETATM   30  C12 UNL     1      -7.977  20.017 -12.706  1.00  0.00     0.204 C 
HETATM   31  O2  UNL     1      -7.657  21.180 -13.017  1.00  0.00    -0.646 OA
HETATM   32  O3  UNL     1      -7.364  19.403 -11.636  1.00  0.00    -0.646 OA
ENDBRANCH  25  30
ENDBRANCH  24  25
ENDBRANCH  23  24
ENDBRANCH  22  23
ENDBRANCH  21  22
ENDBRANCH   3  21
BRANCH   4  33
HETATM   33  O4  UNL     1      -6.331  15.086 -18.297  1.00  0.00    -0.390 OA
ATOM     34  H4  UNL     1      -6.198  14.148 -18.370  1.00  0.00     0.210 HD
ENDBRANCH   4  33
TORSDOF 10
ENDMDL
