MODEL 11
REMARK VINA RESULT: -7.081765393      3.410      7.576
REMARK  10 active torsions:
REMARK  status: ('A' for Active; 'I' for Inactive)
REMARK    1  A    between atoms: N5_13  and  C6_14 
REMARK    2  A    between atoms: C7_16  and  C8_17 
REMARK    3  A    between atoms: C8_17  and  S1_18 
REMARK    4  A    between atoms: S1_18  and  C9_19 
REMARK    5  A    between atoms: C9_19  and  C10_20 
REMARK    6  A    between atoms: C10_20  and  C11_21 
REMARK    7  A    between atoms: C11_21  and  N6_22 
REMARK    8  A    between atoms: C11_21  and  C12_26 
REMARK    9  A    between atoms: C13_29  and  O4_30 
REMARK   10  A    between atoms: C14_32  and  O5_33 
ROOT
HETATM    1  C6  UNL     1      -9.949  19.061 -14.806  1.00  0.00     0.262 C 
HETATM    2  O1  UNL     1      -9.342  18.076 -15.604  1.00  0.00    -0.355 OA
HETATM    3  C7  UNL     1     -10.429  17.422 -16.212  1.00  0.00     0.165 C 
HETATM    4  C13 UNL     1     -11.416  18.517 -16.532  1.00  0.00     0.180 C 
HETATM    5  C14 UNL     1     -10.813  19.720 -15.839  1.00  0.00     0.198 C 
ENDROOT
BRANCH   1   6
HETATM    6  N5  UNL     1      -8.965  19.899 -14.199  1.00  0.00    -0.297 N 
HETATM    7  C3  UNL     1      -8.632  21.134 -14.609  1.00  0.00     0.142 A 
HETATM    8  N3  UNL     1      -9.056  21.918 -15.614  1.00  0.00    -0.336 N 
HETATM    9  C4  UNL     1      -7.642  21.582 -13.734  1.00  0.00     0.119 A 
HETATM   10  C2  UNL     1      -8.503  23.132 -15.752  1.00  0.00     0.183 A 
ATOM     11  H3  UNL     1      -9.780  21.598 -16.256  1.00  0.00     0.168 HD
HETATM   12  N2  UNL     1      -7.552  23.581 -14.923  1.00  0.00    -0.339 N 
HETATM   13  C1  UNL     1      -7.109  22.821 -13.910  1.00  0.00     0.148 A 
ATOM     14  H2  UNL     1      -7.159  24.512 -15.065  1.00  0.00     0.167 HD
HETATM   15  N1  UNL     1      -6.093  23.303 -13.027  1.00  0.00    -0.080 NA
HETATM   16  N4  UNL     1      -7.439  20.579 -12.844  1.00  0.00    -0.346 N 
HETATM   17  C5  UNL     1      -8.237  19.554 -13.119  1.00  0.00     0.188 A 
ATOM     18  H4  UNL     1      -6.769  20.607 -12.076  1.00  0.00     0.167 HD
ENDBRANCH   1   6
BRANCH   5  19
HETATM   19  O5  UNL     1     -11.787  20.556 -15.314  1.00  0.00    -0.388 OA
ATOM     20  H5  UNL     1     -12.625  20.500 -15.755  1.00  0.00     0.210 HD
ENDBRANCH   5  19
BRANCH   3  21
HETATM   21  C8  UNL     1      -9.958  16.816 -17.501  1.00  0.00     0.108 C 
BRANCH  21  22
HETATM   22  S1  UNL     1      -9.569  15.098 -17.502  1.00  0.00    -0.166 SA
BRANCH  22  23
HETATM   23  C9  UNL     1      -8.773  14.465 -16.055  1.00  0.00     0.076 C 
BRANCH  23  24
HETATM   24  C10 UNL     1      -7.330  14.102 -16.259  1.00  0.00     0.054 C 
BRANCH  24  25
HETATM   25  C11 UNL     1      -6.440  15.273 -16.033  1.00  0.00     0.284 C 
BRANCH  25  26
HETATM   26  N6  UNL     1      -6.991  16.232 -15.129  1.00  0.00    -0.065 N 
ATOM     27  H63 UNL     1      -7.726  15.814 -14.559  1.00  0.00     0.275 HD
ATOM     28  H62 UNL     1      -6.322  16.465 -14.395  1.00  0.00     0.275 HD
ATOM     29  H61 UNL     1      -7.326  17.076 -15.594  1.00  0.00     0.275 HD
ENDBRANCH  25  26
BRANCH  25  30
HETATM   30  C12 UNL     1      -6.018  15.938 -17.274  1.00  0.00     0.204 C 
HETATM   31  O2  UNL     1      -5.932  15.283 -18.330  1.00  0.00    -0.646 OA
HETATM   32  O3  UNL     1      -5.717  17.282 -17.278  1.00  0.00    -0.646 OA
ENDBRANCH  25  30
ENDBRANCH  24  25
ENDBRANCH  23  24
ENDBRANCH  22  23
ENDBRANCH  21  22
ENDBRANCH   3  21
BRANCH   4  33
HETATM   33  O4  UNL     1     -12.654  18.253 -15.913  1.00  0.00    -0.390 OA
ATOM     34  H4  UNL     1     -12.540  18.168 -14.974  1.00  0.00     0.210 HD
ENDBRANCH   4  33
TORSDOF 10
ENDMDL
