MODEL 10
REMARK VINA RESULT: -7.102705798      2.604      7.768
REMARK  10 active torsions:
REMARK  status: ('A' for Active; 'I' for Inactive)
REMARK    1  A    between atoms: N5_13  and  C6_14 
REMARK    2  A    between atoms: C7_16  and  C8_17 
REMARK    3  A    between atoms: C8_17  and  S1_18 
REMARK    4  A    between atoms: S1_18  and  C9_19 
REMARK    5  A    between atoms: C9_19  and  C10_20 
REMARK    6  A    between atoms: C10_20  and  C11_21 
REMARK    7  A    between atoms: C11_21  and  N6_22 
REMARK    8  A    between atoms: C11_21  and  C12_26 
REMARK    9  A    between atoms: C13_29  and  O4_30 
REMARK   10  A    between atoms: C14_32  and  O5_33 
ROOT
HETATM    1  C6  UNL     1     -10.024  19.073 -14.565  1.00  0.00     0.262 C 
HETATM    2  O1  UNL     1      -9.862  17.858 -13.877  1.00  0.00    -0.355 OA
HETATM    3  C7  UNL     1     -10.873  17.036 -14.407  1.00  0.00     0.165 C 
HETATM    4  C13 UNL     1     -10.918  17.369 -15.877  1.00  0.00     0.180 C 
HETATM    5  C14 UNL     1      -9.997  18.566 -15.976  1.00  0.00     0.198 C 
ENDROOT
BRANCH   1   6
HETATM    6  N5  UNL     1      -8.989  19.994 -14.221  1.00  0.00    -0.297 N 
HETATM    7  C3  UNL     1      -8.870  21.247 -14.691  1.00  0.00     0.142 A 
HETATM    8  N3  UNL     1      -9.597  21.983 -15.548  1.00  0.00    -0.336 N 
HETATM    9  C4  UNL     1      -7.729  21.782 -14.092  1.00  0.00     0.119 A 
HETATM   10  C2  UNL     1      -9.196  23.235 -15.811  1.00  0.00     0.183 A 
ATOM     11  H3  UNL     1     -10.433  21.599 -15.988  1.00  0.00     0.168 HD
HETATM   12  N2  UNL     1      -8.104  23.768 -15.248  1.00  0.00    -0.339 N 
HETATM   13  C1  UNL     1      -7.359  23.057 -14.387  1.00  0.00     0.148 A 
ATOM     14  H2  UNL     1      -7.835  24.725 -15.476  1.00  0.00     0.167 HD
HETATM   15  N1  UNL     1      -6.194  23.629 -13.787  1.00  0.00    -0.080 NA
HETATM   16  N4  UNL     1      -7.227  20.808 -13.293  1.00  0.00    -0.346 N 
HETATM   17  C5  UNL     1      -7.985  19.721 -13.365  1.00  0.00     0.188 A 
ATOM     18  H4  UNL     1      -6.389  20.899 -12.719  1.00  0.00     0.167 HD
ENDBRANCH   1   6
BRANCH   5  19
HETATM   19  O5  UNL     1     -10.440  19.483 -16.917  1.00  0.00    -0.388 OA
ATOM     20  H5  UNL     1     -11.305  19.297 -17.263  1.00  0.00     0.210 HD
ENDBRANCH   5  19
BRANCH   3  21
HETATM   21  C8  UNL     1     -10.449  15.606 -14.256  1.00  0.00     0.108 C 
BRANCH  21  22
HETATM   22  S1  UNL     1     -10.369  14.620 -15.715  1.00  0.00    -0.166 SA
BRANCH  22  23
HETATM   23  C9  UNL     1      -9.261  13.242 -15.680  1.00  0.00     0.076 C 
BRANCH  23  24
HETATM   24  C10 UNL     1      -7.949  13.493 -16.366  1.00  0.00     0.054 C 
BRANCH  24  25
HETATM   25  C11 UNL     1      -8.138  14.239 -17.640  1.00  0.00     0.284 C 
BRANCH  25  26
HETATM   26  N6  UNL     1      -8.085  13.400 -18.795  1.00  0.00    -0.065 N 
ATOM     27  H63 UNL     1      -7.218  12.862 -18.815  1.00  0.00     0.275 HD
ATOM     28  H62 UNL     1      -8.755  12.635 -18.719  1.00  0.00     0.275 HD
ATOM     29  H61 UNL     1      -8.216  13.911 -19.668  1.00  0.00     0.275 HD
ENDBRANCH  25  26
BRANCH  25  30
HETATM   30  C12 UNL     1      -7.215  15.371 -17.799  1.00  0.00     0.204 C 
HETATM   31  O2  UNL     1      -7.519  16.489 -17.340  1.00  0.00    -0.646 OA
HETATM   32  O3  UNL     1      -6.013  15.206 -18.452  1.00  0.00    -0.646 OA
ENDBRANCH  25  30
ENDBRANCH  24  25
ENDBRANCH  23  24
ENDBRANCH  22  23
ENDBRANCH  21  22
ENDBRANCH   3  21
BRANCH   4  33
HETATM   33  O4  UNL     1     -12.209  17.800 -16.240  1.00  0.00    -0.390 OA
ATOM     34  H4  UNL     1     -12.707  17.078 -16.603  1.00  0.00     0.210 HD
ENDBRANCH   4  33
TORSDOF 10
ENDMDL
