MODEL 7
REMARK VINA RESULT: -7.219483565      2.227      3.350
REMARK  10 active torsions:
REMARK  status: ('A' for Active; 'I' for Inactive)
REMARK    1  A    between atoms: N5_13  and  C6_14 
REMARK    2  A    between atoms: C7_16  and  C8_17 
REMARK    3  A    between atoms: C8_17  and  S1_18 
REMARK    4  A    between atoms: S1_18  and  C9_19 
REMARK    5  A    between atoms: C9_19  and  C10_20 
REMARK    6  A    between atoms: C10_20  and  C11_21 
REMARK    7  A    between atoms: C11_21  and  N6_22 
REMARK    8  A    between atoms: C11_21  and  C12_26 
REMARK    9  A    between atoms: C13_29  and  O4_30 
REMARK   10  A    between atoms: C14_32  and  O5_33 
ROOT
HETATM    1  C6  UNL     1      -8.358  13.427 -16.762  1.00  0.00     0.262 C 
HETATM    2  O1  UNL     1      -8.534  14.448 -15.812  1.00  0.00    -0.355 OA
HETATM    3  C7  UNL     1      -7.608  15.431 -16.203  1.00  0.00     0.165 C 
HETATM    4  C13 UNL     1      -7.651  15.433 -17.711  1.00  0.00     0.180 C 
HETATM    5  C14 UNL     1      -8.513  14.228 -18.020  1.00  0.00     0.198 C 
ENDROOT
BRANCH   1   6
HETATM    6  N5  UNL     1      -9.317  12.386 -16.572  1.00  0.00    -0.297 N 
HETATM    7  C3  UNL     1      -9.301  11.189 -17.181  1.00  0.00     0.142 A 
HETATM    8  N3  UNL     1      -8.477  10.621 -18.077  1.00  0.00    -0.336 N 
HETATM    9  C4  UNL     1     -10.410  10.492 -16.702  1.00  0.00     0.119 A 
HETATM   10  C2  UNL     1      -8.750   9.377 -18.495  1.00  0.00     0.183 A 
ATOM     11  H3  UNL     1      -7.663  11.124 -18.431  1.00  0.00     0.168 HD
HETATM   12  N2  UNL     1      -9.809   8.690 -18.048  1.00  0.00    -0.339 N 
HETATM   13  C1  UNL     1     -10.649   9.231 -17.152  1.00  0.00     0.148 A 
ATOM     14  H2  UNL     1      -9.979   7.745 -18.392  1.00  0.00     0.167 HD
HETATM   15  N1  UNL     1     -11.779   8.495 -16.676  1.00  0.00    -0.080 NA
HETATM   16  N4  UNL     1     -11.030  11.321 -15.826  1.00  0.00    -0.346 N 
HETATM   17  C5  UNL     1     -10.374  12.472 -15.741  1.00  0.00     0.188 A 
ATOM     18  H4  UNL     1     -11.878  11.093 -15.307  1.00  0.00     0.167 HD
ENDBRANCH   1   6
BRANCH   5  19
HETATM   19  O5  UNL     1      -8.091  13.571 -19.166  1.00  0.00    -0.388 OA
ATOM     20  H5  UNL     1      -7.268  13.890 -19.516  1.00  0.00     0.210 HD
ENDBRANCH   5  19
BRANCH   3  21
HETATM   21  C8  UNL     1      -8.094  16.763 -15.713  1.00  0.00     0.108 C 
BRANCH  21  22
HETATM   22  S1  UNL     1      -9.749  17.222 -16.104  1.00  0.00    -0.166 SA
BRANCH  22  23
HETATM   23  C9  UNL     1     -10.290  18.803 -15.525  1.00  0.00     0.076 C 
BRANCH  23  24
HETATM   24  C10 UNL     1      -9.440  19.378 -14.429  1.00  0.00     0.054 C 
BRANCH  24  25
HETATM   25  C11 UNL     1      -9.215  20.836 -14.626  1.00  0.00     0.284 C 
BRANCH  25  26
HETATM   26  N6  UNL     1     -10.231  21.460 -15.413  1.00  0.00    -0.065 N 
ATOM     27  H63 UNL     1     -10.543  20.841 -16.161  1.00  0.00     0.275 HD
ATOM     28  H62 UNL     1     -11.101  21.538 -14.886  1.00  0.00     0.275 HD
ATOM     29  H61 UNL     1      -9.949  22.367 -15.785  1.00  0.00     0.275 HD
ENDBRANCH  25  26
BRANCH  25  30
HETATM   30  C12 UNL     1      -7.889  21.156 -15.172  1.00  0.00     0.204 C 
HETATM   31  O2  UNL     1      -7.444  22.316 -15.080  1.00  0.00    -0.646 OA
HETATM   32  O3  UNL     1      -7.133  20.182 -15.786  1.00  0.00    -0.646 OA
ENDBRANCH  25  30
ENDBRANCH  24  25
ENDBRANCH  23  24
ENDBRANCH  22  23
ENDBRANCH  21  22
ENDBRANCH   3  21
BRANCH   4  33
HETATM   33  O4  UNL     1      -6.369  15.178 -18.236  1.00  0.00    -0.390 OA
ATOM     34  H4  UNL     1      -5.812  15.940 -18.126  1.00  0.00     0.210 HD
ENDBRANCH   4  33
TORSDOF 10
ENDMDL
