MODEL 3
REMARK VINA RESULT: -8.018464941      2.970      4.288
REMARK  8 active torsions:
REMARK  status: ('A' for Active; 'I' for Inactive)
REMARK    1  A    between atoms: N5_13  and  C6_14 
REMARK    2  A    between atoms: C7_16  and  C8_17 
REMARK    3  A    between atoms: C8_17  and  O2_18 
REMARK    4  A    between atoms: O2_18  and  P1_19 
REMARK    5  A    between atoms: P1_19  and  O5_22 
REMARK    6  A    between atoms: O5_22  and  P2_23 
REMARK    7  A    between atoms: C9_27  and  O9_28 
REMARK    8  A    between atoms: C10_30  and  O10_31 
ROOT
HETATM    1  C6  UNL     1      70.138  47.816  27.042  1.00  0.00     0.262 C 
HETATM    2  O1  UNL     1      68.935  47.139  27.026  1.00  0.00    -0.353 OA
HETATM    3  C7  UNL     1      67.918  48.016  27.260  1.00  0.00     0.180 C 
HETATM    4  C9  UNL     1      68.466  49.407  27.049  1.00  0.00     0.182 C 
HETATM    5  C10 UNL     1      69.873  49.172  27.615  1.00  0.00     0.198 C 
ENDROOT
BRANCH   1   6
HETATM    6  N5  UNL     1      70.687  47.820  25.725  1.00  0.00    -0.297 N 
HETATM    7  C3  UNL     1      70.325  47.079  24.664  1.00  0.00     0.142 A 
HETATM    8  N3  UNL     1      69.387  46.148  24.499  1.00  0.00    -0.336 N 
HETATM    9  C4  UNL     1      71.117  47.403  23.599  1.00  0.00     0.119 A 
HETATM   10  C2  UNL     1      69.211  45.532  23.316  1.00  0.00     0.183 A 
ATOM     11  H3  UNL     1      68.788  45.897  25.287  1.00  0.00     0.168 HD
HETATM   12  N2  UNL     1      69.976  45.837  22.265  1.00  0.00    -0.339 N 
HETATM   13  C1  UNL     1      70.927  46.765  22.391  1.00  0.00     0.148 A 
ATOM     14  H2  UNL     1      69.834  45.364  21.373  1.00  0.00     0.167 HD
HETATM   15  N1  UNL     1      71.772  47.136  21.321  1.00  0.00    -0.080 NA
HETATM   16  N4  UNL     1      71.958  48.342  24.017  1.00  0.00    -0.346 N 
HETATM   17  C5  UNL     1      71.701  48.591  25.293  1.00  0.00     0.188 A 
ATOM     18  H4  UNL     1      72.679  48.792  23.453  1.00  0.00     0.167 HD
ENDBRANCH   1   6
BRANCH   5  19
HETATM   19  O10 UNL     1      69.710  49.021  28.997  1.00  0.00    -0.388 OA
ATOM     20  H10 UNL     1      69.319  49.821  29.328  1.00  0.00     0.210 HD
ENDBRANCH   5  19
BRANCH   3  21
HETATM   21  C8  UNL     1      66.663  47.759  26.488  1.00  0.00     0.216 C 
BRANCH  21  22
HETATM   22  O2  UNL     1      66.804  47.862  25.128  1.00  0.00    -0.287 OA
BRANCH  22  23
HETATM   23  P1  UNL     1      65.626  46.842  24.423  1.00  0.00     0.418 P 
HETATM   24  O3  UNL     1      64.270  47.318  24.874  1.00  0.00    -0.624 OA
HETATM   25  O4  UNL     1      65.811  45.253  24.946  1.00  0.00    -0.624 OA
BRANCH  23  26
HETATM   26  O5  UNL     1      65.742  46.957  22.760  1.00  0.00    -0.173 OA
BRANCH  26  27
HETATM   27  P2  UNL     1      65.139  45.626  21.948  1.00  0.00     0.431 P 
HETATM   28  O6  UNL     1      63.986  44.980  22.693  1.00  0.00    -0.616 OA
HETATM   29  O7  UNL     1      66.310  44.420  21.728  1.00  0.00    -0.616 OA
HETATM   30  O8  UNL     1      64.633  46.149  20.404  1.00  0.00    -0.616 OA
ENDBRANCH  26  27
ENDBRANCH  23  26
ENDBRANCH  22  23
ENDBRANCH  21  22
ENDBRANCH   3  21
BRANCH   4  31
HETATM   31  O9  UNL     1      67.786  50.378  27.745  1.00  0.00    -0.390 OA
ATOM     32  H9  UNL     1      67.482  50.093  28.598  1.00  0.00     0.210 HD
ENDBRANCH   4  31
TORSDOF 8
ENDMDL
