MODEL 5
REMARK VINA RESULT: -7.965726737      3.395      5.485
REMARK  8 active torsions:
REMARK  status: ('A' for Active; 'I' for Inactive)
REMARK    1  A    between atoms: N5_13  and  C6_14 
REMARK    2  A    between atoms: C7_16  and  C8_17 
REMARK    3  A    between atoms: C8_17  and  O2_18 
REMARK    4  A    between atoms: O2_18  and  P1_19 
REMARK    5  A    between atoms: P1_19  and  O5_22 
REMARK    6  A    between atoms: O5_22  and  P2_23 
REMARK    7  A    between atoms: C9_27  and  O9_28 
REMARK    8  A    between atoms: C10_30  and  O10_31 
ROOT
HETATM    1  C6  UNL     1      69.993  47.902  23.930  1.00  0.00     0.262 C 
HETATM    2  O1  UNL     1      68.730  47.874  24.484  1.00  0.00    -0.353 OA
HETATM    3  C7  UNL     1      67.938  48.788  23.854  1.00  0.00     0.180 C 
HETATM    4  C9  UNL     1      68.629  49.172  22.568  1.00  0.00     0.182 C 
HETATM    5  C10 UNL     1      70.075  49.131  23.080  1.00  0.00     0.198 C 
ENDROOT
BRANCH   1   6
HETATM    6  N5  UNL     1      70.224  46.678  23.234  1.00  0.00    -0.297 N 
HETATM    7  C3  UNL     1      69.662  45.476  23.446  1.00  0.00     0.142 A 
HETATM    8  N3  UNL     1      68.756  45.052  24.324  1.00  0.00    -0.336 N 
HETATM    9  C4  UNL     1      70.172  44.579  22.549  1.00  0.00     0.119 A 
HETATM   10  C2  UNL     1      68.342  43.772  24.341  1.00  0.00     0.183 A 
ATOM     11  H3  UNL     1      68.366  45.712  24.998  1.00  0.00     0.168 HD
HETATM   12  N2  UNL     1      68.829  42.883  23.473  1.00  0.00    -0.339 N 
HETATM   13  C1  UNL     1      69.739  43.269  22.577  1.00  0.00     0.148 A 
ATOM     14  H2  UNL     1      68.507  41.915  23.495  1.00  0.00     0.167 HD
HETATM   15  N1  UNL     1      70.297  42.381  21.630  1.00  0.00    -0.080 NA
HETATM   16  N4  UNL     1      71.043  45.240  21.796  1.00  0.00    -0.346 N 
HETATM   17  C5  UNL     1      71.074  46.500  22.207  1.00  0.00     0.188 A 
ATOM     18  H4  UNL     1      71.592  44.847  21.033  1.00  0.00     0.167 HD
ENDBRANCH   1   6
BRANCH   5  19
HETATM   19  O10 UNL     1      70.208  50.229  23.940  1.00  0.00    -0.388 OA
ATOM     20  H10 UNL     1      69.465  50.219  24.531  1.00  0.00     0.210 HD
ENDBRANCH   5  19
BRANCH   3  21
HETATM   21  C8  UNL     1      66.516  48.369  23.651  1.00  0.00     0.216 C 
BRANCH  21  22
HETATM   22  O2  UNL     1      66.367  47.109  23.131  1.00  0.00    -0.287 OA
BRANCH  22  23
HETATM   23  P1  UNL     1      65.153  46.329  24.050  1.00  0.00     0.418 P 
HETATM   24  O3  UNL     1      64.330  47.391  24.729  1.00  0.00    -0.624 OA
HETATM   25  O4  UNL     1      65.830  45.360  25.248  1.00  0.00    -0.624 OA
BRANCH  23  26
HETATM   26  O5  UNL     1      64.187  45.439  23.016  1.00  0.00    -0.173 OA
BRANCH  26  27
HETATM   27  P2  UNL     1      64.971  44.932  21.630  1.00  0.00     0.431 P 
HETATM   28  O6  UNL     1      64.473  43.581  21.154  1.00  0.00    -0.616 OA
HETATM   29  O7  UNL     1      66.644  44.778  21.856  1.00  0.00    -0.616 OA
HETATM   30  O8  UNL     1      64.716  46.118  20.429  1.00  0.00    -0.616 OA
ENDBRANCH  26  27
ENDBRANCH  23  26
ENDBRANCH  22  23
ENDBRANCH  21  22
ENDBRANCH   3  21
BRANCH   4  31
HETATM   31  O9  UNL     1      68.281  50.419  22.106  1.00  0.00    -0.390 OA
ATOM     32  H9  UNL     1      68.737  50.673  21.313  1.00  0.00     0.210 HD
ENDBRANCH   4  31
TORSDOF 8
ENDMDL
