MODEL 14
REMARK VINA RESULT: -7.747826631      2.556      3.220
REMARK  8 active torsions:
REMARK  status: ('A' for Active; 'I' for Inactive)
REMARK    1  A    between atoms: N5_13  and  C6_14 
REMARK    2  A    between atoms: C7_16  and  C8_17 
REMARK    3  A    between atoms: C8_17  and  O2_18 
REMARK    4  A    between atoms: O2_18  and  P1_19 
REMARK    5  A    between atoms: P1_19  and  O5_22 
REMARK    6  A    between atoms: O5_22  and  P2_23 
REMARK    7  A    between atoms: C9_27  and  O9_28 
REMARK    8  A    between atoms: C10_30  and  O10_31 
ROOT
HETATM    1  C6  UNL     1      68.714  50.986  26.444  1.00  0.00     0.262 C 
HETATM    2  O1  UNL     1      68.702  50.169  25.332  1.00  0.00    -0.353 OA
HETATM    3  C7  UNL     1      68.044  49.012  25.626  1.00  0.00     0.180 C 
HETATM    4  C9  UNL     1      67.263  49.248  26.896  1.00  0.00     0.182 C 
HETATM    5  C10 UNL     1      68.279  50.153  27.608  1.00  0.00     0.198 C 
ENDROOT
BRANCH   1   6
HETATM    6  N5  UNL     1      67.900  52.130  26.190  1.00  0.00    -0.297 N 
HETATM    7  C3  UNL     1      68.178  53.424  26.425  1.00  0.00     0.142 A 
HETATM    8  N3  UNL     1      69.244  54.032  26.941  1.00  0.00    -0.336 N 
HETATM    9  C4  UNL     1      67.116  54.188  26.030  1.00  0.00     0.119 A 
HETATM   10  C2  UNL     1      69.288  55.370  27.078  1.00  0.00     0.183 A 
ATOM     11  H3  UNL     1      70.044  53.473  27.238  1.00  0.00     0.168 HD
HETATM   12  N2  UNL     1      68.261  56.133  26.699  1.00  0.00    -0.339 N 
HETATM   13  C1  UNL     1      67.174  55.559  26.176  1.00  0.00     0.148 A 
ATOM     14  H2  UNL     1      68.306  57.146  26.807  1.00  0.00     0.167 HD
HETATM   15  N1  UNL     1      66.051  56.305  25.754  1.00  0.00    -0.080 NA
HETATM   16  N4  UNL     1      66.196  53.356  25.558  1.00  0.00    -0.346 N 
HETATM   17  C5  UNL     1      66.667  52.120  25.654  1.00  0.00     0.188 A 
ATOM     18  H4  UNL     1      65.285  53.621  25.186  1.00  0.00     0.167 HD
ENDBRANCH   1   6
BRANCH   5  19
HETATM   19  O10 UNL     1      69.352  49.323  27.956  1.00  0.00    -0.388 OA
ATOM     20  H10 UNL     1      70.065  49.882  28.239  1.00  0.00     0.210 HD
ENDBRANCH   5  19
BRANCH   3  21
HETATM   21  C8  UNL     1      67.205  48.455  24.520  1.00  0.00     0.216 C 
BRANCH  21  22
HETATM   22  O2  UNL     1      67.196  47.086  24.450  1.00  0.00    -0.287 OA
BRANCH  22  23
HETATM   23  P1  UNL     1      65.591  46.613  24.095  1.00  0.00     0.418 P 
HETATM   24  O3  UNL     1      64.662  47.485  24.897  1.00  0.00    -0.624 OA
HETATM   25  O4  UNL     1      65.317  45.016  24.550  1.00  0.00    -0.624 OA
BRANCH  23  26
HETATM   26  O5  UNL     1      65.314  46.842  22.463  1.00  0.00    -0.173 OA
BRANCH  26  27
HETATM   27  P2  UNL     1      64.901  45.442  21.647  1.00  0.00     0.431 P 
HETATM   28  O6  UNL     1      63.772  44.696  22.332  1.00  0.00    -0.616 OA
HETATM   29  O7  UNL     1      66.198  44.357  21.532  1.00  0.00    -0.616 OA
HETATM   30  O8  UNL     1      64.449  45.883  20.062  1.00  0.00    -0.616 OA
ENDBRANCH  26  27
ENDBRANCH  23  26
ENDBRANCH  22  23
ENDBRANCH  21  22
ENDBRANCH   3  21
BRANCH   4  31
HETATM   31  O9  UNL     1      67.007  48.101  27.608  1.00  0.00    -0.390 OA
ATOM     32  H9  UNL     1      67.769  47.544  27.719  1.00  0.00     0.210 HD
ENDBRANCH   4  31
TORSDOF 8
ENDMDL
