MODEL 5
REMARK VINA RESULT: -10.374208757      4.425     10.495
REMARK  10 active torsions:
REMARK  status: ('A' for Active; 'I' for Inactive)
REMARK    1  A    between atoms: O1_2  and  C2_3 
REMARK       I    between atoms: C2_3  and  N1_5 
REMARK    2  A    between atoms: N1_5  and  C3_7 
REMARK    3  A    between atoms: C6_10  and  C7_11 
REMARK    4  A    between atoms: C9_13  and  C10_14 
REMARK    5  A    between atoms: C10_14  and  C11_15 
REMARK    6  A    between atoms: C10_14  and  N3_25 
REMARK    7  A    between atoms: C11_15  and  C12_16 
REMARK       I    between atoms: N2_20  and  C16_21 
REMARK       I    between atoms: N3_25  and  C19_27 
REMARK    8  A    between atoms: C19_27  and  C20_29 
REMARK    9  A    between atoms: C21_30  and  C22_31 
REMARK   10  A    between atoms: C27_37  and  N4_38 
ROOT
HETATM    1  C10 UNL     1      38.256 -19.978  26.770  1.00  0.00     0.136 C 
ENDROOT
BRANCH   1   2
HETATM    2  C9  UNL     1      37.806 -20.613  25.528  1.00  0.00     0.049 A 
HETATM    3  C8  UNL     1      37.333 -21.921  25.491  1.00  0.00     0.044 A 
HETATM    4  C7  UNL     1      36.887 -22.518  24.315  1.00  0.00     0.016 A 
HETATM    5  C29 UNL     1      36.938 -21.738  23.182  1.00  0.00     0.129 A 
HETATM    6  N9  UNL     1      37.396 -20.487  23.251  1.00  0.00    -0.289 N 
HETATM    7 CL2  UNL     1      36.384 -22.432  21.673  1.00  0.00    -0.062 Cl
HETATM    8  N8  UNL     1      37.815 -19.939  24.372  1.00  0.00    -0.302 N 
ATOM      9  H9  UNL     1      37.424 -19.930  22.397  1.00  0.00     0.188 HD
ATOM     10  H8  UNL     1      38.154 -18.978  24.360  1.00  0.00     0.186 HD
BRANCH   4  11
HETATM   11  C6  UNL     1      36.406 -23.900  24.323  1.00  0.00    -0.023 A 
HETATM   12  C5  UNL     1      37.264 -24.961  24.165  1.00  0.00     0.014 A 
HETATM   13  C4  UNL     1      36.816 -26.289  24.169  1.00  0.00     0.030 A 
HETATM   14  C3  UNL     1      35.491 -26.601  24.331  1.00  0.00     0.036 A 
HETATM   15  C31 UNL     1      34.631 -25.508  24.491  1.00  0.00     0.030 A 
HETATM   16  C30 UNL     1      35.072 -24.205  24.487  1.00  0.00     0.014 A 
BRANCH  14  17
HETATM   17  N1  UNL     1      34.947 -27.909  24.357  1.00  0.00    -0.303 N 
HETATM   18  C2  UNL     1      34.927 -28.791  25.445  1.00  0.00     0.364 C 
HETATM   19  O2  UNL     1      35.409 -28.480  26.537  1.00  0.00    -0.238 OA
ATOM     20  H1  UNL     1      34.524 -28.245  23.492  1.00  0.00     0.171 HD
BRANCH  18  21
HETATM   21  O1  UNL     1      34.350 -30.074  25.333  1.00  0.00    -0.309 OA
HETATM   22  C1  UNL     1      34.323 -30.935  26.480  1.00  0.00     0.215 C 
ENDBRANCH  18  21
ENDBRANCH  14  17
ENDBRANCH   4  11
ENDBRANCH   1   2
BRANCH   1  23
HETATM   23  C11 UNL     1      38.471 -18.518  26.734  1.00  0.00     0.038 C 
BRANCH  23  24
HETATM   24  C12 UNL     1      37.790 -17.644  27.701  1.00  0.00     0.006 C 
HETATM   25  C13 UNL     1      37.498 -18.177  29.052  1.00  0.00     0.008 C 
HETATM   26  C14 UNL     1      38.040 -17.278  30.173  1.00  0.00     0.020 C 
HETATM   27  C15 UNL     1      37.402 -15.890  30.076  1.00  0.00     0.125 C 
HETATM   28  N2  UNL     1      37.543 -15.490  28.686  1.00  0.00    -0.352 N 
HETATM   29  C16 UNL     1      36.826 -14.377  28.162  1.00  0.00     0.215 C 
HETATM   30  C18 UNL     1      38.444 -16.284  27.871  1.00  0.00     0.130 C 
HETATM   31  C17 UNL     1      35.932 -13.628  29.054  1.00  0.00     0.117 C 
HETATM   32  O3  UNL     1      36.967 -14.059  26.965  1.00  0.00    -0.274 OA
ENDBRANCH  23  24
ENDBRANCH   1  23
BRANCH   1  33
HETATM   33  N3  UNL     1      39.551 -20.572  27.194  1.00  0.00    -0.347 N 
HETATM   34  C19 UNL     1      39.660 -21.277  28.405  1.00  0.00     0.241 C 
HETATM   35  O4  UNL     1      38.648 -21.429  29.175  1.00  0.00    -0.269 OA
ATOM     36  H3  UNL     1      40.373 -20.466  26.598  1.00  0.00     0.163 HD
BRANCH  34  37
HETATM   37  C20 UNL     1      40.933 -21.880  28.853  1.00  0.00     0.075 C 
HETATM   38  C21 UNL     1      41.485 -21.693  29.999  1.00  0.00     0.019 C 
BRANCH  38  39
HETATM   39  C22 UNL     1      42.722 -22.259  30.486  1.00  0.00    -0.006 A 
HETATM   40  C23 UNL     1      43.775 -21.333  30.714  1.00  0.00     0.037 A 
HETATM   41  C24 UNL     1      45.006 -21.683  31.188  1.00  0.00     0.035 A 
HETATM   42 CL1  UNL     1      46.284 -20.519  31.458  1.00  0.00    -0.084 Cl
HETATM   43  C25 UNL     1      45.228 -23.016  31.455  1.00  0.00     0.026 A 
HETATM   44  C26 UNL     1      44.226 -23.924  31.242  1.00  0.00     0.034 A 
HETATM   45  C27 UNL     1      42.956 -23.553  30.754  1.00  0.00     0.069 A 
BRANCH  45  46
HETATM   46  N4  UNL     1      42.051 -24.643  30.630  1.00  0.00    -0.234 N 
HETATM   47  C28 UNL     1      41.937 -25.561  29.632  1.00  0.00     0.226 A 
HETATM   48  N5  UNL     1      40.900 -26.337  29.952  1.00  0.00    -0.279 N 
HETATM   49  N6  UNL     1      40.393 -25.928  31.085  1.00  0.00    -0.227 N 
ATOM     50  H5  UNL     1      40.557 -27.124  29.400  1.00  0.00     0.189 HD
HETATM   51  N7  UNL     1      41.080 -24.906  31.504  1.00  0.00    -0.220 N 
ATOM     52  H6  UNL     1      39.592 -26.342  31.563  1.00  0.00     0.210 HD
ATOM     53  H7  UNL     1      40.904 -24.388  32.365  1.00  0.00     0.210 HD
ENDBRANCH  45  46
ENDBRANCH  38  39
ENDBRANCH  34  37
ENDBRANCH   1  33
TORSDOF 10
ENDMDL
