MODEL 2
REMARK VINA RESULT: -11.040313242      2.014      3.208
REMARK  10 active torsions:
REMARK  status: ('A' for Active; 'I' for Inactive)
REMARK    1  A    between atoms: O1_2  and  C2_3 
REMARK       I    between atoms: C2_3  and  N1_5 
REMARK    2  A    between atoms: N1_5  and  C3_7 
REMARK    3  A    between atoms: C6_10  and  C7_11 
REMARK    4  A    between atoms: C9_13  and  C10_14 
REMARK    5  A    between atoms: C10_14  and  C11_15 
REMARK    6  A    between atoms: C10_14  and  N3_25 
REMARK    7  A    between atoms: C11_15  and  C12_16 
REMARK       I    between atoms: N2_20  and  C16_21 
REMARK       I    between atoms: N3_25  and  C19_27 
REMARK    8  A    between atoms: C19_27  and  C20_29 
REMARK    9  A    between atoms: C21_30  and  C22_31 
REMARK   10  A    between atoms: C27_37  and  N4_38 
ROOT
HETATM    1  C10 UNL     1      40.254 -21.409  29.017  1.00  0.00     0.136 C 
ENDROOT
BRANCH   1   2
HETATM    2  C9  UNL     1      41.698 -21.276  28.805  1.00  0.00     0.049 A 
HETATM    3  C8  UNL     1      42.623 -21.520  29.816  1.00  0.00     0.044 A 
HETATM    4  C7  UNL     1      43.995 -21.413  29.610  1.00  0.00     0.016 A 
HETATM    5  C29 UNL     1      44.392 -21.051  28.342  1.00  0.00     0.129 A 
HETATM    6  N9  UNL     1      43.480 -20.824  27.395  1.00  0.00    -0.289 N 
HETATM    7 CL2  UNL     1      46.107 -20.906  28.021  1.00  0.00    -0.062 Cl
HETATM    8  N8  UNL     1      42.186 -20.930  27.609  1.00  0.00    -0.302 N 
ATOM      9  H9  UNL     1      43.800 -20.558  26.465  1.00  0.00     0.188 HD
ATOM     10  H8  UNL     1      41.538 -20.744  26.843  1.00  0.00     0.186 HD
BRANCH   4  11
HETATM   11  C6  UNL     1      44.930 -21.672  30.706  1.00  0.00    -0.023 A 
HETATM   12  C5  UNL     1      44.820 -22.792  31.494  1.00  0.00     0.014 A 
HETATM   13  C4  UNL     1      45.709 -23.050  32.548  1.00  0.00     0.030 A 
HETATM   14  C3  UNL     1      46.737 -22.195  32.849  1.00  0.00     0.036 A 
HETATM   15  C31 UNL     1      46.833 -21.060  32.035  1.00  0.00     0.030 A 
HETATM   16  C30 UNL     1      45.961 -20.808  31.002  1.00  0.00     0.014 A 
BRANCH  14  17
HETATM   17  N1  UNL     1      47.686 -22.377  33.885  1.00  0.00    -0.303 N 
HETATM   18  C2  UNL     1      48.999 -22.845  33.751  1.00  0.00     0.364 C 
HETATM   19  O2  UNL     1      49.466 -23.155  32.652  1.00  0.00    -0.238 OA
ATOM     20  H1  UNL     1      47.381 -22.141  34.829  1.00  0.00     0.171 HD
BRANCH  18  21
HETATM   21  O1  UNL     1      49.843 -22.980  34.875  1.00  0.00    -0.309 OA
HETATM   22  C1  UNL     1      49.633 -22.137  36.017  1.00  0.00     0.215 C 
ENDBRANCH  18  21
ENDBRANCH  14  17
ENDBRANCH   4  11
ENDBRANCH   1   2
BRANCH   1  23
HETATM   23  C11 UNL     1      39.535 -22.360  28.146  1.00  0.00     0.038 C 
BRANCH  23  24
HETATM   24  C12 UNL     1      39.717 -23.809  28.320  1.00  0.00     0.006 C 
HETATM   25  C13 UNL     1      38.665 -24.719  27.811  1.00  0.00     0.008 C 
HETATM   26  C14 UNL     1      39.220 -25.798  26.870  1.00  0.00     0.020 C 
HETATM   27  C15 UNL     1      40.250 -26.652  27.613  1.00  0.00     0.125 C 
HETATM   28  N2  UNL     1      41.150 -25.709  28.256  1.00  0.00    -0.352 N 
HETATM   29  C16 UNL     1      42.069 -26.132  29.257  1.00  0.00     0.215 C 
HETATM   30  C18 UNL     1      41.056 -24.326  27.825  1.00  0.00     0.130 C 
HETATM   31  C17 UNL     1      42.100 -27.551  29.637  1.00  0.00     0.117 C 
HETATM   32  O3  UNL     1      42.829 -25.300  29.791  1.00  0.00    -0.274 OA
ENDBRANCH  23  24
ENDBRANCH   1  23
BRANCH   1  33
HETATM   33  N3  UNL     1      39.596 -20.091  28.813  1.00  0.00    -0.347 N 
HETATM   34  C19 UNL     1      39.501 -19.162  29.863  1.00  0.00     0.241 C 
HETATM   35  O4  UNL     1      39.979 -19.422  31.023  1.00  0.00    -0.269 OA
ATOM     36  H3  UNL     1      39.207 -19.858  27.899  1.00  0.00     0.163 HD
BRANCH  34  37
HETATM   37  C20 UNL     1      38.854 -17.844  29.692  1.00  0.00     0.075 C 
HETATM   38  C21 UNL     1      37.922 -17.572  28.848  1.00  0.00     0.019 C 
BRANCH  38  39
HETATM   39  C22 UNL     1      37.256 -16.306  28.645  1.00  0.00    -0.006 A 
HETATM   40  C23 UNL     1      36.197 -16.017  29.546  1.00  0.00     0.037 A 
HETATM   41  C24 UNL     1      35.467 -14.864  29.515  1.00  0.00     0.035 A 
HETATM   42 CL1  UNL     1      34.167 -14.536  30.639  1.00  0.00    -0.084 Cl
HETATM   43  C25 UNL     1      35.785 -13.936  28.549  1.00  0.00     0.026 A 
HETATM   44  C26 UNL     1      36.803 -14.197  27.671  1.00  0.00     0.034 A 
HETATM   45  C27 UNL     1      37.553 -15.390  27.710  1.00  0.00     0.069 A 
BRANCH  45  46
HETATM   46  N4  UNL     1      38.581 -15.452  26.729  1.00  0.00    -0.234 N 
HETATM   47  C28 UNL     1      39.865 -15.885  26.851  1.00  0.00     0.226 A 
HETATM   48  N5  UNL     1      40.444 -15.684  25.665  1.00  0.00    -0.279 N 
HETATM   49  N6  UNL     1      39.571 -15.154  24.848  1.00  0.00    -0.227 N 
ATOM     50  H5  UNL     1      41.412 -15.908  25.434  1.00  0.00     0.189 HD
HETATM   51  N7  UNL     1      38.444 -15.010  25.480  1.00  0.00    -0.220 N 
ATOM     52  H6  UNL     1      39.746 -14.898  23.877  1.00  0.00     0.210 HD
ATOM     53  H7  UNL     1      37.589 -14.620  25.081  1.00  0.00     0.210 HD
ENDBRANCH  45  46
ENDBRANCH  38  39
ENDBRANCH  34  37
ENDBRANCH   1  33
TORSDOF 10
ENDMDL
