MODEL 7
REMARK VINA RESULT: -10.261816971      4.023      5.049
REMARK  10 active torsions:
REMARK  status: ('A' for Active; 'I' for Inactive)
REMARK    1  A    between atoms: O1_2  and  C2_3 
REMARK       I    between atoms: C2_3  and  N1_5 
REMARK    2  A    between atoms: N1_5  and  C3_7 
REMARK    3  A    between atoms: C6_10  and  C7_11 
REMARK    4  A    between atoms: C9_13  and  C10_14 
REMARK    5  A    between atoms: C10_14  and  C11_15 
REMARK    6  A    between atoms: C10_14  and  N3_25 
REMARK    7  A    between atoms: C11_15  and  C12_16 
REMARK       I    between atoms: N2_20  and  C16_21 
REMARK       I    between atoms: N3_25  and  C19_27 
REMARK    8  A    between atoms: C19_27  and  C20_29 
REMARK    9  A    between atoms: C21_30  and  C22_31 
REMARK   10  A    between atoms: C27_37  and  N4_38 
ROOT
HETATM    1  C10 UNL     1      38.446 -22.186  26.342  1.00  0.00     0.136 C 
ENDROOT
BRANCH   1   2
HETATM    2  C9  UNL     1      39.641 -22.400  27.162  1.00  0.00     0.049 A 
HETATM    3  C8  UNL     1      40.049 -23.668  27.564  1.00  0.00     0.044 A 
HETATM    4  C7  UNL     1      41.195 -23.873  28.327  1.00  0.00     0.016 A 
HETATM    5  C29 UNL     1      41.909 -22.746  28.665  1.00  0.00     0.129 A 
HETATM    6  N9  UNL     1      41.490 -21.544  28.265  1.00  0.00    -0.289 N 
HETATM    7 CL2  UNL     1      43.364 -22.941  29.620  1.00  0.00    -0.062 Cl
HETATM    8  N8  UNL     1      40.403 -21.369  27.543  1.00  0.00    -0.302 N 
ATOM      9  H9  UNL     1      42.037 -20.725  28.529  1.00  0.00     0.188 HD
ATOM     10  H8  UNL     1      40.136 -20.424  27.268  1.00  0.00     0.186 HD
BRANCH   4  11
HETATM   11  C6  UNL     1      41.582 -25.226  28.732  1.00  0.00    -0.023 A 
HETATM   12  C5  UNL     1      41.050 -25.820  29.851  1.00  0.00     0.014 A 
HETATM   13  C4  UNL     1      41.413 -27.113  30.252  1.00  0.00     0.030 A 
HETATM   14  C3  UNL     1      42.322 -27.857  29.545  1.00  0.00     0.036 A 
HETATM   15  C31 UNL     1      42.853 -27.236  28.408  1.00  0.00     0.030 A 
HETATM   16  C30 UNL     1      42.496 -25.966  28.016  1.00  0.00     0.014 A 
BRANCH  14  17
HETATM   17  N1  UNL     1      42.744 -29.171  29.866  1.00  0.00    -0.303 N 
HETATM   18  C2  UNL     1      43.923 -29.539  30.526  1.00  0.00     0.364 C 
HETATM   19  O2  UNL     1      44.740 -28.696  30.907  1.00  0.00    -0.238 OA
ATOM     20  H1  UNL     1      42.122 -29.930  29.588  1.00  0.00     0.171 HD
BRANCH  18  21
HETATM   21  O1  UNL     1      44.222 -30.894  30.784  1.00  0.00    -0.309 OA
HETATM   22  C1  UNL     1      44.459 -31.318  32.134  1.00  0.00     0.215 C 
ENDBRANCH  18  21
ENDBRANCH  14  17
ENDBRANCH   4  11
ENDBRANCH   1   2
BRANCH   1  23
HETATM   23  C11 UNL     1      38.489 -22.685  24.953  1.00  0.00     0.038 C 
BRANCH  23  24
HETATM   24  C12 UNL     1      37.994 -24.032  24.632  1.00  0.00     0.006 C 
HETATM   25  C13 UNL     1      38.981 -25.120  24.442  1.00  0.00     0.008 C 
HETATM   26  C14 UNL     1      38.694 -26.341  25.330  1.00  0.00     0.020 C 
HETATM   27  C15 UNL     1      37.312 -26.908  25.001  1.00  0.00     0.125 C 
HETATM   28  N2  UNL     1      36.409 -25.768  25.010  1.00  0.00    -0.352 N 
HETATM   29  C16 UNL     1      35.092 -25.867  24.479  1.00  0.00     0.215 C 
HETATM   30  C18 UNL     1      36.924 -24.538  25.583  1.00  0.00     0.130 C 
HETATM   31  C17 UNL     1      34.649 -27.148  23.916  1.00  0.00     0.117 C 
HETATM   32  O3  UNL     1      34.340 -24.872  24.501  1.00  0.00    -0.274 OA
ENDBRANCH  23  24
ENDBRANCH   1  23
BRANCH   1  33
HETATM   33  N3  UNL     1      38.161 -20.730  26.244  1.00  0.00    -0.347 N 
HETATM   34  C19 UNL     1      37.682 -20.012  27.353  1.00  0.00     0.241 C 
HETATM   35  O4  UNL     1      37.479 -20.590  28.478  1.00  0.00    -0.269 OA
ATOM     36  H3  UNL     1      38.314 -20.246  25.359  1.00  0.00     0.163 HD
BRANCH  34  37
HETATM   37  C20 UNL     1      37.390 -18.564  27.288  1.00  0.00     0.075 C 
HETATM   38  C21 UNL     1      37.407 -17.753  28.285  1.00  0.00     0.019 C 
BRANCH  38  39
HETATM   39  C22 UNL     1      37.134 -16.334  28.273  1.00  0.00    -0.006 A 
HETATM   40  C23 UNL     1      36.113 -15.897  29.159  1.00  0.00     0.037 A 
HETATM   41  C24 UNL     1      35.732 -14.593  29.295  1.00  0.00     0.035 A 
HETATM   42 CL1  UNL     1      34.470 -14.085  30.395  1.00  0.00    -0.084 Cl
HETATM   43  C25 UNL     1      36.382 -13.657  28.522  1.00  0.00     0.026 A 
HETATM   44  C26 UNL     1      37.368 -14.059  27.662  1.00  0.00     0.034 A 
HETATM   45  C27 UNL     1      37.757 -15.408  27.528  1.00  0.00     0.069 A 
BRANCH  45  46
HETATM   46  N4  UNL     1      38.818 -15.608  26.602  1.00  0.00    -0.234 N 
HETATM   47  C28 UNL     1      40.081 -16.064  26.822  1.00  0.00     0.226 A 
HETATM   48  N5  UNL     1      40.709 -16.013  25.646  1.00  0.00    -0.279 N 
HETATM   49  N6  UNL     1      39.887 -15.550  24.741  1.00  0.00    -0.227 N 
ATOM     50  H5  UNL     1      41.677 -16.290  25.479  1.00  0.00     0.189 HD
HETATM   51  N7  UNL     1      38.742 -15.302  25.307  1.00  0.00    -0.220 N 
ATOM     52  H6  UNL     1      40.106 -15.407  23.756  1.00  0.00     0.210 HD
ATOM     53  H7  UNL     1      37.917 -14.932  24.835  1.00  0.00     0.210 HD
ENDBRANCH  45  46
ENDBRANCH  38  39
ENDBRANCH  34  37
ENDBRANCH   1  33
TORSDOF 10
ENDMDL
