MODEL 3
REMARK VINA RESULT: -10.502901030      3.123      5.949
REMARK  10 active torsions:
REMARK  status: ('A' for Active; 'I' for Inactive)
REMARK    1  A    between atoms: O1_2  and  C2_3 
REMARK       I    between atoms: C2_3  and  N1_5 
REMARK    2  A    between atoms: N1_5  and  C3_7 
REMARK    3  A    between atoms: C6_10  and  C7_11 
REMARK    4  A    between atoms: C9_13  and  C10_14 
REMARK    5  A    between atoms: C10_14  and  C11_15 
REMARK    6  A    between atoms: C10_14  and  N3_25 
REMARK    7  A    between atoms: C11_15  and  C12_16 
REMARK       I    between atoms: N2_20  and  C16_21 
REMARK       I    between atoms: N3_25  and  C19_27 
REMARK    8  A    between atoms: C19_27  and  C20_29 
REMARK    9  A    between atoms: C21_30  and  C22_31 
REMARK   10  A    between atoms: C27_37  and  N4_38 
ROOT
HETATM    1  C10 UNL     1      39.766 -20.058  28.503  1.00  0.00     0.136 C 
ENDROOT
BRANCH   1   2
HETATM    2  C9  UNL     1      40.554 -21.091  29.181  1.00  0.00     0.049 A 
HETATM    3  C8  UNL     1      41.891 -20.904  29.519  1.00  0.00     0.044 A 
HETATM    4  C7  UNL     1      42.634 -21.877  30.180  1.00  0.00     0.016 A 
HETATM    5  C29 UNL     1      41.971 -23.044  30.485  1.00  0.00     0.129 A 
HETATM    6  N9  UNL     1      40.689 -23.193  30.147  1.00  0.00    -0.289 N 
HETATM    7 CL2  UNL     1      42.852 -24.304  31.322  1.00  0.00    -0.062 Cl
HETATM    8  N8  UNL     1      40.002 -22.261  29.521  1.00  0.00    -0.302 N 
ATOM      9  H9  UNL     1      40.220 -24.067  30.384  1.00  0.00     0.188 HD
ATOM     10  H8  UNL     1      39.024 -22.435  29.289  1.00  0.00     0.186 HD
BRANCH   4  11
HETATM   11  C6  UNL     1      44.040 -21.638  30.510  1.00  0.00    -0.023 A 
HETATM   12  C5  UNL     1      45.024 -21.711  29.553  1.00  0.00     0.014 A 
HETATM   13  C4  UNL     1      46.375 -21.486  29.856  1.00  0.00     0.030 A 
HETATM   14  C3  UNL     1      46.787 -21.181  31.127  1.00  0.00     0.036 A 
HETATM   15  C31 UNL     1      45.771 -21.112  32.088  1.00  0.00     0.030 A 
HETATM   16  C30 UNL     1      44.446 -21.332  31.790  1.00  0.00     0.014 A 
BRANCH  14  17
HETATM   17  N1  UNL     1      48.123 -20.930  31.525  1.00  0.00    -0.303 N 
HETATM   18  C2  UNL     1      48.961 -21.789  32.248  1.00  0.00     0.364 C 
HETATM   19  O2  UNL     1      48.581 -22.903  32.617  1.00  0.00    -0.238 OA
ATOM     20  H1  UNL     1      48.517 -20.028  31.257  1.00  0.00     0.171 HD
BRANCH  18  21
HETATM   21  O1  UNL     1      50.279 -21.410  32.581  1.00  0.00    -0.309 OA
HETATM   22  C1  UNL     1      50.608 -20.017  32.678  1.00  0.00     0.215 C 
ENDBRANCH  18  21
ENDBRANCH  14  17
ENDBRANCH   4  11
ENDBRANCH   1   2
BRANCH   1  23
HETATM   23  C11 UNL     1      39.224 -18.972  29.342  1.00  0.00     0.038 C 
BRANCH  23  24
HETATM   24  C12 UNL     1      38.933 -17.655  28.756  1.00  0.00     0.006 C 
HETATM   25  C13 UNL     1      39.801 -17.163  27.661  1.00  0.00     0.008 C 
HETATM   26  C14 UNL     1      39.005 -16.755  26.412  1.00  0.00     0.020 C 
HETATM   27  C15 UNL     1      38.026 -15.634  26.765  1.00  0.00     0.125 C 
HETATM   28  N2  UNL     1      37.332 -16.083  27.961  1.00  0.00    -0.352 N 
HETATM   29  C16 UNL     1      36.542 -15.186  28.735  1.00  0.00     0.215 C 
HETATM   30  C18 UNL     1      37.490 -17.481  28.316  1.00  0.00     0.130 C 
HETATM   31  C17 UNL     1      36.435 -13.786  28.307  1.00  0.00     0.117 C 
HETATM   32  O3  UNL     1      35.958 -15.601  29.756  1.00  0.00    -0.274 OA
ENDBRANCH  23  24
ENDBRANCH   1  23
BRANCH   1  33
HETATM   33  N3  UNL     1      38.594 -20.682  27.835  1.00  0.00    -0.347 N 
HETATM   34  C19 UNL     1      38.487 -20.701  26.433  1.00  0.00     0.241 C 
HETATM   35  O4  UNL     1      39.396 -20.183  25.693  1.00  0.00    -0.269 OA
ATOM     36  H3  UNL     1      37.856 -21.102  28.400  1.00  0.00     0.163 HD
BRANCH  34  37
HETATM   37  C20 UNL     1      37.335 -21.314  25.739  1.00  0.00     0.075 C 
HETATM   38  C21 UNL     1      37.408 -22.184  24.795  1.00  0.00     0.019 C 
BRANCH  38  39
HETATM   39  C22 UNL     1      36.316 -22.814  24.089  1.00  0.00    -0.006 A 
HETATM   40  C23 UNL     1      36.016 -24.145  24.484  1.00  0.00     0.037 A 
HETATM   41  C24 UNL     1      35.010 -24.891  23.940  1.00  0.00     0.035 A 
HETATM   42 CL1  UNL     1      34.664 -26.529  24.446  1.00  0.00    -0.084 Cl
HETATM   43  C25 UNL     1      34.249 -24.306  22.951  1.00  0.00     0.026 A 
HETATM   44  C26 UNL     1      34.523 -23.024  22.557  1.00  0.00     0.034 A 
HETATM   45  C27 UNL     1      35.564 -22.260  23.125  1.00  0.00     0.069 A 
BRANCH  45  46
HETATM   46  N4  UNL     1      35.663 -20.945  22.595  1.00  0.00    -0.234 N 
HETATM   47  C28 UNL     1      35.212 -19.770  23.111  1.00  0.00     0.226 A 
HETATM   48  N5  UNL     1      35.495 -18.828  22.209  1.00  0.00    -0.279 N 
HETATM   49  N6  UNL     1      36.090 -19.383  21.185  1.00  0.00    -0.227 N 
ATOM     50  H5  UNL     1      35.282 -17.835  22.303  1.00  0.00     0.189 HD
HETATM   51  N7  UNL     1      36.197 -20.660  21.407  1.00  0.00    -0.220 N 
ATOM     52  H6  UNL     1      36.417 -18.895  20.351  1.00  0.00     0.210 HD
ATOM     53  H7  UNL     1      36.622 -21.337  20.772  1.00  0.00     0.210 HD
ENDBRANCH  45  46
ENDBRANCH  38  39
ENDBRANCH  34  37
ENDBRANCH   1  33
TORSDOF 10
ENDMDL
