MODEL 5
REMARK VINA RESULT: -9.883265257      1.614      3.150
REMARK  10 active torsions:
REMARK  status: ('A' for Active; 'I' for Inactive)
REMARK    1  A    between atoms: C2_2  and  C3_3 
REMARK    2  A    between atoms: C3_3  and  O1_4 
REMARK    3  A    between atoms: O1_4  and  C4_5 
REMARK    4  A    between atoms: C7_8  and  O2_9 
REMARK    5  A    between atoms: C10_13  and  C11_14 
REMARK    6  A    between atoms: C11_14  and  C12_16 
REMARK    7  A    between atoms: C15_19  and  C16_20 
REMARK       I    between atoms: C16_20  and  N1_22 
REMARK    8  A    between atoms: N1_22  and  C17_24 
REMARK    9  A    between atoms: C20_30  and  N3_31 
REMARK       I    between atoms: N3_31  and  C21_33 
REMARK   10  A    between atoms: C21_33  and  C22_35 
ROOT
HETATM    1  C16 UNL     1     -17.957  19.128  16.560  1.00  0.00     0.252 C 
HETATM    2  O4  UNL     1     -16.895  19.730  16.733  1.00  0.00    -0.268 OA
HETATM    3  N1  UNL     1     -19.000  19.780  15.836  1.00  0.00    -0.349 N 
ATOM      4  H1  UNL     1     -19.861  19.249  15.704  1.00  0.00     0.163 HD
ENDROOT
BRANCH   3   5
HETATM    5  C17 UNL     1     -18.971  21.091  15.279  1.00  0.00     0.134 C 
HETATM    6  C18 UNL     1     -19.925  22.031  16.021  1.00  0.00     0.259 C 
HETATM    7  N2  UNL     1     -21.232  21.769  15.455  1.00  0.00    -0.071 N 
HETATM    8  C19 UNL     1     -21.053  21.055  14.210  1.00  0.00     0.259 C 
ATOM      9  H22 UNL     1     -21.850  21.279  16.103  1.00  0.00     0.277 HD
ATOM     10  H21 UNL     1     -21.790  22.616  15.344  1.00  0.00     0.277 HD
HETATM   11  C20 UNL     1     -19.561  21.153  13.886  1.00  0.00     0.134 C 
BRANCH  11  12
HETATM   12  N3  UNL     1     -19.260  22.356  13.184  1.00  0.00    -0.349 N 
HETATM   13  C21 UNL     1     -18.282  22.526  12.173  1.00  0.00     0.252 C 
HETATM   14  O5  UNL     1     -17.608  21.486  11.869  1.00  0.00    -0.268 OA
ATOM     15  H3  UNL     1     -19.804  23.181  13.436  1.00  0.00     0.163 HD
BRANCH  13  16
HETATM   16  C22 UNL     1     -18.046  23.798  11.505  1.00  0.00     0.033 A 
HETATM   17  C23 UNL     1     -18.292  24.986  12.198  1.00  0.00     0.019 A 
HETATM   18  C24 UNL     1     -18.068  26.192  11.577  1.00  0.00     0.033 A 
HETATM   19  C25 UNL     1     -17.604  26.235  10.274  1.00  0.00     0.059 A 
HETATM   20  N4  UNL     1     -17.303  27.252   9.433  1.00  0.00    -0.300 N 
HETATM   21  C27 UNL     1     -17.369  25.042   9.607  1.00  0.00     0.010 A 
HETATM   22  N5  UNL     1     -16.888  26.782   8.272  1.00  0.00    -0.311 N 
ATOM     23  H4  UNL     1     -17.386  28.242   9.665  1.00  0.00     0.187 HD
HETATM   24  C26 UNL     1     -16.923  25.422   8.360  1.00  0.00     0.120 A 
ATOM     25  H5  UNL     1     -16.597  27.331   7.463  1.00  0.00     0.186 HD
HETATM   26  C28 UNL     1     -17.586  23.823  10.212  1.00  0.00     0.032 A 
ENDBRANCH  13  16
ENDBRANCH  11  12
ENDBRANCH   3   5
BRANCH   1  27
HETATM   27  C15 UNL     1     -18.124  17.784  17.089  1.00  0.00     0.032 A 
HETATM   28  C14 UNL     1     -17.103  17.187  17.763  1.00  0.00     0.018 A 
HETATM   29  C13 UNL     1     -17.260  15.895  18.284  1.00  0.00     0.016 A 
HETATM   30  C12 UNL     1     -18.441  15.218  18.121  1.00  0.00     0.015 A 
HETATM   31  C30 UNL     1     -19.458  15.826  17.443  1.00  0.00     0.016 A 
HETATM   32  C29 UNL     1     -19.315  17.117  16.917  1.00  0.00     0.018 A 
BRANCH  30  33
HETATM   33  C11 UNL     1     -18.599  13.893  18.651  1.00  0.00     0.198 C 
HETATM   34  O3  UNL     1     -18.421  13.684  19.876  1.00  0.00    -0.286 OA
BRANCH  33  35
HETATM   35  C10 UNL     1     -18.963  12.743  17.831  1.00  0.00     0.089 A 
HETATM   36  C4  UNL     1     -19.977  11.894  18.316  1.00  0.00     0.086 A 
HETATM   37  C5  UNL     1     -20.267  10.813  17.521  1.00  0.00     0.040 A 
HETATM   38  C6  UNL     1     -19.600  10.575  16.314  1.00  0.00     0.043 A 
HETATM   39  C7  UNL     1     -18.619  11.413  15.860  1.00  0.00     0.107 A 
HETATM   40  C9  UNL     1     -18.321  12.501  16.653  1.00  0.00     0.166 A 
HETATM   41  F1  UNL     1     -17.334  13.331  16.179  1.00  0.00    -0.202 F 
BRANCH  36  42
HETATM   42  O1  UNL     1     -20.583  12.195  19.504  1.00  0.00    -0.350 OA
BRANCH  42  43
HETATM   43  C3  UNL     1     -20.982  11.399  20.558  1.00  0.00     0.175 C 
BRANCH  43  44
HETATM   44  C2  UNL     1     -19.857  10.842  21.394  1.00  0.00     0.022 C 
HETATM   45  C1  UNL     1     -19.767   9.359  21.013  1.00  0.00     0.007 C 
ENDBRANCH  43  44
ENDBRANCH  42  43
ENDBRANCH  36  42
BRANCH  39  46
HETATM   46  O2  UNL     1     -17.961  11.181  14.668  1.00  0.00    -0.353 OA
HETATM   47  C8  UNL     1     -17.621   9.921  14.150  1.00  0.00     0.210 C 
ENDBRANCH  39  46
ENDBRANCH  33  35
ENDBRANCH  30  33
ENDBRANCH   1  27
TORSDOF 10
ENDMDL
