MODEL 8
REMARK VINA RESULT: -9.749601762      1.394      3.046
REMARK  10 active torsions:
REMARK  status: ('A' for Active; 'I' for Inactive)
REMARK    1  A    between atoms: C2_2  and  C3_3 
REMARK    2  A    between atoms: C3_3  and  O1_4 
REMARK    3  A    between atoms: O1_4  and  C4_5 
REMARK    4  A    between atoms: C7_8  and  O2_9 
REMARK    5  A    between atoms: C10_13  and  C11_14 
REMARK    6  A    between atoms: C11_14  and  C12_16 
REMARK    7  A    between atoms: C15_19  and  C16_20 
REMARK       I    between atoms: C16_20  and  N1_22 
REMARK    8  A    between atoms: N1_22  and  C17_24 
REMARK    9  A    between atoms: C20_30  and  N3_31 
REMARK       I    between atoms: N3_31  and  C21_33 
REMARK   10  A    between atoms: C21_33  and  C22_35 
ROOT
HETATM    1  C16 UNL     1     -18.011  19.063  16.487  1.00  0.00     0.252 C 
HETATM    2  O4  UNL     1     -16.890  19.578  16.473  1.00  0.00    -0.268 OA
HETATM    3  N1  UNL     1     -19.108  19.805  15.958  1.00  0.00    -0.349 N 
ATOM      4  H1  UNL     1     -20.019  19.344  15.976  1.00  0.00     0.163 HD
ENDROOT
BRANCH   3   5
HETATM    5  C17 UNL     1     -19.073  21.118  15.408  1.00  0.00     0.134 C 
HETATM    6  C18 UNL     1     -20.123  22.022  16.060  1.00  0.00     0.259 C 
HETATM    7  N2  UNL     1     -21.363  21.718  15.375  1.00  0.00    -0.071 N 
HETATM    8  C19 UNL     1     -21.046  21.015  14.152  1.00  0.00     0.259 C 
ATOM      9  H22 UNL     1     -22.020  21.205  15.963  1.00  0.00     0.277 HD
ATOM     10  H21 UNL     1     -21.937  22.546  15.215  1.00  0.00     0.277 HD
HETATM   11  C20 UNL     1     -19.535  21.166  13.966  1.00  0.00     0.134 C 
BRANCH  11  12
HETATM   12  N3  UNL     1     -19.212  22.382  13.296  1.00  0.00    -0.349 N 
HETATM   13  C21 UNL     1     -18.402  22.525  12.143  1.00  0.00     0.252 C 
HETATM   14  O5  UNL     1     -17.916  21.446  11.664  1.00  0.00    -0.268 OA
ATOM     15  H3  UNL     1     -19.604  23.238  13.688  1.00  0.00     0.163 HD
BRANCH  13  16
HETATM   16  C22 UNL     1     -18.129  23.813  11.522  1.00  0.00     0.033 A 
HETATM   17  C23 UNL     1     -18.378  24.983  12.244  1.00  0.00     0.019 A 
HETATM   18  C24 UNL     1     -18.120  26.205  11.668  1.00  0.00     0.033 A 
HETATM   19  C25 UNL     1     -17.618  26.281  10.380  1.00  0.00     0.059 A 
HETATM   20  N4  UNL     1     -17.278  27.318   9.581  1.00  0.00    -0.300 N 
HETATM   21  C27 UNL     1     -17.379  25.105   9.684  1.00  0.00     0.010 A 
HETATM   22  N5  UNL     1     -16.836  26.878   8.418  1.00  0.00    -0.311 N 
ATOM     23  H4  UNL     1     -17.354  28.302   9.841  1.00  0.00     0.187 HD
HETATM   24  C26 UNL     1     -16.891  25.517   8.463  1.00  0.00     0.120 A 
ATOM     25  H5  UNL     1     -16.513  27.447   7.636  1.00  0.00     0.186 HD
HETATM   26  C28 UNL     1     -17.631  23.871  10.244  1.00  0.00     0.032 A 
ENDBRANCH  13  16
ENDBRANCH  11  12
ENDBRANCH   3   5
BRANCH   1  27
HETATM   27  C15 UNL     1     -18.188  17.727  17.034  1.00  0.00     0.032 A 
HETATM   28  C14 UNL     1     -17.169  17.127  17.708  1.00  0.00     0.018 A 
HETATM   29  C13 UNL     1     -17.336  15.843  18.246  1.00  0.00     0.016 A 
HETATM   30  C12 UNL     1     -18.526  15.177  18.100  1.00  0.00     0.015 A 
HETATM   31  C30 UNL     1     -19.541  15.788  17.422  1.00  0.00     0.016 A 
HETATM   32  C29 UNL     1     -19.387  17.071  16.879  1.00  0.00     0.018 A 
BRANCH  30  33
HETATM   33  C11 UNL     1     -18.694  13.861  18.647  1.00  0.00     0.198 C 
HETATM   34  O3  UNL     1     -18.558  13.674  19.881  1.00  0.00    -0.286 OA
BRANCH  33  35
HETATM   35  C10 UNL     1     -19.024  12.694  17.835  1.00  0.00     0.089 A 
HETATM   36  C4  UNL     1     -20.035  11.837  18.310  1.00  0.00     0.086 A 
HETATM   37  C5  UNL     1     -20.291  10.742  17.523  1.00  0.00     0.040 A 
HETATM   38  C6  UNL     1     -19.594  10.497  16.335  1.00  0.00     0.043 A 
HETATM   39  C7  UNL     1     -18.616  11.344  15.891  1.00  0.00     0.107 A 
HETATM   40  C9  UNL     1     -18.352  12.447  16.675  1.00  0.00     0.166 A 
HETATM   41  F1  UNL     1     -17.367  13.284  16.211  1.00  0.00    -0.202 F 
BRANCH  36  42
HETATM   42  O1  UNL     1     -20.671  12.145  19.479  1.00  0.00    -0.350 OA
BRANCH  42  43
HETATM   43  C3  UNL     1     -21.981  12.488  19.748  1.00  0.00     0.175 C 
BRANCH  43  44
HETATM   44  C2  UNL     1     -22.511  13.650  18.944  1.00  0.00     0.022 C 
HETATM   45  C1  UNL     1     -22.222  14.894  19.793  1.00  0.00     0.007 C 
ENDBRANCH  43  44
ENDBRANCH  42  43
ENDBRANCH  36  42
BRANCH  39  46
HETATM   46  O2  UNL     1     -17.928  11.105  14.717  1.00  0.00    -0.353 OA
HETATM   47  C8  UNL     1     -17.692   9.845  14.145  1.00  0.00     0.210 C 
ENDBRANCH  39  46
ENDBRANCH  33  35
ENDBRANCH  30  33
ENDBRANCH   1  27
TORSDOF 10
ENDMDL
