MODEL 9
REMARK VINA RESULT: -9.574869436      1.726      3.279
REMARK  10 active torsions:
REMARK  status: ('A' for Active; 'I' for Inactive)
REMARK    1  A    between atoms: C2_2  and  C3_3 
REMARK    2  A    between atoms: C3_3  and  O1_4 
REMARK    3  A    between atoms: O1_4  and  C4_5 
REMARK    4  A    between atoms: C7_8  and  O2_9 
REMARK    5  A    between atoms: C10_13  and  C11_14 
REMARK    6  A    between atoms: C11_14  and  C12_16 
REMARK    7  A    between atoms: C15_19  and  C16_20 
REMARK       I    between atoms: C16_20  and  N1_22 
REMARK    8  A    between atoms: N1_22  and  C17_24 
REMARK    9  A    between atoms: C20_30  and  N3_31 
REMARK       I    between atoms: N3_31  and  C21_33 
REMARK   10  A    between atoms: C21_33  and  C22_35 
ROOT
HETATM    1  C16 UNL     1     -17.528  18.982  16.537  1.00  0.00     0.252 C 
HETATM    2  O4  UNL     1     -16.601  19.658  16.990  1.00  0.00    -0.268 OA
HETATM    3  N1  UNL     1     -18.304  19.518  15.466  1.00  0.00    -0.349 N 
ATOM      4  H1  UNL     1     -19.056  18.928  15.111  1.00  0.00     0.163 HD
ENDROOT
BRANCH   3   5
HETATM    5  C17 UNL     1     -18.142  20.787  14.839  1.00  0.00     0.134 C 
HETATM    6  C18 UNL     1     -18.899  21.882  15.597  1.00  0.00     0.259 C 
HETATM    7  N2  UNL     1     -20.271  21.778  15.141  1.00  0.00    -0.071 N 
HETATM    8  C19 UNL     1     -20.288  20.993  13.927  1.00  0.00     0.259 C 
ATOM      9  H22 UNL     1     -20.895  21.407  15.858  1.00  0.00     0.277 HD
ATOM     10  H21 UNL     1     -20.717  22.689  15.027  1.00  0.00     0.277 HD
HETATM   11  C20 UNL     1     -18.828  20.870  13.491  1.00  0.00     0.134 C 
BRANCH  11  12
HETATM   12  N3  UNL     1     -18.423  21.989  12.706  1.00  0.00    -0.349 N 
HETATM   13  C21 UNL     1     -17.530  21.974  11.606  1.00  0.00     0.252 C 
HETATM   14  O5  UNL     1     -17.043  20.836  11.298  1.00  0.00    -0.268 OA
ATOM     15  H3  UNL     1     -18.818  22.893  12.962  1.00  0.00     0.163 HD
BRANCH  13  16
HETATM   16  C22 UNL     1     -17.177  23.172  10.857  1.00  0.00     0.033 A 
HETATM   17  C23 UNL     1     -16.379  23.051   9.717  1.00  0.00     0.019 A 
HETATM   18  C24 UNL     1     -16.044  24.177   9.001  1.00  0.00     0.033 A 
HETATM   19  C25 UNL     1     -16.491  25.423   9.404  1.00  0.00     0.059 A 
HETATM   20  N4  UNL     1     -16.323  26.670   8.906  1.00  0.00    -0.300 N 
HETATM   21  C27 UNL     1     -17.282  25.517  10.539  1.00  0.00     0.010 A 
HETATM   22  N5  UNL     1     -16.959  27.554   9.653  1.00  0.00    -0.311 N 
ATOM     23  H4  UNL     1     -15.781  26.895   8.071  1.00  0.00     0.187 HD
HETATM   24  C26 UNL     1     -17.554  26.862  10.664  1.00  0.00     0.120 A 
ATOM     25  H5  UNL     1     -16.997  28.562   9.501  1.00  0.00     0.186 HD
HETATM   26  C28 UNL     1     -17.629  24.401  11.270  1.00  0.00     0.032 A 
ENDBRANCH  13  16
ENDBRANCH  11  12
ENDBRANCH   3   5
BRANCH   1  27
HETATM   27  C15 UNL     1     -17.809  17.670  17.098  1.00  0.00     0.032 A 
HETATM   28  C14 UNL     1     -19.015  17.079  16.876  1.00  0.00     0.018 A 
HETATM   29  C13 UNL     1     -19.289  15.810  17.405  1.00  0.00     0.016 A 
HETATM   30  C12 UNL     1     -18.347  15.150  18.152  1.00  0.00     0.015 A 
HETATM   31  C30 UNL     1     -17.141  15.751  18.369  1.00  0.00     0.016 A 
HETATM   32  C29 UNL     1     -16.854  17.020  17.845  1.00  0.00     0.018 A 
BRANCH  30  33
HETATM   33  C11 UNL     1     -18.630  13.852  18.697  1.00  0.00     0.198 C 
HETATM   34  O3  UNL     1     -18.556  13.664  19.935  1.00  0.00    -0.286 OA
BRANCH  33  35
HETATM   35  C10 UNL     1     -19.010  12.707  17.876  1.00  0.00     0.089 A 
HETATM   36  C4  UNL     1     -20.005  11.848  18.380  1.00  0.00     0.086 A 
HETATM   37  C5  UNL     1     -20.310  10.773  17.583  1.00  0.00     0.040 A 
HETATM   38  C6  UNL     1     -19.673  10.549  16.357  1.00  0.00     0.043 A 
HETATM   39  C7  UNL     1     -18.710  11.397  15.885  1.00  0.00     0.107 A 
HETATM   40  C9  UNL     1     -18.397  12.479  16.680  1.00  0.00     0.166 A 
HETATM   41  F1  UNL     1     -17.427  13.318  16.188  1.00  0.00    -0.202 F 
BRANCH  36  42
HETATM   42  O1  UNL     1     -20.582  12.136  19.585  1.00  0.00    -0.350 OA
BRANCH  42  43
HETATM   43  C3  UNL     1     -21.037  11.321  20.603  1.00  0.00     0.175 C 
BRANCH  43  44
HETATM   44  C2  UNL     1     -19.963  10.536  21.315  1.00  0.00     0.022 C 
HETATM   45  C1  UNL     1     -19.493  11.443  22.459  1.00  0.00     0.007 C 
ENDBRANCH  43  44
ENDBRANCH  42  43
ENDBRANCH  36  42
BRANCH  39  46
HETATM   46  O2  UNL     1     -18.081  11.178  14.674  1.00  0.00    -0.353 OA
HETATM   47  C8  UNL     1     -17.661   9.933  14.181  1.00  0.00     0.210 C 
ENDBRANCH  39  46
ENDBRANCH  33  35
ENDBRANCH  30  33
ENDBRANCH   1  27
TORSDOF 10
ENDMDL
