MODEL 8
REMARK VINA RESULT: -8.016141637      2.533      9.511
REMARK  5 active torsions:
REMARK  status: ('A' for Active; 'I' for Inactive)
REMARK    1  A    between atoms: O1_2  and  C2_3 
REMARK    2  A    between atoms: C4_5  and  C5_6 
REMARK    3  A    between atoms: N2_14  and  C11_15 
REMARK    4  A    between atoms: N4_19  and  C13_20 
REMARK    5  A    between atoms: C18_29  and  O3_30 
ROOT
HETATM    1  C13 UNL     1      27.140  60.164  20.494  1.00  0.00     0.271 C 
HETATM    2  C14 UNL     1      26.870  61.238  19.566  1.00  0.00     0.080 C 
HETATM    3  N5  UNL     1      26.641  62.089  18.816  1.00  0.00    -0.195 NA
ENDROOT
BRANCH   1   4
HETATM    4  N4  UNL     1      26.203  60.095  21.597  1.00  0.00    -0.288 N 
HETATM    5  N3  UNL     1      26.366  59.681  22.840  1.00  0.00    -0.307 N 
HETATM    6  C12 UNL     1      25.232  59.787  23.546  1.00  0.00     0.138 A 
ATOM      7  H3  UNL     1      27.245  59.325  23.217  1.00  0.00     0.186 HD
HETATM    8  C11 UNL     1      24.269  60.302  22.711  1.00  0.00     0.071 A 
HETATM    9  C15 UNL     1      24.898  60.487  21.499  1.00  0.00     0.142 A 
BRANCH   8  10
HETATM   10  N2  UNL     1      22.901  60.595  23.012  1.00  0.00    -0.305 N 
HETATM   11  C10 UNL     1      22.120  61.662  22.435  1.00  0.00     0.190 A 
HETATM   12  C9  UNL     1      20.769  61.599  23.043  1.00  0.00     0.044 A 
HETATM   13  C8  UNL     1      20.738  60.537  23.940  1.00  0.00     0.056 A 
HETATM   14  N1  UNL     1      19.665  62.358  22.874  1.00  0.00    -0.357 N 
HETATM   15  C7  UNL     1      19.588  60.273  24.641  1.00  0.00     0.021 A 
HETATM   16  C16 UNL     1      22.056  59.915  23.920  1.00  0.00     0.260 A 
HETATM   17  C6  UNL     1      18.478  61.084  24.433  1.00  0.00     0.031 A 
HETATM   18  C5  UNL     1      18.511  62.132  23.547  1.00  0.00     0.044 A 
HETATM   19  O2  UNL     1      22.440  58.904  24.604  1.00  0.00    -0.267 OA
ATOM     20  H1  UNL     1      19.701  63.134  22.212  1.00  0.00     0.166 HD
BRANCH  18  21
HETATM   21  C4  UNL     1      17.343  62.986  23.322  1.00  0.00     0.009 A 
HETATM   22  C3  UNL     1      17.482  64.219  22.696  1.00  0.00     0.056 A 
HETATM   23  C2  UNL     1      16.424  65.060  22.488  1.00  0.00     0.120 A 
HETATM   24  C18 UNL     1      15.164  64.649  22.930  1.00  0.00     0.176 A 
HETATM   25  N6  UNL     1      15.052  63.470  23.526  1.00  0.00    -0.344 N 
HETATM   26  C17 UNL     1      16.086  62.622  23.740  1.00  0.00     0.104 A 
ATOM     27  H6  UNL     1      14.126  63.184  23.844  1.00  0.00     0.167 HD
BRANCH  23  28
HETATM   28  O1  UNL     1      16.564  66.288  21.859  1.00  0.00    -0.352 OA
HETATM   29  C1  UNL     1      17.322  66.490  20.696  1.00  0.00     0.210 C 
ENDBRANCH  23  28
BRANCH  24  30
HETATM   30  O3  UNL     1      14.113  65.518  22.710  1.00  0.00    -0.339 OA
HETATM   31  C19 UNL     1      13.176  65.857  23.700  1.00  0.00     0.211 C 
ENDBRANCH  24  30
ENDBRANCH  18  21
ENDBRANCH   8  10
ENDBRANCH   1   4
TORSDOF 5
ENDMDL
