MODEL 6
REMARK VINA RESULT: -8.155080373      2.432      9.732
REMARK  5 active torsions:
REMARK  status: ('A' for Active; 'I' for Inactive)
REMARK    1  A    between atoms: O1_2  and  C2_3 
REMARK    2  A    between atoms: C4_5  and  C5_6 
REMARK    3  A    between atoms: N2_14  and  C11_15 
REMARK    4  A    between atoms: N4_19  and  C13_20 
REMARK    5  A    between atoms: C18_29  and  O3_30 
ROOT
HETATM    1  C13 UNL     1      27.409  60.159  20.131  1.00  0.00     0.271 C 
HETATM    2  C14 UNL     1      28.577  59.319  20.271  1.00  0.00     0.080 C 
HETATM    3  N5  UNL     1      29.519  58.660  20.395  1.00  0.00    -0.195 NA
ENDROOT
BRANCH   1   4
HETATM    4  N4  UNL     1      26.506  60.099  21.262  1.00  0.00    -0.288 N 
HETATM    5  N3  UNL     1      26.712  59.713  22.508  1.00  0.00    -0.307 N 
HETATM    6  C12 UNL     1      25.598  59.817  23.244  1.00  0.00     0.138 A 
ATOM      7  H3  UNL     1      27.606  59.377  22.865  1.00  0.00     0.186 HD
HETATM    8  C11 UNL     1      24.603  60.302  22.428  1.00  0.00     0.071 A 
HETATM    9  C15 UNL     1      25.193  60.472  21.195  1.00  0.00     0.142 A 
BRANCH   8  10
HETATM   10  N2  UNL     1      23.240  60.583  22.764  1.00  0.00    -0.305 N 
HETATM   11  C10 UNL     1      22.447  61.665  22.235  1.00  0.00     0.190 A 
HETATM   12  C9  UNL     1      21.108  61.580  22.866  1.00  0.00     0.044 A 
HETATM   13  C8  UNL     1      21.095  60.491  23.730  1.00  0.00     0.056 A 
HETATM   14  N1  UNL     1      19.999  62.342  22.742  1.00  0.00    -0.357 N 
HETATM   15  C7  UNL     1      19.959  60.202  24.444  1.00  0.00     0.021 A 
HETATM   16  C16 UNL     1      22.414  59.873  23.666  1.00  0.00     0.260 A 
HETATM   17  C6  UNL     1      18.844  61.016  24.282  1.00  0.00     0.031 A 
HETATM   18  C5  UNL     1      18.859  62.092  23.428  1.00  0.00     0.044 A 
HETATM   19  O2  UNL     1      22.812  58.842  24.311  1.00  0.00    -0.267 OA
ATOM     20  H1  UNL     1      20.021  63.138  22.104  1.00  0.00     0.166 HD
BRANCH  18  21
HETATM   21  C4  UNL     1      17.685  62.950  23.252  1.00  0.00     0.009 A 
HETATM   22  C3  UNL     1      17.782  64.138  22.538  1.00  0.00     0.056 A 
HETATM   23  C2  UNL     1      16.719  64.983  22.370  1.00  0.00     0.120 A 
HETATM   24  C18 UNL     1      15.498  64.621  22.946  1.00  0.00     0.176 A 
HETATM   25  N6  UNL     1      15.426  63.485  23.624  1.00  0.00    -0.344 N 
HETATM   26  C17 UNL     1      16.465  62.634  23.801  1.00  0.00     0.104 A 
ATOM     27  H6  UNL     1      14.529  63.234  24.039  1.00  0.00     0.167 HD
BRANCH  23  28
HETATM   28  O1  UNL     1      16.817  66.166  21.654  1.00  0.00    -0.352 OA
HETATM   29  C1  UNL     1      17.453  66.277  20.408  1.00  0.00     0.210 C 
ENDBRANCH  23  28
BRANCH  24  30
HETATM   30  O3  UNL     1      14.443  65.492  22.763  1.00  0.00    -0.339 OA
HETATM   31  C19 UNL     1      13.146  65.241  23.243  1.00  0.00     0.211 C 
ENDBRANCH  24  30
ENDBRANCH  18  21
ENDBRANCH   8  10
ENDBRANCH   1   4
TORSDOF 5
ENDMDL
