MODEL 5
REMARK VINA RESULT: -8.234502798      2.467     10.057
REMARK  5 active torsions:
REMARK  status: ('A' for Active; 'I' for Inactive)
REMARK    1  A    between atoms: O1_2  and  C2_3 
REMARK    2  A    between atoms: C4_5  and  C5_6 
REMARK    3  A    between atoms: N2_14  and  C11_15 
REMARK    4  A    between atoms: N4_19  and  C13_20 
REMARK    5  A    between atoms: C18_29  and  O3_30 
ROOT
HETATM    1  C13 UNL     1      26.983  60.717  20.321  1.00  0.00     0.271 C 
HETATM    2  C14 UNL     1      28.069  59.768  20.212  1.00  0.00     0.080 C 
HETATM    3  N5  UNL     1      28.945  59.017  20.140  1.00  0.00    -0.195 NA
ENDROOT
BRANCH   1   4
HETATM    4  N4  UNL     1      26.079  60.448  21.420  1.00  0.00    -0.288 N 
HETATM    5  N3  UNL     1      26.282  59.830  22.570  1.00  0.00    -0.307 N 
HETATM    6  C12 UNL     1      25.168  59.800  23.313  1.00  0.00     0.138 A 
ATOM      7  H3  UNL     1      27.174  59.427  22.856  1.00  0.00     0.186 HD
HETATM    8  C11 UNL     1      24.177  60.437  22.605  1.00  0.00     0.071 A 
HETATM    9  C15 UNL     1      24.769  60.835  21.426  1.00  0.00     0.142 A 
BRANCH   8  10
HETATM   10  N2  UNL     1      22.815  60.657  22.988  1.00  0.00    -0.305 N 
HETATM   11  C10 UNL     1      21.925  61.636  22.414  1.00  0.00     0.190 A 
HETATM   12  C9  UNL     1      20.627  61.520  23.120  1.00  0.00     0.044 A 
HETATM   13  C8  UNL     1      20.730  60.511  24.072  1.00  0.00     0.056 A 
HETATM   14  N1  UNL     1      19.463  62.194  22.993  1.00  0.00    -0.357 N 
HETATM   15  C7  UNL     1      19.653  60.213  24.868  1.00  0.00     0.021 A 
HETATM   16  C16 UNL     1      22.084  59.976  23.990  1.00  0.00     0.260 A 
HETATM   17  C6  UNL     1      18.477  60.936  24.698  1.00  0.00     0.031 A 
HETATM   18  C5  UNL     1      18.377  61.932  23.758  1.00  0.00     0.044 A 
HETATM   19  O2  UNL     1      22.583  59.034  24.697  1.00  0.00    -0.267 OA
ATOM     20  H1  UNL     1      19.400  62.931  22.290  1.00  0.00     0.166 HD
BRANCH  18  21
HETATM   21  C4  UNL     1      17.139  62.694  23.574  1.00  0.00     0.009 A 
HETATM   22  C3  UNL     1      15.911  62.127  23.891  1.00  0.00     0.056 A 
HETATM   23  C2  UNL     1      14.728  62.790  23.712  1.00  0.00     0.120 A 
HETATM   24  C18 UNL     1      14.777  64.085  23.189  1.00  0.00     0.176 A 
HETATM   25  N6  UNL     1      15.958  64.608  22.893  1.00  0.00    -0.344 N 
HETATM   26  C17 UNL     1      17.141  63.969  23.063  1.00  0.00     0.104 A 
ATOM     27  H6  UNL     1      15.978  65.554  22.511  1.00  0.00     0.167 HD
BRANCH  23  28
HETATM   28  O1  UNL     1      13.503  62.225  24.032  1.00  0.00    -0.352 OA
HETATM   29  C1  UNL     1      13.040  61.011  23.502  1.00  0.00     0.210 C 
ENDBRANCH  23  28
BRANCH  24  30
HETATM   30  O3  UNL     1      13.569  64.732  23.016  1.00  0.00    -0.339 OA
HETATM   31  C19 UNL     1      13.321  66.035  23.479  1.00  0.00     0.211 C 
ENDBRANCH  24  30
ENDBRANCH  18  21
ENDBRANCH   8  10
ENDBRANCH   1   4
TORSDOF 5
ENDMDL
