MODEL 2
REMARK VINA RESULT: -9.119210866      1.233      2.096
REMARK  5 active torsions:
REMARK  status: ('A' for Active; 'I' for Inactive)
REMARK    1  A    between atoms: O1_2  and  C2_3 
REMARK    2  A    between atoms: C4_5  and  C5_6 
REMARK    3  A    between atoms: N2_14  and  C11_15 
REMARK    4  A    between atoms: N4_19  and  C13_20 
REMARK    5  A    between atoms: C18_29  and  O3_30 
ROOT
HETATM    1  C13 UNL     1      14.090  62.430  24.236  1.00  0.00     0.271 C 
HETATM    2  C14 UNL     1      13.499  61.350  23.480  1.00  0.00     0.080 C 
HETATM    3  N5  UNL     1      13.025  60.496  22.861  1.00  0.00    -0.195 NA
ENDROOT
BRANCH   1   4
HETATM    4  N4  UNL     1      15.453  62.737  23.852  1.00  0.00    -0.288 N 
HETATM    5  N3  UNL     1      15.969  63.819  23.298  1.00  0.00    -0.307 N 
HETATM    6  C12 UNL     1      17.288  63.691  23.108  1.00  0.00     0.138 A 
ATOM      7  H3  UNL     1      15.430  64.647  23.045  1.00  0.00     0.186 HD
HETATM    8  C11 UNL     1      17.657  62.450  23.567  1.00  0.00     0.071 A 
HETATM    9  C15 UNL     1      16.495  61.870  24.028  1.00  0.00     0.142 A 
BRANCH   8  10
HETATM   10  N2  UNL     1      18.962  61.861  23.579  1.00  0.00    -0.305 N 
HETATM   11  C10 UNL     1      20.007  62.106  22.615  1.00  0.00     0.190 A 
HETATM   12  C9  UNL     1      21.173  61.280  23.009  1.00  0.00     0.044 A 
HETATM   13  C8  UNL     1      20.846  60.574  24.161  1.00  0.00     0.056 A 
HETATM   14  N1  UNL     1      22.396  61.120  22.458  1.00  0.00    -0.357 N 
HETATM   15  C7  UNL     1      21.766  59.726  24.725  1.00  0.00     0.021 A 
HETATM   16  C16 UNL     1      19.478  60.934  24.515  1.00  0.00     0.260 A 
HETATM   17  C6  UNL     1      23.011  59.595  24.120  1.00  0.00     0.031 A 
HETATM   18  C5  UNL     1      23.332  60.292  22.981  1.00  0.00     0.044 A 
HETATM   19  O2  UNL     1      18.802  60.503  25.512  1.00  0.00    -0.267 OA
ATOM     20  H1  UNL     1      22.625  61.644  21.613  1.00  0.00     0.166 HD
BRANCH  18  21
HETATM   21  C4  UNL     1      24.644  60.159  22.343  1.00  0.00     0.009 A 
HETATM   22  C3  UNL     1      24.847  60.620  21.048  1.00  0.00     0.056 A 
HETATM   23  C2  UNL     1      26.046  60.494  20.403  1.00  0.00     0.120 A 
HETATM   24  C18 UNL     1      27.096  59.877  21.087  1.00  0.00     0.176 A 
HETATM   25  N6  UNL     1      26.883  59.444  22.322  1.00  0.00    -0.344 N 
HETATM   26  C17 UNL     1      25.704  59.559  22.979  1.00  0.00     0.104 A 
ATOM     27  H6  UNL     1      27.658  58.994  22.809  1.00  0.00     0.167 HD
BRANCH  23  28
HETATM   28  O1  UNL     1      26.247  60.957  19.111  1.00  0.00    -0.352 OA
HETATM   29  C1  UNL     1      25.208  61.260  18.218  1.00  0.00     0.210 C 
ENDBRANCH  23  28
BRANCH  24  30
HETATM   30  O3  UNL     1      28.295  59.760  20.413  1.00  0.00    -0.339 OA
HETATM   31  C19 UNL     1      29.200  58.708  20.630  1.00  0.00     0.211 C 
ENDBRANCH  24  30
ENDBRANCH  18  21
ENDBRANCH   8  10
ENDBRANCH   1   4
TORSDOF 5
ENDMDL
