MODEL 1
REMARK VINA RESULT: -9.180305451      0.000      0.000
REMARK  5 active torsions:
REMARK  status: ('A' for Active; 'I' for Inactive)
REMARK    1  A    between atoms: O1_2  and  C2_3 
REMARK    2  A    between atoms: C4_5  and  C5_6 
REMARK    3  A    between atoms: N2_14  and  C11_15 
REMARK    4  A    between atoms: N4_19  and  C13_20 
REMARK    5  A    between atoms: C18_29  and  O3_30 
ROOT
HETATM    1  C13 UNL     1      15.734  65.027  22.633  1.00  0.00     0.271 C 
HETATM    2  C14 UNL     1      16.280  66.275  23.117  1.00  0.00     0.080 C 
HETATM    3  N5  UNL     1      16.708  67.270  23.520  1.00  0.00    -0.195 NA
ENDROOT
BRANCH   1   4
HETATM    4  N4  UNL     1      16.424  63.855  23.132  1.00  0.00    -0.288 N 
HETATM    5  N3  UNL     1      15.986  62.843  23.858  1.00  0.00    -0.307 N 
HETATM    6  C12 UNL     1      16.960  61.956  24.102  1.00  0.00     0.138 A 
ATOM      7  H3  UNL     1      15.026  62.747  24.192  1.00  0.00     0.186 HD
HETATM    8  C11 UNL     1      18.104  62.418  23.498  1.00  0.00     0.071 A 
HETATM    9  C15 UNL     1      17.747  63.605  22.897  1.00  0.00     0.142 A 
BRANCH   8  10
HETATM   10  N2  UNL     1      19.402  61.814  23.479  1.00  0.00    -0.305 N 
HETATM   11  C10 UNL     1      20.449  62.094  22.527  1.00  0.00     0.190 A 
HETATM   12  C9  UNL     1      21.606  61.236  22.878  1.00  0.00     0.044 A 
HETATM   13  C8  UNL     1      21.271  60.478  23.995  1.00  0.00     0.056 A 
HETATM   14  N1  UNL     1      22.826  61.088  22.318  1.00  0.00    -0.357 N 
HETATM   15  C7  UNL     1      22.182  59.593  24.515  1.00  0.00     0.021 A 
HETATM   16  C16 UNL     1      19.908  60.836  24.368  1.00  0.00     0.260 A 
HETATM   17  C6  UNL     1      23.425  59.477  23.902  1.00  0.00     0.031 A 
HETATM   18  C5  UNL     1      23.753  60.226  22.799  1.00  0.00     0.044 A 
HETATM   19  O2  UNL     1      19.228  60.365  25.344  1.00  0.00    -0.267 OA
ATOM     20  H1  UNL     1      23.060  61.650  21.499  1.00  0.00     0.166 HD
BRANCH  18  21
HETATM   21  C4  UNL     1      25.063  60.109  22.153  1.00  0.00     0.009 A 
HETATM   22  C3  UNL     1      25.297  60.711  20.923  1.00  0.00     0.056 A 
HETATM   23  C2  UNL     1      26.494  60.607  20.271  1.00  0.00     0.120 A 
HETATM   24  C18 UNL     1      27.509  59.864  20.879  1.00  0.00     0.176 A 
HETATM   25  N6  UNL     1      27.266  59.297  22.053  1.00  0.00    -0.344 N 
HETATM   26  C17 UNL     1      26.088  59.388  22.716  1.00  0.00     0.104 A 
ATOM     27  H6  UNL     1      28.016  58.757  22.485  1.00  0.00     0.167 HD
BRANCH  23  28
HETATM   28  O1  UNL     1      26.727  61.211  19.045  1.00  0.00    -0.352 OA
HETATM   29  C1  UNL     1      25.725  61.803  18.261  1.00  0.00     0.210 C 
ENDBRANCH  23  28
BRANCH  24  30
HETATM   30  O3  UNL     1      28.707  59.773  20.199  1.00  0.00    -0.339 OA
HETATM   31  C19 UNL     1      29.563  58.663  20.294  1.00  0.00     0.211 C 
ENDBRANCH  24  30
ENDBRANCH  18  21
ENDBRANCH   8  10
ENDBRANCH   1   4
TORSDOF 5
ENDMDL
