MODEL 7
REMARK VINA RESULT: -6.721249131      2.274      3.207
REMARK  5 active torsions:
REMARK  status: ('A' for Active; 'I' for Inactive)
REMARK    1  A    between atoms: C1_2  and  C2_4 
REMARK    2  A    between atoms: C2_4  and  O3_5 
REMARK    3  A    between atoms: C3_7  and  C4_8 
REMARK    4  A    between atoms: C4_8  and  C5_10 
REMARK    5  A    between atoms: C8_13  and  O5_14 
ROOT
HETATM    1  C5  UNL     1      33.799  78.192  63.357  1.00  0.00     0.032 A 
HETATM    2  C6  UNL     1      34.128  77.271  64.374  1.00  0.00     0.020 A 
HETATM    3  C7  UNL     1      33.693  75.972  64.388  1.00  0.00     0.037 A 
HETATM    4  C8  UNL     1      32.892  75.486  63.383  1.00  0.00     0.067 A 
HETATM    5  C9  UNL     1      32.551  76.351  62.377  1.00  0.00     0.056 A 
HETATM    6  C10 UNL     1      32.999  77.682  62.370  1.00  0.00     0.027 A 
HETATM    7 BR1  UNL     1      32.430  78.834  60.954  1.00  0.00    -0.050 Br
ENDROOT
BRANCH   1   8
HETATM    8  C4  UNL     1      34.354  79.522  63.422  1.00  0.00     0.186 C 
HETATM    9  O4  UNL     1      34.021  80.299  62.449  1.00  0.00    -0.287 OA
BRANCH   8  10
HETATM   10  C3  UNL     1      35.218  80.090  64.424  1.00  0.00     0.099 C 
HETATM   11  C2  UNL     1      36.506  80.205  64.152  1.00  0.00     0.146 C 
BRANCH  11  12
HETATM   12  C1  UNL     1      37.390  80.767  65.133  1.00  0.00     0.233 C 
HETATM   13  O1  UNL     1      38.534  81.189  64.847  1.00  0.00    -0.642 OA
HETATM   14  O2  UNL     1      36.978  80.857  66.447  1.00  0.00    -0.642 OA
ENDBRANCH  11  12
BRANCH  11  15
HETATM   15  O3  UNL     1      36.995  79.789  62.935  1.00  0.00    -0.355 OA
ATOM     16  H3  UNL     1      37.925  79.844  62.748  1.00  0.00     0.218 HD
ENDBRANCH  11  15
ENDBRANCH   8  10
ENDBRANCH   1   8
BRANCH   4  17
HETATM   17  O5  UNL     1      32.468  74.166  63.425  1.00  0.00    -0.361 OA
ATOM     18  H5  UNL     1      32.935  73.508  62.923  1.00  0.00     0.217 HD
ENDBRANCH   4  17
TORSDOF 5
ENDMDL
