MODEL 11
REMARK VINA RESULT: -6.474984191      2.607      3.466
REMARK  5 active torsions:
REMARK  status: ('A' for Active; 'I' for Inactive)
REMARK    1  A    between atoms: C1_2  and  C2_4 
REMARK    2  A    between atoms: C2_4  and  O3_5 
REMARK    3  A    between atoms: C3_7  and  C4_8 
REMARK    4  A    between atoms: C4_8  and  C5_10 
REMARK    5  A    between atoms: C8_13  and  O5_14 
ROOT
HETATM    1  C5  UNL     1      33.867  78.102  63.535  1.00  0.00     0.032 A 
HETATM    2  C6  UNL     1      34.247  77.076  64.425  1.00  0.00     0.020 A 
HETATM    3  C7  UNL     1      33.778  75.791  64.342  1.00  0.00     0.037 A 
HETATM    4  C8  UNL     1      32.888  75.427  63.360  1.00  0.00     0.067 A 
HETATM    5  C9  UNL     1      32.495  76.398  62.477  1.00  0.00     0.056 A 
HETATM    6  C10 UNL     1      32.979  77.712  62.568  1.00  0.00     0.027 A 
HETATM    7 BR1  UNL     1      32.335  79.015  61.326  1.00  0.00    -0.050 Br
ENDROOT
BRANCH   1   8
HETATM    8  C4  UNL     1      34.462  79.408  63.689  1.00  0.00     0.186 C 
HETATM    9  O4  UNL     1      34.887  79.944  62.598  1.00  0.00    -0.287 OA
BRANCH   8  10
HETATM   10  C3  UNL     1      34.636  80.181  64.891  1.00  0.00     0.099 C 
HETATM   11  C2  UNL     1      35.866  80.463  65.285  1.00  0.00     0.146 C 
BRANCH  11  12
HETATM   12  C1  UNL     1      36.068  81.233  66.479  1.00  0.00     0.233 C 
HETATM   13  O1  UNL     1      36.937  80.940  67.332  1.00  0.00    -0.642 OA
HETATM   14  O2  UNL     1      35.285  82.346  66.711  1.00  0.00    -0.642 OA
ENDBRANCH  11  12
BRANCH  11  15
HETATM   15  O3  UNL     1      36.944  80.022  64.553  1.00  0.00    -0.355 OA
ATOM     16  H3  UNL     1      37.767  80.496  64.579  1.00  0.00     0.218 HD
ENDBRANCH  11  15
ENDBRANCH   8  10
ENDBRANCH   1   8
BRANCH   4  17
HETATM   17  O5  UNL     1      32.432  74.119  63.302  1.00  0.00    -0.361 OA
ATOM     18  H5  UNL     1      31.580  73.903  63.663  1.00  0.00     0.217 HD
ENDBRANCH   4  17
TORSDOF 5
ENDMDL
