MODEL 10
REMARK VINA RESULT: -6.511696051      1.381      5.886
REMARK  5 active torsions:
REMARK  status: ('A' for Active; 'I' for Inactive)
REMARK    1  A    between atoms: C1_2  and  C2_4 
REMARK    2  A    between atoms: C2_4  and  O3_5 
REMARK    3  A    between atoms: C3_7  and  C4_8 
REMARK    4  A    between atoms: C4_8  and  C5_10 
REMARK    5  A    between atoms: C8_13  and  O5_14 
ROOT
HETATM    1  C5  UNL     1      33.518  78.989  63.002  1.00  0.00     0.032 A 
HETATM    2  C6  UNL     1      34.143  80.136  62.471  1.00  0.00     0.020 A 
HETATM    3  C7  UNL     1      35.427  80.506  62.774  1.00  0.00     0.037 A 
HETATM    4  C8  UNL     1      36.193  79.755  63.634  1.00  0.00     0.067 A 
HETATM    5  C9  UNL     1      35.618  78.634  64.170  1.00  0.00     0.056 A 
HETATM    6  C10 UNL     1      34.302  78.261  63.857  1.00  0.00     0.027 A 
HETATM    7 BR1  UNL     1      33.563  76.709  64.694  1.00  0.00    -0.050 Br
ENDROOT
BRANCH   1   8
HETATM    8  C4  UNL     1      32.176  78.672  62.575  1.00  0.00     0.186 C 
HETATM    9  O4  UNL     1      31.250  79.388  63.113  1.00  0.00    -0.287 OA
BRANCH   8  10
HETATM   10  C3  UNL     1      31.744  77.673  61.632  1.00  0.00     0.099 C 
HETATM   11  C2  UNL     1      30.458  77.371  61.582  1.00  0.00     0.146 C 
BRANCH  11  12
HETATM   12  C1  UNL     1      30.000  76.379  60.651  1.00  0.00     0.233 C 
HETATM   13  O1  UNL     1      29.413  76.675  59.584  1.00  0.00    -0.642 OA
HETATM   14  O2  UNL     1      30.208  75.043  60.924  1.00  0.00    -0.642 OA
ENDBRANCH  11  12
BRANCH  11  15
HETATM   15  O3  UNL     1      29.565  78.005  62.415  1.00  0.00    -0.355 OA
ATOM     16  H3  UNL     1      29.743  78.071  63.346  1.00  0.00     0.218 HD
ENDBRANCH  11  15
ENDBRANCH   8  10
ENDBRANCH   1   8
BRANCH   4  17
HETATM   17  O5  UNL     1      37.490  80.155  63.921  1.00  0.00    -0.361 OA
ATOM     18  H5  UNL     1      38.211  79.560  63.753  1.00  0.00     0.217 HD
ENDBRANCH   4  17
TORSDOF 5
ENDMDL
