MODEL 8
REMARK VINA RESULT: -6.626067710      2.550      6.252
REMARK  5 active torsions:
REMARK  status: ('A' for Active; 'I' for Inactive)
REMARK    1  A    between atoms: C1_2  and  C2_4 
REMARK    2  A    between atoms: C2_4  and  O3_5 
REMARK    3  A    between atoms: C3_7  and  C4_8 
REMARK    4  A    between atoms: C4_8  and  C5_10 
REMARK    5  A    between atoms: C8_13  and  O5_14 
ROOT
HETATM    1  C5  UNL     1      34.576  79.800  63.655  1.00  0.00     0.032 A 
HETATM    2  C6  UNL     1      34.158  79.935  64.995  1.00  0.00     0.020 A 
HETATM    3  C7  UNL     1      34.995  80.307  66.014  1.00  0.00     0.037 A 
HETATM    4  C8  UNL     1      36.322  80.575  65.775  1.00  0.00     0.067 A 
HETATM    5  C9  UNL     1      36.764  80.454  64.484  1.00  0.00     0.056 A 
HETATM    6  C10 UNL     1      35.902  80.071  63.445  1.00  0.00     0.027 A 
HETATM    7 BR1  UNL     1      36.618  79.876  61.683  1.00  0.00    -0.050 Br
ENDROOT
BRANCH   1   8
HETATM    8  C4  UNL     1      33.595  79.449  62.656  1.00  0.00     0.186 C 
HETATM    9  O4  UNL     1      33.450  80.310  61.709  1.00  0.00    -0.287 OA
BRANCH   8  10
HETATM   10  C3  UNL     1      32.771  78.271  62.579  1.00  0.00     0.099 C 
HETATM   11  C2  UNL     1      32.795  77.557  61.467  1.00  0.00     0.146 C 
BRANCH  11  12
HETATM   12  C1  UNL     1      31.985  76.378  61.364  1.00  0.00     0.233 C 
HETATM   13  O1  UNL     1      31.045  76.275  60.541  1.00  0.00    -0.642 OA
HETATM   14  O2  UNL     1      32.236  75.304  62.194  1.00  0.00    -0.642 OA
ENDBRANCH  11  12
BRANCH  11  15
HETATM   15  O3  UNL     1      33.595  77.943  60.416  1.00  0.00    -0.355 OA
ATOM     16  H3  UNL     1      33.301  78.613  59.810  1.00  0.00     0.218 HD
ENDBRANCH  11  15
ENDBRANCH   8  10
ENDBRANCH   1   8
BRANCH   4  17
HETATM   17  O5  UNL     1      37.144  80.949  66.827  1.00  0.00    -0.361 OA
ATOM     18  H5  UNL     1      37.932  80.450  67.006  1.00  0.00     0.217 HD
ENDBRANCH   4  17
TORSDOF 5
ENDMDL
