MODEL 11
REMARK VINA RESULT: -9.160545519      3.836      6.791
REMARK  2 active torsions:
REMARK  status: ('A' for Active; 'I' for Inactive)
REMARK    1  A    between atoms: C6_8  and  C7_9 
REMARK       I    between atoms: C7_9  and  N2_11 
REMARK    2  A    between atoms: N2_11  and  C8_13 
ROOT
HETATM    1  C1  UNL     1      39.472 -24.012   8.155  1.00  0.00     0.072 C 
HETATM    2  C2  UNL     1      39.148 -24.933   7.034  1.00  0.00     0.052 A 
HETATM    3  N1  UNL     1      38.716 -26.169   7.270  1.00  0.00    -0.355 N 
ATOM      4  H1  UNL     1      38.603 -26.498   8.229  1.00  0.00     0.166 HD
HETATM    5  C3  UNL     1      38.427 -26.992   6.228  1.00  0.00     0.060 A 
HETATM    6  C4  UNL     1      37.973 -28.272   6.474  1.00  0.00     0.033 A 
HETATM    7  C5  UNL     1      37.673 -29.102   5.420  1.00  0.00     0.019 A 
HETATM    8  C6  UNL     1      37.809 -28.698   4.113  1.00  0.00     0.034 A 
HETATM    9  C18 UNL     1      38.269 -27.404   3.860  1.00  0.00     0.049 A 
HETATM   10  C19 UNL     1      38.573 -26.566   4.929  1.00  0.00     0.070 A 
HETATM   11  N3  UNL     1      39.013 -25.308   4.679  1.00  0.00    -0.277 N 
HETATM   12  C20 UNL     1      39.242 -24.648   3.557  1.00  0.00     0.141 A 
HETATM   13  C21 UNL     1      39.112 -25.020   2.166  1.00  0.00     0.032 A 
HETATM   14  C22 UNL     1      38.005 -24.768   1.389  1.00  0.00     0.017 A 
HETATM   15  C23 UNL     1      37.939 -25.090   0.052  1.00  0.00     0.001 A 
HETATM   16  C24 UNL     1      39.014 -25.693  -0.563  1.00  0.00     0.002 A 
HETATM   17  C25 UNL     1      40.139 -25.959   0.185  1.00  0.00     0.025 A 
HETATM   18  C26 UNL     1      40.198 -25.633   1.530  1.00  0.00     0.048 A 
HETATM   19 CL1  UNL     1      41.649 -25.992   2.437  1.00  0.00    -0.083 Cl
HETATM   20  N4  UNL     1      39.679 -23.390   3.955  1.00  0.00    -0.283 N 
ATOM     21  H4  UNL     1      39.940 -22.630   3.326  1.00  0.00     0.188 HD
HETATM   22  N5  UNL     1      39.701 -23.335   5.253  1.00  0.00    -0.282 N 
ATOM     23  H5  UNL     1      39.984 -22.527   5.808  1.00  0.00     0.188 HD
HETATM   24  C27 UNL     1      39.292 -24.511   5.745  1.00  0.00     0.151 A 
ENDROOT
BRANCH   8  25
HETATM   25  C7  UNL     1      37.471 -29.635   3.037  1.00  0.00     0.252 C 
HETATM   26  O1  UNL     1      37.084 -30.805   3.343  1.00  0.00    -0.268 OA
HETATM   27  N2  UNL     1      37.538 -29.349   1.664  1.00  0.00    -0.348 N 
ATOM     28  H2  UNL     1      37.845 -28.422   1.367  1.00  0.00     0.163 HD
BRANCH  27  29
HETATM   29  C8  UNL     1      37.182 -30.339   0.642  1.00  0.00     0.034 C 
HETATM   30  C9  UNL     1      35.872 -31.000   0.937  1.00  0.00     0.035 C 
HETATM   31  C10 UNL     1      35.565 -31.982  -0.159  1.00  0.00    -0.012 C 
HETATM   32  C11 UNL     1      36.674 -33.022  -0.188  1.00  0.00     0.009 C 
HETATM   33  C15 UNL     1      35.448 -31.367  -1.514  1.00  0.00     0.009 C 
HETATM   34  C12 UNL     1      37.961 -32.336  -0.567  1.00  0.00    -0.012 C 
HETATM   35  C13 UNL     1      37.833 -31.654  -1.914  1.00  0.00     0.009 C 
HETATM   36  C17 UNL     1      38.312 -31.336   0.498  1.00  0.00     0.035 C 
HETATM   37  C14 UNL     1      36.747 -30.611  -1.780  1.00  0.00    -0.012 C 
HETATM   38  C16 UNL     1      37.052 -29.634  -0.695  1.00  0.00     0.035 C 
ENDBRANCH  27  29
ENDBRANCH   8  25
TORSDOF 2
ENDMDL
