MODEL 4
REMARK VINA RESULT: -10.073870847      1.821      2.624
REMARK  2 active torsions:
REMARK  status: ('A' for Active; 'I' for Inactive)
REMARK    1  A    between atoms: C6_8  and  C7_9 
REMARK       I    between atoms: C7_9  and  N2_11 
REMARK    2  A    between atoms: N2_11  and  C8_13 
ROOT
HETATM    1  C1  UNL     1      34.540 -31.114   9.961  1.00  0.00     0.072 C 
HETATM    2  C2  UNL     1      35.161 -30.671   8.686  1.00  0.00     0.052 A 
HETATM    3  N1  UNL     1      36.187 -29.823   8.686  1.00  0.00    -0.355 N 
ATOM      4  H1  UNL     1      36.558 -29.468   9.568  1.00  0.00     0.166 HD
HETATM    5  C3  UNL     1      36.739 -29.432   7.507  1.00  0.00     0.060 A 
HETATM    6  C4  UNL     1      37.807 -28.558   7.510  1.00  0.00     0.033 A 
HETATM    7  C5  UNL     1      38.369 -28.169   6.317  1.00  0.00     0.019 A 
HETATM    8  C6  UNL     1      37.901 -28.625   5.108  1.00  0.00     0.034 A 
HETATM    9  C18 UNL     1      36.820 -29.508   5.101  1.00  0.00     0.049 A 
HETATM   10  C19 UNL     1      36.252 -29.900   6.310  1.00  0.00     0.070 A 
HETATM   11  N3  UNL     1      35.206 -30.764   6.300  1.00  0.00    -0.277 N 
HETATM   12  C20 UNL     1      34.549 -31.359   5.320  1.00  0.00     0.141 A 
HETATM   13  C21 UNL     1      34.695 -31.314   3.883  1.00  0.00     0.032 A 
HETATM   14  C22 UNL     1      35.423 -32.215   3.142  1.00  0.00     0.017 A 
HETATM   15  C23 UNL     1      35.495 -32.171   1.768  1.00  0.00     0.001 A 
HETATM   16  C24 UNL     1      34.818 -31.191   1.076  1.00  0.00     0.002 A 
HETATM   17  C25 UNL     1      34.078 -30.272   1.786  1.00  0.00     0.025 A 
HETATM   18  C26 UNL     1      34.011 -30.322   3.168  1.00  0.00     0.048 A 
HETATM   19 CL1  UNL     1      33.060 -29.132   4.025  1.00  0.00    -0.083 Cl
HETATM   20  N4  UNL     1      33.578 -32.131   5.947  1.00  0.00    -0.283 N 
ATOM     21  H4  UNL     1      32.897 -32.723   5.472  1.00  0.00     0.188 HD
HETATM   22  N5  UNL     1      33.675 -31.979   7.234  1.00  0.00    -0.282 N 
ATOM     23  H5  UNL     1      33.082 -32.431   7.931  1.00  0.00     0.188 HD
HETATM   24  C27 UNL     1      34.679 -31.135   7.498  1.00  0.00     0.151 A 
ENDROOT
BRANCH   8  25
HETATM   25  C7  UNL     1      38.549 -28.168   3.873  1.00  0.00     0.252 C 
HETATM   26  O1  UNL     1      39.413 -28.918   3.322  1.00  0.00    -0.268 OA
HETATM   27  N2  UNL     1      38.293 -26.947   3.229  1.00  0.00    -0.348 N 
ATOM     28  H2  UNL     1      37.607 -26.310   3.634  1.00  0.00     0.163 HD
BRANCH  27  29
HETATM   29  C8  UNL     1      38.981 -26.558   1.993  1.00  0.00     0.034 C 
HETATM   30  C9  UNL     1      38.734 -27.534   0.886  1.00  0.00     0.035 C 
HETATM   31  C10 UNL     1      39.451 -27.060  -0.349  1.00  0.00    -0.012 C 
HETATM   32  C11 UNL     1      40.937 -26.994  -0.037  1.00  0.00     0.009 C 
HETATM   33  C15 UNL     1      39.002 -25.723  -0.838  1.00  0.00     0.009 C 
HETATM   34  C12 UNL     1      41.157 -25.945   1.022  1.00  0.00    -0.012 C 
HETATM   35  C13 UNL     1      40.647 -24.595   0.559  1.00  0.00     0.009 C 
HETATM   36  C17 UNL     1      40.455 -26.370   2.280  1.00  0.00     0.035 C 
HETATM   37  C14 UNL     1      39.162 -24.742   0.320  1.00  0.00    -0.012 C 
HETATM   38  C16 UNL     1      38.450 -25.209   1.545  1.00  0.00     0.035 C 
ENDBRANCH  27  29
ENDBRANCH   8  25
TORSDOF 2
ENDMDL
