MODEL 12
REMARK VINA RESULT: -9.081699114      3.877      6.800
REMARK  2 active torsions:
REMARK  status: ('A' for Active; 'I' for Inactive)
REMARK    1  A    between atoms: C6_8  and  C7_9 
REMARK       I    between atoms: C7_9  and  N2_11 
REMARK    2  A    between atoms: N2_11  and  C8_13 
ROOT
HETATM    1  C1  UNL     1      39.545 -23.967   8.195  1.00  0.00     0.072 C 
HETATM    2  C2  UNL     1      39.211 -24.886   7.076  1.00  0.00     0.052 A 
HETATM    3  N1  UNL     1      38.775 -26.121   7.315  1.00  0.00    -0.355 N 
ATOM      4  H1  UNL     1      38.666 -26.449   8.275  1.00  0.00     0.166 HD
HETATM    5  C3  UNL     1      38.476 -26.944   6.275  1.00  0.00     0.060 A 
HETATM    6  C4  UNL     1      38.018 -28.221   6.525  1.00  0.00     0.033 A 
HETATM    7  C5  UNL     1      37.709 -29.050   5.473  1.00  0.00     0.019 A 
HETATM    8  C6  UNL     1      37.840 -28.648   4.165  1.00  0.00     0.034 A 
HETATM    9  C18 UNL     1      38.305 -27.356   3.908  1.00  0.00     0.049 A 
HETATM   10  C19 UNL     1      38.618 -26.519   4.975  1.00  0.00     0.070 A 
HETATM   11  N3  UNL     1      39.061 -25.263   4.722  1.00  0.00    -0.277 N 
HETATM   12  C20 UNL     1      39.287 -24.604   3.599  1.00  0.00     0.141 A 
HETATM   13  C21 UNL     1      39.148 -24.977   2.209  1.00  0.00     0.032 A 
HETATM   14  C22 UNL     1      38.038 -24.721   1.438  1.00  0.00     0.017 A 
HETATM   15  C23 UNL     1      37.963 -25.043   0.101  1.00  0.00     0.001 A 
HETATM   16  C24 UNL     1      39.033 -25.651  -0.519  1.00  0.00     0.002 A 
HETATM   17  C25 UNL     1      40.161 -25.921   0.222  1.00  0.00     0.025 A 
HETATM   18  C26 UNL     1      40.229 -25.595   1.567  1.00  0.00     0.048 A 
HETATM   19 CL1  UNL     1      41.682 -25.960   2.467  1.00  0.00    -0.083 Cl
HETATM   20  N4  UNL     1      39.732 -23.348   3.993  1.00  0.00    -0.283 N 
ATOM     21  H4  UNL     1      39.993 -22.590   3.363  1.00  0.00     0.188 HD
HETATM   22  N5  UNL     1      39.761 -23.292   5.291  1.00  0.00    -0.282 N 
ATOM     23  H5  UNL     1      40.051 -22.485   5.844  1.00  0.00     0.188 HD
HETATM   24  C27 UNL     1      39.350 -24.466   5.787  1.00  0.00     0.151 A 
ENDROOT
BRANCH   8  25
HETATM   25  C7  UNL     1      37.492 -29.584   3.091  1.00  0.00     0.252 C 
HETATM   26  O1  UNL     1      37.056 -30.736   3.401  1.00  0.00    -0.268 OA
HETATM   27  N2  UNL     1      37.600 -29.316   1.717  1.00  0.00    -0.348 N 
ATOM     28  H2  UNL     1      37.946 -28.404   1.418  1.00  0.00     0.163 HD
BRANCH  27  29
HETATM   29  C8  UNL     1      37.230 -30.304   0.698  1.00  0.00     0.034 C 
HETATM   30  C9  UNL     1      38.192 -31.450   0.657  1.00  0.00     0.035 C 
HETATM   31  C10 UNL     1      37.738 -32.428  -0.392  1.00  0.00    -0.012 C 
HETATM   32  C11 UNL     1      37.728 -31.712  -1.733  1.00  0.00     0.009 C 
HETATM   33  C15 UNL     1      36.384 -33.004  -0.143  1.00  0.00     0.009 C 
HETATM   34  C12 UNL     1      36.692 -30.619  -1.683  1.00  0.00    -0.012 C 
HETATM   35  C13 UNL     1      35.323 -31.186  -1.369  1.00  0.00     0.009 C 
HETATM   36  C17 UNL     1      37.097 -29.613  -0.642  1.00  0.00     0.035 C 
HETATM   37  C14 UNL     1      35.415 -31.833  -0.006  1.00  0.00    -0.012 C 
HETATM   38  C16 UNL     1      35.861 -30.863   1.036  1.00  0.00     0.035 C 
ENDBRANCH  27  29
ENDBRANCH   8  25
TORSDOF 2
ENDMDL
