MODEL 9
REMARK VINA RESULT: -9.478832319      2.459      3.480
REMARK  2 active torsions:
REMARK  status: ('A' for Active; 'I' for Inactive)
REMARK    1  A    between atoms: C6_8  and  C7_9 
REMARK       I    between atoms: C7_9  and  N2_11 
REMARK    2  A    between atoms: N2_11  and  C8_13 
ROOT
HETATM    1  C1  UNL     1      35.676 -30.036   7.033  1.00  0.00     0.072 C 
HETATM    2  C2  UNL     1      36.422 -29.904   5.754  1.00  0.00     0.052 A 
HETATM    3  N1  UNL     1      37.261 -28.891   5.556  1.00  0.00    -0.355 N 
ATOM      4  H1  UNL     1      37.401 -28.191   6.284  1.00  0.00     0.166 HD
HETATM    5  C3  UNL     1      37.931 -28.792   4.377  1.00  0.00     0.060 A 
HETATM    6  C4  UNL     1      38.806 -27.744   4.176  1.00  0.00     0.033 A 
HETATM    7  C5  UNL     1      39.489 -27.648   2.987  1.00  0.00     0.019 A 
HETATM    8  C6  UNL     1      39.331 -28.571   1.979  1.00  0.00     0.034 A 
HETATM    9  C18 UNL     1      38.446 -29.632   2.179  1.00  0.00     0.049 A 
HETATM   10  C19 UNL     1      37.755 -29.726   3.384  1.00  0.00     0.070 A 
HETATM   11  N3  UNL     1      36.901 -30.762   3.577  1.00  0.00    -0.277 N 
HETATM   12  C20 UNL     1      36.545 -31.780   2.815  1.00  0.00     0.141 A 
HETATM   13  C21 UNL     1      36.931 -32.177   1.479  1.00  0.00     0.032 A 
HETATM   14  C22 UNL     1      37.929 -33.077   1.188  1.00  0.00     0.017 A 
HETATM   15  C23 UNL     1      38.233 -33.471  -0.096  1.00  0.00     0.001 A 
HETATM   16  C24 UNL     1      37.522 -32.956  -1.158  1.00  0.00     0.002 A 
HETATM   17  C25 UNL     1      36.515 -32.053  -0.903  1.00  0.00     0.025 A 
HETATM   18  C26 UNL     1      36.216 -31.661   0.391  1.00  0.00     0.048 A 
HETATM   19 CL1  UNL     1      34.929 -30.509   0.664  1.00  0.00    -0.083 Cl
HETATM   20  N4  UNL     1      35.635 -32.506   3.574  1.00  0.00    -0.283 N 
ATOM     21  H4  UNL     1      35.167 -33.362   3.275  1.00  0.00     0.188 HD
HETATM   22  N5  UNL     1      35.476 -31.922   4.725  1.00  0.00    -0.282 N 
ATOM     23  H5  UNL     1      34.862 -32.245   5.473  1.00  0.00     0.188 HD
HETATM   24  C27 UNL     1      36.248 -30.830   4.769  1.00  0.00     0.151 A 
ENDROOT
BRANCH   8  25
HETATM   25  C7  UNL     1      40.092 -28.408   0.736  1.00  0.00     0.252 C 
HETATM   26  O1  UNL     1      41.291 -28.825   0.693  1.00  0.00    -0.268 OA
HETATM   27  N2  UNL     1      39.603 -27.818  -0.441  1.00  0.00    -0.348 N 
ATOM     28  H2  UNL     1      38.646 -27.466  -0.455  1.00  0.00     0.163 HD
BRANCH  27  29
HETATM   29  C8  UNL     1      40.425 -27.690  -1.649  1.00  0.00     0.034 C 
HETATM   30  C9  UNL     1      40.789 -29.025  -2.220  1.00  0.00     0.035 C 
HETATM   31  C10 UNL     1      41.610 -28.814  -3.463  1.00  0.00    -0.012 C 
HETATM   32  C11 UNL     1      42.869 -28.055  -3.076  1.00  0.00     0.009 C 
HETATM   33  C15 UNL     1      40.904 -28.058  -4.539  1.00  0.00     0.009 C 
HETATM   34  C12 UNL     1      42.470 -26.689  -2.583  1.00  0.00    -0.012 C 
HETATM   35  C13 UNL     1      41.697 -25.935  -3.646  1.00  0.00     0.009 C 
HETATM   36  C17 UNL     1      41.640 -26.844  -1.339  1.00  0.00     0.035 C 
HETATM   37  C14 UNL     1      40.446 -26.734  -3.933  1.00  0.00    -0.012 C 
HETATM   38  C16 UNL     1      39.630 -26.940  -2.701  1.00  0.00     0.035 C 
ENDBRANCH  27  29
ENDBRANCH   8  25
TORSDOF 2
ENDMDL
