MODEL 2
REMARK VINA RESULT: -9.455037818      0.326      1.393
REMARK  4 active torsions:
REMARK  status: ('A' for Active; 'I' for Inactive)
REMARK    1  A    between atoms: O1_2  and  C2_3 
REMARK    2  A    between atoms: C7_8  and  C8_9 
REMARK    3  A    between atoms: C16_26  and  N5_27 
REMARK    4  A    between atoms: N5_27  and  C17_29 
ROOT
HETATM    1  C2  UNL     1      20.947  -2.124   6.125  1.00  0.00     0.080 A 
HETATM    2  C3  UNL     1      19.813  -2.829   6.443  1.00  0.00     0.052 A 
HETATM    3  C4  UNL     1      19.764  -3.492   7.639  1.00  0.00     0.011 A 
HETATM    4  C5  UNL     1      20.841  -3.463   8.525  1.00  0.00     0.046 A 
HETATM    5  C6  UNL     1      21.947  -2.759   8.190  1.00  0.00     0.045 A 
HETATM    6  C7  UNL     1      22.042  -2.086   7.016  1.00  0.00     0.014 A 
HETATM    7  N2  UNL     1      20.559  -4.233   9.610  1.00  0.00    -0.341 N 
ATOM      8  H2  UNL     1      21.184  -4.380  10.403  1.00  0.00     0.167 HD
HETATM    9  C13 UNL     1      19.343  -4.769   9.483  1.00  0.00     0.122 A 
HETATM   10  N3  UNL     1      18.594  -5.632  10.210  1.00  0.00    -0.332 N 
ATOM     11  H3  UNL     1      18.958  -5.972  11.099  1.00  0.00     0.168 HD
HETATM   12  C14 UNL     1      17.387  -6.056   9.797  1.00  0.00     0.080 A 
HETATM   13  C15 UNL     1      16.603  -7.054  10.624  1.00  0.00     0.089 C 
HETATM   14  N4  UNL     1      16.924  -5.591   8.628  1.00  0.00    -0.332 N 
ATOM     15  H4  UNL     1      16.007  -5.907   8.313  1.00  0.00     0.168 HD
HETATM   16  C16 UNL     1      17.600  -4.736   7.851  1.00  0.00     0.123 A 
HETATM   17  C25 UNL     1      18.826  -4.311   8.253  1.00  0.00     0.065 A 
ENDROOT
BRANCH  16  18
HETATM   18  N5  UNL     1      16.984  -4.096   6.694  1.00  0.00    -0.326 N 
ATOM     19  H5  UNL     1      17.242  -3.144   6.434  1.00  0.00     0.169 HD
BRANCH  18  20
HETATM   20  C17 UNL     1      16.032  -4.805   5.942  1.00  0.00     0.134 A 
HETATM   21  N6  UNL     1      15.697  -3.481   5.009  1.00  0.00    -0.282 N 
HETATM   22  N7  UNL     1      14.828  -3.747   4.158  1.00  0.00    -0.294 N 
ATOM     23  H6  UNL     1      16.142  -2.570   5.116  1.00  0.00     0.189 HD
HETATM   24  C18 UNL     1      14.252  -2.849   3.142  1.00  0.00     0.178 C 
HETATM   25  C19 UNL     1      14.450  -5.016   4.280  1.00  0.00     0.064 A 
HETATM   26  C20 UNL     1      13.534  -5.780   3.574  1.00  0.00     0.032 A 
HETATM   27  C24 UNL     1      15.183  -5.436   5.270  1.00  0.00     0.038 A 
HETATM   28  C21 UNL     1      13.400  -7.108   3.976  1.00  0.00     0.002 A 
HETATM   29  C22 UNL     1      14.163  -7.594   5.026  1.00  0.00     0.001 A 
HETATM   30  C23 UNL     1      15.040  -6.835   5.687  1.00  0.00     0.017 A 
ENDBRANCH  18  20
ENDBRANCH  16  18
BRANCH   1  31
HETATM   31  O1  UNL     1      21.166  -1.412   4.982  1.00  0.00    -0.355 OA
HETATM   32  C1  UNL     1      20.332  -0.351   4.574  1.00  0.00     0.210 C 
ENDBRANCH   1  31
BRANCH   6  33
HETATM   33  C8  UNL     1      23.221  -1.326   6.668  1.00  0.00     0.032 A 
HETATM   34  C9  UNL     1      24.393  -1.784   6.095  1.00  0.00     0.042 A 
HETATM   35  C10 UNL     1      24.733  -3.187   5.669  1.00  0.00     0.071 C 
HETATM   36  N1  UNL     1      25.159  -0.687   6.000  1.00  0.00    -0.265 N 
HETATM   37  O2  UNL     1      24.549   0.361   6.463  1.00  0.00    -0.242 OA
ATOM     38  H1  UNL     1      26.103  -0.679   5.612  1.00  0.00     0.194 HD
HETATM   39  C11 UNL     1      23.345   0.038   6.892  1.00  0.00     0.085 A 
HETATM   40  C12 UNL     1      22.321   0.947   7.495  1.00  0.00     0.079 C 
ENDBRANCH   6  33
TORSDOF 4
ENDMDL
