MODEL 1
REMARK VINA RESULT: -9.525115264      0.000      0.000
REMARK  4 active torsions:
REMARK  status: ('A' for Active; 'I' for Inactive)
REMARK    1  A    between atoms: O1_2  and  C2_3 
REMARK    2  A    between atoms: C7_8  and  C8_9 
REMARK    3  A    between atoms: C16_26  and  N5_27 
REMARK    4  A    between atoms: N5_27  and  C17_29 
ROOT
HETATM    1  C2  UNL     1      20.892  -2.088   6.169  1.00  0.00     0.080 A 
HETATM    2  C3  UNL     1      19.766  -2.808   6.482  1.00  0.00     0.052 A 
HETATM    3  C4  UNL     1      19.730  -3.491   7.667  1.00  0.00     0.011 A 
HETATM    4  C5  UNL     1      20.811  -3.468   8.548  1.00  0.00     0.046 A 
HETATM    5  C6  UNL     1      21.910  -2.749   8.218  1.00  0.00     0.045 A 
HETATM    6  C7  UNL     1      21.992  -2.055   7.055  1.00  0.00     0.014 A 
HETATM    7  N2  UNL     1      20.543  -4.259   9.621  1.00  0.00    -0.341 N 
ATOM      8  H2  UNL     1      21.174  -4.413  10.408  1.00  0.00     0.167 HD
HETATM    9  C13 UNL     1      19.331  -4.803   9.492  1.00  0.00     0.122 A 
HETATM   10  N3  UNL     1      18.593  -5.685  10.208  1.00  0.00    -0.332 N 
ATOM     11  H3  UNL     1      18.965  -6.036  11.090  1.00  0.00     0.168 HD
HETATM   12  C14 UNL     1      17.388  -6.112   9.796  1.00  0.00     0.080 A 
HETATM   13  C15 UNL     1      16.617  -7.131  10.610  1.00  0.00     0.089 C 
HETATM   14  N4  UNL     1      16.913  -5.632   8.637  1.00  0.00    -0.332 N 
ATOM     15  H4  UNL     1      15.997  -5.950   8.322  1.00  0.00     0.168 HD
HETATM   16  C16 UNL     1      17.577  -4.758   7.870  1.00  0.00     0.123 A 
HETATM   17  C25 UNL     1      18.802  -4.328   8.273  1.00  0.00     0.065 A 
ENDROOT
BRANCH  16  18
HETATM   18  N5  UNL     1      16.949  -4.104   6.728  1.00  0.00    -0.326 N 
ATOM     19  H5  UNL     1      17.192  -3.143   6.488  1.00  0.00     0.169 HD
BRANCH  18  20
HETATM   20  C17 UNL     1      16.007  -4.812   5.963  1.00  0.00     0.134 A 
HETATM   21  N6  UNL     1      15.679  -3.485   5.032  1.00  0.00    -0.282 N 
HETATM   22  N7  UNL     1      14.819  -3.750   4.171  1.00  0.00    -0.294 N 
ATOM     23  H6  UNL     1      16.120  -2.573   5.148  1.00  0.00     0.189 HD
HETATM   24  C18 UNL     1      14.252  -2.849   3.153  1.00  0.00     0.178 C 
HETATM   25  C19 UNL     1      14.443  -5.020   4.284  1.00  0.00     0.064 A 
HETATM   26  C20 UNL     1      13.537  -5.783   3.565  1.00  0.00     0.032 A 
HETATM   27  C24 UNL     1      15.167  -5.443   5.280  1.00  0.00     0.038 A 
HETATM   28  C21 UNL     1      13.402  -7.113   3.960  1.00  0.00     0.002 A 
HETATM   29  C22 UNL     1      14.155  -7.601   5.016  1.00  0.00     0.001 A 
HETATM   30  C23 UNL     1      15.023  -6.843   5.690  1.00  0.00     0.017 A 
ENDBRANCH  18  20
ENDBRANCH  16  18
BRANCH   1  31
HETATM   31  O1  UNL     1      21.098  -1.356   5.037  1.00  0.00    -0.355 OA
HETATM   32  C1  UNL     1      20.330  -0.218   4.716  1.00  0.00     0.210 C 
ENDBRANCH   1  31
BRANCH   6  33
HETATM   33  C8  UNL     1      23.162  -1.279   6.713  1.00  0.00     0.032 A 
HETATM   34  C9  UNL     1      23.378   0.072   6.912  1.00  0.00     0.042 A 
HETATM   35  C10 UNL     1      22.458   1.076   7.553  1.00  0.00     0.071 C 
HETATM   36  N1  UNL     1      24.602   0.284   6.407  1.00  0.00    -0.265 N 
HETATM   37  O2  UNL     1      25.117  -0.810   5.932  1.00  0.00    -0.242 OA
ATOM     38  H1  UNL     1      25.070   1.190   6.396  1.00  0.00     0.194 HD
HETATM   39  C11 UNL     1      24.280  -1.816   6.090  1.00  0.00     0.085 A 
HETATM   40  C12 UNL     1      24.485  -3.242   5.684  1.00  0.00     0.079 C 
ENDBRANCH   6  33
TORSDOF 4
ENDMDL
