MODEL 3
REMARK VINA RESULT: -9.037636310      1.171      1.956
REMARK  4 active torsions:
REMARK  status: ('A' for Active; 'I' for Inactive)
REMARK    1  A    between atoms: O1_2  and  C2_3 
REMARK    2  A    between atoms: C7_8  and  C8_9 
REMARK    3  A    between atoms: C16_26  and  N5_27 
REMARK    4  A    between atoms: N5_27  and  C17_29 
ROOT
HETATM    1  C2  UNL     1      21.331  -1.759   6.253  1.00  0.00     0.080 A 
HETATM    2  C3  UNL     1      20.373  -2.571   6.808  1.00  0.00     0.052 A 
HETATM    3  C4  UNL     1      20.621  -3.145   8.025  1.00  0.00     0.011 A 
HETATM    4  C5  UNL     1      21.823  -2.921   8.698  1.00  0.00     0.046 A 
HETATM    5  C6  UNL     1      22.751  -2.115   8.130  1.00  0.00     0.045 A 
HETATM    6  C7  UNL     1      22.550  -1.524   6.927  1.00  0.00     0.014 A 
HETATM    7  N2  UNL     1      21.839  -3.638   9.853  1.00  0.00    -0.341 N 
ATOM      8  H2  UNL     1      22.606  -3.649  10.525  1.00  0.00     0.167 HD
HETATM    9  C13 UNL     1      20.701  -4.324   9.978  1.00  0.00     0.122 A 
HETATM   10  N3  UNL     1      20.210  -5.216  10.871  1.00  0.00    -0.332 N 
ATOM     11  H3  UNL     1      20.765  -5.443  11.696  1.00  0.00     0.168 HD
HETATM   12  C14 UNL     1      19.016  -5.811  10.708  1.00  0.00     0.080 A 
HETATM   13  C15 UNL     1      18.527  -6.833  11.713  1.00  0.00     0.089 C 
HETATM   14  N4  UNL     1      18.299  -5.493   9.621  1.00  0.00    -0.332 N 
ATOM     15  H4  UNL     1      17.390  -5.939   9.495  1.00  0.00     0.168 HD
HETATM   16  C16 UNL     1      18.710  -4.622   8.691  1.00  0.00     0.123 A 
HETATM   17  C25 UNL     1      19.920  -4.023   8.841  1.00  0.00     0.065 A 
ENDROOT
BRANCH  16  18
HETATM   18  N5  UNL     1      17.823  -4.147   7.635  1.00  0.00    -0.326 N 
ATOM     19  H5  UNL     1      17.782  -3.155   7.404  1.00  0.00     0.169 HD
BRANCH  18  20
HETATM   20  C17 UNL     1      17.025  -5.072   6.941  1.00  0.00     0.134 A 
HETATM   21  N6  UNL     1      16.320  -3.877   6.041  1.00  0.00    -0.282 N 
HETATM   22  N7  UNL     1      15.488  -4.353   5.246  1.00  0.00    -0.294 N 
ATOM     23  H6  UNL     1      16.536  -2.884   6.127  1.00  0.00     0.189 HD
HETATM   24  C18 UNL     1      14.647  -3.630   4.277  1.00  0.00     0.178 C 
HETATM   25  C19 UNL     1      15.438  -5.674   5.382  1.00  0.00     0.064 A 
HETATM   26  C20 UNL     1      14.692  -6.643   4.731  1.00  0.00     0.032 A 
HETATM   27  C24 UNL     1      16.313  -5.896   6.320  1.00  0.00     0.038 A 
HETATM   28  C21 UNL     1      14.910  -7.961   5.130  1.00  0.00     0.002 A 
HETATM   29  C22 UNL     1      15.834  -8.238   6.125  1.00  0.00     0.001 A 
HETATM   30  C23 UNL     1      16.541  -7.284   6.735  1.00  0.00     0.017 A 
ENDBRANCH  18  20
ENDBRANCH  16  18
BRANCH   1  31
HETATM   31  O1  UNL     1      21.251  -1.113   5.055  1.00  0.00    -0.355 OA
HETATM   32  C1  UNL     1      20.323  -0.082   4.806  1.00  0.00     0.210 C 
ENDBRANCH   1  31
BRANCH   6  33
HETATM   33  C8  UNL     1      23.540  -0.655   6.331  1.00  0.00     0.032 A 
HETATM   34  C9  UNL     1      24.579  -0.999   5.487  1.00  0.00     0.042 A 
HETATM   35  C10 UNL     1      24.935  -2.362   4.957  1.00  0.00     0.071 C 
HETATM   36  N1  UNL     1      25.199   0.165   5.243  1.00  0.00    -0.265 N 
HETATM   37  O2  UNL     1      24.624   1.150   5.863  1.00  0.00    -0.242 OA
ATOM     38  H1  UNL     1      26.020   0.264   4.645  1.00  0.00     0.194 HD
HETATM   39  C11 UNL     1      23.590   0.713   6.555  1.00  0.00     0.085 A 
HETATM   40  C12 UNL     1      22.659   1.520   7.406  1.00  0.00     0.079 C 
ENDBRANCH   6  33
TORSDOF 4
ENDMDL
