MODEL 14
REMARK VINA RESULT: -8.560674481      3.317      8.399
REMARK  4 active torsions:
REMARK  status: ('A' for Active; 'I' for Inactive)
REMARK    1  A    between atoms: O1_2  and  C2_3 
REMARK    2  A    between atoms: C7_8  and  C8_9 
REMARK    3  A    between atoms: C16_26  and  N5_27 
REMARK    4  A    between atoms: N5_27  and  C17_29 
ROOT
HETATM    1  C2  UNL     1      17.059  -6.102   7.842  1.00  0.00     0.080 A 
HETATM    2  C3  UNL     1      18.168  -5.669   8.526  1.00  0.00     0.052 A 
HETATM    3  C4  UNL     1      18.880  -4.614   8.023  1.00  0.00     0.011 A 
HETATM    4  C5  UNL     1      18.501  -3.986   6.837  1.00  0.00     0.046 A 
HETATM    5  C6  UNL     1      17.403  -4.431   6.182  1.00  0.00     0.045 A 
HETATM    6  C7  UNL     1      16.665  -5.472   6.642  1.00  0.00     0.014 A 
HETATM    7  N2  UNL     1      19.395  -3.007   6.533  1.00  0.00    -0.341 N 
ATOM      8  H2  UNL     1      19.344  -2.401   5.714  1.00  0.00     0.167 HD
HETATM    9  C13 UNL     1      20.347  -2.957   7.467  1.00  0.00     0.122 A 
HETATM   10  N3  UNL     1      21.482  -2.238   7.644  1.00  0.00    -0.332 N 
ATOM     11  H3  UNL     1      21.717  -1.514   6.965  1.00  0.00     0.168 HD
HETATM   12  C14 UNL     1      22.307  -2.446   8.683  1.00  0.00     0.080 A 
HETATM   13  C15 UNL     1      23.586  -1.645   8.816  1.00  0.00     0.089 C 
HETATM   14  N4  UNL     1      21.976  -3.397   9.568  1.00  0.00    -0.332 N 
ATOM     15  H4  UNL     1      22.598  -3.555  10.361  1.00  0.00     0.168 HD
HETATM   16  C16 UNL     1      20.874  -4.150   9.468  1.00  0.00     0.123 A 
HETATM   17  C25 UNL     1      20.038  -3.956   8.415  1.00  0.00     0.065 A 
ENDROOT
BRANCH  16  18
HETATM   18  N5  UNL     1      20.441  -5.028  10.549  1.00  0.00    -0.326 N 
ATOM     19  H5  UNL     1      20.839  -5.962  10.645  1.00  0.00     0.169 HD
BRANCH  18  20
HETATM   20  C17 UNL     1      19.470  -4.572  11.457  1.00  0.00     0.134 A 
HETATM   21  N6  UNL     1      20.541  -4.619  12.716  1.00  0.00    -0.282 N 
HETATM   22  N7  UNL     1      19.997  -4.252  13.775  1.00  0.00    -0.294 N 
ATOM     23  H6  UNL     1      21.515  -4.910  12.637  1.00  0.00     0.189 HD
HETATM   24  C18 UNL     1      20.601  -4.153  15.115  1.00  0.00     0.178 C 
HETATM   25  C19 UNL     1      18.725  -3.941  13.545  1.00  0.00     0.064 A 
HETATM   26  C20 UNL     1      17.721  -3.479  14.379  1.00  0.00     0.032 A 
HETATM   27  C24 UNL     1      18.605  -4.165  12.268  1.00  0.00     0.038 A 
HETATM   28  C21 UNL     1      16.484  -3.242  13.782  1.00  0.00     0.002 A 
HETATM   29  C22 UNL     1      16.316  -3.468  12.425  1.00  0.00     0.001 A 
HETATM   30  C23 UNL     1      17.302  -3.912  11.644  1.00  0.00     0.017 A 
ENDBRANCH  18  20
ENDBRANCH  16  18
BRANCH   1  31
HETATM   31  O1  UNL     1      16.240  -7.134   8.197  1.00  0.00    -0.355 OA
HETATM   32  C1  UNL     1      16.323  -7.778   9.448  1.00  0.00     0.210 C 
ENDBRANCH   1  31
BRANCH   6  33
HETATM   33  C8  UNL     1      15.487  -5.935   5.944  1.00  0.00     0.032 A 
HETATM   34  C9  UNL     1      15.281  -7.160   5.337  1.00  0.00     0.042 A 
HETATM   35  C10 UNL     1      16.224  -8.332   5.264  1.00  0.00     0.071 C 
HETATM   36  N1  UNL     1      14.043  -7.069   4.830  1.00  0.00    -0.265 N 
HETATM   37  O2  UNL     1      13.510  -5.912   5.081  1.00  0.00    -0.242 OA
ATOM     38  H1  UNL     1      13.578  -7.815   4.313  1.00  0.00     0.194 HD
HETATM   39  C11 UNL     1      14.349  -5.161   5.768  1.00  0.00     0.085 A 
HETATM   40  C12 UNL     1      14.126  -3.765   6.258  1.00  0.00     0.079 C 
ENDBRANCH   6  33
TORSDOF 4
ENDMDL
