MODEL 4
REMARK VINA RESULT: -7.597157244      3.940      6.755
REMARK  7 active torsions:
REMARK  status: ('A' for Active; 'I' for Inactive)
REMARK    1  A    between atoms: N5_13  and  C6_14 
REMARK    2  A    between atoms: C7_16  and  C8_17 
REMARK    3  A    between atoms: C8_17  and  O2_18 
REMARK    4  A    between atoms: O2_18  and  S1_19 
REMARK    5  A    between atoms: S1_19  and  N6_20 
REMARK    6  A    between atoms: C9_25  and  O5_26 
REMARK    7  A    between atoms: C10_28  and  O6_29 
ROOT
HETATM    1  C6  UNL     1      -3.979   4.877  13.621  1.00  0.00     0.262 C 
HETATM    2  O1  UNL     1      -3.837   4.014  12.538  1.00  0.00    -0.353 OA
HETATM    3  C7  UNL     1      -2.633   4.319  11.934  1.00  0.00     0.180 C 
HETATM    4  C9  UNL     1      -1.692   4.500  13.114  1.00  0.00     0.182 C 
HETATM    5  C10 UNL     1      -2.597   5.163  14.131  1.00  0.00     0.198 C 
ENDROOT
BRANCH   1   6
HETATM    6  N5  UNL     1      -4.850   4.305  14.602  1.00  0.00    -0.297 N 
HETATM    7  C3  UNL     1      -4.828   3.087  15.190  1.00  0.00     0.142 A 
HETATM    8  N3  UNL     1      -4.007   2.060  15.042  1.00  0.00    -0.336 N 
HETATM    9  C4  UNL     1      -5.877   2.982  16.082  1.00  0.00     0.119 A 
HETATM   10  C2  UNL     1      -4.165   0.921  15.734  1.00  0.00     0.183 A 
ATOM     11  H3  UNL     1      -3.233   2.137  14.383  1.00  0.00     0.168 HD
HETATM   12  N2  UNL     1      -5.192   0.837  16.598  1.00  0.00    -0.339 N 
HETATM   13  C1  UNL     1      -6.081   1.818  16.823  1.00  0.00     0.148 A 
ATOM     14  H2  UNL     1      -5.304  -0.033  17.120  1.00  0.00     0.167 HD
HETATM   15  N1  UNL     1      -7.164   1.723  17.737  1.00  0.00    -0.080 NA
HETATM   16  N4  UNL     1      -6.531   4.135  16.033  1.00  0.00    -0.346 N 
HETATM   17  C5  UNL     1      -5.910   4.937  15.138  1.00  0.00     0.188 A 
ATOM     18  H4  UNL     1      -7.360   4.376  16.577  1.00  0.00     0.167 HD
ENDBRANCH   1   6
BRANCH   5  19
HETATM   19  O6  UNL     1      -2.297   6.524  14.129  1.00  0.00    -0.388 OA
ATOM     20  H6  UNL     1      -1.378   6.695  14.299  1.00  0.00     0.210 HD
ENDBRANCH   5  19
BRANCH   3  21
HETATM   21  C8  UNL     1      -2.217   3.139  11.080  1.00  0.00     0.226 C 
BRANCH  21  22
HETATM   22  O2  UNL     1      -2.346   1.951  11.818  1.00  0.00    -0.257 OA
BRANCH  22  23
HETATM   23  S1  UNL     1      -3.653   1.097  11.200  1.00  0.00     0.355 S 
HETATM   24  O3  UNL     1      -4.299   0.371  12.343  1.00  0.00    -0.176 OA
HETATM   25  O4  UNL     1      -3.205   0.071  10.187  1.00  0.00    -0.176 OA
BRANCH  23  26
HETATM   26  N6  UNL     1      -4.759   2.149  10.402  1.00  0.00    -0.306 N 
ATOM     27  H62 UNL     1      -4.486   3.030   9.968  1.00  0.00     0.171 HD
ATOM     28  H61 UNL     1      -5.706   1.772  10.426  1.00  0.00     0.171 HD
ENDBRANCH  23  26
ENDBRANCH  22  23
ENDBRANCH  21  22
ENDBRANCH   3  21
BRANCH   4  29
HETATM   29  O5  UNL     1      -0.644   5.353  12.750  1.00  0.00    -0.390 OA
ATOM     30  H5  UNL     1      -0.962   6.248  12.712  1.00  0.00     0.210 HD
ENDBRANCH   4  29
TORSDOF 7
ENDMDL
