MODEL 12
REMARK VINA RESULT: -7.289932954      3.946      6.672
REMARK  7 active torsions:
REMARK  status: ('A' for Active; 'I' for Inactive)
REMARK    1  A    between atoms: N5_13  and  C6_14 
REMARK    2  A    between atoms: C7_16  and  C8_17 
REMARK    3  A    between atoms: C8_17  and  O2_18 
REMARK    4  A    between atoms: O2_18  and  S1_19 
REMARK    5  A    between atoms: S1_19  and  N6_20 
REMARK    6  A    between atoms: C9_25  and  O5_26 
REMARK    7  A    between atoms: C10_28  and  O6_29 
ROOT
HETATM    1  C6  UNL     1      -4.240   4.711  13.233  1.00  0.00     0.262 C 
HETATM    2  O1  UNL     1      -3.984   3.696  12.317  1.00  0.00    -0.353 OA
HETATM    3  C7  UNL     1      -2.857   4.065  11.609  1.00  0.00     0.180 C 
HETATM    4  C9  UNL     1      -1.933   4.602  12.689  1.00  0.00     0.182 C 
HETATM    5  C10 UNL     1      -2.911   5.295  13.616  1.00  0.00     0.198 C 
ENDROOT
BRANCH   1   6
HETATM    6  N5  UNL     1      -4.988   4.204  14.343  1.00  0.00    -0.297 N 
HETATM    7  C3  UNL     1      -4.891   3.025  15.000  1.00  0.00     0.142 A 
HETATM    8  N3  UNL     1      -4.087   1.990  14.822  1.00  0.00    -0.336 N 
HETATM    9  C4  UNL     1      -5.829   2.978  16.012  1.00  0.00     0.119 A 
HETATM   10  C2  UNL     1      -4.156   0.896  15.598  1.00  0.00     0.183 A 
ATOM     11  H3  UNL     1      -3.394   2.024  14.074  1.00  0.00     0.168 HD
HETATM   12  N2  UNL     1      -5.076   0.868  16.579  1.00  0.00    -0.339 N 
HETATM   13  C1  UNL     1      -5.939   1.863  16.843  1.00  0.00     0.148 A 
ATOM     14  H2  UNL     1      -5.121   0.033  17.163  1.00  0.00     0.167 HD
HETATM   15  N1  UNL     1      -6.909   1.827  17.881  1.00  0.00    -0.080 NA
HETATM   16  N4  UNL     1      -6.491   4.126  15.966  1.00  0.00    -0.346 N 
HETATM   17  C5  UNL     1      -5.983   4.870  14.956  1.00  0.00     0.188 A 
ATOM     18  H4  UNL     1      -7.253   4.402  16.586  1.00  0.00     0.167 HD
ENDBRANCH   1   6
BRANCH   5  19
HETATM   19  O6  UNL     1      -2.832   6.662  13.356  1.00  0.00    -0.388 OA
ATOM     20  H6  UNL     1      -2.102   7.076  13.801  1.00  0.00     0.210 HD
ENDBRANCH   5  19
BRANCH   3  21
HETATM   21  C8  UNL     1      -2.276   2.826  10.960  1.00  0.00     0.226 C 
BRANCH  21  22
HETATM   22  O2  UNL     1      -2.322   1.751  11.864  1.00  0.00    -0.257 OA
BRANCH  22  23
HETATM   23  S1  UNL     1      -3.421   0.627  11.275  1.00  0.00     0.355 S 
HETATM   24  O3  UNL     1      -4.013   1.191  10.017  1.00  0.00    -0.176 OA
HETATM   25  O4  UNL     1      -4.544   0.395  12.257  1.00  0.00    -0.176 OA
BRANCH  23  26
HETATM   26  N6  UNL     1      -2.664  -0.895  11.000  1.00  0.00    -0.306 N 
ATOM     27  H62 UNL     1      -1.928  -1.275  11.595  1.00  0.00     0.171 HD
ATOM     28  H61 UNL     1      -3.049  -1.353  10.174  1.00  0.00     0.171 HD
ENDBRANCH  23  26
ENDBRANCH  22  23
ENDBRANCH  21  22
ENDBRANCH   3  21
BRANCH   4  29
HETATM   29  O5  UNL     1      -1.043   5.523  12.127  1.00  0.00    -0.390 OA
ATOM     30  H5  UNL     1      -0.640   6.037  12.818  1.00  0.00     0.210 HD
ENDBRANCH   4  29
TORSDOF 7
ENDMDL
