MODEL 10
REMARK VINA RESULT: -7.312683873      2.140      2.731
REMARK  7 active torsions:
REMARK  status: ('A' for Active; 'I' for Inactive)
REMARK    1  A    between atoms: N5_13  and  C6_14 
REMARK    2  A    between atoms: C7_16  and  C8_17 
REMARK    3  A    between atoms: C8_17  and  O2_18 
REMARK    4  A    between atoms: O2_18  and  S1_19 
REMARK    5  A    between atoms: S1_19  and  N6_20 
REMARK    6  A    between atoms: C9_25  and  O5_26 
REMARK    7  A    between atoms: C10_28  and  O6_29 
ROOT
HETATM    1  C6  UNL     1      -4.075   5.578  11.943  1.00  0.00     0.262 C 
HETATM    2  O1  UNL     1      -4.435   5.163  13.221  1.00  0.00    -0.353 OA
HETATM    3  C7  UNL     1      -5.320   4.113  13.071  1.00  0.00     0.180 C 
HETATM    4  C9  UNL     1      -4.689   3.287  11.963  1.00  0.00     0.182 C 
HETATM    5  C10 UNL     1      -4.113   4.362  11.065  1.00  0.00     0.198 C 
ENDROOT
BRANCH   1   6
HETATM    6  N5  UNL     1      -2.801   6.230  11.972  1.00  0.00    -0.297 N 
HETATM    7  C3  UNL     1      -2.290   7.117  12.856  1.00  0.00     0.142 A 
HETATM    8  N3  UNL     1      -2.802   7.651  13.952  1.00  0.00    -0.336 N 
HETATM    9  C4  UNL     1      -1.012   7.474  12.471  1.00  0.00     0.119 A 
HETATM   10  C2  UNL     1      -2.115   8.529  14.701  1.00  0.00     0.183 A 
ATOM     11  H3  UNL     1      -3.745   7.389  14.236  1.00  0.00     0.168 HD
HETATM   12  N2  UNL     1      -0.873   8.865  14.311  1.00  0.00    -0.339 N 
HETATM   13  C1  UNL     1      -0.261   8.382  13.217  1.00  0.00     0.148 A 
ATOM     14  H2  UNL     1      -0.358   9.532  14.887  1.00  0.00     0.167 HD
HETATM   15  N1  UNL     1       1.053   8.741  12.810  1.00  0.00    -0.080 NA
HETATM   16  N4  UNL     1      -0.752   6.803  11.357  1.00  0.00    -0.346 N 
HETATM   17  C5  UNL     1      -1.834   6.049  11.054  1.00  0.00     0.188 A 
ATOM     18  H4  UNL     1       0.114   6.847  10.820  1.00  0.00     0.167 HD
ENDBRANCH   1   6
BRANCH   5  19
HETATM   19  O6  UNL     1      -4.982   4.509   9.984  1.00  0.00    -0.388 OA
ATOM     20  H6  UNL     1      -5.292   3.676   9.650  1.00  0.00     0.210 HD
ENDBRANCH   5  19
BRANCH   3  21
HETATM   21  C8  UNL     1      -5.366   3.339  14.371  1.00  0.00     0.226 C 
BRANCH  21  22
HETATM   22  O2  UNL     1      -4.627   2.152  14.243  1.00  0.00    -0.257 OA
BRANCH  22  23
HETATM   23  S1  UNL     1      -4.649   1.366  15.726  1.00  0.00     0.355 S 
HETATM   24  O3  UNL     1      -3.359   1.683  16.425  1.00  0.00    -0.176 OA
HETATM   25  O4  UNL     1      -4.728  -0.131  15.550  1.00  0.00    -0.176 OA
BRANCH  23  26
HETATM   26  N6  UNL     1      -6.016   1.841  16.659  1.00  0.00    -0.306 N 
ATOM     27  H62 UNL     1      -6.219   1.476  17.590  1.00  0.00     0.171 HD
ATOM     28  H61 UNL     1      -6.583   2.525  16.159  1.00  0.00     0.171 HD
ENDBRANCH  23  26
ENDBRANCH  22  23
ENDBRANCH  21  22
ENDBRANCH   3  21
BRANCH   4  29
HETATM   29  O5  UNL     1      -5.682   2.562  11.296  1.00  0.00    -0.390 OA
ATOM     30  H5  UNL     1      -6.107   1.970  11.906  1.00  0.00     0.210 HD
ENDBRANCH   4  29
TORSDOF 7
ENDMDL
