MODEL 9
REMARK VINA RESULT: -7.326017094      3.129      6.500
REMARK  7 active torsions:
REMARK  status: ('A' for Active; 'I' for Inactive)
REMARK    1  A    between atoms: N5_13  and  C6_14 
REMARK    2  A    between atoms: C7_16  and  C8_17 
REMARK    3  A    between atoms: C8_17  and  O2_18 
REMARK    4  A    between atoms: O2_18  and  S1_19 
REMARK    5  A    between atoms: S1_19  and  N6_20 
REMARK    6  A    between atoms: C9_25  and  O5_26 
REMARK    7  A    between atoms: C10_28  and  O6_29 
ROOT
HETATM    1  C6  UNL     1      -3.936   1.667  12.719  1.00  0.00     0.262 C 
HETATM    2  O1  UNL     1      -2.772   2.427  12.657  1.00  0.00    -0.353 OA
HETATM    3  C7  UNL     1      -2.671   2.906  11.365  1.00  0.00     0.180 C 
HETATM    4  C9  UNL     1      -4.091   3.344  11.049  1.00  0.00     0.182 C 
HETATM    5  C10 UNL     1      -4.907   2.281  11.754  1.00  0.00     0.198 C 
ENDROOT
BRANCH   1   6
HETATM    6  N5  UNL     1      -4.419   1.606  14.065  1.00  0.00    -0.297 N 
HETATM    7  C3  UNL     1      -5.115   2.514  14.788  1.00  0.00     0.142 A 
HETATM    8  N3  UNL     1      -5.556   3.722  14.481  1.00  0.00    -0.336 N 
HETATM    9  C4  UNL     1      -5.362   2.012  16.051  1.00  0.00     0.119 A 
HETATM   10  C2  UNL     1      -6.237   4.473  15.361  1.00  0.00     0.183 A 
ATOM     11  H3  UNL     1      -5.373   4.094  13.549  1.00  0.00     0.168 HD
HETATM   12  N2  UNL     1      -6.469   3.968  16.585  1.00  0.00    -0.339 N 
HETATM   13  C1  UNL     1      -6.065   2.755  16.998  1.00  0.00     0.148 A 
ATOM     14  H2  UNL     1      -6.988   4.546  17.247  1.00  0.00     0.167 HD
HETATM   15  N1  UNL     1      -6.313   2.227  18.294  1.00  0.00    -0.080 NA
HETATM   16  N4  UNL     1      -4.817   0.803  16.090  1.00  0.00    -0.346 N 
HETATM   17  C5  UNL     1      -4.247   0.556  14.888  1.00  0.00     0.188 A 
ATOM     18  H4  UNL     1      -4.827   0.168  16.888  1.00  0.00     0.167 HD
ENDBRANCH   1   6
BRANCH   5  19
HETATM   19  O6  UNL     1      -5.341   1.379  10.784  1.00  0.00    -0.388 OA
ATOM     20  H6  UNL     1      -4.765   1.352  10.029  1.00  0.00     0.210 HD
ENDBRANCH   5  19
BRANCH   3  21
HETATM   21  C8  UNL     1      -1.723   4.086  11.368  1.00  0.00     0.226 C 
BRANCH  21  22
HETATM   22  O2  UNL     1      -2.455   5.283  11.437  1.00  0.00    -0.257 OA
BRANCH  22  23
HETATM   23  S1  UNL     1      -2.326   5.879  13.002  1.00  0.00     0.355 S 
HETATM   24  O3  UNL     1      -3.718   6.083  13.523  1.00  0.00    -0.176 OA
HETATM   25  O4  UNL     1      -1.619   7.213  13.021  1.00  0.00    -0.176 OA
BRANCH  23  26
HETATM   26  N6  UNL     1      -1.419   4.808  14.000  1.00  0.00    -0.306 N 
ATOM     27  H62 UNL     1      -0.961   3.966  13.654  1.00  0.00     0.171 HD
ATOM     28  H61 UNL     1      -1.407   5.131  14.968  1.00  0.00     0.171 HD
ENDBRANCH  23  26
ENDBRANCH  22  23
ENDBRANCH  21  22
ENDBRANCH   3  21
BRANCH   4  29
HETATM   29  O5  UNL     1      -4.299   3.295   9.667  1.00  0.00    -0.390 OA
ATOM     30  H5  UNL     1      -5.097   3.763   9.449  1.00  0.00     0.210 HD
ENDBRANCH   4  29
TORSDOF 7
ENDMDL
