MODEL 14
REMARK VINA RESULT: -6.859628930      4.024      7.052
REMARK  7 active torsions:
REMARK  status: ('A' for Active; 'I' for Inactive)
REMARK    1  A    between atoms: N5_14  and  C6_15 
REMARK    2  A    between atoms: C7_17  and  C8_18 
REMARK    3  A    between atoms: C8_18  and  O2_19 
REMARK    4  A    between atoms: O2_19  and  S1_20 
REMARK    5  A    between atoms: S1_20  and  N6_21 
REMARK    6  A    between atoms: C9_26  and  O5_27 
REMARK    7  A    between atoms: C10_29  and  O6_30 
ROOT
HETATM    1  C6  UNL     1      -3.841   1.523  12.517  1.00  0.00     0.262 C 
HETATM    2  O1  UNL     1      -2.723   2.348  12.539  1.00  0.00    -0.353 OA
HETATM    3  C7  UNL     1      -2.756   3.080  11.404  1.00  0.00     0.180 C 
HETATM    4  C9  UNL     1      -4.204   3.392  11.123  1.00  0.00     0.182 C 
HETATM    5  C10 UNL     1      -4.793   2.016  11.547  1.00  0.00     0.198 C 
ENDROOT
BRANCH   1   6
HETATM    6  N5  UNL     1      -4.291   1.485  13.896  1.00  0.00    -0.297 N 
HETATM    7  C3  UNL     1      -4.975   2.473  14.519  1.00  0.00     0.143 A 
HETATM    8  N3  UNL     1      -5.314   3.725  14.158  1.00  0.00    -0.316 N 
HETATM    9  C4  UNL     1      -5.392   2.054  15.793  1.00  0.00     0.119 A 
HETATM   10  C2  UNL     1      -6.024   4.499  14.977  1.00  0.00     0.181 A 
ATOM     11  H3  UNL     1      -5.024   4.085  13.249  1.00  0.00     0.170 HD
HETATM   12  N2  UNL     1      -6.414   4.079  16.175  1.00  0.00    -0.319 N 
HETATM   13 CL1  UNL     1      -6.495   6.083  14.365  1.00  0.00    -0.045 Cl
HETATM   14  C1  UNL     1      -6.107   2.829  16.638  1.00  0.00     0.149 A 
ATOM     15  H2  UNL     1      -6.957   4.707  16.767  1.00  0.00     0.169 HD
HETATM   16  N1  UNL     1      -6.538   2.357  17.888  1.00  0.00    -0.080 NA
HETATM   17  N4  UNL     1      -4.891   0.760  15.895  1.00  0.00    -0.346 N 
HETATM   18  C5  UNL     1      -4.266   0.500  14.740  1.00  0.00     0.188 A 
ATOM     19  H4  UNL     1      -4.981   0.132  16.695  1.00  0.00     0.167 HD
ENDBRANCH   1   6
BRANCH   5  20
HETATM   20  O6  UNL     1      -4.789   1.249  10.347  1.00  0.00    -0.388 OA
ATOM     21  H6  UNL     1      -5.554   1.417   9.808  1.00  0.00     0.210 HD
ENDBRANCH   5  20
BRANCH   3  22
HETATM   22  C8  UNL     1      -1.832   4.272  11.374  1.00  0.00     0.226 C 
BRANCH  22  23
HETATM   23  O2  UNL     1      -0.634   3.724  11.899  1.00  0.00    -0.257 OA
BRANCH  23  24
HETATM   24  S1  UNL     1       0.599   4.529  11.058  1.00  0.00     0.355 S 
HETATM   25  O3  UNL     1      -0.080   5.797  10.478  1.00  0.00    -0.176 OA
HETATM   26  O4  UNL     1       0.922   3.716   9.790  1.00  0.00    -0.176 OA
BRANCH  24  27
HETATM   27  N6  UNL     1       1.983   4.924  11.862  1.00  0.00    -0.306 N 
ATOM     28  H62 UNL     1       1.925   5.411  12.757  1.00  0.00     0.171 HD
ATOM     29  H61 UNL     1       2.881   4.673  11.449  1.00  0.00     0.171 HD
ENDBRANCH  24  27
ENDBRANCH  23  24
ENDBRANCH  22  23
ENDBRANCH   3  22
BRANCH   4  30
HETATM   30  O5  UNL     1      -4.388   3.537   9.734  1.00  0.00    -0.390 OA
ATOM     31  H5  UNL     1      -4.633   4.434   9.542  1.00  0.00     0.210 HD
ENDBRANCH   4  30
TORSDOF 7
ENDMDL
