MODEL 5
REMARK VINA RESULT: -7.354314456      4.153      7.003
REMARK  7 active torsions:
REMARK  status: ('A' for Active; 'I' for Inactive)
REMARK    1  A    between atoms: N5_14  and  C6_15 
REMARK    2  A    between atoms: C7_17  and  C8_18 
REMARK    3  A    between atoms: C8_18  and  O2_19 
REMARK    4  A    between atoms: O2_19  and  S1_20 
REMARK    5  A    between atoms: S1_20  and  N6_21 
REMARK    6  A    between atoms: C9_26  and  O5_27 
REMARK    7  A    between atoms: C10_29  and  O6_30 
ROOT
HETATM    1  C6  UNL     1      -3.716   1.411  13.024  1.00  0.00     0.262 C 
HETATM    2  O1  UNL     1      -3.147   2.670  12.871  1.00  0.00    -0.353 OA
HETATM    3  C7  UNL     1      -3.376   3.047  11.594  1.00  0.00     0.180 C 
HETATM    4  C9  UNL     1      -4.742   2.533  11.220  1.00  0.00     0.182 C 
HETATM    5  C10 UNL     1      -4.646   1.161  11.946  1.00  0.00     0.198 C 
ENDROOT
BRANCH   1   6
HETATM    6  N5  UNL     1      -4.273   1.424  14.364  1.00  0.00    -0.297 N 
HETATM    7  C3  UNL     1      -5.009   2.429  14.891  1.00  0.00     0.143 A 
HETATM    8  N3  UNL     1      -5.326   3.664  14.453  1.00  0.00    -0.316 N 
HETATM    9  C4  UNL     1      -5.522   2.059  16.143  1.00  0.00     0.119 A 
HETATM   10  C2  UNL     1      -6.102   4.463  15.182  1.00  0.00     0.181 A 
ATOM     11  H3  UNL     1      -4.967   3.989  13.556  1.00  0.00     0.170 HD
HETATM   12  N2  UNL     1      -6.583   4.088  16.362  1.00  0.00    -0.319 N 
HETATM   13 CL1  UNL     1      -6.533   6.017  14.470  1.00  0.00    -0.045 Cl
HETATM   14  C1  UNL     1      -6.307   2.861  16.898  1.00  0.00     0.149 A 
ATOM     15  H2  UNL     1      -7.175   4.735  16.883  1.00  0.00     0.169 HD
HETATM   16  N1  UNL     1      -6.832   2.435  18.128  1.00  0.00    -0.080 NA
HETATM   17  N4  UNL     1      -5.024   0.774  16.338  1.00  0.00    -0.346 N 
HETATM   18  C5  UNL     1      -4.308   0.473  15.247  1.00  0.00     0.188 A 
ATOM     19  H4  UNL     1      -5.173   0.178  17.152  1.00  0.00     0.167 HD
ENDBRANCH   1   6
BRANCH   5  20
HETATM   20  O6  UNL     1      -4.112   0.280  10.963  1.00  0.00    -0.388 OA
ATOM     21  H6  UNL     1      -3.241  -0.028  11.187  1.00  0.00     0.210 HD
ENDBRANCH   5  20
BRANCH   3  22
HETATM   22  C8  UNL     1      -3.146   4.509  11.300  1.00  0.00     0.226 C 
BRANCH  22  23
HETATM   23  O2  UNL     1      -4.473   5.000  11.212  1.00  0.00    -0.257 OA
BRANCH  23  24
HETATM   24  S1  UNL     1      -4.491   5.906   9.779  1.00  0.00     0.355 S 
HETATM   25  O3  UNL     1      -5.991   6.012   9.398  1.00  0.00    -0.176 OA
HETATM   26  O4  UNL     1      -3.924   5.025   8.649  1.00  0.00    -0.176 OA
BRANCH  24  27
HETATM   27  N6  UNL     1      -3.779   7.393   9.768  1.00  0.00    -0.306 N 
ATOM     28  H62 UNL     1      -4.356   8.227   9.666  1.00  0.00     0.171 HD
ATOM     29  H61 UNL     1      -2.766   7.454   9.863  1.00  0.00     0.171 HD
ENDBRANCH  24  27
ENDBRANCH  23  24
ENDBRANCH  22  23
ENDBRANCH   3  22
BRANCH   4  30
HETATM   30  O5  UNL     1      -4.784   2.290   9.833  1.00  0.00    -0.390 OA
ATOM     31  H5  UNL     1      -5.534   2.737   9.459  1.00  0.00     0.210 HD
ENDBRANCH   4  30
TORSDOF 7
ENDMDL
