MODEL 7
REMARK VINA RESULT: -7.318680537      3.814      6.433
REMARK  7 active torsions:
REMARK  status: ('A' for Active; 'I' for Inactive)
REMARK    1  A    between atoms: N5_14  and  C6_15 
REMARK    2  A    between atoms: C7_17  and  C8_18 
REMARK    3  A    between atoms: C8_18  and  O2_19 
REMARK    4  A    between atoms: O2_19  and  S1_20 
REMARK    5  A    between atoms: S1_20  and  N6_21 
REMARK    6  A    between atoms: C9_26  and  O5_27 
REMARK    7  A    between atoms: C10_29  and  O6_30 
ROOT
HETATM    1  C6  UNL     1      -3.814   1.592  12.529  1.00  0.00     0.262 C 
HETATM    2  O1  UNL     1      -2.725   2.455  12.566  1.00  0.00    -0.353 OA
HETATM    3  C7  UNL     1      -2.774   3.192  11.434  1.00  0.00     0.180 C 
HETATM    4  C9  UNL     1      -4.229   3.456  11.143  1.00  0.00     0.182 C 
HETATM    5  C10 UNL     1      -4.773   2.058  11.554  1.00  0.00     0.198 C 
ENDROOT
BRANCH   1   6
HETATM    6  N5  UNL     1      -4.274   1.531  13.904  1.00  0.00    -0.297 N 
HETATM    7  C3  UNL     1      -4.969   2.504  14.537  1.00  0.00     0.143 A 
HETATM    8  N3  UNL     1      -5.314   3.760  14.192  1.00  0.00    -0.316 N 
HETATM    9  C4  UNL     1      -5.392   2.064  15.801  1.00  0.00     0.119 A 
HETATM   10  C2  UNL     1      -6.035   4.516  15.017  1.00  0.00     0.181 A 
ATOM     11  H3  UNL     1      -5.019   4.135  13.291  1.00  0.00     0.170 HD
HETATM   12  N2  UNL     1      -6.431   4.076  16.206  1.00  0.00    -0.319 N 
HETATM   13 CL1  UNL     1      -6.512   6.106  14.425  1.00  0.00    -0.045 Cl
HETATM   14  C1  UNL     1      -6.120   2.821  16.652  1.00  0.00     0.149 A 
ATOM     15  H2  UNL     1      -6.983   4.692  16.803  1.00  0.00     0.169 HD
HETATM   16  N1  UNL     1      -6.557   2.327  17.892  1.00  0.00    -0.080 NA
HETATM   17  N4  UNL     1      -4.884   0.771  15.888  1.00  0.00    -0.346 N 
HETATM   18  C5  UNL     1      -4.249   0.532  14.734  1.00  0.00     0.188 A 
ATOM     19  H4  UNL     1      -4.976   0.131  16.677  1.00  0.00     0.167 HD
ENDBRANCH   1   6
BRANCH   5  20
HETATM   20  O6  UNL     1      -4.734   1.298  10.349  1.00  0.00    -0.388 OA
ATOM     21  H6  UNL     1      -5.373   0.595  10.344  1.00  0.00     0.210 HD
ENDBRANCH   5  20
BRANCH   3  22
HETATM   22  C8  UNL     1      -1.891   4.415  11.419  1.00  0.00     0.226 C 
BRANCH  22  23
HETATM   23  O2  UNL     1      -2.782   5.421  11.871  1.00  0.00    -0.257 OA
BRANCH  23  24
HETATM   24  S1  UNL     1      -2.141   5.911  13.362  1.00  0.00     0.355 S 
HETATM   25  O3  UNL     1      -3.224   6.838  13.973  1.00  0.00    -0.176 OA
HETATM   26  O4  UNL     1      -0.984   6.891  13.087  1.00  0.00    -0.176 OA
BRANCH  24  27
HETATM   27  N6  UNL     1      -1.679   4.759  14.447  1.00  0.00    -0.306 N 
ATOM     28  H62 UNL     1      -0.726   4.762  14.810  1.00  0.00     0.171 HD
ATOM     29  H61 UNL     1      -2.358   4.057  14.739  1.00  0.00     0.171 HD
ENDBRANCH  24  27
ENDBRANCH  23  24
ENDBRANCH  22  23
ENDBRANCH   3  22
BRANCH   4  30
HETATM   30  O5  UNL     1      -4.406   3.602   9.753  1.00  0.00    -0.390 OA
ATOM     31  H5  UNL     1      -3.571   3.487   9.317  1.00  0.00     0.210 HD
ENDBRANCH   4  30
TORSDOF 7
ENDMDL
