MODEL 3
REMARK VINA RESULT: -9.600211572      5.578      9.815
REMARK  7 active torsions:
REMARK  status: ('A' for Active; 'I' for Inactive)
REMARK    1  A    between atoms: O1_1  and  C1_3 
REMARK    2  A    between atoms: C1_3  and  C2_4 
REMARK    3  A    between atoms: C3_6  and  N1_7 
REMARK    4  A    between atoms: C6_12  and  N3_13 
REMARK    5  A    between atoms: N4_16  and  C9_17 
REMARK    6  A    between atoms: C19_31  and  O3_32 
REMARK    7  A    between atoms: C20_34  and  O4_35 
ROOT
HETATM    1  N1  UNL     1      14.632 -27.170  23.067  1.00  0.00    -0.297 N 
HETATM    2  C4  UNL     1      15.241 -26.515  24.071  1.00  0.00     0.188 A 
HETATM    3  N2  UNL     1      16.298 -25.814  23.623  1.00  0.00    -0.346 N 
ATOM      4  H2  UNL     1      16.924 -25.234  24.183  1.00  0.00     0.167 HD
HETATM    5  C5  UNL     1      16.368 -26.020  22.312  1.00  0.00     0.122 A 
HETATM    6  C6  UNL     1      17.251 -25.543  21.383  1.00  0.00     0.135 A 
HETATM    7  N5  UNL     1      17.071 -25.931  20.100  1.00  0.00    -0.337 N 
ATOM      8  H5  UNL     1      17.719 -25.587  19.391  1.00  0.00     0.168 HD
HETATM    9  C17 UNL     1      16.083 -26.746  19.721  1.00  0.00     0.183 A 
HETATM   10  N6  UNL     1      15.231 -27.200  20.657  1.00  0.00    -0.336 N 
ATOM     11  H6  UNL     1      14.475 -27.823  20.374  1.00  0.00     0.168 HD
HETATM   12  C18 UNL     1      15.344 -26.855  21.969  1.00  0.00     0.142 A 
ENDROOT
BRANCH   1  13
HETATM   13  C3  UNL     1      13.490 -28.026  23.066  1.00  0.00     0.262 C 
HETATM   14  O2  UNL     1      12.828 -27.944  21.870  1.00  0.00    -0.353 OA
HETATM   15  C2  UNL     1      11.624 -27.310  22.047  1.00  0.00     0.179 C 
HETATM   16  C20 UNL     1      11.188 -27.795  23.413  1.00  0.00     0.182 C 
HETATM   17  C19 UNL     1      12.511 -27.715  24.172  1.00  0.00     0.198 C 
BRANCH  15  18
HETATM   18  C1  UNL     1      11.835 -25.805  22.025  1.00  0.00     0.198 C 
BRANCH  18  19
HETATM   19  O1  UNL     1      12.619 -25.418  20.942  1.00  0.00    -0.398 OA
ATOM     20  H1  UNL     1      12.516 -24.493  20.752  1.00  0.00     0.209 HD
ENDBRANCH  18  19
ENDBRANCH  15  18
BRANCH  16  21
HETATM   21  O4  UNL     1      10.846 -29.131  23.299  1.00  0.00    -0.390 OA
ATOM     22  H4  UNL     1      11.621 -29.647  23.490  1.00  0.00     0.210 HD
ENDBRANCH  16  21
BRANCH  17  23
HETATM   23  O3  UNL     1      12.554 -28.631  25.208  1.00  0.00    -0.388 OA
ATOM     24  H3  UNL     1      12.471 -28.229  26.064  1.00  0.00     0.210 HD
ENDBRANCH  17  23
ENDBRANCH   1  13
BRANCH   6  25
HETATM   25  N3  UNL     1      18.328 -24.677  21.684  1.00  0.00    -0.362 N 
HETATM   26  C7  UNL     1      18.034 -23.429  22.335  1.00  0.00     0.144 C 
HETATM   27  C8  UNL     1      19.011 -22.319  22.015  1.00  0.00     0.143 C 
HETATM   28  N4  UNL     1      20.346 -22.875  22.058  1.00  0.00    -0.378 N 
HETATM   29  C15 UNL     1      20.600 -23.957  21.128  1.00  0.00     0.143 C 
HETATM   30  C16 UNL     1      19.659 -25.106  21.317  1.00  0.00     0.144 C 
BRANCH  28  31
HETATM   31  C9  UNL     1      21.316 -22.353  22.955  1.00  0.00     0.030 A 
HETATM   32  C10 UNL     1      20.977 -21.331  23.853  1.00  0.00     0.029 A 
HETATM   33  C11 UNL     1      21.892 -20.817  24.747  1.00  0.00     0.002 A 
HETATM   34  C12 UNL     1      23.186 -21.289  24.793  1.00  0.00     0.000 A 
HETATM   35  C13 UNL     1      23.544 -22.286  23.926  1.00  0.00     0.002 A 
HETATM   36  C14 UNL     1      22.612 -22.809  23.018  1.00  0.00     0.029 A 
ENDBRANCH  28  31
ENDBRANCH   6  25
TORSDOF 7
ENDMDL
