MODEL 2
REMARK VINA RESULT: -9.962593916      5.030      9.706
REMARK  7 active torsions:
REMARK  status: ('A' for Active; 'I' for Inactive)
REMARK    1  A    between atoms: O1_1  and  C1_3 
REMARK    2  A    between atoms: C1_3  and  C2_4 
REMARK    3  A    between atoms: C3_6  and  N1_7 
REMARK    4  A    between atoms: C6_12  and  N3_13 
REMARK    5  A    between atoms: N4_16  and  C9_17 
REMARK    6  A    between atoms: C19_31  and  O3_32 
REMARK    7  A    between atoms: C20_34  and  O4_35 
ROOT
HETATM    1  N1  UNL     1      18.686 -25.744  20.764  1.00  0.00    -0.297 N 
HETATM    2  C4  UNL     1      17.908 -25.277  21.756  1.00  0.00     0.188 A 
HETATM    3  N2  UNL     1      18.477 -24.222  22.365  1.00  0.00    -0.346 N 
ATOM      4  H2  UNL     1      18.091 -23.689  23.145  1.00  0.00     0.167 HD
HETATM    5  C5  UNL     1      19.638 -24.006  21.755  1.00  0.00     0.122 A 
HETATM    6  C6  UNL     1      20.600 -23.061  21.982  1.00  0.00     0.135 A 
HETATM    7  N5  UNL     1      21.694 -23.087  21.188  1.00  0.00    -0.337 N 
ATOM      8  H5  UNL     1      22.424 -22.391  21.341  1.00  0.00     0.168 HD
HETATM    9  C17 UNL     1      21.862 -23.984  20.213  1.00  0.00     0.183 A 
HETATM   10  N6  UNL     1      20.900 -24.902  20.014  1.00  0.00    -0.336 N 
ATOM     11  H6  UNL     1      21.022 -25.591  19.272  1.00  0.00     0.168 HD
HETATM   12  C18 UNL     1      19.767 -24.943  20.770  1.00  0.00     0.142 A 
ENDROOT
BRANCH   1  13
HETATM   13  C3  UNL     1      18.497 -26.831  19.859  1.00  0.00     0.262 C 
HETATM   14  O2  UNL     1      18.631 -26.408  18.564  1.00  0.00    -0.353 OA
HETATM   15  C2  UNL     1      17.411 -26.439  17.936  1.00  0.00     0.179 C 
HETATM   16  C20 UNL     1      16.756 -27.664  18.537  1.00  0.00     0.182 C 
HETATM   17  C19 UNL     1      17.151 -27.499  20.003  1.00  0.00     0.198 C 
BRANCH  15  18
HETATM   18  C1  UNL     1      16.641 -25.171  18.262  1.00  0.00     0.198 C 
BRANCH  18  19
HETATM   19  O1  UNL     1      15.570 -24.989  17.390  1.00  0.00    -0.398 OA
ATOM     20  H1  UNL     1      15.396 -25.777  16.888  1.00  0.00     0.209 HD
ENDBRANCH  18  19
ENDBRANCH  15  18
BRANCH  16  21
HETATM   21  O4  UNL     1      17.410 -28.779  18.046  1.00  0.00    -0.390 OA
ATOM     22  H4  UNL     1      17.757 -29.263  18.786  1.00  0.00     0.210 HD
ENDBRANCH  16  21
BRANCH  17  23
HETATM   23  O3  UNL     1      17.218 -28.721  20.648  1.00  0.00    -0.388 OA
ATOM     24  H3  UNL     1      17.645 -29.393  20.129  1.00  0.00     0.210 HD
ENDBRANCH  17  23
ENDBRANCH   1  13
BRANCH   6  25
HETATM   25  N3  UNL     1      20.516 -22.070  22.988  1.00  0.00    -0.362 N 
HETATM   26  C7  UNL     1      21.680 -21.822  23.795  1.00  0.00     0.144 C 
HETATM   27  C8  UNL     1      21.372 -21.332  25.193  1.00  0.00     0.143 C 
HETATM   28  N4  UNL     1      20.320 -20.344  25.095  1.00  0.00    -0.378 N 
HETATM   29  C15 UNL     1      19.076 -20.812  24.515  1.00  0.00     0.143 C 
HETATM   30  C16 UNL     1      19.261 -21.367  23.138  1.00  0.00     0.144 C 
BRANCH  28  31
HETATM   31  C9  UNL     1      20.529 -19.019  25.564  1.00  0.00     0.030 A 
HETATM   32  C10 UNL     1      19.507 -18.331  26.232  1.00  0.00     0.029 A 
HETATM   33  C11 UNL     1      19.686 -17.052  26.713  1.00  0.00     0.002 A 
HETATM   34  C12 UNL     1      20.886 -16.392  26.554  1.00  0.00     0.000 A 
HETATM   35  C13 UNL     1      21.902 -17.041  25.905  1.00  0.00     0.002 A 
HETATM   36  C14 UNL     1      21.718 -18.343  25.417  1.00  0.00     0.029 A 
ENDBRANCH  28  31
ENDBRANCH   6  25
TORSDOF 7
ENDMDL
