MODEL 1
REMARK VINA RESULT: -10.858103619      0.000      0.000
REMARK  7 active torsions:
REMARK  status: ('A' for Active; 'I' for Inactive)
REMARK    1  A    between atoms: O1_1  and  C1_3 
REMARK    2  A    between atoms: C1_3  and  C2_4 
REMARK    3  A    between atoms: C3_6  and  N1_7 
REMARK    4  A    between atoms: C6_12  and  N3_13 
REMARK    5  A    between atoms: N4_16  and  C9_17 
REMARK    6  A    between atoms: C19_31  and  O3_32 
REMARK    7  A    between atoms: C20_34  and  O4_35 
ROOT
HETATM    1  N1  UNL     1      20.471 -19.096  25.824  1.00  0.00    -0.297 N 
HETATM    2  C4  UNL     1      19.257 -19.311  25.288  1.00  0.00     0.188 A 
HETATM    3  N2  UNL     1      19.289 -20.322  24.402  1.00  0.00    -0.346 N 
ATOM      4  H2  UNL     1      18.503 -20.681  23.859  1.00  0.00     0.167 HD
HETATM    5  C5  UNL     1      20.542 -20.765  24.369  1.00  0.00     0.122 A 
HETATM    6  C6  UNL     1      21.111 -21.773  23.641  1.00  0.00     0.135 A 
HETATM    7  N5  UNL     1      22.432 -21.998  23.820  1.00  0.00    -0.337 N 
ATOM      8  H5  UNL     1      22.876 -22.745  23.286  1.00  0.00     0.168 HD
HETATM    9  C17 UNL     1      23.182 -21.285  24.665  1.00  0.00     0.183 A 
HETATM   10  N6  UNL     1      22.595 -20.300  25.368  1.00  0.00    -0.336 N 
ATOM     11  H6  UNL     1      23.162 -19.751  26.013  1.00  0.00     0.168 HD
HETATM   12  C18 UNL     1      21.270 -20.011  25.245  1.00  0.00     0.142 A 
ENDROOT
BRANCH   1  13
HETATM   13  C3  UNL     1      20.911 -18.144  26.792  1.00  0.00     0.262 C 
HETATM   14  O2  UNL     1      20.446 -18.473  28.037  1.00  0.00    -0.353 OA
HETATM   15  C2  UNL     1      19.497 -17.566  28.435  1.00  0.00     0.179 C 
HETATM   16  C20 UNL     1      20.016 -16.265  27.861  1.00  0.00     0.182 C 
HETATM   17  C19 UNL     1      20.472 -16.733  26.481  1.00  0.00     0.198 C 
BRANCH  15  18
HETATM   18  C1  UNL     1      18.151 -17.946  27.842  1.00  0.00     0.198 C 
BRANCH  18  19
HETATM   19  O1  UNL     1      17.486 -18.870  28.644  1.00  0.00    -0.398 OA
ATOM     20  H1  UNL     1      16.543 -18.770  28.577  1.00  0.00     0.209 HD
ENDBRANCH  18  19
ENDBRANCH  15  18
BRANCH  16  21
HETATM   21  O4  UNL     1      21.142 -15.904  28.579  1.00  0.00    -0.390 OA
ATOM     22  H4  UNL     1      21.469 -15.089  28.216  1.00  0.00     0.210 HD
ENDBRANCH  16  21
BRANCH  17  23
HETATM   23  O3  UNL     1      21.498 -15.942  25.994  1.00  0.00    -0.388 OA
ATOM     24  H3  UNL     1      21.199 -15.098  25.678  1.00  0.00     0.210 HD
ENDBRANCH  17  23
ENDBRANCH   1  13
BRANCH   6  25
HETATM   25  N3  UNL     1      20.404 -22.583  22.722  1.00  0.00    -0.362 N 
HETATM   26  C7  UNL     1      20.891 -23.913  22.475  1.00  0.00     0.144 C 
HETATM   27  C8  UNL     1      20.583 -24.440  21.091  1.00  0.00     0.143 C 
HETATM   28  N4  UNL     1      19.216 -24.087  20.776  1.00  0.00    -0.378 N 
HETATM   29  C15 UNL     1      18.923 -22.667  20.775  1.00  0.00     0.143 C 
HETATM   30  C16 UNL     1      19.233 -22.019  22.088  1.00  0.00     0.144 C 
BRANCH  28  31
HETATM   31  C9  UNL     1      18.261 -25.096  20.477  1.00  0.00     0.030 A 
HETATM   32  C10 UNL     1      18.591 -26.157  19.622  1.00  0.00     0.029 A 
HETATM   33  C11 UNL     1      17.692 -27.158  19.327  1.00  0.00     0.002 A 
HETATM   34  C12 UNL     1      16.423 -27.158  19.863  1.00  0.00     0.000 A 
HETATM   35  C13 UNL     1      16.074 -26.133  20.702  1.00  0.00     0.002 A 
HETATM   36  C14 UNL     1      16.989 -25.114  21.002  1.00  0.00     0.029 A 
ENDBRANCH  28  31
ENDBRANCH   6  25
TORSDOF 7
ENDMDL
