MODEL 4
REMARK VINA RESULT: -9.288557575      5.137      8.170
REMARK  7 active torsions:
REMARK  status: ('A' for Active; 'I' for Inactive)
REMARK    1  A    between atoms: O1_1  and  C1_3 
REMARK    2  A    between atoms: C1_3  and  C2_4 
REMARK    3  A    between atoms: C3_6  and  N1_7 
REMARK    4  A    between atoms: C6_12  and  N3_13 
REMARK    5  A    between atoms: N4_16  and  C9_17 
REMARK    6  A    between atoms: C19_31  and  O3_32 
REMARK    7  A    between atoms: C20_34  and  O4_35 
ROOT
HETATM    1  N1  UNL     1      13.684 -21.886  28.985  1.00  0.00    -0.297 N 
HETATM    2  C4  UNL     1      14.931 -22.355  29.163  1.00  0.00     0.188 A 
HETATM    3  N2  UNL     1      15.756 -21.925  28.192  1.00  0.00    -0.346 N 
ATOM      4  H2  UNL     1      16.749 -22.138  28.099  1.00  0.00     0.167 HD
HETATM    5  C5  UNL     1      15.028 -21.167  27.378  1.00  0.00     0.122 A 
HETATM    6  C6  UNL     1      15.378 -20.491  26.242  1.00  0.00     0.135 A 
HETATM    7  N5  UNL     1      14.408 -19.791  25.612  1.00  0.00    -0.337 N 
ATOM      8  H5  UNL     1      14.648 -19.279  24.763  1.00  0.00     0.168 HD
HETATM    9  C17 UNL     1      13.148 -19.740  26.054  1.00  0.00     0.183 A 
HETATM   10  N6  UNL     1      12.832 -20.415  27.173  1.00  0.00    -0.336 N 
ATOM     11  H6  UNL     1      11.872 -20.382  27.515  1.00  0.00     0.168 HD
HETATM   12  C18 UNL     1      13.752 -21.143  27.865  1.00  0.00     0.142 A 
ENDROOT
BRANCH   1  13
HETATM   13  C3  UNL     1      12.494 -22.076  29.750  1.00  0.00     0.262 C 
HETATM   14  O2  UNL     1      11.824 -20.892  29.902  1.00  0.00    -0.353 OA
HETATM   15  C2  UNL     1      11.899 -20.478  31.208  1.00  0.00     0.179 C 
HETATM   16  C20 UNL     1      11.836 -21.781  31.976  1.00  0.00     0.182 C 
HETATM   17  C19 UNL     1      12.755 -22.652  31.122  1.00  0.00     0.198 C 
BRANCH  15  18
HETATM   18  C1  UNL     1      13.216 -19.754  31.436  1.00  0.00     0.198 C 
BRANCH  18  19
HETATM   19  O1  UNL     1      13.294 -18.592  30.672  1.00  0.00    -0.398 OA
ATOM     20  H1  UNL     1      13.295 -18.789  29.742  1.00  0.00     0.209 HD
ENDBRANCH  18  19
ENDBRANCH  15  18
BRANCH  16  21
HETATM   21  O4  UNL     1      10.551 -22.280  31.859  1.00  0.00    -0.390 OA
ATOM     22  H4  UNL     1      10.438 -22.587  30.968  1.00  0.00     0.210 HD
ENDBRANCH  16  21
BRANCH  17  23
HETATM   23  O3  UNL     1      12.416 -23.990  31.221  1.00  0.00    -0.388 OA
ATOM     24  H3  UNL     1      12.824 -24.528  30.553  1.00  0.00     0.210 HD
ENDBRANCH  17  23
ENDBRANCH   1  13
BRANCH   6  25
HETATM   25  N3  UNL     1      16.682 -20.482  25.695  1.00  0.00    -0.362 N 
HETATM   26  C7  UNL     1      17.715 -19.784  26.412  1.00  0.00     0.144 C 
HETATM   27  C8  UNL     1      18.812 -19.227  25.533  1.00  0.00     0.143 C 
HETATM   28  N4  UNL     1      19.150 -20.234  24.551  1.00  0.00    -0.378 N 
HETATM   29  C15 UNL     1      18.066 -20.646  23.682  1.00  0.00     0.143 C 
HETATM   30  C16 UNL     1      16.893 -21.179  24.446  1.00  0.00     0.144 C 
BRANCH  28  31
HETATM   31  C9  UNL     1      20.473 -20.744  24.468  1.00  0.00     0.030 A 
HETATM   32  C10 UNL     1      20.836 -21.615  23.431  1.00  0.00     0.029 A 
HETATM   33  C11 UNL     1      22.116 -22.113  23.315  1.00  0.00     0.002 A 
HETATM   34  C12 UNL     1      23.098 -21.773  24.220  1.00  0.00     0.000 A 
HETATM   35  C13 UNL     1      22.771 -20.924  25.243  1.00  0.00     0.002 A 
HETATM   36  C14 UNL     1      21.469 -20.418  25.360  1.00  0.00     0.029 A 
ENDBRANCH  28  31
ENDBRANCH   6  25
TORSDOF 7
ENDMDL
