MODEL 2
REMARK VINA RESULT: -9.952323745      0.092      1.030
REMARK  4 active torsions:
REMARK  status: ('A' for Active; 'I' for Inactive)
REMARK    1  A    between atoms: C1_2  and  C2_4 
REMARK    2  A    between atoms: C4_6  and  C5_7 
REMARK    3  A    between atoms: C10_16  and  O3_17 
REMARK    4  A    between atoms: O3_17  and  C11_18 
ROOT
HETATM    1  C2  UNL     1      10.429   9.306   3.137  1.00  0.00     0.075 A 
HETATM    2  C3  UNL     1      11.700   9.481   3.699  1.00  0.00     0.033 A 
HETATM    3  C4  UNL     1      12.824   9.777   2.995  1.00  0.00    -0.022 A 
HETATM    4  C8  UNL     1      12.700   9.916   1.614  1.00  0.00     0.015 A 
HETATM    5  C9  UNL     1      11.470   9.755   1.019  1.00  0.00     0.039 A 
HETATM    6  C10 UNL     1      10.338   9.451   1.781  1.00  0.00     0.093 A 
ENDROOT
BRANCH   3   7
HETATM    7  C5  UNL     1      14.141   9.956   3.591  1.00  0.00     0.008 A 
HETATM    8  C6  UNL     1      14.471  10.399   4.854  1.00  0.00     0.120 A 
HETATM    9  N1  UNL     1      15.801  10.395   4.938  1.00  0.00    -0.311 N 
HETATM   10  N2  UNL     1      16.346   9.978   3.810  1.00  0.00    -0.311 N 
ATOM     11  H1  UNL     1      16.327  10.676   5.765  1.00  0.00     0.186 HD
HETATM   12  C7  UNL     1      15.346   9.706   2.974  1.00  0.00     0.120 A 
ATOM     13  H2  UNL     1      17.342   9.883   3.616  1.00  0.00     0.186 HD
ENDBRANCH   3   7
BRANCH   1  14
HETATM   14  C1  UNL     1       9.304   8.923   3.972  1.00  0.00     0.212 C 
HETATM   15  O1  UNL     1       9.268   7.793   4.477  1.00  0.00    -0.644 OA
HETATM   16  O2  UNL     1       8.262   9.795   4.222  1.00  0.00    -0.644 OA
ENDBRANCH   1  14
BRANCH   6  17
HETATM   17  O3  UNL     1       9.168   9.316   1.078  1.00  0.00    -0.310 OA
BRANCH  17  18
HETATM   18  C11 UNL     1       8.408  10.327   0.530  1.00  0.00     0.076 A 
HETATM   19  C12 UNL     1       8.553  11.629   0.994  1.00  0.00     0.037 A 
HETATM   20  C13 UNL     1       7.820  12.681   0.489  1.00  0.00     0.003 A 
HETATM   21  C14 UNL     1       6.899  12.469  -0.516  1.00  0.00     0.000 A 
HETATM   22  C15 UNL     1       6.735  11.191  -0.993  1.00  0.00     0.003 A 
HETATM   23  C16 UNL     1       7.481  10.145  -0.473  1.00  0.00     0.037 A 
ENDBRANCH  17  18
ENDBRANCH   6  17
TORSDOF 4
ENDMDL
