MODEL 4
REMARK VINA RESULT: -8.958192264      3.655      6.678
REMARK  4 active torsions:
REMARK  status: ('A' for Active; 'I' for Inactive)
REMARK    1  A    between atoms: C1_2  and  C2_4 
REMARK    2  A    between atoms: C4_6  and  C5_7 
REMARK    3  A    between atoms: C10_16  and  O3_17 
REMARK    4  A    between atoms: O3_17  and  C11_18 
ROOT
HETATM    1  C2  UNL     1       9.572   9.453   2.759  1.00  0.00     0.075 A 
HETATM    2  C3  UNL     1       8.640  10.214   2.043  1.00  0.00     0.033 A 
HETATM    3  C4  UNL     1       8.882  10.809   0.845  1.00  0.00    -0.022 A 
HETATM    4  C8  UNL     1      10.151  10.649   0.292  1.00  0.00     0.015 A 
HETATM    5  C9  UNL     1      11.098   9.907   0.960  1.00  0.00     0.039 A 
HETATM    6  C10 UNL     1      10.807   9.310   2.191  1.00  0.00     0.093 A 
ENDROOT
BRANCH   3   7
HETATM    7  C5  UNL     1       7.904  11.600   0.110  1.00  0.00     0.008 A 
HETATM    8  C6  UNL     1       7.619  12.945   0.212  1.00  0.00     0.120 A 
HETATM    9  N1  UNL     1       6.651  13.210  -0.663  1.00  0.00    -0.311 N 
HETATM   10  N2  UNL     1       6.295  12.121  -1.321  1.00  0.00    -0.311 N 
ATOM     11  H1  UNL     1       6.239  14.132  -0.807  1.00  0.00     0.186 HD
HETATM   12  C7  UNL     1       7.050  11.127  -0.861  1.00  0.00     0.120 A 
ATOM     13  H2  UNL     1       5.578  12.055  -2.043  1.00  0.00     0.186 HD
ENDBRANCH   3   7
BRANCH   1  14
HETATM   14  C1  UNL     1       9.232   8.917   4.066  1.00  0.00     0.212 C 
HETATM   15  O1  UNL     1       8.565   9.597   4.857  1.00  0.00    -0.644 OA
HETATM   16  O2  UNL     1       9.637   7.653   4.454  1.00  0.00    -0.644 OA
ENDBRANCH   1  14
BRANCH   6  17
HETATM   17  O3  UNL     1      11.829   8.594   2.760  1.00  0.00    -0.310 OA
BRANCH  17  18
HETATM   18  C11 UNL     1      12.985   9.098   3.315  1.00  0.00     0.076 A 
HETATM   19  C12 UNL     1      12.999   9.484   4.651  1.00  0.00     0.037 A 
HETATM   20  C13 UNL     1      14.123   9.997   5.261  1.00  0.00     0.003 A 
HETATM   21  C14 UNL     1      15.296  10.147   4.550  1.00  0.00     0.000 A 
HETATM   22  C15 UNL     1      15.309   9.772   3.228  1.00  0.00     0.003 A 
HETATM   23  C16 UNL     1      14.170   9.258   2.630  1.00  0.00     0.037 A 
ENDBRANCH  17  18
ENDBRANCH   6  17
TORSDOF 4
ENDMDL
