MODEL 5
REMARK VINA RESULT: -8.808136807      4.135      6.534
REMARK  4 active torsions:
REMARK  status: ('A' for Active; 'I' for Inactive)
REMARK    1  A    between atoms: C1_2  and  C2_4 
REMARK    2  A    between atoms: C4_6  and  C5_7 
REMARK    3  A    between atoms: C10_16  and  O3_17 
REMARK    4  A    between atoms: O3_17  and  C11_18 
ROOT
HETATM    1  C2  UNL     1       8.809  10.221   2.938  1.00  0.00     0.075 A 
HETATM    2  C3  UNL     1       7.829  11.018   3.543  1.00  0.00     0.033 A 
HETATM    3  C4  UNL     1       7.573  12.312   3.216  1.00  0.00    -0.022 A 
HETATM    4  C8  UNL     1       8.343  12.885   2.206  1.00  0.00     0.015 A 
HETATM    5  C9  UNL     1       9.316  12.138   1.582  1.00  0.00     0.039 A 
HETATM    6  C10 UNL     1       9.546  10.809   1.949  1.00  0.00     0.093 A 
ENDROOT
BRANCH   3   7
HETATM    7  C5  UNL     1       6.551  13.132   3.854  1.00  0.00     0.008 A 
HETATM    8  C6  UNL     1       6.416  14.504   3.860  1.00  0.00     0.120 A 
HETATM    9  N1  UNL     1       5.328  14.789   4.575  1.00  0.00    -0.311 N 
HETATM   10  N2  UNL     1       4.756  13.688   5.029  1.00  0.00    -0.311 N 
ATOM     11  H1  UNL     1       4.982  15.732   4.748  1.00  0.00     0.186 HD
HETATM   12  C7  UNL     1       5.491  12.665   4.598  1.00  0.00     0.120 A 
ATOM     13  H2  UNL     1       3.914  13.632   5.600  1.00  0.00     0.186 HD
ENDBRANCH   3   7
BRANCH   1  14
HETATM   14  C1  UNL     1       9.049   8.868   3.409  1.00  0.00     0.212 C 
HETATM   15  O1  UNL     1       8.898   7.911   2.638  1.00  0.00    -0.644 OA
HETATM   16  O2  UNL     1       9.444   8.618   4.710  1.00  0.00    -0.644 OA
ENDBRANCH   1  14
BRANCH   6  17
HETATM   17  O3  UNL     1      10.540  10.166   1.255  1.00  0.00    -0.310 OA
BRANCH  17  18
HETATM   18  C11 UNL     1      11.833   9.941   1.676  1.00  0.00     0.076 A 
HETATM   19  C12 UNL     1      12.320   8.641   1.743  1.00  0.00     0.037 A 
HETATM   20  C13 UNL     1      13.602   8.352   2.159  1.00  0.00     0.003 A 
HETATM   21  C14 UNL     1      14.460   9.366   2.529  1.00  0.00     0.000 A 
HETATM   22  C15 UNL     1      14.004  10.661   2.472  1.00  0.00     0.003 A 
HETATM   23  C16 UNL     1      12.711  10.934   2.052  1.00  0.00     0.037 A 
ENDBRANCH  17  18
ENDBRANCH   6  17
TORSDOF 4
ENDMDL
