MODEL 3
REMARK VINA RESULT: -9.813501298      0.709      1.172
REMARK  4 active torsions:
REMARK  status: ('A' for Active; 'I' for Inactive)
REMARK    1  A    between atoms: C1_2  and  C2_4 
REMARK    2  A    between atoms: C4_6  and  C5_7 
REMARK    3  A    between atoms: C10_16  and  O3_17 
REMARK    4  A    between atoms: O3_17  and  C11_18 
ROOT
HETATM    1  C2  UNL     1      10.537   9.550   3.235  1.00  0.00     0.075 A 
HETATM    2  C3  UNL     1      11.848   9.501   3.726  1.00  0.00     0.033 A 
HETATM    3  C4  UNL     1      12.950   9.896   3.035  1.00  0.00    -0.022 A 
HETATM    4  C8  UNL     1      12.758  10.384   1.744  1.00  0.00     0.015 A 
HETATM    5  C9  UNL     1      11.487  10.452   1.221  1.00  0.00     0.039 A 
HETATM    6  C10 UNL     1      10.380  10.036   1.968  1.00  0.00     0.093 A 
ENDROOT
BRANCH   3   7
HETATM    7  C5  UNL     1      14.309   9.839   3.556  1.00  0.00     0.008 A 
HETATM    8  C6  UNL     1      15.503   9.799   2.868  1.00  0.00     0.120 A 
HETATM    9  N1  UNL     1      16.479   9.754   3.775  1.00  0.00    -0.311 N 
HETATM   10  N2  UNL     1      15.987   9.762   5.001  1.00  0.00    -0.311 N 
ATOM     11  H1  UNL     1      17.473   9.718   3.551  1.00  0.00     0.186 HD
HETATM   12  C7  UNL     1      14.662   9.813   4.886  1.00  0.00     0.120 A 
ATOM     13  H2  UNL     1      16.521   9.734   5.869  1.00  0.00     0.186 HD
ENDBRANCH   3   7
BRANCH   1  14
HETATM   14  C1  UNL     1       9.436   9.038   4.032  1.00  0.00     0.212 C 
HETATM   15  O1  UNL     1       9.427   7.849   4.379  1.00  0.00    -0.644 OA
HETATM   16  O2  UNL     1       8.387   9.851   4.418  1.00  0.00    -0.644 OA
ENDBRANCH   1  14
BRANCH   6  17
HETATM   17  O3  UNL     1       9.165  10.153   1.343  1.00  0.00    -0.310 OA
BRANCH  17  18
HETATM   18  C11 UNL     1       8.491  11.319   1.051  1.00  0.00     0.076 A 
HETATM   19  C12 UNL     1       7.807  11.438  -0.153  1.00  0.00     0.037 A 
HETATM   20  C13 UNL     1       7.118  12.580  -0.502  1.00  0.00     0.003 A 
HETATM   21  C14 UNL     1       7.085  13.663   0.351  1.00  0.00     0.000 A 
HETATM   22  C15 UNL     1       7.752  13.571   1.548  1.00  0.00     0.003 A 
HETATM   23  C16 UNL     1       8.441  12.416   1.884  1.00  0.00     0.037 A 
ENDBRANCH  17  18
ENDBRANCH   6  17
TORSDOF 4
ENDMDL
