MODEL 15
REMARK VINA RESULT: -7.431683808      1.427      2.018
REMARK  4 active torsions:
REMARK  status: ('A' for Active; 'I' for Inactive)
REMARK    1  A    between atoms: C1_2  and  C2_4 
REMARK    2  A    between atoms: C4_6  and  C5_7 
REMARK    3  A    between atoms: C10_16  and  O3_17 
REMARK    4  A    between atoms: O3_17  and  C11_18 
ROOT
HETATM    1  C2  UNL     1       9.414  10.226   2.741  1.00  0.00     0.075 A 
HETATM    2  C3  UNL     1      10.764   9.940   2.984  1.00  0.00     0.033 A 
HETATM    3  C4  UNL     1      11.749  10.003   2.050  1.00  0.00    -0.022 A 
HETATM    4  C8  UNL     1      11.388  10.380   0.758  1.00  0.00     0.015 A 
HETATM    5  C9  UNL     1      10.073  10.672   0.474  1.00  0.00     0.039 A 
HETATM    6  C10 UNL     1       9.090  10.595   1.466  1.00  0.00     0.093 A 
ENDROOT
BRANCH   3   7
HETATM    7  C5  UNL     1      13.150   9.703   2.314  1.00  0.00     0.008 A 
HETATM    8  C6  UNL     1      13.760   8.477   2.478  1.00  0.00     0.120 A 
HETATM    9  N1  UNL     1      15.054   8.708   2.700  1.00  0.00    -0.311 N 
HETATM   10  N2  UNL     1      15.313  10.003   2.690  1.00  0.00    -0.311 N 
ATOM     11  H1  UNL     1      15.751   7.981   2.856  1.00  0.00     0.186 HD
HETATM   12  C7  UNL     1      14.160  10.627   2.456  1.00  0.00     0.120 A 
ATOM     13  H2  UNL     1      16.222  10.442   2.833  1.00  0.00     0.186 HD
ENDBRANCH   3   7
BRANCH   1  14
HETATM   14  C1  UNL     1       8.429  10.061   3.795  1.00  0.00     0.212 C 
HETATM   15  O1  UNL     1       7.352  10.669   3.733  1.00  0.00    -0.644 OA
HETATM   16  O2  UNL     1       8.662   9.233   4.877  1.00  0.00    -0.644 OA
ENDBRANCH   1  14
BRANCH   6  17
HETATM   17  O3  UNL     1       7.817  10.911   1.065  1.00  0.00    -0.310 OA
BRANCH  17  18
HETATM   18  C11 UNL     1       7.405  12.075   0.452  1.00  0.00     0.076 A 
HETATM   19  C12 UNL     1       6.944  12.038  -0.858  1.00  0.00     0.037 A 
HETATM   20  C13 UNL     1       6.521  13.168  -1.525  1.00  0.00     0.003 A 
HETATM   21  C14 UNL     1       6.544  14.397  -0.899  1.00  0.00     0.000 A 
HETATM   22  C15 UNL     1       6.996  14.461   0.397  1.00  0.00     0.003 A 
HETATM   23  C16 UNL     1       7.417  13.315   1.053  1.00  0.00     0.037 A 
ENDBRANCH  17  18
ENDBRANCH   6  17
TORSDOF 4
ENDMDL
