MODEL 1
REMARK VINA RESULT: -10.005192488      0.000      0.000
REMARK  4 active torsions:
REMARK  status: ('A' for Active; 'I' for Inactive)
REMARK    1  A    between atoms: C1_2  and  C2_4 
REMARK    2  A    between atoms: C4_6  and  C5_7 
REMARK    3  A    between atoms: C10_16  and  O3_17 
REMARK    4  A    between atoms: O3_17  and  C11_18 
ROOT
HETATM    1  C2  UNL     1      10.429   9.314   3.134  1.00  0.00     0.075 A 
HETATM    2  C3  UNL     1      11.700   9.487   3.696  1.00  0.00     0.033 A 
HETATM    3  C4  UNL     1      12.825   9.784   2.993  1.00  0.00    -0.022 A 
HETATM    4  C8  UNL     1      12.701   9.925   1.612  1.00  0.00     0.015 A 
HETATM    5  C9  UNL     1      11.470   9.766   1.017  1.00  0.00     0.039 A 
HETATM    6  C10 UNL     1      10.338   9.462   1.779  1.00  0.00     0.093 A 
ENDROOT
BRANCH   3   7
HETATM    7  C5  UNL     1      14.142   9.961   3.589  1.00  0.00     0.008 A 
HETATM    8  C6  UNL     1      14.472  10.403   4.853  1.00  0.00     0.120 A 
HETATM    9  N1  UNL     1      15.802  10.396   4.937  1.00  0.00    -0.311 N 
HETATM   10  N2  UNL     1      16.347   9.979   3.809  1.00  0.00    -0.311 N 
ATOM     11  H1  UNL     1      16.329  10.676   5.764  1.00  0.00     0.186 HD
HETATM   12  C7  UNL     1      15.347   9.709   2.973  1.00  0.00     0.120 A 
ATOM     13  H2  UNL     1      17.343   9.883   3.615  1.00  0.00     0.186 HD
ENDBRANCH   3   7
BRANCH   1  14
HETATM   14  C1  UNL     1       9.304   8.930   3.969  1.00  0.00     0.212 C 
HETATM   15  O1  UNL     1       9.273   7.804   4.482  1.00  0.00    -0.644 OA
HETATM   16  O2  UNL     1       8.256   9.798   4.209  1.00  0.00    -0.644 OA
ENDBRANCH   1  14
BRANCH   6  17
HETATM   17  O3  UNL     1       9.168   9.329   1.075  1.00  0.00    -0.310 OA
BRANCH  17  18
HETATM   18  C11 UNL     1       8.417  10.340   0.517  1.00  0.00     0.076 A 
HETATM   19  C12 UNL     1       7.483  10.043  -0.468  1.00  0.00     0.037 A 
HETATM   20  C13 UNL     1       6.705  11.011  -1.067  1.00  0.00     0.003 A 
HETATM   21  C14 UNL     1       6.831  12.334  -0.698  1.00  0.00     0.000 A 
HETATM   22  C15 UNL     1       7.747  12.655   0.274  1.00  0.00     0.003 A 
HETATM   23  C16 UNL     1       8.522  11.670   0.865  1.00  0.00     0.037 A 
ENDBRANCH  17  18
ENDBRANCH   6  17
TORSDOF 4
ENDMDL
