MODEL 6
REMARK VINA RESULT: -8.786422098      4.121      6.580
REMARK  4 active torsions:
REMARK  status: ('A' for Active; 'I' for Inactive)
REMARK    1  A    between atoms: C1_2  and  C2_4 
REMARK    2  A    between atoms: C4_6  and  C5_7 
REMARK    3  A    between atoms: C10_16  and  O3_17 
REMARK    4  A    between atoms: O3_17  and  C11_18 
ROOT
HETATM    1  C2  UNL     1       8.811  10.216   2.929  1.00  0.00     0.075 A 
HETATM    2  C3  UNL     1       7.843  11.026   3.537  1.00  0.00     0.033 A 
HETATM    3  C4  UNL     1       7.595  12.320   3.203  1.00  0.00    -0.022 A 
HETATM    4  C8  UNL     1       8.361  12.879   2.181  1.00  0.00     0.015 A 
HETATM    5  C9  UNL     1       9.322  12.119   1.555  1.00  0.00     0.039 A 
HETATM    6  C10 UNL     1       9.545  10.790   1.930  1.00  0.00     0.093 A 
ENDROOT
BRANCH   3   7
HETATM    7  C5  UNL     1       6.585  13.153   3.843  1.00  0.00     0.008 A 
HETATM    8  C6  UNL     1       6.488  14.527   3.878  1.00  0.00     0.120 A 
HETATM    9  N1  UNL     1       5.396  14.826   4.582  1.00  0.00    -0.311 N 
HETATM   10  N2  UNL     1       4.787  13.731   5.001  1.00  0.00    -0.311 N 
ATOM     11  H1  UNL     1       5.073  15.775   4.772  1.00  0.00     0.186 HD
HETATM   12  C7  UNL     1       5.501  12.699   4.558  1.00  0.00     0.120 A 
ATOM     13  H2  UNL     1       3.934  13.686   5.557  1.00  0.00     0.186 HD
ENDBRANCH   3   7
BRANCH   1  14
HETATM   14  C1  UNL     1       9.043   8.865   3.409  1.00  0.00     0.212 C 
HETATM   15  O1  UNL     1       8.887   7.904   2.645  1.00  0.00    -0.644 OA
HETATM   16  O2  UNL     1       9.439   8.621   4.711  1.00  0.00    -0.644 OA
ENDBRANCH   1  14
BRANCH   6  17
HETATM   17  O3  UNL     1      10.527  10.134   1.233  1.00  0.00    -0.310 OA
BRANCH  17  18
HETATM   18  C11 UNL     1      11.812   9.874   1.657  1.00  0.00     0.076 A 
HETATM   19  C12 UNL     1      12.650  10.926   2.006  1.00  0.00     0.037 A 
HETATM   20  C13 UNL     1      13.946  10.730   2.434  1.00  0.00     0.003 A 
HETATM   21  C14 UNL     1      14.462   9.455   2.531  1.00  0.00     0.000 A 
HETATM   22  C15 UNL     1      13.654   8.396   2.193  1.00  0.00     0.003 A 
HETATM   23  C16 UNL     1      12.354   8.611   1.764  1.00  0.00     0.037 A 
ENDBRANCH  17  18
ENDBRANCH   6  17
TORSDOF 4
ENDMDL
