MODEL 3
REMARK VINA RESULT: -6.473031215      5.354      6.819
REMARK  2 active torsions:
REMARK  status: ('A' for Active; 'I' for Inactive)
REMARK    1  A    between atoms: C1_2  and  C2_4 
REMARK    2  A    between atoms: C6_8  and  C7_9 
ROOT
HETATM    1  C2  UNL     1     -38.451 -14.876   5.690  1.00  0.00     0.041 A 
HETATM    2  C3  UNL     1     -39.493 -15.128   6.551  1.00  0.00     0.018 A 
HETATM    3  C4  UNL     1     -40.807 -15.136   6.110  1.00  0.00     0.002 A 
HETATM    4  C5  UNL     1     -41.050 -14.883   4.774  1.00  0.00     0.012 A 
HETATM    5  C6  UNL     1     -40.023 -14.624   3.873  1.00  0.00    -0.022 A 
HETATM    6  C10 UNL     1     -38.718 -14.626   4.363  1.00  0.00     0.030 A 
ENDROOT
BRANCH   5   7
HETATM    7  C7  UNL     1     -40.322 -14.366   2.480  1.00  0.00     0.008 A 
HETATM    8  C8  UNL     1     -40.848 -15.288   1.608  1.00  0.00     0.120 A 
HETATM    9  N1  UNL     1     -40.973 -14.635   0.414  1.00  0.00    -0.311 N 
HETATM   10  N2  UNL     1     -40.546 -13.393   0.565  1.00  0.00    -0.311 N 
ATOM     11  H1  UNL     1     -41.335 -15.039  -0.450  1.00  0.00     0.186 HD
HETATM   12  C9  UNL     1     -40.129 -13.170   1.833  1.00  0.00     0.120 A 
ATOM     13  H2  UNL     1     -40.533 -12.693  -0.177  1.00  0.00     0.186 HD
ENDBRANCH   5   7
BRANCH   1  14
HETATM   14  C1  UNL     1     -37.067 -14.862   6.131  1.00  0.00     0.209 C 
HETATM   15  O1  UNL     1     -36.622 -15.702   6.952  1.00  0.00    -0.644 OA
HETATM   16  O2  UNL     1     -36.175 -13.914   5.658  1.00  0.00    -0.644 OA
ENDBRANCH   1  14
TORSDOF 2
ENDMDL
