MODEL 5
REMARK VINA RESULT: -6.353280386      4.060      5.488
REMARK  2 active torsions:
REMARK  status: ('A' for Active; 'I' for Inactive)
REMARK    1  A    between atoms: C1_2  and  C2_4 
REMARK    2  A    between atoms: C6_8  and  C7_9 
ROOT
HETATM    1  C2  UNL     1     -40.906 -16.351   4.288  1.00  0.00     0.041 A 
HETATM    2  C3  UNL     1     -41.770 -16.616   5.325  1.00  0.00     0.018 A 
HETATM    3  C4  UNL     1     -41.541 -16.119   6.598  1.00  0.00     0.002 A 
HETATM    4  C5  UNL     1     -40.417 -15.344   6.806  1.00  0.00     0.012 A 
HETATM    5  C6  UNL     1     -39.520 -15.054   5.783  1.00  0.00    -0.022 A 
HETATM    6  C10 UNL     1     -39.791 -15.576   4.519  1.00  0.00     0.030 A 
ENDROOT
BRANCH   5   7
HETATM    7  C7  UNL     1     -38.355 -14.236   6.044  1.00  0.00     0.008 A 
HETATM    8  C8  UNL     1     -38.392 -12.957   6.544  1.00  0.00     0.120 A 
HETATM    9  N1  UNL     1     -37.087 -12.560   6.638  1.00  0.00    -0.311 N 
HETATM   10  N2  UNL     1     -36.315 -13.548   6.217  1.00  0.00    -0.311 N 
ATOM     11  H1  UNL     1     -36.763 -11.654   6.975  1.00  0.00     0.186 HD
HETATM   12  C9  UNL     1     -37.052 -14.616   5.835  1.00  0.00     0.120 A 
ATOM     13  H2  UNL     1     -35.297 -13.509   6.184  1.00  0.00     0.186 HD
ENDBRANCH   5   7
BRANCH   1  14
HETATM   14  C1  UNL     1     -41.126 -16.861   2.946  1.00  0.00     0.209 C 
HETATM   15  O1  UNL     1     -41.031 -16.126   1.931  1.00  0.00    -0.644 OA
HETATM   16  O2  UNL     1     -41.450 -18.190   2.729  1.00  0.00    -0.644 OA
ENDBRANCH   1  14
TORSDOF 2
ENDMDL
