MODEL 4
REMARK VINA RESULT: -6.405885105      5.224      6.665
REMARK  2 active torsions:
REMARK  status: ('A' for Active; 'I' for Inactive)
REMARK    1  A    between atoms: C1_2  and  C2_4 
REMARK    2  A    between atoms: C6_8  and  C7_9 
ROOT
HETATM    1  C2  UNL     1     -39.147 -13.782   5.928  1.00  0.00     0.041 A 
HETATM    2  C3  UNL     1     -39.745 -14.841   6.568  1.00  0.00     0.018 A 
HETATM    3  C4  UNL     1     -40.561 -15.730   5.884  1.00  0.00     0.002 A 
HETATM    4  C5  UNL     1     -40.761 -15.526   4.532  1.00  0.00     0.012 A 
HETATM    5  C6  UNL     1     -40.173 -14.465   3.850  1.00  0.00    -0.022 A 
HETATM    6  C10 UNL     1     -39.361 -13.598   4.580  1.00  0.00     0.030 A 
ENDROOT
BRANCH   5   7
HETATM    7  C7  UNL     1     -40.407 -14.290   2.433  1.00  0.00     0.008 A 
HETATM    8  C8  UNL     1     -40.829 -15.282   1.580  1.00  0.00     0.120 A 
HETATM    9  N1  UNL     1     -40.925 -14.693   0.350  1.00  0.00    -0.311 N 
HETATM   10  N2  UNL     1     -40.580 -13.422   0.463  1.00  0.00    -0.311 N 
ATOM     11  H1  UNL     1     -41.213 -15.157  -0.511  1.00  0.00     0.186 HD
HETATM   12  C9  UNL     1     -40.248 -13.116   1.738  1.00  0.00     0.120 A 
ATOM     13  H2  UNL     1     -40.566 -12.757  -0.311  1.00  0.00     0.186 HD
ENDBRANCH   5   7
BRANCH   1  14
HETATM   14  C1  UNL     1     -38.289 -12.839   6.625  1.00  0.00     0.209 C 
HETATM   15  O1  UNL     1     -37.047 -13.005   6.706  1.00  0.00    -0.644 OA
HETATM   16  O2  UNL     1     -38.812 -11.709   7.232  1.00  0.00    -0.644 OA
ENDBRANCH   1  14
TORSDOF 2
ENDMDL
