MODEL 1
REMARK VINA RESULT: -8.147476489      0.000      0.000
REMARK  2 active torsions:
REMARK  status: ('A' for Active; 'I' for Inactive)
REMARK    1  A    between atoms: C1_2  and  C2_4 
REMARK    2  A    between atoms: C6_8  and  C7_9 
ROOT
HETATM    1  C2  UNL     1     -37.440 -13.324   6.404  1.00  0.00     0.041 A 
HETATM    2  C3  UNL     1     -37.340 -14.678   6.183  1.00  0.00     0.018 A 
HETATM    3  C4  UNL     1     -36.108 -15.313   6.142  1.00  0.00     0.002 A 
HETATM    4  C5  UNL     1     -34.972 -14.550   6.330  1.00  0.00     0.012 A 
HETATM    5  C6  UNL     1     -35.033 -13.178   6.556  1.00  0.00    -0.022 A 
HETATM    6  C10 UNL     1     -36.293 -12.584   6.588  1.00  0.00     0.030 A 
ENDROOT
BRANCH   5   7
HETATM    7  C7  UNL     1     -33.818 -12.416   6.751  1.00  0.00     0.008 A 
HETATM    8  C8  UNL     1     -32.626 -12.941   7.190  1.00  0.00     0.120 A 
HETATM    9  N1  UNL     1     -31.753 -11.890   7.228  1.00  0.00    -0.311 N 
HETATM   10  N2  UNL     1     -32.388 -10.800   6.833  1.00  0.00    -0.311 N 
ATOM     11  H1  UNL     1     -30.775 -11.938   7.513  1.00  0.00     0.186 HD
HETATM   12  C9  UNL     1     -33.677 -11.069   6.523  1.00  0.00     0.120 A 
ATOM     13  H2  UNL     1     -31.962  -9.875   6.769  1.00  0.00     0.186 HD
ENDBRANCH   5   7
BRANCH   1  14
HETATM   14  C1  UNL     1     -38.719 -12.639   6.450  1.00  0.00     0.209 C 
HETATM   15  O1  UNL     1     -38.931 -11.678   7.230  1.00  0.00    -0.644 OA
HETATM   16  O2  UNL     1     -39.766 -13.020   5.627  1.00  0.00    -0.644 OA
ENDBRANCH   1  14
TORSDOF 2
ENDMDL
