MODEL 2
REMARK VINA RESULT: -7.025770994      1.175      1.357
REMARK  2 active torsions:
REMARK  status: ('A' for Active; 'I' for Inactive)
REMARK    1  A    between atoms: C1_2  and  C2_4 
REMARK    2  A    between atoms: C6_8  and  C7_9 
ROOT
HETATM    1  C2  UNL     1     -38.191 -14.100   5.989  1.00  0.00     0.041 A 
HETATM    2  C3  UNL     1     -37.806 -15.419   6.029  1.00  0.00     0.018 A 
HETATM    3  C4  UNL     1     -36.493 -15.780   6.290  1.00  0.00     0.002 A 
HETATM    4  C5  UNL     1     -35.571 -14.776   6.512  1.00  0.00     0.012 A 
HETATM    5  C6  UNL     1     -35.922 -13.430   6.480  1.00  0.00    -0.022 A 
HETATM    6  C10 UNL     1     -37.253 -13.116   6.213  1.00  0.00     0.030 A 
ENDROOT
BRANCH   5   7
HETATM    7  C7  UNL     1     -34.924 -12.410   6.720  1.00  0.00     0.008 A 
HETATM    8  C8  UNL     1     -33.745 -12.611   7.397  1.00  0.00     0.120 A 
HETATM    9  N1  UNL     1     -33.107 -11.402   7.391  1.00  0.00    -0.311 N 
HETATM   10  N2  UNL     1     -33.861 -10.530   6.746  1.00  0.00    -0.311 N 
ATOM     11  H1  UNL     1     -32.199 -11.206   7.814  1.00  0.00     0.186 HD
HETATM   12  C9  UNL     1     -35.005 -11.103   6.306  1.00  0.00     0.120 A 
ATOM     13  H2  UNL     1     -33.614  -9.551   6.598  1.00  0.00     0.186 HD
ENDBRANCH   5   7
BRANCH   1  14
HETATM   14  C1  UNL     1     -39.560 -13.699   5.717  1.00  0.00     0.209 C 
HETATM   15  O1  UNL     1     -39.832 -12.646   5.089  1.00  0.00    -0.644 OA
HETATM   16  O2  UNL     1     -40.630 -14.470   6.142  1.00  0.00    -0.644 OA
ENDBRANCH   1  14
TORSDOF 2
ENDMDL
