MODEL 4
REMARK VINA RESULT: -6.388144028      4.049      4.996
REMARK  6 active torsions:
REMARK  status: ('A' for Active; 'I' for Inactive)
REMARK    1  A    between atoms: C1_2  and  C2_4 
REMARK    2  A    between atoms: C2_4  and  C3_5 
REMARK    3  A    between atoms: C3_5  and  C4_6 
REMARK    4  A    between atoms: C8_14  and  C9_15 
REMARK    5  A    between atoms: C9_15  and  C10_16 
REMARK    6  A    between atoms: C10_16  and  C11_17 
ROOT
HETATM    1  C4  UNL     1       1.147   1.558   7.769  1.00  0.00     0.052 A 
HETATM    2  N1  UNL     1       0.563   2.462   7.043  1.00  0.00    -0.353 N 
ATOM      3  H1  UNL     1       1.109   3.020   6.387  1.00  0.00     0.166 HD
HETATM    4  C5  UNL     1      -0.742   2.658   7.152  1.00  0.00     0.052 A 
HETATM    5  C6  UNL     1      -1.448   3.613   6.395  1.00  0.00     0.061 A 
HETATM    6  C7  UNL     1      -2.838   3.725   6.594  1.00  0.00     0.052 A 
HETATM    7  N2  UNL     1      -3.599   4.584   5.938  1.00  0.00    -0.353 N 
ATOM      8  H2  UNL     1      -3.187   5.211   5.248  1.00  0.00     0.166 HD
HETATM    9  C8  UNL     1      -4.882   4.626   6.177  1.00  0.00     0.052 A 
HETATM   10  S1  UNL     1      -5.095   3.428   7.372  1.00  0.00    -0.075 SA
HETATM   11  C12 UNL     1      -3.479   2.921   7.504  1.00  0.00     0.035 A 
HETATM   12  C13 UNL     1      -2.777   1.983   8.245  1.00  0.00     0.042 A 
HETATM   13  C14 UNL     1      -1.397   1.857   8.061  1.00  0.00     0.035 A 
HETATM   14  S2  UNL     1      -0.131   0.903   8.682  1.00  0.00    -0.075 SA
ENDROOT
BRANCH   1  15
HETATM   15  C3  UNL     1       2.594   1.231   7.737  1.00  0.00     0.075 C 
BRANCH  15  16
HETATM   16  C2  UNL     1       3.456   2.115   8.567  1.00  0.00     0.119 C 
BRANCH  16  17
HETATM   17  C1  UNL     1       3.023   3.509   8.325  1.00  0.00     0.172 C 
HETATM   18  O1  UNL     1       2.437   4.115   9.246  1.00  0.00    -0.648 OA
HETATM   19  O2  UNL     1       3.236   4.165   7.130  1.00  0.00    -0.648 OA
ENDBRANCH  16  17
ENDBRANCH  15  16
ENDBRANCH   1  15
BRANCH   9  20
HETATM   20  C9  UNL     1      -5.878   5.543   5.513  1.00  0.00     0.075 C 
BRANCH  20  21
HETATM   21  C10 UNL     1      -5.699   5.514   4.007  1.00  0.00     0.119 C 
BRANCH  21  22
HETATM   22  C11 UNL     1      -5.817   4.160   3.459  1.00  0.00     0.172 C 
HETATM   23  O3  UNL     1      -6.934   3.599   3.327  1.00  0.00    -0.648 OA
HETATM   24  O4  UNL     1      -4.692   3.449   3.065  1.00  0.00    -0.648 OA
ENDBRANCH  21  22
ENDBRANCH  20  21
ENDBRANCH   9  20
TORSDOF 6
ENDMDL
