MODEL 11
REMARK VINA RESULT: -6.139815455      3.743      4.438
REMARK  6 active torsions:
REMARK  status: ('A' for Active; 'I' for Inactive)
REMARK    1  A    between atoms: C1_2  and  C2_4 
REMARK    2  A    between atoms: C2_4  and  C3_5 
REMARK    3  A    between atoms: C3_5  and  C4_6 
REMARK    4  A    between atoms: C8_14  and  C9_15 
REMARK    5  A    between atoms: C9_15  and  C10_16 
REMARK    6  A    between atoms: C10_16  and  C11_17 
ROOT
HETATM    1  C4  UNL     1       0.108   2.218   7.478  1.00  0.00     0.052 A 
HETATM    2  N1  UNL     1      -0.844   2.948   6.983  1.00  0.00    -0.353 N 
ATOM      3  H1  UNL     1      -0.629   3.664   6.288  1.00  0.00     0.166 HD
HETATM    4  C5  UNL     1      -2.094   2.765   7.379  1.00  0.00     0.052 A 
HETATM    5  C6  UNL     1      -3.181   3.512   6.886  1.00  0.00     0.061 A 
HETATM    6  C7  UNL     1      -4.468   3.221   7.378  1.00  0.00     0.052 A 
HETATM    7  N2  UNL     1      -5.558   3.855   6.985  1.00  0.00    -0.353 N 
ATOM      8  H2  UNL     1      -5.495   4.600   6.291  1.00  0.00     0.166 HD
HETATM    9  C8  UNL     1      -6.717   3.525   7.486  1.00  0.00     0.052 A 
HETATM   10  S1  UNL     1      -6.328   2.269   8.572  1.00  0.00    -0.075 SA
HETATM   11  C12 UNL     1      -4.648   2.232   8.315  1.00  0.00     0.035 A 
HETATM   12  C13 UNL     1      -3.574   1.501   8.796  1.00  0.00     0.042 A 
HETATM   13  C14 UNL     1      -2.289   1.776   8.319  1.00  0.00     0.035 A 
HETATM   14  S2  UNL     1      -0.708   1.193   8.564  1.00  0.00    -0.075 SA
ENDROOT
BRANCH   1  15
HETATM   15  C3  UNL     1       1.543   2.313   7.114  1.00  0.00     0.075 C 
BRANCH  15  16
HETATM   16  C2  UNL     1       2.481   1.701   8.094  1.00  0.00     0.119 C 
BRANCH  16  17
HETATM   17  C1  UNL     1       3.255   2.800   8.711  1.00  0.00     0.172 C 
HETATM   18  O1  UNL     1       4.501   2.720   8.714  1.00  0.00    -0.648 OA
HETATM   19  O2  UNL     1       2.661   3.907   9.285  1.00  0.00    -0.648 OA
ENDBRANCH  16  17
ENDBRANCH  15  16
ENDBRANCH   1  15
BRANCH   9  20
HETATM   20  C9  UNL     1      -8.044   4.150   7.139  1.00  0.00     0.075 C 
BRANCH  20  21
HETATM   21  C10 UNL     1      -8.368   3.923   5.675  1.00  0.00     0.119 C 
BRANCH  21  22
HETATM   22  C11 UNL     1      -8.092   5.105   4.854  1.00  0.00     0.172 C 
HETATM   23  O3  UNL     1      -6.917   5.467   4.598  1.00  0.00    -0.648 OA
HETATM   24  O4  UNL     1      -9.126   5.867   4.329  1.00  0.00    -0.648 OA
ENDBRANCH  21  22
ENDBRANCH  20  21
ENDBRANCH   9  20
TORSDOF 6
ENDMDL
