MODEL 18
REMARK VINA RESULT: -5.965418287      3.554      8.498
REMARK  6 active torsions:
REMARK  status: ('A' for Active; 'I' for Inactive)
REMARK    1  A    between atoms: C1_2  and  C2_4 
REMARK    2  A    between atoms: C2_4  and  C3_5 
REMARK    3  A    between atoms: C3_5  and  C4_6 
REMARK    4  A    between atoms: C8_14  and  C9_15 
REMARK    5  A    between atoms: C9_15  and  C10_16 
REMARK    6  A    between atoms: C10_16  and  C11_17 
ROOT
HETATM    1  C4  UNL     1      -5.950   3.852   7.067  1.00  0.00     0.052 A 
HETATM    2  N1  UNL     1      -4.718   4.020   6.693  1.00  0.00    -0.353 N 
ATOM      3  H1  UNL     1      -4.487   4.735   6.002  1.00  0.00     0.166 HD
HETATM    4  C5  UNL     1      -3.760   3.264   7.208  1.00  0.00     0.052 A 
HETATM    5  C6  UNL     1      -2.402   3.389   6.857  1.00  0.00     0.061 A 
HETATM    6  C7  UNL     1      -1.473   2.533   7.479  1.00  0.00     0.052 A 
HETATM    7  N2  UNL     1      -0.175   2.563   7.229  1.00  0.00    -0.353 N 
ATOM      8  H2  UNL     1       0.200   3.229   6.556  1.00  0.00     0.166 HD
HETATM    9  C8  UNL     1       0.623   1.737   7.848  1.00  0.00     0.052 A 
HETATM   10  S1  UNL     1      -0.435   0.843   8.843  1.00  0.00    -0.075 SA
HETATM   11  C12 UNL     1      -1.890   1.602   8.400  1.00  0.00     0.035 A 
HETATM   12  C13 UNL     1      -3.228   1.485   8.739  1.00  0.00     0.042 A 
HETATM   13  C14 UNL     1      -4.166   2.327   8.133  1.00  0.00     0.035 A 
HETATM   14  S2  UNL     1      -5.847   2.587   8.199  1.00  0.00    -0.075 SA
ENDROOT
BRANCH   1  15
HETATM   15  C3  UNL     1      -7.111   4.636   6.579  1.00  0.00     0.075 C 
BRANCH  15  16
HETATM   16  C2  UNL     1      -7.322   4.595   5.106  1.00  0.00     0.119 C 
BRANCH  16  17
HETATM   17  C1  UNL     1      -8.516   3.758   4.854  1.00  0.00     0.172 C 
HETATM   18  O1  UNL     1      -9.261   4.061   3.899  1.00  0.00    -0.648 OA
HETATM   19  O2  UNL     1      -8.841   2.661   5.626  1.00  0.00    -0.648 OA
ENDBRANCH  16  17
ENDBRANCH  15  16
ENDBRANCH   1  15
BRANCH   9  20
HETATM   20  C9  UNL     1       2.119   1.651   7.674  1.00  0.00     0.075 C 
BRANCH  20  21
HETATM   21  C10 UNL     1       2.811   2.682   8.545  1.00  0.00     0.119 C 
BRANCH  21  22
HETATM   22  C11 UNL     1       3.177   3.887   7.796  1.00  0.00     0.172 C 
HETATM   23  O3  UNL     1       4.329   4.384   7.873  1.00  0.00    -0.648 OA
HETATM   24  O4  UNL     1       2.259   4.523   6.972  1.00  0.00    -0.648 OA
ENDBRANCH  21  22
ENDBRANCH  20  21
ENDBRANCH   9  20
TORSDOF 6
ENDMDL
