MODEL 3
REMARK VINA RESULT: -6.402209715      5.335      8.148
REMARK  6 active torsions:
REMARK  status: ('A' for Active; 'I' for Inactive)
REMARK    1  A    between atoms: C1_2  and  C2_4 
REMARK    2  A    between atoms: C2_4  and  C3_5 
REMARK    3  A    between atoms: C3_5  and  C4_6 
REMARK    4  A    between atoms: C8_14  and  C9_15 
REMARK    5  A    between atoms: C9_15  and  C10_16 
REMARK    6  A    between atoms: C10_16  and  C11_17 
ROOT
HETATM    1  C4  UNL     1      -1.133   6.881   2.430  1.00  0.00     0.052 A 
HETATM    2  N1  UNL     1      -0.152   6.229   2.976  1.00  0.00    -0.353 N 
ATOM      3  H1  UNL     1       0.801   6.362   2.637  1.00  0.00     0.166 HD
HETATM    4  C5  UNL     1      -0.388   5.391   3.975  1.00  0.00     0.052 A 
HETATM    5  C6  UNL     1       0.622   4.653   4.621  1.00  0.00     0.061 A 
HETATM    6  C7  UNL     1       0.249   3.799   5.677  1.00  0.00     0.052 A 
HETATM    7  N2  UNL     1       1.111   3.062   6.356  1.00  0.00    -0.353 N 
ATOM      8  H2  UNL     1       2.104   3.092   6.124  1.00  0.00     0.166 HD
HETATM    9  C8  UNL     1       0.688   2.295   7.324  1.00  0.00     0.052 A 
HETATM   10  S1  UNL     1      -0.994   2.573   7.334  1.00  0.00    -0.075 SA
HETATM   11  C12 UNL     1      -1.067   3.693   6.058  1.00  0.00     0.035 A 
HETATM   12  C13 UNL     1      -2.055   4.423   5.416  1.00  0.00     0.042 A 
HETATM   13  C14 UNL     1      -1.704   5.278   4.366  1.00  0.00     0.035 A 
HETATM   14  S2  UNL     1      -2.492   6.350   3.304  1.00  0.00    -0.075 SA
ENDROOT
BRANCH   1  15
HETATM   15  C3  UNL     1      -1.005   7.854   1.317  1.00  0.00     0.075 C 
BRANCH  15  16
HETATM   16  C2  UNL     1      -0.502   7.282   0.039  1.00  0.00     0.119 C 
BRANCH  16  17
HETATM   17  C1  UNL     1      -1.398   6.164  -0.329  1.00  0.00     0.172 C 
HETATM   18  O1  UNL     1      -2.581   6.428  -0.629  1.00  0.00    -0.648 OA
HETATM   19  O2  UNL     1      -0.986   4.847  -0.352  1.00  0.00    -0.648 OA
ENDBRANCH  16  17
ENDBRANCH  15  16
ENDBRANCH   1  15
BRANCH   9  20
HETATM   20  C9  UNL     1       1.544   1.403   8.187  1.00  0.00     0.075 C 
BRANCH  20  21
HETATM   21  C10 UNL     1       2.966   1.927   8.241  1.00  0.00     0.119 C 
BRANCH  21  22
HETATM   22  C11 UNL     1       3.048   3.250   8.867  1.00  0.00     0.172 C 
HETATM   23  O3  UNL     1       2.788   3.417  10.085  1.00  0.00    -0.648 OA
HETATM   24  O4  UNL     1       3.416   4.367   8.131  1.00  0.00    -0.648 OA
ENDBRANCH  21  22
ENDBRANCH  20  21
ENDBRANCH   9  20
TORSDOF 6
ENDMDL
