MODEL 8
REMARK VINA RESULT: -6.221931260      3.590      4.509
REMARK  6 active torsions:
REMARK  status: ('A' for Active; 'I' for Inactive)
REMARK    1  A    between atoms: C1_2  and  C2_4 
REMARK    2  A    between atoms: C2_4  and  C3_5 
REMARK    3  A    between atoms: C3_5  and  C4_6 
REMARK    4  A    between atoms: C8_14  and  C9_15 
REMARK    5  A    between atoms: C9_15  and  C10_16 
REMARK    6  A    between atoms: C10_16  and  C11_17 
ROOT
HETATM    1  C4  UNL     1       1.042   1.475   7.796  1.00  0.00     0.052 A 
HETATM    2  N1  UNL     1       0.389   2.396   7.155  1.00  0.00    -0.353 N 
ATOM      3  H1  UNL     1       0.878   3.003   6.496  1.00  0.00     0.166 HD
HETATM    4  C5  UNL     1      -0.911   2.548   7.355  1.00  0.00     0.052 A 
HETATM    5  C6  UNL     1      -1.688   3.518   6.694  1.00  0.00     0.061 A 
HETATM    6  C7  UNL     1      -3.065   3.579   6.984  1.00  0.00     0.052 A 
HETATM    7  N2  UNL     1      -3.890   4.446   6.423  1.00  0.00    -0.353 N 
ATOM      8  H2  UNL     1      -3.538   5.119   5.742  1.00  0.00     0.166 HD
HETATM    9  C8  UNL     1      -5.155   4.438   6.742  1.00  0.00     0.052 A 
HETATM   10  S1  UNL     1      -5.261   3.176   7.884  1.00  0.00    -0.075 SA
HETATM   11  C12 UNL     1      -3.626   2.711   7.889  1.00  0.00     0.035 A 
HETATM   12  C13 UNL     1      -2.855   1.758   8.535  1.00  0.00     0.042 A 
HETATM   13  C14 UNL     1      -1.486   1.682   8.260  1.00  0.00     0.035 A 
HETATM   14  S2  UNL     1      -0.158   0.736   8.750  1.00  0.00    -0.075 SA
ENDROOT
BRANCH   1  15
HETATM   15  C3  UNL     1       2.492   1.193   7.657  1.00  0.00     0.075 C 
BRANCH  15  16
HETATM   16  C2  UNL     1       3.379   2.036   8.503  1.00  0.00     0.119 C 
BRANCH  16  17
HETATM   17  C1  UNL     1       2.975   3.444   8.301  1.00  0.00     0.172 C 
HETATM   18  O1  UNL     1       2.477   4.062   9.265  1.00  0.00    -0.648 OA
HETATM   19  O2  UNL     1       3.124   4.104   7.097  1.00  0.00    -0.648 OA
ENDBRANCH  16  17
ENDBRANCH  15  16
ENDBRANCH   1  15
BRANCH   9  20
HETATM   20  C9  UNL     1      -6.215   5.357   6.190  1.00  0.00     0.075 C 
BRANCH  20  21
HETATM   21  C10 UNL     1      -6.769   6.245   7.287  1.00  0.00     0.119 C 
BRANCH  21  22
HETATM   22  C11 UNL     1      -5.748   7.131   7.854  1.00  0.00     0.172 C 
HETATM   23  O3  UNL     1      -5.188   8.016   7.159  1.00  0.00    -0.648 OA
HETATM   24  O4  UNL     1      -5.365   7.021   9.183  1.00  0.00    -0.648 OA
ENDBRANCH  21  22
ENDBRANCH  20  21
ENDBRANCH   9  20
TORSDOF 6
ENDMDL
