MODEL 6
REMARK VINA RESULT: -6.380951170      5.329      8.145
REMARK  6 active torsions:
REMARK  status: ('A' for Active; 'I' for Inactive)
REMARK    1  A    between atoms: C1_2  and  C2_4 
REMARK    2  A    between atoms: C2_4  and  C3_5 
REMARK    3  A    between atoms: C3_5  and  C4_6 
REMARK    4  A    between atoms: C8_14  and  C9_15 
REMARK    5  A    between atoms: C9_15  and  C10_16 
REMARK    6  A    between atoms: C10_16  and  C11_17 
ROOT
HETATM    1  C4  UNL     1       0.738   2.321   7.366  1.00  0.00     0.052 A 
HETATM    2  N1  UNL     1       1.146   3.109   6.419  1.00  0.00    -0.353 N 
ATOM      3  H1  UNL     1       2.141   3.179   6.206  1.00  0.00     0.166 HD
HETATM    4  C5  UNL     1       0.270   3.822   5.727  1.00  0.00     0.052 A 
HETATM    5  C6  UNL     1       0.633   4.693   4.682  1.00  0.00     0.061 A 
HETATM    6  C7  UNL     1      -0.390   5.394   4.013  1.00  0.00     0.052 A 
HETATM    7  N2  UNL     1      -0.166   6.234   3.018  1.00  0.00    -0.353 N 
ATOM      8  H2  UNL     1       0.786   6.405   2.697  1.00  0.00     0.166 HD
HETATM    9  C8  UNL     1      -1.169   6.844   2.447  1.00  0.00     0.052 A 
HETATM   10  S1  UNL     1      -2.522   6.256   3.303  1.00  0.00    -0.075 SA
HETATM   11  C12 UNL     1      -1.704   5.226   4.379  1.00  0.00     0.035 A 
HETATM   12  C13 UNL     1      -2.053   4.366   5.408  1.00  0.00     0.042 A 
HETATM   13  C14 UNL     1      -1.052   3.662   6.084  1.00  0.00     0.035 A 
HETATM   14  S2  UNL     1      -0.950   2.531   7.352  1.00  0.00    -0.075 SA
ENDROOT
BRANCH   1  15
HETATM   15  C3  UNL     1       1.610   1.463   8.206  1.00  0.00     0.075 C 
BRANCH  15  16
HETATM   16  C2  UNL     1       3.043   1.863   8.238  1.00  0.00     0.119 C 
BRANCH  16  17
HETATM   17  C1  UNL     1       3.112   3.209   8.848  1.00  0.00     0.172 C 
HETATM   18  O1  UNL     1       2.781   3.334  10.046  1.00  0.00    -0.648 OA
HETATM   19  O2  UNL     1       3.524   4.329   8.155  1.00  0.00    -0.648 OA
ENDBRANCH  16  17
ENDBRANCH  15  16
ENDBRANCH   1  15
BRANCH   9  20
HETATM   20  C9  UNL     1      -1.076   7.823   1.304  1.00  0.00     0.075 C 
BRANCH  20  21
HETATM   21  C10 UNL     1      -0.510   7.145   0.072  1.00  0.00     0.119 C 
BRANCH  21  22
HETATM   22  C11 UNL     1      -1.345   6.030  -0.382  1.00  0.00     0.172 C 
HETATM   23  O3  UNL     1      -2.517   6.214  -0.797  1.00  0.00    -0.648 OA
HETATM   24  O4  UNL     1      -0.867   4.727  -0.369  1.00  0.00    -0.648 OA
ENDBRANCH  21  22
ENDBRANCH  20  21
ENDBRANCH   9  20
TORSDOF 6
ENDMDL
