MODEL 9
REMARK VINA RESULT: -6.185958007      5.359      8.702
REMARK  6 active torsions:
REMARK  status: ('A' for Active; 'I' for Inactive)
REMARK    1  A    between atoms: C1_2  and  C2_4 
REMARK    2  A    between atoms: C2_4  and  C3_5 
REMARK    3  A    between atoms: C3_5  and  C4_6 
REMARK    4  A    between atoms: C8_14  and  C9_15 
REMARK    5  A    between atoms: C9_15  and  C10_16 
REMARK    6  A    between atoms: C10_16  and  C11_17 
ROOT
HETATM    1  C4  UNL     1       0.703   2.349   7.314  1.00  0.00     0.052 A 
HETATM    2  N1  UNL     1       1.136   3.092   6.342  1.00  0.00    -0.353 N 
ATOM      3  H1  UNL     1       2.133   3.124   6.129  1.00  0.00     0.166 HD
HETATM    4  C5  UNL     1       0.283   3.808   5.625  1.00  0.00     0.052 A 
HETATM    5  C6  UNL     1       0.674   4.632   4.553  1.00  0.00     0.061 A 
HETATM    6  C7  UNL     1      -0.326   5.341   3.859  1.00  0.00     0.052 A 
HETATM    7  N2  UNL     1      -0.075   6.141   2.837  1.00  0.00    -0.353 N 
ATOM      8  H2  UNL     1       0.883   6.271   2.513  1.00  0.00     0.166 HD
HETATM    9  C8  UNL     1      -1.057   6.762   2.243  1.00  0.00     0.052 A 
HETATM   10  S1  UNL     1      -2.429   6.244   3.115  1.00  0.00    -0.075 SA
HETATM   11  C12 UNL     1      -1.645   5.226   4.227  1.00  0.00     0.035 A 
HETATM   12  C13 UNL     1      -2.021   4.412   5.283  1.00  0.00     0.042 A 
HETATM   13  C14 UNL     1      -1.043   3.700   5.984  1.00  0.00     0.035 A 
HETATM   14  S2  UNL     1      -0.978   2.610   7.290  1.00  0.00    -0.075 SA
ENDROOT
BRANCH   1  15
HETATM   15  C3  UNL     1       1.547   1.493   8.184  1.00  0.00     0.075 C 
BRANCH  15  16
HETATM   16  C2  UNL     1       2.983   1.878   8.242  1.00  0.00     0.119 C 
BRANCH  16  17
HETATM   17  C1  UNL     1       3.055   3.225   8.851  1.00  0.00     0.172 C 
HETATM   18  O1  UNL     1       2.753   3.347  10.056  1.00  0.00    -0.648 OA
HETATM   19  O2  UNL     1       3.437   4.349   8.146  1.00  0.00    -0.648 OA
ENDBRANCH  16  17
ENDBRANCH  15  16
ENDBRANCH   1  15
BRANCH   9  20
HETATM   20  C9  UNL     1      -0.933   7.699   1.069  1.00  0.00     0.075 C 
BRANCH  20  21
HETATM   21  C10 UNL     1       0.431   8.363   1.065  1.00  0.00     0.119 C 
BRANCH  21  22
HETATM   22  C11 UNL     1       1.363   7.712   0.140  1.00  0.00     0.172 C 
HETATM   23  O3  UNL     1       2.324   8.338  -0.373  1.00  0.00    -0.648 OA
HETATM   24  O4  UNL     1       1.214   6.375  -0.202  1.00  0.00    -0.648 OA
ENDBRANCH  21  22
ENDBRANCH  20  21
ENDBRANCH   9  20
TORSDOF 6
ENDMDL
