MODEL 2
REMARK VINA RESULT: -7.561069362      1.721      2.535
REMARK  3 active torsions:
REMARK  status: ('A' for Active; 'I' for Inactive)
REMARK    1  A    between atoms: C2_3  and  C3_4 
REMARK    2  A    between atoms: C3_4  and  C4_5 
REMARK    3  A    between atoms: C4_5  and  C5_6 
ROOT
HETATM    1  C1  UNL     1      -0.138   0.885   9.053  1.00  0.00     0.161 C 
HETATM    2  N1  UNL     1      -0.599   1.918   8.173  1.00  0.00    -0.307 N 
HETATM    3  C2  UNL     1       0.237   2.595   7.372  1.00  0.00     0.086 A 
HETATM    4  N2  UNL     1      -0.297   3.560   6.569  1.00  0.00    -0.345 N 
ATOM      5  H2  UNL     1       0.335   4.078   5.958  1.00  0.00     0.167 HD
HETATM    6  C6  UNL     1      -1.589   3.869   6.533  1.00  0.00     0.049 A 
HETATM    7  C7  UNL     1      -2.089   4.865   5.694  1.00  0.00     0.030 A 
HETATM    8  C8  UNL     1      -3.444   5.159   5.683  1.00  0.00     0.002 A 
HETATM    9  C9  UNL     1      -4.319   4.471   6.502  1.00  0.00     0.001 A 
HETATM   10  C10 UNL     1      -3.796   3.495   7.318  1.00  0.00     0.019 A 
HETATM   11  C11 UNL     1      -2.455   3.179   7.352  1.00  0.00     0.059 A 
HETATM   12  C12 UNL     1      -1.920   2.198   8.169  1.00  0.00     0.261 A 
HETATM   13  O3  UNL     1      -2.707   1.567   8.916  1.00  0.00    -0.267 OA
ENDROOT
BRANCH   3  14
HETATM   14  C3  UNL     1       1.678   2.329   7.342  1.00  0.00     0.087 C 
BRANCH  14  15
HETATM   15  C4  UNL     1       2.508   3.576   7.614  1.00  0.00     0.120 C 
BRANCH  15  16
HETATM   16  C5  UNL     1       3.378   3.345   8.788  1.00  0.00     0.172 C 
HETATM   17  O1  UNL     1       2.944   3.574   9.961  1.00  0.00    -0.648 OA
HETATM   18  O2  UNL     1       4.674   2.874   8.628  1.00  0.00    -0.648 OA
ENDBRANCH  15  16
ENDBRANCH  14  15
ENDBRANCH   3  14
TORSDOF 3
ENDMDL
