MODEL 10
REMARK VINA RESULT: -6.455720839      1.020      1.447
REMARK  3 active torsions:
REMARK  status: ('A' for Active; 'I' for Inactive)
REMARK    1  A    between atoms: C2_3  and  C3_4 
REMARK    2  A    between atoms: C3_4  and  C4_5 
REMARK    3  A    between atoms: C4_5  and  C5_6 
ROOT
HETATM    1  C1  UNL     1      -1.161   2.437   7.837  1.00  0.00     0.161 C 
HETATM    2  N1  UNL     1      -0.767   3.334   6.790  1.00  0.00    -0.307 N 
HETATM    3  C2  UNL     1       0.521   3.541   6.480  1.00  0.00     0.086 A 
HETATM    4  N2  UNL     1       0.796   4.413   5.467  1.00  0.00    -0.345 N 
ATOM      5  H2  UNL     1       1.774   4.574   5.227  1.00  0.00     0.167 HD
HETATM    6  C6  UNL     1      -0.130   5.066   4.773  1.00  0.00     0.049 A 
HETATM    7  C7  UNL     1       0.199   5.948   3.744  1.00  0.00     0.030 A 
HETATM    8  C8  UNL     1      -0.795   6.611   3.041  1.00  0.00     0.002 A 
HETATM    9  C9  UNL     1      -2.127   6.408   3.349  1.00  0.00     0.001 A 
HETATM   10  C10 UNL     1      -2.420   5.532   4.368  1.00  0.00     0.019 A 
HETATM   11  C11 UNL     1      -1.456   4.858   5.085  1.00  0.00     0.059 A 
HETATM   12  C12 UNL     1      -1.742   3.975   6.111  1.00  0.00     0.261 A 
HETATM   13  O3  UNL     1      -2.950   3.784   6.398  1.00  0.00    -0.267 OA
ENDROOT
BRANCH   3  14
HETATM   14  C3  UNL     1       1.614   2.871   7.189  1.00  0.00     0.087 C 
BRANCH  14  15
HETATM   15  C4  UNL     1       2.762   3.814   7.520  1.00  0.00     0.120 C 
BRANCH  15  16
HETATM   16  C5  UNL     1       3.461   3.337   8.732  1.00  0.00     0.172 C 
HETATM   17  O1  UNL     1       2.956   3.535   9.883  1.00  0.00    -0.648 OA
HETATM   18  O2  UNL     1       4.673   2.666   8.633  1.00  0.00    -0.648 OA
ENDBRANCH  15  16
ENDBRANCH  14  15
ENDBRANCH   3  14
TORSDOF 3
ENDMDL
