MODEL 7
REMARK VINA RESULT: -6.659854828      2.778      5.121
REMARK  3 active torsions:
REMARK  status: ('A' for Active; 'I' for Inactive)
REMARK    1  A    between atoms: C2_3  and  C3_4 
REMARK    2  A    between atoms: C3_4  and  C4_5 
REMARK    3  A    between atoms: C4_5  and  C5_6 
ROOT
HETATM    1  C1  UNL     1      -3.052   5.150   5.204  1.00  0.00     0.161 C 
HETATM    2  N1  UNL     1      -1.907   4.462   5.725  1.00  0.00    -0.307 N 
HETATM    3  C2  UNL     1      -0.670   4.687   5.259  1.00  0.00     0.086 A 
HETATM    4  N2  UNL     1       0.355   3.984   5.820  1.00  0.00    -0.345 N 
ATOM      5  H2  UNL     1       1.299   4.152   5.470  1.00  0.00     0.167 HD
HETATM    6  C6  UNL     1       0.204   3.094   6.795  1.00  0.00     0.049 A 
HETATM    7  C7  UNL     1       1.284   2.398   7.338  1.00  0.00     0.030 A 
HETATM    8  C8  UNL     1       1.087   1.477   8.356  1.00  0.00     0.002 A 
HETATM    9  C9  UNL     1      -0.181   1.234   8.846  1.00  0.00     0.001 A 
HETATM   10  C10 UNL     1      -1.226   1.935   8.291  1.00  0.00     0.019 A 
HETATM   11  C11 UNL     1      -1.063   2.857   7.280  1.00  0.00     0.059 A 
HETATM   12  C12 UNL     1      -2.109   3.566   6.715  1.00  0.00     0.261 A 
HETATM   13  O3  UNL     1      -3.265   3.353   7.155  1.00  0.00    -0.267 OA
ENDROOT
BRANCH   3  14
HETATM   14  C3  UNL     1      -0.402   5.647   4.185  1.00  0.00     0.087 C 
BRANCH  14  15
HETATM   15  C4  UNL     1       0.264   5.002   2.977  1.00  0.00     0.120 C 
BRANCH  15  16
HETATM   16  C5  UNL     1      -0.639   3.984   2.398  1.00  0.00     0.172 C 
HETATM   17  O1  UNL     1      -0.281   2.765   2.348  1.00  0.00    -0.648 OA
HETATM   18  O2  UNL     1      -1.886   4.343   1.904  1.00  0.00    -0.648 OA
ENDBRANCH  15  16
ENDBRANCH  14  15
ENDBRANCH   3  14
TORSDOF 3
ENDMDL
