MODEL 8
REMARK VINA RESULT: -6.654225513      2.921      5.493
REMARK  3 active torsions:
REMARK  status: ('A' for Active; 'I' for Inactive)
REMARK    1  A    between atoms: C2_3  and  C3_4 
REMARK    2  A    between atoms: C3_4  and  C4_5 
REMARK    3  A    between atoms: C4_5  and  C5_6 
ROOT
HETATM    1  C1  UNL     1      -4.353   2.869   7.887  1.00  0.00     0.161 C 
HETATM    2  N1  UNL     1      -2.978   3.028   7.514  1.00  0.00    -0.307 N 
HETATM    3  C2  UNL     1      -2.593   3.911   6.581  1.00  0.00     0.086 A 
HETATM    4  N2  UNL     1      -1.261   3.990   6.295  1.00  0.00    -0.345 N 
ATOM      5  H2  UNL     1      -0.963   4.660   5.586  1.00  0.00     0.167 HD
HETATM    6  C6  UNL     1      -0.328   3.250   6.882  1.00  0.00     0.049 A 
HETATM    7  C7  UNL     1       1.024   3.366   6.556  1.00  0.00     0.030 A 
HETATM    8  C8  UNL     1       1.970   2.577   7.191  1.00  0.00     0.002 A 
HETATM    9  C9  UNL     1       1.590   1.662   8.154  1.00  0.00     0.001 A 
HETATM   10  C10 UNL     1       0.251   1.570   8.454  1.00  0.00     0.019 A 
HETATM   11  C11 UNL     1      -0.714   2.341   7.842  1.00  0.00     0.059 A 
HETATM   12  C12 UNL     1      -2.063   2.255   8.137  1.00  0.00     0.261 A 
HETATM   13  O3  UNL     1      -2.419   1.428   9.012  1.00  0.00    -0.267 OA
ENDROOT
BRANCH   3  14
HETATM   14  C3  UNL     1      -3.548   4.770   5.876  1.00  0.00     0.087 C 
BRANCH  14  15
HETATM   15  C4  UNL     1      -3.075   5.149   4.479  1.00  0.00     0.120 C 
BRANCH  15  16
HETATM   16  C5  UNL     1      -3.516   4.122   3.511  1.00  0.00     0.172 C 
HETATM   17  O1  UNL     1      -2.833   3.895   2.463  1.00  0.00    -0.648 OA
HETATM   18  O2  UNL     1      -4.677   3.393   3.732  1.00  0.00    -0.648 OA
ENDBRANCH  15  16
ENDBRANCH  14  15
ENDBRANCH   3  14
TORSDOF 3
ENDMDL
