MODEL 5
REMARK VINA RESULT: -6.774340690      1.118      1.704
REMARK  3 active torsions:
REMARK  status: ('A' for Active; 'I' for Inactive)
REMARK    1  A    between atoms: C2_3  and  C3_4 
REMARK    2  A    between atoms: C3_4  and  C4_5 
REMARK    3  A    between atoms: C4_5  and  C5_6 
ROOT
HETATM    1  C1  UNL     1      -1.075   1.552   8.600  1.00  0.00     0.161 C 
HETATM    2  N1  UNL     1      -1.036   2.595   7.617  1.00  0.00    -0.307 N 
HETATM    3  C2  UNL     1       0.115   3.017   7.073  1.00  0.00     0.086 A 
HETATM    4  N2  UNL     1       0.049   4.014   6.145  1.00  0.00    -0.345 N 
ATOM      5  H2  UNL     1       0.922   4.339   5.729  1.00  0.00     0.167 HD
HETATM    6  C6  UNL     1      -1.080   4.591   5.750  1.00  0.00     0.049 A 
HETATM    7  C7  UNL     1      -1.098   5.609   4.796  1.00  0.00     0.030 A 
HETATM    8  C8  UNL     1      -2.297   6.187   4.407  1.00  0.00     0.002 A 
HETATM    9  C9  UNL     1      -3.491   5.764   4.957  1.00  0.00     0.001 A 
HETATM   10  C10 UNL     1      -3.442   4.759   5.895  1.00  0.00     0.019 A 
HETATM   11  C11 UNL     1      -2.267   4.164   6.302  1.00  0.00     0.059 A 
HETATM   12  C12 UNL     1      -2.208   3.152   7.244  1.00  0.00     0.261 A 
HETATM   13  O3  UNL     1      -3.289   2.760   7.750  1.00  0.00    -0.267 OA
ENDROOT
BRANCH   3  14
HETATM   14  C3  UNL     1       1.412   2.445   7.447  1.00  0.00     0.087 C 
BRANCH  14  15
HETATM   15  C4  UNL     1       2.515   3.492   7.513  1.00  0.00     0.120 C 
BRANCH  15  16
HETATM   16  C5  UNL     1       3.348   3.258   8.712  1.00  0.00     0.172 C 
HETATM   17  O1  UNL     1       2.901   3.546   9.867  1.00  0.00    -0.648 OA
HETATM   18  O2  UNL     1       4.624   2.722   8.595  1.00  0.00    -0.648 OA
ENDBRANCH  15  16
ENDBRANCH  14  15
ENDBRANCH   3  14
TORSDOF 3
ENDMDL
