MODEL 1
REMARK VINA RESULT: -7.630366286      0.000      0.000
REMARK  3 active torsions:
REMARK  status: ('A' for Active; 'I' for Inactive)
REMARK    1  A    between atoms: C2_3  and  C3_4 
REMARK    2  A    between atoms: C3_4  and  C4_5 
REMARK    3  A    between atoms: C4_5  and  C5_6 
ROOT
HETATM    1  C1  UNL     1      -1.605   1.862   8.390  1.00  0.00     0.161 C 
HETATM    2  N1  UNL     1      -0.864   2.689   7.484  1.00  0.00    -0.307 N 
HETATM    3  C2  UNL     1       0.473   2.629   7.399  1.00  0.00     0.086 A 
HETATM    4  N2  UNL     1       1.089   3.456   6.505  1.00  0.00    -0.345 N 
ATOM      5  H2  UNL     1       2.106   3.414   6.436  1.00  0.00     0.167 HD
HETATM    6  C6  UNL     1       0.447   4.313   5.718  1.00  0.00     0.049 A 
HETATM    7  C7  UNL     1       1.121   5.139   4.817  1.00  0.00     0.030 A 
HETATM    8  C8  UNL     1       0.417   6.021   4.011  1.00  0.00     0.002 A 
HETATM    9  C9  UNL     1      -0.961   6.095   4.087  1.00  0.00     0.001 A 
HETATM   10  C10 UNL     1      -1.596   5.268   4.984  1.00  0.00     0.019 A 
HETATM   11  C11 UNL     1      -0.926   4.381   5.798  1.00  0.00     0.059 A 
HETATM   12  C12 UNL     1      -1.557   3.545   6.703  1.00  0.00     0.261 A 
HETATM   13  O3  UNL     1      -2.809   3.604   6.778  1.00  0.00    -0.267 OA
ENDROOT
BRANCH   3  14
HETATM   14  C3  UNL     1       1.270   1.719   8.226  1.00  0.00     0.087 C 
BRANCH  14  15
HETATM   15  C4  UNL     1       2.741   1.711   7.838  1.00  0.00     0.120 C 
BRANCH  15  16
HETATM   16  C5  UNL     1       3.460   2.755   8.599  1.00  0.00     0.172 C 
HETATM   17  O1  UNL     1       4.732   2.786   8.600  1.00  0.00    -0.648 OA
HETATM   18  O2  UNL     1       2.761   3.714   9.321  1.00  0.00    -0.648 OA
ENDBRANCH  15  16
ENDBRANCH  14  15
ENDBRANCH   3  14
TORSDOF 3
ENDMDL
