MODEL 9
REMARK VINA RESULT: -6.525762215      2.944      5.582
REMARK  3 active torsions:
REMARK  status: ('A' for Active; 'I' for Inactive)
REMARK    1  A    between atoms: C2_3  and  C3_4 
REMARK    2  A    between atoms: C3_4  and  C4_5 
REMARK    3  A    between atoms: C4_5  and  C5_6 
ROOT
HETATM    1  C1  UNL     1      -3.699   4.739   6.145  1.00  0.00     0.161 C 
HETATM    2  N1  UNL     1      -2.768   3.860   6.790  1.00  0.00    -0.307 N 
HETATM    3  C2  UNL     1      -3.158   2.954   7.699  1.00  0.00     0.086 A 
HETATM    4  N2  UNL     1      -2.198   2.162   8.256  1.00  0.00    -0.345 N 
ATOM      5  H2  UNL     1      -2.489   1.471   8.947  1.00  0.00     0.167 HD
HETATM    6  C6  UNL     1      -0.905   2.233   7.955  1.00  0.00     0.049 A 
HETATM    7  C7  UNL     1       0.042   1.400   8.552  1.00  0.00     0.030 A 
HETATM    8  C8  UNL     1       1.382   1.503   8.212  1.00  0.00     0.002 A 
HETATM    9  C9  UNL     1       1.800   2.432   7.278  1.00  0.00     0.001 A 
HETATM   10  C10 UNL     1       0.843   3.239   6.707  1.00  0.00     0.019 A 
HETATM   11  C11 UNL     1      -0.496   3.160   7.023  1.00  0.00     0.059 A 
HETATM   12  C12 UNL     1      -1.465   3.967   6.453  1.00  0.00     0.261 A 
HETATM   13  O3  UNL     1      -1.095   4.814   5.602  1.00  0.00    -0.267 OA
ENDROOT
BRANCH   3  14
HETATM   14  C3  UNL     1      -4.560   2.801   8.098  1.00  0.00     0.087 C 
BRANCH  14  15
HETATM   15  C4  UNL     1      -4.874   1.400   8.606  1.00  0.00     0.120 C 
BRANCH  15  16
HETATM   16  C5  UNL     1      -4.998   1.425  10.079  1.00  0.00     0.172 C 
HETATM   17  O1  UNL     1      -6.138   1.295  10.628  1.00  0.00    -0.648 OA
HETATM   18  O2  UNL     1      -3.877   1.587  10.883  1.00  0.00    -0.648 OA
ENDBRANCH  15  16
ENDBRANCH  14  15
ENDBRANCH   3  14
TORSDOF 3
ENDMDL
