MODEL 12
REMARK VINA RESULT: -6.796777547      1.864      2.185
REMARK  14 active torsions:
REMARK  status: ('A' for Active; 'I' for Inactive)
REMARK       I    between atoms: C2_2  and  N1_4 
REMARK    1  A    between atoms: N1_4  and  C3_6 
REMARK    2  A    between atoms: C4_7  and  O2_8 
REMARK    3  A    between atoms: O2_8  and  C5_9 
REMARK    4  A    between atoms: C7_11  and  C8_12 
REMARK       I    between atoms: C8_12  and  N2_14 
REMARK    5  A    between atoms: N2_14  and  C9_16 
REMARK    6  A    between atoms: C9_16  and  C10_17 
REMARK    7  A    between atoms: C10_17  and  S1_18 
REMARK    8  A    between atoms: C11_25  and  C12_26 
REMARK    9  A    between atoms: C12_26  and  O7_27 
REMARK   10  A    between atoms: C13_30  and  C14_31 
REMARK   11  A    between atoms: C14_31  and  O9_32 
REMARK   12  A    between atoms: C15_34  and  O10_35 
REMARK   13  A    between atoms: O10_35  and  S2_36 
REMARK   14  A    between atoms: C16_40  and  O14_41 
ROOT
HETATM    1  C3  UNL     1     -43.099  23.953  -4.752  1.00  0.00     0.170 C 
HETATM    2  C4  UNL     1     -42.077  24.971  -4.898  1.00  0.00     0.286 C 
HETATM    3  O8  UNL     1     -42.730  26.179  -5.261  1.00  0.00    -0.349 OA
HETATM    4  C13 UNL     1     -43.228  26.108  -6.555  1.00  0.00     0.181 C 
HETATM    5  C15 UNL     1     -44.365  25.109  -6.545  1.00  0.00     0.207 C 
HETATM    6  C16 UNL     1     -43.755  23.784  -6.139  1.00  0.00     0.178 C 
ENDROOT
BRANCH   2   7
HETATM    7  O2  UNL     1     -41.337  25.324  -3.794  1.00  0.00    -0.352 OA
BRANCH   7   8
HETATM    8  C5  UNL     1     -40.011  25.035  -4.031  1.00  0.00     0.160 C 
HETATM    9  C6  UNL     1     -39.151  26.303  -3.919  1.00  0.00     0.077 C 
HETATM   10  C7  UNL     1     -37.813  25.695  -3.540  1.00  0.00     0.280 C 
HETATM   11  N3  UNL     1     -38.199  24.786  -2.503  1.00  0.00    -0.053 N 
HETATM   12  C11 UNL     1     -39.372  24.091  -3.070  1.00  0.00     0.239 C 
ATOM     13  H32 UNL     1     -37.453  24.166  -2.187  1.00  0.00     0.278 HD
ATOM     14  H31 UNL     1     -38.365  25.224  -1.597  1.00  0.00     0.278 HD
BRANCH  10  15
HETATM   15  C8  UNL     1     -36.832  26.655  -3.042  1.00  0.00     0.248 C 
HETATM   16  O3  UNL     1     -37.229  27.684  -2.399  1.00  0.00    -0.271 OA
HETATM   17  N2  UNL     1     -35.457  26.487  -3.244  1.00  0.00    -0.358 N 
ATOM     18  H2  UNL     1     -35.145  25.662  -3.756  1.00  0.00     0.162 HD
BRANCH  17  19
HETATM   19  C9  UNL     1     -34.446  27.416  -2.769  1.00  0.00     0.140 C 
BRANCH  19  20
HETATM   20  C10 UNL     1     -33.565  26.688  -1.787  1.00  0.00     0.184 C 
BRANCH  20  21
HETATM   21  S1  UNL     1     -32.615  28.002  -0.979  1.00  0.00     0.103 S 
HETATM   22  O4  UNL     1     -31.200  28.035  -1.759  1.00  0.00    -0.595 OA
HETATM   23  O5  UNL     1     -33.400  29.200  -0.882  1.00  0.00    -0.595 OA
HETATM   24  O6  UNL     1     -32.235  27.277   0.525  1.00  0.00    -0.595 OA
ENDBRANCH  20  21
ENDBRANCH  19  20
ENDBRANCH  17  19
ENDBRANCH  10  15
BRANCH  12  25
HETATM   25  C12 UNL     1     -38.847  22.837  -3.732  1.00  0.00     0.199 C 
BRANCH  25  26
HETATM   26  O7  UNL     1     -39.135  21.760  -2.913  1.00  0.00    -0.399 OA
ATOM     27  H7  UNL     1     -39.451  22.094  -2.082  1.00  0.00     0.209 HD
ENDBRANCH  25  26
ENDBRANCH  12  25
ENDBRANCH   7   8
ENDBRANCH   2   7
BRANCH   1  28
HETATM   28  N1  UNL     1     -42.784  22.650  -4.323  1.00  0.00    -0.349 N 
HETATM   29  C2  UNL     1     -42.792  22.136  -3.025  1.00  0.00     0.214 C 
HETATM   30  C1  UNL     1     -42.437  20.736  -2.705  1.00  0.00     0.117 C 
HETATM   31  O1  UNL     1     -43.111  22.886  -2.104  1.00  0.00    -0.274 OA
ATOM     32  H1  UNL     1     -42.514  21.994  -5.056  1.00  0.00     0.163 HD
ENDBRANCH   1  28
BRANCH   6  33
HETATM   33  O14 UNL     1     -44.652  22.750  -6.147  1.00  0.00    -0.391 OA
ATOM     34  H14 UNL     1     -44.600  22.250  -6.953  1.00  0.00     0.210 HD
ENDBRANCH   6  33
BRANCH   4  35
HETATM   35  C14 UNL     1     -43.833  27.470  -6.843  1.00  0.00     0.199 C 
BRANCH  35  36
HETATM   36  O9  UNL     1     -44.233  27.579  -8.170  1.00  0.00    -0.398 OA
ATOM     37  H9  UNL     1     -44.981  27.022  -8.354  1.00  0.00     0.209 HD
ENDBRANCH  35  36
ENDBRANCH   4  35
BRANCH   5  38
HETATM   38  O10 UNL     1     -44.914  24.964  -7.798  1.00  0.00    -0.246 OA
BRANCH  38  39
HETATM   39  S2  UNL     1     -46.610  25.044  -7.630  1.00  0.00     0.252 S 
HETATM   40  O11 UNL     1     -46.953  26.406  -6.972  1.00  0.00    -0.572 OA
HETATM   41  O12 UNL     1     -47.048  25.274  -9.329  1.00  0.00    -0.572 OA
HETATM   42  O13 UNL     1     -47.211  23.781  -7.096  1.00  0.00    -0.572 OA
ENDBRANCH  38  39
ENDBRANCH   5  38
TORSDOF 14
ENDMDL
