MODEL 7
REMARK VINA RESULT: -7.058343295      2.814      9.294
REMARK  14 active torsions:
REMARK  status: ('A' for Active; 'I' for Inactive)
REMARK       I    between atoms: C2_2  and  N1_4 
REMARK    1  A    between atoms: N1_4  and  C3_6 
REMARK    2  A    between atoms: C4_7  and  O2_8 
REMARK    3  A    between atoms: O2_8  and  C5_9 
REMARK    4  A    between atoms: C7_11  and  C8_12 
REMARK       I    between atoms: C8_12  and  N2_14 
REMARK    5  A    between atoms: N2_14  and  C9_16 
REMARK    6  A    between atoms: C9_16  and  C10_17 
REMARK    7  A    between atoms: C10_17  and  S1_18 
REMARK    8  A    between atoms: C11_25  and  C12_26 
REMARK    9  A    between atoms: C12_26  and  O7_27 
REMARK   10  A    between atoms: C13_30  and  C14_31 
REMARK   11  A    between atoms: C14_31  and  O9_32 
REMARK   12  A    between atoms: C15_34  and  O10_35 
REMARK   13  A    between atoms: O10_35  and  S2_36 
REMARK   14  A    between atoms: C16_40  and  O14_41 
ROOT
HETATM    1  C3  UNL     1     -40.791  23.592  -4.034  1.00  0.00     0.170 C 
HETATM    2  C4  UNL     1     -41.798  24.476  -4.587  1.00  0.00     0.286 C 
HETATM    3  O8  UNL     1     -41.123  25.595  -5.143  1.00  0.00    -0.349 OA
HETATM    4  C13 UNL     1     -40.578  26.394  -4.148  1.00  0.00     0.181 C 
HETATM    5  C15 UNL     1     -39.451  25.612  -3.509  1.00  0.00     0.207 C 
HETATM    6  C16 UNL     1     -40.087  24.376  -2.907  1.00  0.00     0.178 C 
ENDROOT
BRANCH   2   7
HETATM    7  O2  UNL     1     -42.576  24.021  -5.627  1.00  0.00    -0.352 OA
BRANCH   7   8
HETATM    8  C5  UNL     1     -43.881  24.406  -5.414  1.00  0.00     0.160 C 
HETATM    9  C6  UNL     1     -44.171  25.746  -6.108  1.00  0.00     0.077 C 
HETATM   10  C7  UNL     1     -45.668  25.624  -6.328  1.00  0.00     0.280 C 
HETATM   11  N3  UNL     1     -45.768  24.301  -6.867  1.00  0.00    -0.053 N 
HETATM   12  C11 UNL     1     -44.924  23.493  -5.963  1.00  0.00     0.239 C 
ATOM     13  H32 UNL     1     -46.723  23.959  -6.971  1.00  0.00     0.278 HD
ATOM     14  H31 UNL     1     -45.520  24.227  -7.854  1.00  0.00     0.278 HD
BRANCH  10  15
HETATM   15  C8  UNL     1     -46.224  26.601  -7.260  1.00  0.00     0.248 C 
HETATM   16  O3  UNL     1     -46.598  27.741  -6.824  1.00  0.00    -0.271 OA
HETATM   17  N2  UNL     1     -46.363  26.332  -8.626  1.00  0.00    -0.358 N 
ATOM     18  H2  UNL     1     -46.060  25.420  -8.968  1.00  0.00     0.162 HD
BRANCH  17  19
HETATM   19  C9  UNL     1     -46.912  27.272  -9.588  1.00  0.00     0.140 C 
BRANCH  19  20
HETATM   20  C10 UNL     1     -46.239  27.033 -10.915  1.00  0.00     0.184 C 
BRANCH  20  21
HETATM   21  S1  UNL     1     -47.402  25.984 -11.824  1.00  0.00     0.103 S 
HETATM   22  O4  UNL     1     -47.065  26.240 -13.384  1.00  0.00    -0.595 OA
HETATM   23  O5  UNL     1     -47.382  24.646 -11.303  1.00  0.00    -0.595 OA
HETATM   24  O6  UNL     1     -48.878  26.818 -11.583  1.00  0.00    -0.595 OA
ENDBRANCH  20  21
ENDBRANCH  19  20
ENDBRANCH  17  19
ENDBRANCH  10  15
BRANCH  12  25
HETATM   25  C12 UNL     1     -45.846  22.940  -4.900  1.00  0.00     0.199 C 
BRANCH  25  26
HETATM   26  O7  UNL     1     -45.387  23.363  -3.665  1.00  0.00    -0.399 OA
ATOM     27  H7  UNL     1     -44.693  22.777  -3.388  1.00  0.00     0.209 HD
ENDBRANCH  25  26
ENDBRANCH  12  25
ENDBRANCH   7   8
ENDBRANCH   2   7
BRANCH   1  28
HETATM   28  N1  UNL     1     -41.133  22.348  -3.471  1.00  0.00    -0.349 N 
HETATM   29  C2  UNL     1     -42.232  22.026  -2.674  1.00  0.00     0.214 C 
HETATM   30  C1  UNL     1     -42.478  20.668  -2.141  1.00  0.00     0.117 C 
HETATM   31  O1  UNL     1     -43.035  22.918  -2.402  1.00  0.00    -0.274 OA
ATOM     32  H1  UNL     1     -40.492  21.580  -3.672  1.00  0.00     0.163 HD
ENDBRANCH   1  28
BRANCH   6  33
HETATM   33  O14 UNL     1     -39.198  23.588  -2.226  1.00  0.00    -0.391 OA
ATOM     34  H14 UNL     1     -39.131  23.847  -1.315  1.00  0.00     0.210 HD
ENDBRANCH   6  33
BRANCH   4  35
HETATM   35  C14 UNL     1     -39.953  27.579  -4.861  1.00  0.00     0.199 C 
BRANCH  35  36
HETATM   36  O9  UNL     1     -38.761  27.226  -5.484  1.00  0.00    -0.398 OA
ATOM     37  H9  UNL     1     -38.352  27.976  -5.901  1.00  0.00     0.209 HD
ENDBRANCH  35  36
ENDBRANCH   4  35
BRANCH   5  38
HETATM   38  O10 UNL     1     -38.858  26.328  -2.495  1.00  0.00    -0.246 OA
BRANCH  38  39
HETATM   39  S2  UNL     1     -37.171  26.114  -2.631  1.00  0.00     0.252 S 
HETATM   40  O11 UNL     1     -36.734  25.115  -1.527  1.00  0.00    -0.572 OA
HETATM   41  O12 UNL     1     -37.131  25.149  -4.113  1.00  0.00    -0.572 OA
HETATM   42  O13 UNL     1     -36.426  27.399  -2.816  1.00  0.00    -0.572 OA
ENDBRANCH  38  39
ENDBRANCH   5  38
TORSDOF 14
ENDMDL
