MODEL 8
REMARK VINA RESULT: -7.012528323      2.533      9.508
REMARK  14 active torsions:
REMARK  status: ('A' for Active; 'I' for Inactive)
REMARK       I    between atoms: C2_2  and  N1_4 
REMARK    1  A    between atoms: N1_4  and  C3_6 
REMARK    2  A    between atoms: C4_7  and  O2_8 
REMARK    3  A    between atoms: O2_8  and  C5_9 
REMARK    4  A    between atoms: C7_11  and  C8_12 
REMARK       I    between atoms: C8_12  and  N2_14 
REMARK    5  A    between atoms: N2_14  and  C9_16 
REMARK    6  A    between atoms: C9_16  and  C10_17 
REMARK    7  A    between atoms: C10_17  and  S1_18 
REMARK    8  A    between atoms: C11_25  and  C12_26 
REMARK    9  A    between atoms: C12_26  and  O7_27 
REMARK   10  A    between atoms: C13_30  and  C14_31 
REMARK   11  A    between atoms: C14_31  and  O9_32 
REMARK   12  A    between atoms: C15_34  and  O10_35 
REMARK   13  A    between atoms: O10_35  and  S2_36 
REMARK   14  A    between atoms: C16_40  and  O14_41 
ROOT
HETATM    1  C3  UNL     1     -40.807  23.584  -4.047  1.00  0.00     0.170 C 
HETATM    2  C4  UNL     1     -41.837  24.451  -4.585  1.00  0.00     0.286 C 
HETATM    3  O8  UNL     1     -41.190  25.594  -5.128  1.00  0.00    -0.349 OA
HETATM    4  C13 UNL     1     -40.660  26.392  -4.124  1.00  0.00     0.181 C 
HETATM    5  C15 UNL     1     -39.513  25.628  -3.500  1.00  0.00     0.207 C 
HETATM    6  C16 UNL     1     -40.117  24.369  -2.913  1.00  0.00     0.178 C 
ENDROOT
BRANCH   2   7
HETATM    7  O2  UNL     1     -42.607  23.992  -5.627  1.00  0.00    -0.352 OA
BRANCH   7   8
HETATM    8  C5  UNL     1     -43.928  24.292  -5.376  1.00  0.00     0.160 C 
HETATM    9  C6  UNL     1     -44.415  25.416  -6.304  1.00  0.00     0.077 C 
HETATM   10  C7  UNL     1     -45.901  25.111  -6.349  1.00  0.00     0.280 C 
HETATM   11  N3  UNL     1     -45.893  23.699  -6.588  1.00  0.00    -0.053 N 
HETATM   12  C11 UNL     1     -44.901  23.189  -5.619  1.00  0.00     0.239 C 
ATOM     13  H32 UNL     1     -46.810  23.256  -6.525  1.00  0.00     0.278 HD
ATOM     14  H31 UNL     1     -45.712  23.435  -7.556  1.00  0.00     0.278 HD
BRANCH  10  15
HETATM   15  C8  UNL     1     -46.630  25.806  -7.407  1.00  0.00     0.248 C 
HETATM   16  O3  UNL     1     -46.986  27.019  -7.232  1.00  0.00    -0.271 OA
HETATM   17  N2  UNL     1     -46.955  25.185  -8.619  1.00  0.00    -0.358 N 
ATOM     18  H2  UNL     1     -46.666  24.216  -8.754  1.00  0.00     0.162 HD
BRANCH  17  19
HETATM   19  C9  UNL     1     -47.679  25.836  -9.696  1.00  0.00     0.140 C 
BRANCH  19  20
HETATM   20  C10 UNL     1     -47.952  24.810 -10.765  1.00  0.00     0.184 C 
BRANCH  20  21
HETATM   21  S1  UNL     1     -48.966  23.559  -9.936  1.00  0.00     0.103 S 
HETATM   22  O4  UNL     1     -50.026  23.071 -11.054  1.00  0.00    -0.595 OA
HETATM   23  O5  UNL     1     -48.130  22.593  -9.279  1.00  0.00    -0.595 OA
HETATM   24  O6  UNL     1     -49.903  24.522  -8.876  1.00  0.00    -0.595 OA
ENDBRANCH  20  21
ENDBRANCH  19  20
ENDBRANCH  17  19
ENDBRANCH  10  15
BRANCH  12  25
HETATM   25  C12 UNL     1     -45.675  22.798  -4.381  1.00  0.00     0.199 C 
BRANCH  25  26
HETATM   26  O7  UNL     1     -45.252  23.599  -3.334  1.00  0.00    -0.399 OA
ATOM     27  H7  UNL     1     -44.303  23.626  -3.345  1.00  0.00     0.209 HD
ENDBRANCH  25  26
ENDBRANCH  12  25
ENDBRANCH   7   8
ENDBRANCH   2   7
BRANCH   1  28
HETATM   28  N1  UNL     1     -41.117  22.324  -3.501  1.00  0.00    -0.349 N 
HETATM   29  C2  UNL     1     -42.139  21.990  -2.611  1.00  0.00     0.214 C 
HETATM   30  C1  UNL     1     -42.359  20.616  -2.108  1.00  0.00     0.117 C 
HETATM   31  O1  UNL     1     -42.893  22.884  -2.228  1.00  0.00    -0.274 OA
ATOM     32  H1  UNL     1     -40.515  21.554  -3.793  1.00  0.00     0.163 HD
ENDBRANCH   1  28
BRANCH   6  33
HETATM   33  O14 UNL     1     -39.207  23.593  -2.246  1.00  0.00    -0.391 OA
ATOM     34  H14 UNL     1     -39.230  23.754  -1.311  1.00  0.00     0.210 HD
ENDBRANCH   6  33
BRANCH   4  35
HETATM   35  C14 UNL     1     -40.065  27.600  -4.823  1.00  0.00     0.199 C 
BRANCH  35  36
HETATM   36  O9  UNL     1     -38.902  27.270  -5.508  1.00  0.00    -0.398 OA
ATOM     37  H9  UNL     1     -38.614  27.982  -6.067  1.00  0.00     0.209 HD
ENDBRANCH  35  36
ENDBRANCH   4  35
BRANCH   5  38
HETATM   38  O10 UNL     1     -38.932  26.343  -2.478  1.00  0.00    -0.246 OA
BRANCH  38  39
HETATM   39  S2  UNL     1     -37.240  26.194  -2.640  1.00  0.00     0.252 S 
HETATM   40  O11 UNL     1     -36.750  25.204  -1.551  1.00  0.00    -0.572 OA
HETATM   41  O12 UNL     1     -37.185  25.242  -4.130  1.00  0.00    -0.572 OA
HETATM   42  O13 UNL     1     -36.547  27.508  -2.826  1.00  0.00    -0.572 OA
ENDBRANCH  38  39
ENDBRANCH   5  38
TORSDOF 14
ENDMDL
