MODEL 5
REMARK VINA RESULT: -7.142872498      1.388      1.553
REMARK  14 active torsions:
REMARK  status: ('A' for Active; 'I' for Inactive)
REMARK       I    between atoms: C2_2  and  N1_4 
REMARK    1  A    between atoms: N1_4  and  C3_6 
REMARK    2  A    between atoms: C4_7  and  O2_8 
REMARK    3  A    between atoms: O2_8  and  C5_9 
REMARK    4  A    between atoms: C7_11  and  C8_12 
REMARK       I    between atoms: C8_12  and  N2_14 
REMARK    5  A    between atoms: N2_14  and  C9_16 
REMARK    6  A    between atoms: C9_16  and  C10_17 
REMARK    7  A    between atoms: C10_17  and  S1_18 
REMARK    8  A    between atoms: C11_25  and  C12_26 
REMARK    9  A    between atoms: C12_26  and  O7_27 
REMARK   10  A    between atoms: C13_30  and  C14_31 
REMARK   11  A    between atoms: C14_31  and  O9_32 
REMARK   12  A    between atoms: C15_34  and  O10_35 
REMARK   13  A    between atoms: O10_35  and  S2_36 
REMARK   14  A    between atoms: C16_40  and  O14_41 
ROOT
HETATM    1  C3  UNL     1     -43.764  22.933  -4.556  1.00  0.00     0.170 C 
HETATM    2  C4  UNL     1     -42.957  24.074  -4.940  1.00  0.00     0.286 C 
HETATM    3  O8  UNL     1     -43.832  25.048  -5.490  1.00  0.00    -0.349 OA
HETATM    4  C13 UNL     1     -44.325  24.638  -6.721  1.00  0.00     0.181 C 
HETATM    5  C15 UNL     1     -45.250  23.468  -6.468  1.00  0.00     0.207 C 
HETATM    6  C16 UNL     1     -44.393  22.381  -5.852  1.00  0.00     0.178 C 
ENDROOT
BRANCH   2   7
HETATM    7  O2  UNL     1     -42.283  24.765  -3.960  1.00  0.00    -0.352 OA
BRANCH   7   8
HETATM    8  C5  UNL     1     -40.928  24.599  -4.144  1.00  0.00     0.160 C 
HETATM    9  C6  UNL     1     -40.193  25.940  -4.000  1.00  0.00     0.077 C 
HETATM   10  C7  UNL     1     -38.820  25.457  -3.567  1.00  0.00     0.280 C 
HETATM   11  N3  UNL     1     -39.162  24.514  -2.545  1.00  0.00    -0.053 N 
HETATM   12  C11 UNL     1     -40.243  23.715  -3.157  1.00  0.00     0.239 C 
ATOM     13  H32 UNL     1     -38.376  23.965  -2.199  1.00  0.00     0.278 HD
ATOM     14  H31 UNL     1     -39.403  24.933  -1.647  1.00  0.00     0.278 HD
BRANCH  10  15
HETATM   15  C8  UNL     1     -37.952  26.501  -3.032  1.00  0.00     0.248 C 
HETATM   16  O3  UNL     1     -38.272  27.090  -1.946  1.00  0.00    -0.271 OA
HETATM   17  N2  UNL     1     -36.767  26.885  -3.673  1.00  0.00    -0.358 N 
ATOM     18  H2  UNL     1     -36.516  26.410  -4.539  1.00  0.00     0.162 HD
BRANCH  17  19
HETATM   19  C9  UNL     1     -35.875  27.919  -3.178  1.00  0.00     0.140 C 
BRANCH  19  20
HETATM   20  C10 UNL     1     -34.651  27.249  -2.609  1.00  0.00     0.184 C 
BRANCH  20  21
HETATM   21  S1  UNL     1     -33.391  28.551  -2.603  1.00  0.00     0.103 S 
HETATM   22  O4  UNL     1     -31.979  27.766  -2.625  1.00  0.00    -0.595 OA
HETATM   23  O5  UNL     1     -33.676  29.528  -3.616  1.00  0.00    -0.595 OA
HETATM   24  O6  UNL     1     -33.509  29.136  -0.999  1.00  0.00    -0.595 OA
ENDBRANCH  20  21
ENDBRANCH  19  20
ENDBRANCH  17  19
ENDBRANCH  10  15
BRANCH  12  25
HETATM   25  C12 UNL     1     -39.580  22.517  -3.796  1.00  0.00     0.199 C 
BRANCH  25  26
HETATM   26  O7  UNL     1     -38.938  21.795  -2.804  1.00  0.00    -0.399 OA
ATOM     27  H7  UNL     1     -38.004  21.949  -2.882  1.00  0.00     0.209 HD
ENDBRANCH  25  26
ENDBRANCH  12  25
ENDBRANCH   7   8
ENDBRANCH   2   7
BRANCH   1  28
HETATM   28  N1  UNL     1     -43.201  21.819  -3.905  1.00  0.00    -0.349 N 
HETATM   29  C2  UNL     1     -43.115  21.563  -2.536  1.00  0.00     0.214 C 
HETATM   30  C1  UNL     1     -42.493  20.342  -1.977  1.00  0.00     0.117 C 
HETATM   31  O1  UNL     1     -43.580  22.394  -1.758  1.00  0.00    -0.274 OA
ATOM     32  H1  UNL     1     -42.804  21.104  -4.515  1.00  0.00     0.163 HD
ENDBRANCH   1  28
BRANCH   6  33
HETATM   33  O14 UNL     1     -45.078  21.218  -5.622  1.00  0.00    -0.391 OA
ATOM     34  H14 UNL     1     -46.008  21.377  -5.511  1.00  0.00     0.210 HD
ENDBRANCH   6  33
BRANCH   4  35
HETATM   35  C14 UNL     1     -45.181  25.783  -7.230  1.00  0.00     0.199 C 
BRANCH  35  36
HETATM   36  O9  UNL     1     -45.415  25.676  -8.596  1.00  0.00    -0.398 OA
ATOM     37  H9  UNL     1     -44.940  26.338  -9.083  1.00  0.00     0.209 HD
ENDBRANCH  35  36
ENDBRANCH   4  35
BRANCH   5  38
HETATM   38  O10 UNL     1     -45.778  22.984  -7.644  1.00  0.00    -0.246 OA
BRANCH  38  39
HETATM   39  S2  UNL     1     -47.469  22.878  -7.445  1.00  0.00     0.252 S 
HETATM   40  O11 UNL     1     -48.106  24.075  -8.199  1.00  0.00    -0.572 OA
HETATM   41  O12 UNL     1     -47.788  21.495  -8.500  1.00  0.00    -0.572 OA
HETATM   42  O13 UNL     1     -47.879  22.575  -6.037  1.00  0.00    -0.572 OA
ENDBRANCH  38  39
ENDBRANCH   5  38
TORSDOF 14
ENDMDL
