MODEL 17
REMARK VINA RESULT: -6.693203069      2.079      2.404
REMARK  14 active torsions:
REMARK  status: ('A' for Active; 'I' for Inactive)
REMARK       I    between atoms: C2_2  and  N1_4 
REMARK    1  A    between atoms: N1_4  and  C3_6 
REMARK    2  A    between atoms: C4_7  and  O2_8 
REMARK    3  A    between atoms: O2_8  and  C5_9 
REMARK    4  A    between atoms: C7_11  and  C8_12 
REMARK       I    between atoms: C8_12  and  N2_14 
REMARK    5  A    between atoms: N2_14  and  C9_16 
REMARK    6  A    between atoms: C9_16  and  C10_17 
REMARK    7  A    between atoms: C10_17  and  S1_18 
REMARK    8  A    between atoms: C11_25  and  C12_26 
REMARK    9  A    between atoms: C12_26  and  O7_27 
REMARK   10  A    between atoms: C13_30  and  C14_31 
REMARK   11  A    between atoms: C14_31  and  O9_32 
REMARK   12  A    between atoms: C15_34  and  O10_35 
REMARK   13  A    between atoms: O10_35  and  S2_36 
REMARK   14  A    between atoms: C16_40  and  O14_41 
ROOT
HETATM    1  C3  UNL     1     -42.857  23.922  -4.534  1.00  0.00     0.170 C 
HETATM    2  C4  UNL     1     -41.832  24.927  -4.738  1.00  0.00     0.286 C 
HETATM    3  O8  UNL     1     -42.486  26.129  -5.123  1.00  0.00    -0.349 OA
HETATM    4  C13 UNL     1     -43.018  26.021  -6.400  1.00  0.00     0.181 C 
HETATM    5  C15 UNL     1     -44.161  25.031  -6.328  1.00  0.00     0.207 C 
HETATM    6  C16 UNL     1     -43.549  23.714  -5.897  1.00  0.00     0.178 C 
ENDROOT
BRANCH   2   7
HETATM    7  O2  UNL     1     -41.061  25.310  -3.666  1.00  0.00    -0.352 OA
BRANCH   7   8
HETATM    8  C5  UNL     1     -39.735  25.077  -3.960  1.00  0.00     0.160 C 
HETATM    9  C6  UNL     1     -38.889  26.328  -3.677  1.00  0.00     0.077 C 
HETATM   10  C7  UNL     1     -37.538  25.691  -3.408  1.00  0.00     0.280 C 
HETATM   11  N3  UNL     1     -37.896  24.636  -2.509  1.00  0.00    -0.053 N 
HETATM   12  C11 UNL     1     -39.070  24.013  -3.154  1.00  0.00     0.239 C 
ATOM     13  H32 UNL     1     -37.139  23.988  -2.296  1.00  0.00     0.278 HD
ATOM     14  H31 UNL     1     -38.054  24.936  -1.547  1.00  0.00     0.278 HD
BRANCH  10  15
HETATM   15  C8  UNL     1     -36.561  26.583  -2.790  1.00  0.00     0.248 C 
HETATM   16  O3  UNL     1     -36.930  27.736  -2.385  1.00  0.00    -0.271 OA
HETATM   17  N2  UNL     1     -35.221  26.216  -2.620  1.00  0.00    -0.358 N 
ATOM     18  H2  UNL     1     -34.932  25.293  -2.943  1.00  0.00     0.162 HD
BRANCH  17  19
HETATM   19  C9  UNL     1     -34.215  27.071  -2.013  1.00  0.00     0.140 C 
BRANCH  19  20
HETATM   20  C10 UNL     1     -33.490  27.798  -3.116  1.00  0.00     0.184 C 
BRANCH  20  21
HETATM   21  S1  UNL     1     -32.408  28.963  -2.248  1.00  0.00     0.103 S 
HETATM   22  O4  UNL     1     -33.195  29.326  -0.884  1.00  0.00    -0.595 OA
HETATM   23  O5  UNL     1     -31.069  28.448  -2.181  1.00  0.00    -0.595 OA
HETATM   24  O6  UNL     1     -32.580  30.371  -3.206  1.00  0.00    -0.595 OA
ENDBRANCH  20  21
ENDBRANCH  19  20
ENDBRANCH  17  19
ENDBRANCH  10  15
BRANCH  12  25
HETATM   25  C12 UNL     1     -38.540  22.876  -3.998  1.00  0.00     0.199 C 
BRANCH  25  26
HETATM   26  O7  UNL     1     -39.491  21.871  -4.020  1.00  0.00    -0.399 OA
ATOM     27  H7  UNL     1     -39.225  21.197  -3.407  1.00  0.00     0.209 HD
ENDBRANCH  25  26
ENDBRANCH  12  25
ENDBRANCH   7   8
ENDBRANCH   2   7
BRANCH   1  28
HETATM   28  N1  UNL     1     -42.540  22.631  -4.071  1.00  0.00    -0.349 N 
HETATM   29  C2  UNL     1     -42.884  22.033  -2.858  1.00  0.00     0.214 C 
HETATM   30  C1  UNL     1     -42.484  20.657  -2.490  1.00  0.00     0.117 C 
HETATM   31  O1  UNL     1     -43.554  22.684  -2.057  1.00  0.00    -0.274 OA
ATOM     32  H1  UNL     1     -41.984  22.057  -4.705  1.00  0.00     0.163 HD
ENDBRANCH   1  28
BRANCH   6  33
HETATM   33  O14 UNL     1     -44.454  22.688  -5.849  1.00  0.00    -0.391 OA
ATOM     34  H14 UNL     1     -44.644  22.433  -4.954  1.00  0.00     0.210 HD
ENDBRANCH   6  33
BRANCH   4  35
HETATM   35  C14 UNL     1     -43.620  27.377  -6.716  1.00  0.00     0.199 C 
BRANCH  35  36
HETATM   36  O9  UNL     1     -44.016  27.461  -8.046  1.00  0.00    -0.398 OA
ATOM     37  H9  UNL     1     -44.915  27.757  -8.123  1.00  0.00     0.209 HD
ENDBRANCH  35  36
ENDBRANCH   4  35
BRANCH   5  38
HETATM   38  O10 UNL     1     -44.744  24.850  -7.562  1.00  0.00    -0.246 OA
BRANCH  38  39
HETATM   39  S2  UNL     1     -46.432  24.993  -7.360  1.00  0.00     0.252 S 
HETATM   40  O11 UNL     1     -46.711  26.361  -6.684  1.00  0.00    -0.572 OA
HETATM   41  O12 UNL     1     -46.894  25.253  -9.048  1.00  0.00    -0.572 OA
HETATM   42  O13 UNL     1     -47.069  23.748  -6.824  1.00  0.00    -0.572 OA
ENDBRANCH  38  39
ENDBRANCH   5  38
TORSDOF 14
ENDMDL
