MODEL 4
REMARK VINA RESULT: -7.174633912      1.438      1.904
REMARK  14 active torsions:
REMARK  status: ('A' for Active; 'I' for Inactive)
REMARK       I    between atoms: C2_2  and  N1_4 
REMARK    1  A    between atoms: N1_4  and  C3_6 
REMARK    2  A    between atoms: C4_7  and  O2_8 
REMARK    3  A    between atoms: O2_8  and  C5_9 
REMARK    4  A    between atoms: C7_11  and  C8_12 
REMARK       I    between atoms: C8_12  and  N2_14 
REMARK    5  A    between atoms: N2_14  and  C9_16 
REMARK    6  A    between atoms: C9_16  and  C10_17 
REMARK    7  A    between atoms: C10_17  and  S1_18 
REMARK    8  A    between atoms: C11_25  and  C12_26 
REMARK    9  A    between atoms: C12_26  and  O7_27 
REMARK   10  A    between atoms: C13_30  and  C14_31 
REMARK   11  A    between atoms: C14_31  and  O9_32 
REMARK   12  A    between atoms: C15_34  and  O10_35 
REMARK   13  A    between atoms: O10_35  and  S2_36 
REMARK   14  A    between atoms: C16_40  and  O14_41 
ROOT
HETATM    1  C3  UNL     1     -42.880  23.966  -4.540  1.00  0.00     0.170 C 
HETATM    2  C4  UNL     1     -41.860  24.974  -4.754  1.00  0.00     0.286 C 
HETATM    3  O8  UNL     1     -42.519  26.168  -5.152  1.00  0.00    -0.349 OA
HETATM    4  C13 UNL     1     -43.050  26.044  -6.429  1.00  0.00     0.181 C 
HETATM    5  C15 UNL     1     -44.187  25.049  -6.348  1.00  0.00     0.207 C 
HETATM    6  C16 UNL     1     -43.570  23.740  -5.901  1.00  0.00     0.178 C 
ENDROOT
BRANCH   2   7
HETATM    7  O2  UNL     1     -41.092  25.373  -3.685  1.00  0.00    -0.352 OA
BRANCH   7   8
HETATM    8  C5  UNL     1     -39.767  25.120  -3.965  1.00  0.00     0.160 C 
HETATM    9  C6  UNL     1     -38.939  26.411  -3.880  1.00  0.00     0.077 C 
HETATM   10  C7  UNL     1     -37.573  25.840  -3.545  1.00  0.00     0.280 C 
HETATM   11  N3  UNL     1     -37.900  24.921  -2.497  1.00  0.00    -0.053 N 
HETATM   12  C11 UNL     1     -39.071  24.194  -3.026  1.00  0.00     0.239 C 
ATOM     13  H32 UNL     1     -37.128  24.322  -2.205  1.00  0.00     0.278 HD
ATOM     14  H31 UNL     1     -38.048  25.355  -1.586  1.00  0.00     0.278 HD
BRANCH  10  15
HETATM   15  C8  UNL     1     -36.603  26.827  -3.078  1.00  0.00     0.248 C 
HETATM   16  O3  UNL     1     -37.007  27.844  -2.421  1.00  0.00    -0.271 OA
HETATM   17  N2  UNL     1     -35.231  26.697  -3.327  1.00  0.00    -0.358 N 
ATOM     18  H2  UNL     1     -34.914  25.882  -3.850  1.00  0.00     0.162 HD
BRANCH  17  19
HETATM   19  C9  UNL     1     -34.231  27.654  -2.884  1.00  0.00     0.140 C 
BRANCH  19  20
HETATM   20  C10 UNL     1     -33.580  27.109  -1.639  1.00  0.00     0.184 C 
BRANCH  20  21
HETATM   21  S1  UNL     1     -33.123  25.412  -2.080  1.00  0.00     0.103 S 
HETATM   22  O4  UNL     1     -34.332  24.496  -1.523  1.00  0.00    -0.595 OA
HETATM   23  O5  UNL     1     -32.754  25.337  -3.466  1.00  0.00    -0.595 OA
HETATM   24  O6  UNL     1     -31.841  25.107  -0.987  1.00  0.00    -0.595 OA
ENDBRANCH  20  21
ENDBRANCH  19  20
ENDBRANCH  17  19
ENDBRANCH  10  15
BRANCH  12  25
HETATM   25  C12 UNL     1     -38.534  22.955  -3.705  1.00  0.00     0.199 C 
BRANCH  25  26
HETATM   26  O7  UNL     1     -39.607  22.177  -4.102  1.00  0.00    -0.399 OA
ATOM     27  H7  UNL     1     -39.461  21.905  -5.001  1.00  0.00     0.209 HD
ENDBRANCH  25  26
ENDBRANCH  12  25
ENDBRANCH   7   8
ENDBRANCH   2   7
BRANCH   1  28
HETATM   28  N1  UNL     1     -42.556  22.682  -4.063  1.00  0.00    -0.349 N 
HETATM   29  C2  UNL     1     -42.920  22.086  -2.855  1.00  0.00     0.214 C 
HETATM   30  C1  UNL     1     -42.511  20.717  -2.470  1.00  0.00     0.117 C 
HETATM   31  O1  UNL     1     -43.616  22.732  -2.073  1.00  0.00    -0.274 OA
ATOM     32  H1  UNL     1     -41.980  22.112  -4.682  1.00  0.00     0.163 HD
ENDBRANCH   1  28
BRANCH   6  33
HETATM   33  O14 UNL     1     -44.469  22.710  -5.843  1.00  0.00    -0.391 OA
ATOM     34  H14 UNL     1     -45.208  22.923  -5.286  1.00  0.00     0.210 HD
ENDBRANCH   6  33
BRANCH   4  35
HETATM   35  C14 UNL     1     -43.659  27.394  -6.760  1.00  0.00     0.199 C 
BRANCH  35  36
HETATM   36  O9  UNL     1     -44.067  27.456  -8.088  1.00  0.00    -0.398 OA
ATOM     37  H9  UNL     1     -44.300  28.342  -8.338  1.00  0.00     0.209 HD
ENDBRANCH  35  36
ENDBRANCH   4  35
BRANCH   5  38
HETATM   38  O10 UNL     1     -44.768  24.852  -7.580  1.00  0.00    -0.246 OA
BRANCH  38  39
HETATM   39  S2  UNL     1     -46.458  24.985  -7.381  1.00  0.00     0.252 S 
HETATM   40  O11 UNL     1     -46.745  26.351  -6.704  1.00  0.00    -0.572 OA
HETATM   41  O12 UNL     1     -46.918  25.244  -9.069  1.00  0.00    -0.572 OA
HETATM   42  O13 UNL     1     -47.088  23.736  -6.847  1.00  0.00    -0.572 OA
ENDBRANCH  38  39
ENDBRANCH   5  38
TORSDOF 14
ENDMDL
