MODEL 11
REMARK VINA RESULT: -6.937730342      3.233      9.636
REMARK  14 active torsions:
REMARK  status: ('A' for Active; 'I' for Inactive)
REMARK       I    between atoms: C2_2  and  N1_4 
REMARK    1  A    between atoms: N1_4  and  C3_6 
REMARK    2  A    between atoms: C4_7  and  O2_8 
REMARK    3  A    between atoms: O2_8  and  C5_9 
REMARK    4  A    between atoms: C7_11  and  C8_12 
REMARK       I    between atoms: C8_12  and  N2_14 
REMARK    5  A    between atoms: N2_14  and  C9_16 
REMARK    6  A    between atoms: C9_16  and  C10_17 
REMARK    7  A    between atoms: C10_17  and  S1_18 
REMARK    8  A    between atoms: C11_25  and  C12_26 
REMARK    9  A    between atoms: C12_26  and  O7_27 
REMARK   10  A    between atoms: C13_30  and  C14_31 
REMARK   11  A    between atoms: C14_31  and  O9_32 
REMARK   12  A    between atoms: C15_34  and  O10_35 
REMARK   13  A    between atoms: O10_35  and  S2_36 
REMARK   14  A    between atoms: C16_40  and  O14_41 
ROOT
HETATM    1  C3  UNL     1     -40.745  23.605  -3.950  1.00  0.00     0.170 C 
HETATM    2  C4  UNL     1     -41.737  24.571  -4.378  1.00  0.00     0.286 C 
HETATM    3  O8  UNL     1     -41.042  25.672  -4.947  1.00  0.00    -0.349 OA
HETATM    4  C13 UNL     1     -40.365  26.392  -3.973  1.00  0.00     0.181 C 
HETATM    5  C15 UNL     1     -39.240  25.516  -3.467  1.00  0.00     0.207 C 
HETATM    6  C16 UNL     1     -39.899  24.295  -2.860  1.00  0.00     0.178 C 
ENDROOT
BRANCH   2   7
HETATM    7  O2  UNL     1     -42.627  24.210  -5.363  1.00  0.00    -0.352 OA
BRANCH   7   8
HETATM    8  C5  UNL     1     -43.229  25.344  -5.862  1.00  0.00     0.160 C 
HETATM    9  C6  UNL     1     -43.738  25.103  -7.292  1.00  0.00     0.077 C 
HETATM   10  C7  UNL     1     -44.867  26.115  -7.357  1.00  0.00     0.280 C 
HETATM   11  N3  UNL     1     -45.541  25.867  -6.118  1.00  0.00    -0.053 N 
HETATM   12  C11 UNL     1     -44.444  25.809  -5.131  1.00  0.00     0.239 C 
ATOM     13  H32 UNL     1     -46.273  26.541  -5.895  1.00  0.00     0.278 HD
ATOM     14  H31 UNL     1     -46.147  25.047  -6.124  1.00  0.00     0.278 HD
BRANCH  10  15
HETATM   15  C8  UNL     1     -45.779  25.933  -8.482  1.00  0.00     0.248 C 
HETATM   16  O3  UNL     1     -46.775  25.143  -8.363  1.00  0.00    -0.271 OA
HETATM   17  N2  UNL     1     -45.601  26.601  -9.700  1.00  0.00    -0.358 N 
ATOM     18  H2  UNL     1     -44.805  27.232  -9.788  1.00  0.00     0.162 HD
BRANCH  17  19
HETATM   19  C9  UNL     1     -46.481  26.449 -10.846  1.00  0.00     0.140 C 
BRANCH  19  20
HETATM   20  C10 UNL     1     -47.107  27.788 -11.137  1.00  0.00     0.184 C 
BRANCH  20  21
HETATM   21  S1  UNL     1     -47.779  27.614 -12.810  1.00  0.00     0.103 S 
HETATM   22  O4  UNL     1     -47.134  26.246 -13.379  1.00  0.00    -0.595 OA
HETATM   23  O5  UNL     1     -49.206  27.774 -12.795  1.00  0.00    -0.595 OA
HETATM   24  O6  UNL     1     -46.935  28.844 -13.650  1.00  0.00    -0.595 OA
ENDBRANCH  20  21
ENDBRANCH  19  20
ENDBRANCH  17  19
ENDBRANCH  10  15
BRANCH  12  25
HETATM   25  C12 UNL     1     -44.298  27.205  -4.571  1.00  0.00     0.199 C 
BRANCH  25  26
HETATM   26  O7  UNL     1     -43.175  27.785  -5.136  1.00  0.00    -0.399 OA
ATOM     27  H7  UNL     1     -43.392  28.678  -5.378  1.00  0.00     0.209 HD
ENDBRANCH  25  26
ENDBRANCH  12  25
ENDBRANCH   7   8
ENDBRANCH   2   7
BRANCH   1  28
HETATM   28  N1  UNL     1     -41.115  22.360  -3.408  1.00  0.00    -0.349 N 
HETATM   29  C2  UNL     1     -42.245  22.042  -2.653  1.00  0.00     0.214 C 
HETATM   30  C1  UNL     1     -42.520  20.681  -2.139  1.00  0.00     0.117 C 
HETATM   31  O1  UNL     1     -43.050  22.937  -2.404  1.00  0.00    -0.274 OA
ATOM     32  H1  UNL     1     -40.474  21.588  -3.592  1.00  0.00     0.163 HD
ENDBRANCH   1  28
BRANCH   6  33
HETATM   33  O14 UNL     1     -39.008  23.426  -2.291  1.00  0.00    -0.391 OA
ATOM     34  H14 UNL     1     -38.272  23.886  -1.904  1.00  0.00     0.210 HD
ENDBRANCH   6  33
BRANCH   4  35
HETATM   35  C14 UNL     1     -39.728  27.568  -4.692  1.00  0.00     0.199 C 
BRANCH  35  36
HETATM   36  O9  UNL     1     -38.473  27.240  -5.190  1.00  0.00    -0.398 OA
ATOM     37  H9  UNL     1     -38.174  27.880  -5.826  1.00  0.00     0.209 HD
ENDBRANCH  35  36
ENDBRANCH   4  35
BRANCH   5  38
HETATM   38  O10 UNL     1     -38.518  26.150  -2.481  1.00  0.00    -0.246 OA
BRANCH  38  39
HETATM   39  S2  UNL     1     -36.866  25.838  -2.770  1.00  0.00     0.252 S 
HETATM   40  O11 UNL     1     -36.367  24.880  -1.656  1.00  0.00    -0.572 OA
HETATM   41  O12 UNL     1     -37.023  24.791  -4.187  1.00  0.00    -0.572 OA
HETATM   42  O13 UNL     1     -36.083  27.069  -3.106  1.00  0.00    -0.572 OA
ENDBRANCH  38  39
ENDBRANCH   5  38
TORSDOF 14
ENDMDL
