MODEL 1
REMARK VINA RESULT: -10.174125772      0.000      0.000
REMARK  7 active torsions:
REMARK  status: ('A' for Active; 'I' for Inactive)
REMARK    1  A    between atoms: O1_2  and  C2_3 
REMARK       I    between atoms: C2_3  and  N1_5 
REMARK    2  A    between atoms: C5_8  and  C6_9 
REMARK    3  A    between atoms: C6_9  and  C7_10 
REMARK    4  A    between atoms: C11_14  and  C12_15 
REMARK    5  A    between atoms: C12_15  and  C13_16 
REMARK    6  A    between atoms: C12_15  and  N3_19 
REMARK    7  A    between atoms: N3_19  and  C15_21 
ROOT
HETATM    1  C13 UNL     1       6.533 158.816  31.941  1.00  0.00     0.182 C 
HETATM    2  C14 UNL     1       6.372 157.602  31.205  1.00  0.00     0.065 C 
HETATM    3  N2  UNL     1       6.210 156.621  30.613  1.00  0.00    -0.197 NA
ENDROOT
BRANCH   1   4
HETATM    4  C12 UNL     1       7.438 159.837  31.322  1.00  0.00     0.050 C 
BRANCH   4   5
HETATM    5  C11 UNL     1       8.868 159.524  31.509  1.00  0.00    -0.012 A 
HETATM    6  C10 UNL     1       9.686 159.067  30.516  1.00  0.00     0.013 A 
HETATM    7  C9  UNL     1      11.052 158.792  30.725  1.00  0.00     0.001 A 
HETATM    8  C8  UNL     1      11.557 159.001  31.989  1.00  0.00     0.007 A 
HETATM    9  C7  UNL     1      10.777 159.461  33.026  1.00  0.00    -0.057 A 
HETATM   10  C22 UNL     1       9.458 159.713  32.775  1.00  0.00     0.020 A 
BRANCH   9  11
HETATM   11  C6  UNL     1      11.319 159.680  34.364  1.00  0.00     0.043 C 
BRANCH  11  12
HETATM   12  C5  UNL     1      12.117 160.950  34.496  1.00  0.00    -0.007 C 
HETATM   13  C4  UNL     1      12.076 161.351  35.957  1.00  0.00     0.025 C 
HETATM   14  C3  UNL     1      13.072 162.510  36.093  1.00  0.00     0.128 C 
HETATM   15  N1  UNL     1      12.522 163.598  35.324  1.00  0.00    -0.328 N 
HETATM   16  C2  UNL     1      12.390 164.870  35.916  1.00  0.00     0.362 C 
HETATM   17  C24 UNL     1      12.110 163.404  33.976  1.00  0.00     0.128 C 
HETATM   18  O2  UNL     1      11.922 165.869  35.321  1.00  0.00    -0.238 OA
HETATM   19  C23 UNL     1      11.565 162.064  33.642  1.00  0.00     0.025 C 
BRANCH  16  20
HETATM   20  O1  UNL     1      12.794 165.050  37.228  1.00  0.00    -0.309 OA
HETATM   21  C1  UNL     1      14.030 165.653  37.562  1.00  0.00     0.215 C 
ENDBRANCH  16  20
ENDBRANCH  11  12
ENDBRANCH   9  11
ENDBRANCH   4   5
BRANCH   4  22
HETATM   22  N3  UNL     1       7.043 161.187  31.484  1.00  0.00    -0.194 N 
ATOM     23  H3  UNL     1       6.050 161.342  31.658  1.00  0.00     0.184 HD
BRANCH  22  24
HETATM   24  C15 UNL     1       7.856 162.354  31.434  1.00  0.00     0.684 A 
HETATM   25  N4  UNL     1       7.992 163.350  32.314  1.00  0.00    -0.174 N 
HETATM   26  C16 UNL     1       8.865 164.277  31.901  1.00  0.00     0.148 A 
ATOM     27  H4  UNL     1       7.489 163.398  33.199  1.00  0.00     0.186 HD
HETATM   28  N5  UNL     1       9.339 165.437  32.401  1.00  0.00    -0.344 N 
HETATM   29  C21 UNL     1       9.318 163.851  30.678  1.00  0.00     0.093 A 
HETATM   30  C17 UNL     1      10.240 166.208  31.771  1.00  0.00     0.007 A 
ATOM     31  H5  UNL     1       8.994 165.745  33.310  1.00  0.00     0.167 HD
HETATM   32  C18 UNL     1      10.732 167.494  32.382  1.00  0.00     0.068 C 
HETATM   33  C19 UNL     1      10.714 165.794  30.527  1.00  0.00     0.027 A 
HETATM   34  C20 UNL     1      10.240 164.611  30.000  1.00  0.00     0.036 A 
HETATM   35  N6  UNL     1       8.701 162.690  30.413  1.00  0.00    -0.188 N 
ATOM     36  H6  UNL     1       8.842 162.136  29.568  1.00  0.00     0.184 HD
ENDBRANCH  22  24
ENDBRANCH   4  22
ENDBRANCH   1   4
TORSDOF 7
ENDMDL
