MODEL 5
REMARK VINA RESULT: -9.123255707      2.396      5.443
REMARK  7 active torsions:
REMARK  status: ('A' for Active; 'I' for Inactive)
REMARK    1  A    between atoms: O1_2  and  C2_3 
REMARK       I    between atoms: C2_3  and  N1_5 
REMARK    2  A    between atoms: C5_8  and  C6_9 
REMARK    3  A    between atoms: C6_9  and  C7_10 
REMARK    4  A    between atoms: C11_14  and  C12_15 
REMARK    5  A    between atoms: C12_15  and  C13_16 
REMARK    6  A    between atoms: C12_15  and  N3_19 
REMARK    7  A    between atoms: N3_19  and  C15_21 
ROOT
HETATM    1  C13 UNL     1      12.446 159.109  32.693  1.00  0.00     0.182 C 
HETATM    2  C14 UNL     1      13.466 158.382  33.381  1.00  0.00     0.065 C 
HETATM    3  N2  UNL     1      14.312 157.816  33.932  1.00  0.00    -0.197 NA
ENDROOT
BRANCH   1   4
HETATM    4  C12 UNL     1      11.134 159.222  33.406  1.00  0.00     0.050 C 
BRANCH   4   5
HETATM    5  C11 UNL     1      10.062 159.764  32.550  1.00  0.00    -0.012 A 
HETATM    6  C10 UNL     1       8.730 159.634  32.818  1.00  0.00     0.013 A 
HETATM    7  C9  UNL     1       7.731 160.179  31.987  1.00  0.00     0.001 A 
HETATM    8  C8  UNL     1       8.142 160.864  30.866  1.00  0.00     0.007 A 
HETATM    9  C7  UNL     1       9.471 161.026  30.548  1.00  0.00    -0.057 A 
HETATM   10  C22 UNL     1      10.403 160.480  31.384  1.00  0.00     0.020 A 
BRANCH   9  11
HETATM   11  C6  UNL     1       9.899 161.754  29.356  1.00  0.00     0.043 C 
BRANCH  11  12
HETATM   12  C5  UNL     1      10.011 163.242  29.561  1.00  0.00    -0.007 C 
HETATM   13  C4  UNL     1      10.947 163.460  30.732  1.00  0.00     0.025 C 
HETATM   14  C3  UNL     1      11.211 164.971  30.771  1.00  0.00     0.128 C 
HETATM   15  N1  UNL     1       9.949 165.586  31.097  1.00  0.00    -0.328 N 
HETATM   16  C2  UNL     1       9.881 166.513  32.156  1.00  0.00     0.362 C 
HETATM   17  C24 UNL     1       8.772 165.270  30.363  1.00  0.00     0.128 C 
HETATM   18  O2  UNL     1       8.826 167.094  32.506  1.00  0.00    -0.238 OA
HETATM   19  C23 UNL     1       8.675 163.882  29.844  1.00  0.00     0.025 C 
BRANCH  16  20
HETATM   20  O1  UNL     1      11.032 166.816  32.864  1.00  0.00    -0.309 OA
HETATM   21  C1  UNL     1      11.452 168.149  33.088  1.00  0.00     0.215 C 
ENDBRANCH  16  20
ENDBRANCH  11  12
ENDBRANCH   9  11
ENDBRANCH   4   5
BRANCH   4  22
HETATM   22  N3  UNL     1      11.199 159.691  34.741  1.00  0.00    -0.194 N 
ATOM     23  H3  UNL     1      10.880 159.039  35.457  1.00  0.00     0.184 HD
BRANCH  22  24
HETATM   24  C15 UNL     1      11.652 160.956  35.207  1.00  0.00     0.684 A 
HETATM   25  N4  UNL     1      12.480 161.261  36.209  1.00  0.00    -0.174 N 
HETATM   26  C16 UNL     1      12.663 162.582  36.336  1.00  0.00     0.148 A 
ATOM     27  H4  UNL     1      12.924 160.567  36.811  1.00  0.00     0.186 HD
HETATM   28  N5  UNL     1      13.376 163.376  37.160  1.00  0.00    -0.344 N 
HETATM   29  C21 UNL     1      11.903 163.163  35.351  1.00  0.00     0.093 A 
HETATM   30  C17 UNL     1      13.390 164.717  37.076  1.00  0.00     0.007 A 
ATOM     31  H5  UNL     1      13.936 162.934  37.889  1.00  0.00     0.167 HD
HETATM   32  C18 UNL     1      14.208 165.550  38.027  1.00  0.00     0.068 C 
HETATM   33  C19 UNL     1      12.626 165.329  36.083  1.00  0.00     0.027 A 
HETATM   34  C20 UNL     1      11.890 164.531  35.232  1.00  0.00     0.036 A 
HETATM   35  N6  UNL     1      11.302 162.169  34.680  1.00  0.00    -0.188 N 
ATOM     36  H6  UNL     1      10.672 162.300  33.888  1.00  0.00     0.184 HD
ENDBRANCH  22  24
ENDBRANCH   4  22
ENDBRANCH   1   4
TORSDOF 7
ENDMDL
