MODEL 2
REMARK VINA RESULT: -9.454758929      0.902      1.563
REMARK  7 active torsions:
REMARK  status: ('A' for Active; 'I' for Inactive)
REMARK    1  A    between atoms: O1_2  and  C2_3 
REMARK       I    between atoms: C2_3  and  N1_5 
REMARK    2  A    between atoms: C5_8  and  C6_9 
REMARK    3  A    between atoms: C6_9  and  C7_10 
REMARK    4  A    between atoms: C11_14  and  C12_15 
REMARK    5  A    between atoms: C12_15  and  C13_16 
REMARK    6  A    between atoms: C12_15  and  N3_19 
REMARK    7  A    between atoms: N3_19  and  C15_21 
ROOT
HETATM    1  C13 UNL     1       6.688 158.785  31.980  1.00  0.00     0.182 C 
HETATM    2  C14 UNL     1       6.403 157.572  31.281  1.00  0.00     0.065 C 
HETATM    3  N2  UNL     1       6.144 156.588  30.728  1.00  0.00    -0.197 NA
ENDROOT
BRANCH   1   4
HETATM    4  C12 UNL     1       7.255 159.896  31.151  1.00  0.00     0.050 C 
BRANCH   4   5
HETATM    5  C11 UNL     1       8.664 159.668  30.775  1.00  0.00    -0.012 A 
HETATM    6  C10 UNL     1       9.104 159.562  29.487  1.00  0.00     0.013 A 
HETATM    7  C9  UNL     1      10.460 159.361  29.162  1.00  0.00     0.001 A 
HETATM    8  C8  UNL     1      11.356 159.271  30.204  1.00  0.00     0.007 A 
HETATM    9  C7  UNL     1      10.967 159.371  31.520  1.00  0.00    -0.057 A 
HETATM   10  C22 UNL     1       9.641 159.566  31.785  1.00  0.00     0.020 A 
BRANCH   9  11
HETATM   11  C6  UNL     1      11.924 159.274  32.620  1.00  0.00     0.043 C 
BRANCH  11  12
HETATM   12  C5  UNL     1      11.595 160.163  33.791  1.00  0.00    -0.007 C 
HETATM   13  C4  UNL     1      12.102 161.550  33.452  1.00  0.00     0.025 C 
HETATM   14  C3  UNL     1      11.559 162.467  34.555  1.00  0.00     0.128 C 
HETATM   15  N1  UNL     1      12.207 162.049  35.772  1.00  0.00    -0.328 N 
HETATM   16  C2  UNL     1      12.849 163.007  36.582  1.00  0.00     0.362 C 
HETATM   17  C24 UNL     1      12.207 160.682  36.167  1.00  0.00     0.128 C 
HETATM   18  O2  UNL     1      13.437 162.731  37.655  1.00  0.00    -0.238 OA
HETATM   19  C23 UNL     1      12.233 159.682  35.071  1.00  0.00     0.025 C 
BRANCH  16  20
HETATM   20  O1  UNL     1      12.844 164.335  36.191  1.00  0.00    -0.309 OA
HETATM   21  C1  UNL     1      13.421 165.358  36.982  1.00  0.00     0.215 C 
ENDBRANCH  16  20
ENDBRANCH  11  12
ENDBRANCH   9  11
ENDBRANCH   4   5
BRANCH   4  22
HETATM   22  N3  UNL     1       6.892 161.205  31.548  1.00  0.00    -0.194 N 
ATOM     23  H3  UNL     1       5.934 161.321  31.879  1.00  0.00     0.184 HD
BRANCH  22  24
HETATM   24  C15 UNL     1       7.696 162.380  31.544  1.00  0.00     0.684 A 
HETATM   25  N4  UNL     1       8.200 163.085  32.560  1.00  0.00    -0.174 N 
HETATM   26  C16 UNL     1       8.913 164.139  32.144  1.00  0.00     0.148 A 
ATOM     27  H4  UNL     1       8.059 162.847  33.542  1.00  0.00     0.186 HD
HETATM   28  N5  UNL     1       9.602 165.129  32.748  1.00  0.00    -0.344 N 
HETATM   29  C21 UNL     1       8.862 164.111  30.772  1.00  0.00     0.093 A 
HETATM   30  C17 UNL     1      10.252 166.099  32.084  1.00  0.00     0.007 A 
ATOM     31  H5  UNL     1       9.631 165.142  33.768  1.00  0.00     0.167 HD
HETATM   32  C18 UNL     1      11.005 167.178  32.816  1.00  0.00     0.068 C 
HETATM   33  C19 UNL     1      10.214 166.090  30.690  1.00  0.00     0.027 A 
HETATM   34  C20 UNL     1       9.513 165.085  30.055  1.00  0.00     0.036 A 
HETATM   35  N6  UNL     1       8.126 163.044  30.428  1.00  0.00    -0.188 N 
ATOM     36  H6  UNL     1       7.917 162.767  29.469  1.00  0.00     0.184 HD
ENDBRANCH  22  24
ENDBRANCH   4  22
ENDBRANCH   1   4
TORSDOF 7
ENDMDL
