MODEL 4
REMARK VINA RESULT: -9.165935689      2.366      4.759
REMARK  7 active torsions:
REMARK  status: ('A' for Active; 'I' for Inactive)
REMARK    1  A    between atoms: O1_2  and  C2_3 
REMARK       I    between atoms: C2_3  and  N1_5 
REMARK    2  A    between atoms: C5_8  and  C6_9 
REMARK    3  A    between atoms: C6_9  and  C7_10 
REMARK    4  A    between atoms: C11_14  and  C12_15 
REMARK    5  A    between atoms: C12_15  and  C13_16 
REMARK    6  A    between atoms: C12_15  and  N3_19 
REMARK    7  A    between atoms: N3_19  and  C15_21 
ROOT
HETATM    1  C13 UNL     1       9.996 159.107  28.227  1.00  0.00     0.182 C 
HETATM    2  C14 UNL     1       9.123 158.790  27.141  1.00  0.00     0.065 C 
HETATM    3  N2  UNL     1       8.441 158.533  26.242  1.00  0.00    -0.197 NA
ENDROOT
BRANCH   1   4
HETATM    4  C12 UNL     1       9.805 158.297  29.473  1.00  0.00     0.050 C 
BRANCH   4   5
HETATM    5  C11 UNL     1       8.623 158.713  30.251  1.00  0.00    -0.012 A 
HETATM    6  C10 UNL     1       7.678 157.851  30.728  1.00  0.00     0.013 A 
HETATM    7  C9  UNL     1       6.569 158.280  31.482  1.00  0.00     0.001 A 
HETATM    8  C8  UNL     1       6.456 159.629  31.734  1.00  0.00     0.007 A 
HETATM    9  C7  UNL     1       7.379 160.543  31.278  1.00  0.00    -0.057 A 
HETATM   10  C22 UNL     1       8.438 160.078  30.550  1.00  0.00     0.020 A 
BRANCH   9  11
HETATM   11  C6  UNL     1       7.252 161.973  31.548  1.00  0.00     0.043 C 
BRANCH  11  12
HETATM   12  C5  UNL     1       8.572 162.682  31.697  1.00  0.00    -0.007 C 
HETATM   13  C4  UNL     1       9.199 162.189  32.985  1.00  0.00     0.025 C 
HETATM   14  C3  UNL     1      10.624 162.757  32.992  1.00  0.00     0.128 C 
HETATM   15  N1  UNL     1      10.480 164.187  33.093  1.00  0.00    -0.328 N 
HETATM   16  C2  UNL     1      11.195 164.889  34.085  1.00  0.00     0.362 C 
HETATM   17  C24 UNL     1       9.628 164.900  32.205  1.00  0.00     0.128 C 
HETATM   18  O2  UNL     1      11.129 166.131  34.243  1.00  0.00    -0.238 OA
HETATM   19  C23 UNL     1       8.413 164.182  31.743  1.00  0.00     0.025 C 
BRANCH  16  20
HETATM   20  O1  UNL     1      12.024 164.188  34.944  1.00  0.00    -0.309 OA
HETATM   21  C1  UNL     1      12.534 164.758  36.136  1.00  0.00     0.215 C 
ENDBRANCH  16  20
ENDBRANCH  11  12
ENDBRANCH   9  11
ENDBRANCH   4   5
BRANCH   4  22
HETATM   22  N3  UNL     1      10.984 157.995  30.196  1.00  0.00    -0.194 N 
ATOM     23  H3  UNL     1      11.497 157.169  29.886  1.00  0.00     0.184 HD
BRANCH  22  24
HETATM   24  C15 UNL     1      11.544 158.697  31.299  1.00  0.00     0.684 A 
HETATM   25  N4  UNL     1      11.176 158.726  32.582  1.00  0.00    -0.174 N 
HETATM   26  C16 UNL     1      11.965 159.516  33.322  1.00  0.00     0.148 A 
ATOM     27  H4  UNL     1      10.384 158.204  32.957  1.00  0.00     0.186 HD
HETATM   28  N5  UNL     1      12.015 159.873  34.621  1.00  0.00    -0.344 N 
HETATM   29  C21 UNL     1      12.900 160.029  32.457  1.00  0.00     0.093 A 
HETATM   30  C17 UNL     1      12.936 160.709  35.129  1.00  0.00     0.007 A 
ATOM     31  H5  UNL     1      11.315 159.487  35.254  1.00  0.00     0.167 HD
HETATM   32  C18 UNL     1      12.940 161.070  36.591  1.00  0.00     0.068 C 
HETATM   33  C19 UNL     1      13.896 161.243  34.270  1.00  0.00     0.027 A 
HETATM   34  C20 UNL     1      13.858 160.888  32.937  1.00  0.00     0.036 A 
HETATM   35  N6  UNL     1      12.633 159.525  31.244  1.00  0.00    -0.188 N 
ATOM     36  H6  UNL     1      13.166 159.730  30.399  1.00  0.00     0.184 HD
ENDBRANCH  22  24
ENDBRANCH   4  22
ENDBRANCH   1   4
TORSDOF 7
ENDMDL
