MODEL 6
REMARK VINA RESULT: -9.034396966      2.476      4.915
REMARK  7 active torsions:
REMARK  status: ('A' for Active; 'I' for Inactive)
REMARK    1  A    between atoms: O1_2  and  C2_3 
REMARK       I    between atoms: C2_3  and  N1_5 
REMARK    2  A    between atoms: C5_8  and  C6_9 
REMARK    3  A    between atoms: C6_9  and  C7_10 
REMARK    4  A    between atoms: C11_14  and  C12_15 
REMARK    5  A    between atoms: C12_15  and  C13_16 
REMARK    6  A    between atoms: C12_15  and  N3_19 
REMARK    7  A    between atoms: N3_19  and  C15_21 
ROOT
HETATM    1  C13 UNL     1       9.148 159.006  27.536  1.00  0.00     0.182 C 
HETATM    2  C14 UNL     1      10.296 159.710  27.058  1.00  0.00     0.065 C 
HETATM    3  N2  UNL     1      11.207 160.306  26.666  1.00  0.00    -0.197 NA
ENDROOT
BRANCH   1   4
HETATM    4  C12 UNL     1       9.336 158.248  28.815  1.00  0.00     0.050 C 
BRANCH   4   5
HETATM    5  C11 UNL     1       8.399 158.670  29.874  1.00  0.00    -0.012 A 
HETATM    6  C10 UNL     1       7.572 157.818  30.547  1.00  0.00     0.013 A 
HETATM    7  C9  UNL     1       6.701 158.252  31.565  1.00  0.00     0.001 A 
HETATM    8  C8  UNL     1       6.703 159.594  31.874  1.00  0.00     0.007 A 
HETATM    9  C7  UNL     1       7.517 160.496  31.228  1.00  0.00    -0.057 A 
HETATM   10  C22 UNL     1       8.344 160.028  30.247  1.00  0.00     0.020 A 
BRANCH   9  11
HETATM   11  C6  UNL     1       7.513 161.918  31.561  1.00  0.00     0.043 C 
BRANCH  11  12
HETATM   12  C5  UNL     1       8.875 162.468  31.891  1.00  0.00    -0.007 C 
HETATM   13  C4  UNL     1       9.201 162.031  33.305  1.00  0.00     0.025 C 
HETATM   14  C3  UNL     1      10.670 162.414  33.526  1.00  0.00     0.128 C 
HETATM   15  N1  UNL     1      10.714 163.853  33.491  1.00  0.00    -0.328 N 
HETATM   16  C2  UNL     1      11.343 164.555  34.540  1.00  0.00     0.362 C 
HETATM   17  C24 UNL     1      10.132 164.576  32.413  1.00  0.00     0.128 C 
HETATM   18  O2  UNL     1      11.426 165.805  34.589  1.00  0.00    -0.238 OA
HETATM   19  C23 UNL     1       8.924 163.973  31.795  1.00  0.00     0.025 C 
BRANCH  16  20
HETATM   20  O1  UNL     1      11.908 163.844  35.584  1.00  0.00    -0.309 OA
HETATM   21  C1  UNL     1      12.817 164.434  36.496  1.00  0.00     0.215 C 
ENDBRANCH  16  20
ENDBRANCH  11  12
ENDBRANCH   9  11
ENDBRANCH   4   5
BRANCH   4  22
HETATM   22  N3  UNL     1      10.679 158.006  29.193  1.00  0.00    -0.194 N 
ATOM     23  H3  UNL     1      11.208 157.383  28.583  1.00  0.00     0.184 HD
BRANCH  22  24
HETATM   24  C15 UNL     1      11.382 158.523  30.317  1.00  0.00     0.684 A 
HETATM   25  N4  UNL     1      12.094 159.645  30.450  1.00  0.00    -0.174 N 
HETATM   26  C16 UNL     1      12.608 159.780  31.679  1.00  0.00     0.148 A 
ATOM     27  H4  UNL     1      12.231 160.322  29.700  1.00  0.00     0.186 HD
HETATM   28  N5  UNL     1      13.374 160.699  32.301  1.00  0.00    -0.344 N 
HETATM   29  C21 UNL     1      12.200 158.674  32.381  1.00  0.00     0.093 A 
HETATM   30  C17 UNL     1      13.766 160.599  33.582  1.00  0.00     0.007 A 
ATOM     31  H5  UNL     1      13.673 161.517  31.769  1.00  0.00     0.167 HD
HETATM   32  C18 UNL     1      14.622 161.660  34.222  1.00  0.00     0.068 C 
HETATM   33  C19 UNL     1      13.364 159.484  34.315  1.00  0.00     0.027 A 
HETATM   34  C20 UNL     1      12.580 158.533  33.694  1.00  0.00     0.036 A 
HETATM   35  N6  UNL     1      11.462 157.928  31.547  1.00  0.00    -0.188 N 
ATOM     36  H6  UNL     1      11.022 157.041  31.793  1.00  0.00     0.184 HD
ENDBRANCH  22  24
ENDBRANCH   4  22
ENDBRANCH   1   4
TORSDOF 7
ENDMDL
