MODEL 2
REMARK VINA RESULT: -5.176775448      2.256      3.159
REMARK  10 active torsions:
REMARK  status: ('A' for Active; 'I' for Inactive)
REMARK    1  A    between atoms: O1_1  and  C1_3 
REMARK    2  A    between atoms: C1_3  and  C2_4 
REMARK    3  A    between atoms: C3_6  and  O3_7 
REMARK    4  A    between atoms: O3_7  and  C4_8 
REMARK    5  A    between atoms: C4_8  and  C5_9 
REMARK    6  A    between atoms: C6_12  and  C7_13 
REMARK    7  A    between atoms: C8_15  and  O5_16 
REMARK    8  A    between atoms: C9_18  and  O6_19 
REMARK    9  A    between atoms: C10_21  and  O7_22 
REMARK   10  A    between atoms: C11_24  and  O8_25 
ROOT
HETATM    1  C2  UNL     1     -22.382   5.708   9.867  1.00  0.00     0.169 C 
HETATM    2  O2  UNL     1     -23.059   5.069  10.868  1.00  0.00    -0.349 OA
HETATM    3  C3  UNL     1     -22.302   4.812  12.008  1.00  0.00     0.295 C 
HETATM    4  C10 UNL     1     -21.191   3.878  11.498  1.00  0.00     0.203 C 
HETATM    5  C11 UNL     1     -20.228   4.775  10.788  1.00  0.00     0.172 C 
HETATM    6  C12 UNL     1     -20.928   5.814   9.974  1.00  0.00     0.145 C 
HETATM    7 CL3  UNL     1     -20.171   5.791   8.344  1.00  0.00    -0.119 Cl
ENDROOT
BRANCH   3   8
HETATM    8  O3  UNL     1     -23.089   4.129  12.866  1.00  0.00    -0.319 OA
BRANCH   8   9
HETATM    9  C4  UNL     1     -23.958   4.772  13.680  1.00  0.00     0.208 C 
HETATM   10  O4  UNL     1     -24.041   3.933  14.837  1.00  0.00    -0.343 OA
HETATM   11  C6  UNL     1     -25.114   3.086  14.572  1.00  0.00     0.170 C 
HETATM   12  C8  UNL     1     -26.158   4.126  14.178  1.00  0.00     0.182 C 
HETATM   13  C9  UNL     1     -25.358   4.884  13.140  1.00  0.00     0.213 C 
BRANCH   9  14
HETATM   14  C5  UNL     1     -23.542   6.100  14.223  1.00  0.00     0.186 C 
HETATM   15 CL1  UNL     1     -24.509   7.477  13.702  1.00  0.00    -0.125 Cl
ENDBRANCH   9  14
BRANCH  11  16
HETATM   16  C7  UNL     1     -25.499   2.314  15.779  1.00  0.00     0.149 C 
HETATM   17 CL2  UNL     1     -25.139   0.589  15.543  1.00  0.00    -0.128 Cl
ENDBRANCH  11  16
BRANCH  12  18
HETATM   18  O5  UNL     1     -26.435   4.999  15.213  1.00  0.00    -0.390 OA
ATOM     19  H5  UNL     1     -25.832   5.732  15.230  1.00  0.00     0.210 HD
ENDBRANCH  12  18
BRANCH  13  20
HETATM   20  O6  UNL     1     -25.490   4.326  11.875  1.00  0.00    -0.387 OA
ATOM     21  H6  UNL     1     -25.886   4.924  11.251  1.00  0.00     0.210 HD
ENDBRANCH  13  20
ENDBRANCH   8   9
ENDBRANCH   3   8
BRANCH   4  22
HETATM   22  O7  UNL     1     -20.621   3.121  12.483  1.00  0.00    -0.388 OA
ATOM     23  H7  UNL     1     -20.240   2.311  12.165  1.00  0.00     0.210 HD
ENDBRANCH   4  22
BRANCH   1  24
HETATM   24  C1  UNL     1     -22.752   5.022   8.560  1.00  0.00     0.197 C 
BRANCH  24  25
HETATM   25  O1  UNL     1     -23.899   4.231   8.730  1.00  0.00    -0.398 OA
ATOM     26  H1  UNL     1     -24.539   4.426   8.055  1.00  0.00     0.209 HD
ENDBRANCH  24  25
ENDBRANCH   1  24
BRANCH   5  27
HETATM   27  O8  UNL     1     -19.379   3.961  10.009  1.00  0.00    -0.391 OA
ATOM     28  H8  UNL     1     -19.737   3.930   9.130  1.00  0.00     0.210 HD
ENDBRANCH   5  27
TORSDOF 10
ENDMDL
