MODEL 4
REMARK VINA RESULT: -5.137969285      2.285      3.185
REMARK  10 active torsions:
REMARK  status: ('A' for Active; 'I' for Inactive)
REMARK    1  A    between atoms: O1_1  and  C1_3 
REMARK    2  A    between atoms: C1_3  and  C2_4 
REMARK    3  A    between atoms: C3_6  and  O3_7 
REMARK    4  A    between atoms: O3_7  and  C4_8 
REMARK    5  A    between atoms: C4_8  and  C5_9 
REMARK    6  A    between atoms: C6_12  and  C7_13 
REMARK    7  A    between atoms: C8_15  and  O5_16 
REMARK    8  A    between atoms: C9_18  and  O6_19 
REMARK    9  A    between atoms: C10_21  and  O7_22 
REMARK   10  A    between atoms: C11_24  and  O8_25 
ROOT
HETATM    1  C2  UNL     1     -22.467   5.898   9.520  1.00  0.00     0.169 C 
HETATM    2  O2  UNL     1     -23.324   5.473  10.496  1.00  0.00    -0.349 OA
HETATM    3  C3  UNL     1     -22.747   5.332  11.755  1.00  0.00     0.295 C 
HETATM    4  C10 UNL     1     -21.678   4.246  11.538  1.00  0.00     0.203 C 
HETATM    5  C11 UNL     1     -20.549   4.946  10.852  1.00  0.00     0.172 C 
HETATM    6  C12 UNL     1     -21.034   5.903   9.813  1.00  0.00     0.145 C 
HETATM    7 CL3  UNL     1     -20.084   5.575   8.323  1.00  0.00    -0.119 Cl
ENDROOT
BRANCH   3   8
HETATM    8  O3  UNL     1     -23.699   4.850  12.582  1.00  0.00    -0.319 OA
BRANCH   8   9
HETATM    9  C4  UNL     1     -24.197   5.605  13.588  1.00  0.00     0.208 C 
HETATM   10  O4  UNL     1     -24.609   4.650  14.571  1.00  0.00    -0.343 OA
HETATM   11  C6  UNL     1     -25.945   4.399  14.270  1.00  0.00     0.170 C 
HETATM   12  C8  UNL     1     -26.453   5.835  14.189  1.00  0.00     0.182 C 
HETATM   13  C9  UNL     1     -25.425   6.397  13.230  1.00  0.00     0.213 C 
BRANCH   9  14
HETATM   14  C5  UNL     1     -23.245   6.494  14.320  1.00  0.00     0.186 C 
HETATM   15 CL1  UNL     1     -23.592   8.219  14.239  1.00  0.00    -0.125 Cl
ENDBRANCH   9  14
BRANCH  11  16
HETATM   16  C7  UNL     1     -26.600   3.618  15.347  1.00  0.00     0.149 C 
HETATM   17 CL2  UNL     1     -25.603   2.209  15.774  1.00  0.00    -0.128 Cl
ENDBRANCH  11  16
BRANCH  12  18
HETATM   18  O5  UNL     1     -26.313   6.502  15.391  1.00  0.00    -0.390 OA
ATOM     19  H5  UNL     1     -25.669   7.197  15.339  1.00  0.00     0.210 HD
ENDBRANCH  12  18
BRANCH  13  20
HETATM   20  O6  UNL     1     -25.804   6.227  11.905  1.00  0.00    -0.387 OA
ATOM     21  H6  UNL     1     -25.198   6.631  11.295  1.00  0.00     0.210 HD
ENDBRANCH  13  20
ENDBRANCH   8   9
ENDBRANCH   3   8
BRANCH   4  22
HETATM   22  O7  UNL     1     -21.315   3.603  12.688  1.00  0.00    -0.388 OA
ATOM     23  H7  UNL     1     -20.734   2.865  12.542  1.00  0.00     0.210 HD
ENDBRANCH   4  22
BRANCH   1  24
HETATM   24  C1  UNL     1     -22.735   5.055   8.282  1.00  0.00     0.197 C 
BRANCH  24  25
HETATM   25  O1  UNL     1     -23.890   4.278   8.461  1.00  0.00    -0.398 OA
ATOM     26  H1  UNL     1     -23.675   3.461   8.897  1.00  0.00     0.209 HD
ENDBRANCH  24  25
ENDBRANCH   1  24
BRANCH   5  27
HETATM   27  O8  UNL     1     -19.693   3.960  10.319  1.00  0.00    -0.391 OA
ATOM     28  H8  UNL     1     -20.112   3.602   9.546  1.00  0.00     0.210 HD
ENDBRANCH   5  27
TORSDOF 10
ENDMDL
