MODEL 1
REMARK VINA RESULT: -5.195307981      0.000      0.000
REMARK  10 active torsions:
REMARK  status: ('A' for Active; 'I' for Inactive)
REMARK    1  A    between atoms: O1_1  and  C1_3 
REMARK    2  A    between atoms: C1_3  and  C2_4 
REMARK    3  A    between atoms: C3_6  and  O3_7 
REMARK    4  A    between atoms: O3_7  and  C4_8 
REMARK    5  A    between atoms: C4_8  and  C5_9 
REMARK    6  A    between atoms: C6_12  and  C7_13 
REMARK    7  A    between atoms: C8_15  and  O5_16 
REMARK    8  A    between atoms: C9_18  and  O6_19 
REMARK    9  A    between atoms: C10_21  and  O7_22 
REMARK   10  A    between atoms: C11_24  and  O8_25 
ROOT
HETATM    1  C2  UNL     1     -19.835   5.095   7.689  1.00  0.00     0.169 C 
HETATM    2  O2  UNL     1     -20.867   4.699   8.493  1.00  0.00    -0.349 OA
HETATM    3  C3  UNL     1     -20.741   5.077   9.827  1.00  0.00     0.295 C 
HETATM    4  C10 UNL     1     -19.461   4.356  10.285  1.00  0.00     0.203 C 
HETATM    5  C11 UNL     1     -18.338   5.164   9.717  1.00  0.00     0.172 C 
HETATM    6  C12 UNL     1     -18.626   5.618   8.324  1.00  0.00     0.145 C 
HETATM    7 CL3  UNL     1     -17.175   5.219   7.340  1.00  0.00    -0.119 Cl
ENDROOT
BRANCH   3   8
HETATM    8  O3  UNL     1     -21.796   4.559  10.492  1.00  0.00    -0.319 OA
BRANCH   8   9
HETATM    9  C4  UNL     1     -22.855   5.332  10.830  1.00  0.00     0.208 C 
HETATM   10  O4  UNL     1     -23.224   4.869  12.133  1.00  0.00    -0.343 OA
HETATM   11  C6  UNL     1     -24.181   3.886  11.891  1.00  0.00     0.170 C 
HETATM   12  C8  UNL     1     -25.100   4.663  10.954  1.00  0.00     0.182 C 
HETATM   13  C9  UNL     1     -24.068   5.150   9.959  1.00  0.00     0.213 C 
BRANCH   9  14
HETATM   14  C5  UNL     1     -22.611   6.793  11.019  1.00  0.00     0.186 C 
HETATM   15 CL1  UNL     1     -22.724   7.382  12.675  1.00  0.00    -0.125 Cl
ENDBRANCH   9  14
BRANCH  11  16
HETATM   16  C7  UNL     1     -24.855   3.474  13.147  1.00  0.00     0.149 C 
HETATM   17 CL2  UNL     1     -24.287   4.475  14.503  1.00  0.00    -0.128 Cl
ENDBRANCH  11  16
BRANCH  12  18
HETATM   18  O5  UNL     1     -25.647   5.773  11.569  1.00  0.00    -0.390 OA
ATOM     19  H5  UNL     1     -26.397   6.109  11.094  1.00  0.00     0.210 HD
ENDBRANCH  12  18
BRANCH  13  20
HETATM   20  O6  UNL     1     -23.861   4.234   8.937  1.00  0.00    -0.387 OA
ATOM     21  H6  UNL     1     -23.189   3.595   9.148  1.00  0.00     0.210 HD
ENDBRANCH  13  20
ENDBRANCH   8   9
ENDBRANCH   3   8
BRANCH   4  22
HETATM   22  O7  UNL     1     -19.389   4.182  11.638  1.00  0.00    -0.388 OA
ATOM     23  H7  UNL     1     -18.501   4.200  11.976  1.00  0.00     0.210 HD
ENDBRANCH   4  22
BRANCH   1  24
HETATM   24  C1  UNL     1     -19.478   3.917   6.795  1.00  0.00     0.197 C 
BRANCH  24  25
HETATM   25  O1  UNL     1     -20.256   3.936   5.627  1.00  0.00    -0.398 OA
ATOM     26  H1  UNL     1     -20.023   3.208   5.061  1.00  0.00     0.209 HD
ENDBRANCH  24  25
ENDBRANCH   1  24
BRANCH   5  27
HETATM   27  O8  UNL     1     -17.165   4.385   9.800  1.00  0.00    -0.391 OA
ATOM     28  H8  UNL     1     -16.996   4.216  10.719  1.00  0.00     0.210 HD
ENDBRANCH   5  27
TORSDOF 10
ENDMDL
