MODEL 2
REMARK VINA RESULT: -9.110475830      3.085      7.055
REMARK  4 active torsions:
REMARK  status: ('A' for Active; 'I' for Inactive)
REMARK    1  A    between atoms: C3_4  and  C4_5 
REMARK    2  A    between atoms: C11_14  and  C12_15 
REMARK    3  A    between atoms: C16_19  and  N3_20 
REMARK    4  A    between atoms: N3_20  and  S1_22 
ROOT
HETATM    1  C4  UNL     1       7.938  -8.141  -6.354  1.00  0.00    -0.022 A 
HETATM    2  C5  UNL     1       9.236  -8.357  -5.957  1.00  0.00     0.013 A 
HETATM    3  C6  UNL     1      10.112  -9.128  -6.706  1.00  0.00     0.019 A 
HETATM    4  C7  UNL     1       9.657  -9.688  -7.882  1.00  0.00     0.043 A 
HETATM    5  C8  UNL     1      10.482 -10.478  -8.670  1.00  0.00     0.258 A 
HETATM    6  O1  UNL     1      11.658 -10.636  -8.250  1.00  0.00    -0.267 OA
HETATM    7  N2  UNL     1      10.030 -11.029  -9.808  1.00  0.00    -0.327 N 
HETATM    8  C9  UNL     1      10.939 -11.852 -10.598  1.00  0.00     0.159 C 
HETATM    9  C10 UNL     1       8.775 -10.819 -10.192  1.00  0.00     0.107 A 
HETATM   10  C11 UNL     1       7.862 -10.036  -9.467  1.00  0.00     0.001 A 
HETATM   11  C19 UNL     1       8.341  -9.479  -8.301  1.00  0.00    -0.007 A 
HETATM   12  C20 UNL     1       7.480  -8.702  -7.532  1.00  0.00     0.025 A 
ENDROOT
BRANCH  10  13
HETATM   13  C12 UNL     1       6.515  -9.825  -9.978  1.00  0.00    -0.021 A 
HETATM   14  C13 UNL     1       6.217  -8.987 -11.025  1.00  0.00     0.012 A 
HETATM   15  C14 UNL     1       4.925  -8.816 -11.457  1.00  0.00     0.003 A 
HETATM   16  C15 UNL     1       3.884  -9.499 -10.833  1.00  0.00     0.030 A 
HETATM   17  C16 UNL     1       4.136 -10.347  -9.782  1.00  0.00     0.043 A 
HETATM   18  C18 UNL     1       5.474 -10.492  -9.372  1.00  0.00     0.042 A 
BRANCH  17  19
HETATM   19  N3  UNL     1       3.144 -11.061  -9.105  1.00  0.00    -0.285 N 
ATOM     20  H3  UNL     1       2.667 -11.779  -9.650  1.00  0.00     0.178 HD
BRANCH  19  21
HETATM   21  S1  UNL     1       2.625 -10.894  -7.499  1.00  0.00     0.227 S 
HETATM   22  C17 UNL     1       1.054 -10.091  -7.451  1.00  0.00     0.186 C 
HETATM   23  O2  UNL     1       3.592 -10.095  -6.659  1.00  0.00    -0.206 OA
HETATM   24  O3  UNL     1       2.474 -12.214  -6.798  1.00  0.00    -0.206 OA
ENDBRANCH  19  21
ENDBRANCH  17  19
ENDBRANCH  10  13
BRANCH   1  25
HETATM   25  C3  UNL     1       7.013  -7.334  -5.574  1.00  0.00     0.008 A 
HETATM   26  C2  UNL     1       7.228  -6.682  -4.377  1.00  0.00     0.123 A 
HETATM   27  N1  UNL     1       6.078  -6.070  -4.049  1.00  0.00    -0.307 N 
HETATM   28  C1  UNL     1       5.797  -5.249  -2.867  1.00  0.00     0.177 C 
HETATM   29  N4  UNL     1       5.143  -6.295  -4.969  1.00  0.00    -0.310 N 
HETATM   30  C21 UNL     1       5.706  -7.066  -5.905  1.00  0.00     0.120 A 
ATOM     31  H4  UNL     1       4.184  -5.947  -4.961  1.00  0.00     0.186 HD
ENDBRANCH   1  25
TORSDOF 4
ENDMDL
