MODEL 5
REMARK VINA RESULT: -8.926445184      3.198      6.308
REMARK  4 active torsions:
REMARK  status: ('A' for Active; 'I' for Inactive)
REMARK    1  A    between atoms: C3_4  and  C4_5 
REMARK    2  A    between atoms: C11_14  and  C12_15 
REMARK    3  A    between atoms: C16_19  and  N3_20 
REMARK    4  A    between atoms: N3_20  and  S1_22 
ROOT
HETATM    1  C4  UNL     1       9.567 -10.516  -8.741  1.00  0.00    -0.022 A 
HETATM    2  C5  UNL     1      10.376 -10.023  -7.746  1.00  0.00     0.013 A 
HETATM    3  C6  UNL     1       9.931  -9.067  -6.845  1.00  0.00     0.019 A 
HETATM    4  C7  UNL     1       8.636  -8.606  -6.961  1.00  0.00     0.043 A 
HETATM    5  C8  UNL     1       8.135  -7.642  -6.098  1.00  0.00     0.258 A 
HETATM    6  O1  UNL     1       8.928  -7.232  -5.209  1.00  0.00    -0.267 OA
HETATM    7  N2  UNL     1       6.876  -7.189  -6.221  1.00  0.00    -0.327 N 
HETATM    8  C9  UNL     1       6.400  -6.175  -5.288  1.00  0.00     0.159 C 
HETATM    9  C10 UNL     1       6.093  -7.667  -7.184  1.00  0.00     0.107 A 
HETATM   10  C11 UNL     1       6.504  -8.643  -8.106  1.00  0.00     0.001 A 
HETATM   11  C19 UNL     1       7.799  -9.096  -7.966  1.00  0.00    -0.007 A 
HETATM   12  C20 UNL     1       8.268 -10.055  -8.859  1.00  0.00     0.025 A 
ENDROOT
BRANCH  10  13
HETATM   13  C12 UNL     1       5.571  -9.140  -9.106  1.00  0.00    -0.021 A 
HETATM   14  C13 UNL     1       5.591  -8.762 -10.427  1.00  0.00     0.012 A 
HETATM   15  C14 UNL     1       4.677  -9.254 -11.326  1.00  0.00     0.003 A 
HETATM   16  C15 UNL     1       3.702 -10.156 -10.905  1.00  0.00     0.030 A 
HETATM   17  C16 UNL     1       3.644 -10.562  -9.594  1.00  0.00     0.043 A 
HETATM   18  C18 UNL     1       4.600 -10.033  -8.709  1.00  0.00     0.042 A 
BRANCH  17  19
HETATM   19  N3  UNL     1       2.694 -11.459  -9.101  1.00  0.00    -0.285 N 
ATOM     20  H3  UNL     1       2.923 -12.447  -9.206  1.00  0.00     0.178 HD
BRANCH  19  21
HETATM   21  S1  UNL     1       1.209 -11.126  -8.350  1.00  0.00     0.227 S 
HETATM   22  C17 UNL     1       1.075 -12.037  -6.844  1.00  0.00     0.186 C 
HETATM   23  O2  UNL     1       0.029 -11.478  -9.224  1.00  0.00    -0.206 OA
HETATM   24  O3  UNL     1       1.043  -9.673  -8.011  1.00  0.00    -0.206 OA
ENDBRANCH  19  21
ENDBRANCH  17  19
ENDBRANCH  10  13
BRANCH   1  25
HETATM   25  C3  UNL     1      10.026 -11.518  -9.689  1.00  0.00     0.008 A 
HETATM   26  C2  UNL     1       9.415 -12.694 -10.073  1.00  0.00     0.123 A 
HETATM   27  N1  UNL     1      10.222 -13.284 -10.971  1.00  0.00    -0.307 N 
HETATM   28  C1  UNL     1      10.016 -14.554 -11.673  1.00  0.00     0.177 C 
HETATM   29  N4  UNL     1      11.312 -12.551 -11.180  1.00  0.00    -0.310 N 
HETATM   30  C21 UNL     1      11.202 -11.469 -10.401  1.00  0.00     0.120 A 
ATOM     31  H4  UNL     1      12.083 -12.771 -11.811  1.00  0.00     0.186 HD
ENDBRANCH   1  25
TORSDOF 4
ENDMDL
