MODEL 4
REMARK VINA RESULT: -8.928755235      3.559      7.217
REMARK  4 active torsions:
REMARK  status: ('A' for Active; 'I' for Inactive)
REMARK    1  A    between atoms: C3_4  and  C4_5 
REMARK    2  A    between atoms: C11_14  and  C12_15 
REMARK    3  A    between atoms: C16_19  and  N3_20 
REMARK    4  A    between atoms: N3_20  and  S1_22 
ROOT
HETATM    1  C4  UNL     1       7.898  -8.114  -6.272  1.00  0.00    -0.022 A 
HETATM    2  C5  UNL     1       9.220  -8.349  -5.979  1.00  0.00     0.013 A 
HETATM    3  C6  UNL     1      10.012  -9.167  -6.771  1.00  0.00     0.019 A 
HETATM    4  C7  UNL     1       9.445  -9.755  -7.884  1.00  0.00     0.043 A 
HETATM    5  C8  UNL     1      10.182 -10.592  -8.710  1.00  0.00     0.258 A 
HETATM    6  O1  UNL     1      11.386 -10.766  -8.385  1.00  0.00    -0.267 OA
HETATM    7  N2  UNL     1       9.623 -11.169  -9.786  1.00  0.00    -0.327 N 
HETATM    8  C9  UNL     1      10.443 -12.040 -10.620  1.00  0.00     0.159 C 
HETATM    9  C10 UNL     1       8.345 -10.939 -10.070  1.00  0.00     0.107 A 
HETATM   10  C11 UNL     1       7.515 -10.109  -9.299  1.00  0.00     0.001 A 
HETATM   11  C19 UNL     1       8.104  -9.526  -8.197  1.00  0.00    -0.007 A 
HETATM   12  C20 UNL     1       7.329  -8.702  -7.387  1.00  0.00     0.025 A 
ENDROOT
BRANCH  10  13
HETATM   13  C12 UNL     1       6.135  -9.881  -9.702  1.00  0.00    -0.021 A 
HETATM   14  C13 UNL     1       5.766  -9.431 -10.947  1.00  0.00     0.012 A 
HETATM   15  C14 UNL     1       4.447  -9.221 -11.268  1.00  0.00     0.003 A 
HETATM   16  C15 UNL     1       3.452  -9.463 -10.325  1.00  0.00     0.030 A 
HETATM   17  C16 UNL     1       3.775  -9.913  -9.068  1.00  0.00     0.043 A 
HETATM   18  C18 UNL     1       5.137 -10.115  -8.782  1.00  0.00     0.042 A 
BRANCH  17  19
HETATM   19  N3  UNL     1       2.832 -10.174  -8.070  1.00  0.00    -0.285 N 
ATOM     20  H3  UNL     1       3.094  -9.883  -7.129  1.00  0.00     0.178 HD
BRANCH  19  21
HETATM   21  S1  UNL     1       1.310 -10.908  -8.214  1.00  0.00     0.227 S 
HETATM   22  C17 UNL     1       1.044 -12.019  -6.868  1.00  0.00     0.186 C 
HETATM   23  O2  UNL     1       1.162 -11.682  -9.503  1.00  0.00    -0.206 OA
HETATM   24  O3  UNL     1       0.184  -9.915  -8.205  1.00  0.00    -0.206 OA
ENDBRANCH  19  21
ENDBRANCH  17  19
ENDBRANCH  10  13
BRANCH   1  25
HETATM   25  C3  UNL     1       7.062  -7.258  -5.446  1.00  0.00     0.008 A 
HETATM   26  C2  UNL     1       7.374  -6.622  -4.262  1.00  0.00     0.123 A 
HETATM   27  N1  UNL     1       6.278  -5.946  -3.876  1.00  0.00    -0.307 N 
HETATM   28  C1  UNL     1       6.105  -5.114  -2.682  1.00  0.00     0.177 C 
HETATM   29  N4  UNL     1       5.287  -6.117  -4.746  1.00  0.00    -0.310 N 
HETATM   30  C21 UNL     1       5.756  -6.917  -5.710  1.00  0.00     0.120 A 
ATOM     31  H4  UNL     1       4.351  -5.715  -4.690  1.00  0.00     0.186 HD
ENDBRANCH   1  25
TORSDOF 4
ENDMDL
