MODEL 3
REMARK VINA RESULT: -9.070941396      3.218      6.170
REMARK  4 active torsions:
REMARK  status: ('A' for Active; 'I' for Inactive)
REMARK    1  A    between atoms: C3_4  and  C4_5 
REMARK    2  A    between atoms: C11_14  and  C12_15 
REMARK    3  A    between atoms: C16_19  and  N3_20 
REMARK    4  A    between atoms: N3_20  and  S1_22 
ROOT
HETATM    1  C4  UNL     1       9.450 -10.461  -8.602  1.00  0.00    -0.022 A 
HETATM    2  C5  UNL     1      10.305  -9.908  -7.679  1.00  0.00     0.013 A 
HETATM    3  C6  UNL     1       9.891  -8.923  -6.795  1.00  0.00     0.019 A 
HETATM    4  C7  UNL     1       8.580  -8.496  -6.852  1.00  0.00     0.043 A 
HETATM    5  C8  UNL     1       8.108  -7.506  -6.001  1.00  0.00     0.258 A 
HETATM    6  O1  UNL     1       8.942  -7.041  -5.180  1.00  0.00    -0.267 OA
HETATM    7  N2  UNL     1       6.834  -7.087  -6.068  1.00  0.00    -0.327 N 
HETATM    8  C9  UNL     1       6.389  -6.044  -5.151  1.00  0.00     0.159 C 
HETATM    9  C10 UNL     1       6.007  -7.623  -6.960  1.00  0.00     0.107 A 
HETATM   10  C11 UNL     1       6.386  -8.629  -7.864  1.00  0.00     0.001 A 
HETATM   11  C19 UNL     1       7.697  -9.047  -7.784  1.00  0.00    -0.007 A 
HETATM   12  C20 UNL     1       8.137 -10.033  -8.661  1.00  0.00     0.025 A 
ENDROOT
BRANCH  10  13
HETATM   13  C12 UNL     1       5.408  -9.189  -8.785  1.00  0.00    -0.021 A 
HETATM   14  C13 UNL     1       5.358  -8.889 -10.125  1.00  0.00     0.012 A 
HETATM   15  C14 UNL     1       4.404  -9.439 -10.945  1.00  0.00     0.003 A 
HETATM   16  C15 UNL     1       3.460 -10.319 -10.424  1.00  0.00     0.030 A 
HETATM   17  C16 UNL     1       3.471 -10.648  -9.090  1.00  0.00     0.043 A 
HETATM   18  C18 UNL     1       4.466 -10.062  -8.287  1.00  0.00     0.042 A 
BRANCH  17  19
HETATM   19  N3  UNL     1       2.554 -11.519  -8.497  1.00  0.00    -0.285 N 
ATOM     20  H3  UNL     1       2.749 -12.513  -8.617  1.00  0.00     0.178 HD
BRANCH  19  21
HETATM   21  S1  UNL     1       1.160 -11.147  -7.604  1.00  0.00     0.227 S 
HETATM   22  C17 UNL     1       0.026 -10.236  -8.603  1.00  0.00     0.186 C 
HETATM   23  O2  UNL     1       1.466 -10.332  -6.370  1.00  0.00    -0.206 OA
HETATM   24  O3  UNL     1       0.442 -12.372  -7.114  1.00  0.00    -0.206 OA
ENDBRANCH  19  21
ENDBRANCH  17  19
ENDBRANCH  10  13
BRANCH   1  25
HETATM   25  C3  UNL     1       9.878 -11.493  -9.533  1.00  0.00     0.008 A 
HETATM   26  C2  UNL     1       9.153 -12.547 -10.051  1.00  0.00     0.123 A 
HETATM   27  N1  UNL     1       9.976 -13.228 -10.867  1.00  0.00    -0.307 N 
HETATM   28  C1  UNL     1       9.678 -14.428 -11.654  1.00  0.00     0.177 C 
HETATM   29  N4  UNL     1      11.182 -12.668 -10.897  1.00  0.00    -0.310 N 
HETATM   30  C21 UNL     1      11.132 -11.606 -10.085  1.00  0.00     0.120 A 
ATOM     31  H4  UNL     1      11.989 -12.986 -11.435  1.00  0.00     0.186 HD
ENDBRANCH   1  25
TORSDOF 4
ENDMDL
