MODEL 1
REMARK VINA RESULT: -9.378683492      0.000      0.000
REMARK  4 active torsions:
REMARK  status: ('A' for Active; 'I' for Inactive)
REMARK    1  A    between atoms: C3_4  and  C4_5 
REMARK    2  A    between atoms: C11_14  and  C12_15 
REMARK    3  A    between atoms: C16_19  and  N3_20 
REMARK    4  A    between atoms: N3_20  and  S1_22 
ROOT
HETATM    1  C4  UNL     1       6.181  -8.929 -10.853  1.00  0.00    -0.022 A 
HETATM    2  C5  UNL     1       5.068  -9.365 -11.530  1.00  0.00     0.013 A 
HETATM    3  C6  UNL     1       3.946  -9.838 -10.865  1.00  0.00     0.019 A 
HETATM    4  C7  UNL     1       3.960  -9.865  -9.486  1.00  0.00     0.043 A 
HETATM    5  C8  UNL     1       2.873 -10.338  -8.764  1.00  0.00     0.258 A 
HETATM    6  O1  UNL     1       1.885 -10.723  -9.444  1.00  0.00    -0.267 OA
HETATM    7  N2  UNL     1       2.896 -10.371  -7.422  1.00  0.00    -0.327 N 
HETATM    8  C9  UNL     1       1.727 -10.878  -6.713  1.00  0.00     0.159 C 
HETATM    9  C10 UNL     1       3.973  -9.948  -6.768  1.00  0.00     0.107 A 
HETATM   10  C11 UNL     1       5.123  -9.452  -7.405  1.00  0.00     0.001 A 
HETATM   11  C19 UNL     1       5.083  -9.425  -8.782  1.00  0.00    -0.007 A 
HETATM   12  C20 UNL     1       6.197  -8.956  -9.471  1.00  0.00     0.025 A 
ENDROOT
BRANCH  10  13
HETATM   13  C12 UNL     1       6.246  -8.973  -6.612  1.00  0.00    -0.021 A 
HETATM   14  C13 UNL     1       7.419  -9.669  -6.448  1.00  0.00     0.012 A 
HETATM   15  C14 UNL     1       8.442  -9.173  -5.678  1.00  0.00     0.003 A 
HETATM   16  C15 UNL     1       8.304  -7.942  -5.044  1.00  0.00     0.030 A 
HETATM   17  C16 UNL     1       7.148  -7.211  -5.179  1.00  0.00     0.043 A 
HETATM   18  C18 UNL     1       6.127  -7.757  -5.977  1.00  0.00     0.042 A 
BRANCH  17  19
HETATM   19  N3  UNL     1       6.937  -5.972  -4.570  1.00  0.00    -0.285 N 
ATOM     20  H3  UNL     1       7.445  -5.187  -4.977  1.00  0.00     0.178 HD
BRANCH  19  21
HETATM   21  S1  UNL     1       5.948  -5.596  -3.243  1.00  0.00     0.227 S 
HETATM   22  C17 UNL     1       4.265  -5.973  -3.617  1.00  0.00     0.186 C 
HETATM   23  O2  UNL     1       6.033  -4.139  -2.855  1.00  0.00    -0.206 OA
HETATM   24  O3  UNL     1       6.316  -6.368  -2.008  1.00  0.00    -0.206 OA
ENDBRANCH  19  21
ENDBRANCH  17  19
ENDBRANCH  10  13
BRANCH   1  25
HETATM   25  C3  UNL     1       7.361  -8.432 -11.543  1.00  0.00     0.008 A 
HETATM   26  C2  UNL     1       8.692  -8.622 -11.231  1.00  0.00     0.123 A 
HETATM   27  N1  UNL     1       9.413  -7.969 -12.160  1.00  0.00    -0.307 N 
HETATM   28  C1  UNL     1      10.871  -7.869 -12.266  1.00  0.00     0.177 C 
HETATM   29  N4  UNL     1       8.615  -7.374 -13.043  1.00  0.00    -0.310 N 
HETATM   30  C21 UNL     1       7.360  -7.651 -12.675  1.00  0.00     0.120 A 
ATOM     31  H4  UNL     1       8.906  -6.815 -13.846  1.00  0.00     0.186 HD
ENDBRANCH   1  25
TORSDOF 4
ENDMDL
