MODEL 7
REMARK VINA RESULT: -8.487987657      3.440      6.960
REMARK  5 active torsions:
REMARK  status: ('A' for Active; 'I' for Inactive)
REMARK    1  A    between atoms: C2_2  and  S1_3 
REMARK    2  A    between atoms: S1_3  and  C3_6 
REMARK    3  A    between atoms: C6_9  and  O3_10 
REMARK    4  A    between atoms: C8_12  and  C9_13 
REMARK    5  A    between atoms: C16_22  and  C17_23 
ROOT
HETATM    1  C9  UNL     1      15.668  10.129   7.199  1.00  0.00     0.004 A 
HETATM    2  C10 UNL     1      16.330   9.410   8.198  1.00  0.00     0.107 A 
HETATM    3  N1  UNL     1      16.844   8.197   8.015  1.00  0.00    -0.327 N 
HETATM    4  C11 UNL     1      17.535   7.469   9.089  1.00  0.00     0.159 C 
HETATM    5  C12 UNL     1      16.731   7.618   6.821  1.00  0.00     0.258 A 
HETATM    6  O4  UNL     1      17.208   6.463   6.606  1.00  0.00    -0.267 OA
HETATM    7  C13 UNL     1      16.090   8.254   5.768  1.00  0.00     0.043 A 
HETATM    8  C14 UNL     1      15.993   7.602   4.557  1.00  0.00     0.019 A 
HETATM    9  C15 UNL     1      15.355   8.209   3.524  1.00  0.00     0.013 A 
HETATM   10  C16 UNL     1      14.812   9.462   3.683  1.00  0.00    -0.022 A 
HETATM   11  C21 UNL     1      14.913  10.112   4.901  1.00  0.00     0.025 A 
HETATM   12  C22 UNL     1      15.550   9.533   5.970  1.00  0.00    -0.007 A 
ENDROOT
BRANCH   1  13
HETATM   13  C8  UNL     1      15.166  11.461   7.424  1.00  0.00     0.011 A 
HETATM   14  C6  UNL     1      15.824  12.549   6.836  1.00  0.00     0.079 A 
HETATM   15  C5  UNL     1      15.363  13.844   6.997  1.00  0.00     0.039 A 
HETATM   16  C4  UNL     1      14.237  14.090   7.744  1.00  0.00     0.026 A 
HETATM   17  C3  UNL     1      13.559  13.050   8.338  1.00  0.00     0.060 A 
HETATM   18  C23 UNL     1      14.042  11.760   8.162  1.00  0.00     0.038 A 
BRANCH  14  19
HETATM   19  O3  UNL     1      16.959  12.271   6.088  1.00  0.00    -0.355 OA
HETATM   20  C7  UNL     1      17.156  12.989   4.885  1.00  0.00     0.210 C 
ENDBRANCH  14  19
BRANCH  17  21
HETATM   21  S1  UNL     1      12.118  13.308   9.303  1.00  0.00     0.175 S 
HETATM   22  O1  UNL     1      10.874  13.311   8.461  1.00  0.00    -0.223 OA
HETATM   23  O2  UNL     1      12.271  14.583  10.047  1.00  0.00    -0.223 OA
BRANCH  21  24
HETATM   24  C2  UNL     1      11.937  11.981  10.481  1.00  0.00     0.141 C 
HETATM   25  C1  UNL     1      11.195  12.445  11.709  1.00  0.00     0.021 C 
ENDBRANCH  21  24
ENDBRANCH  17  21
ENDBRANCH   1  13
BRANCH  10  26
HETATM   26  C17 UNL     1      14.128  10.104   2.562  1.00  0.00     0.008 A 
HETATM   27  C18 UNL     1      13.023   9.636   1.885  1.00  0.00     0.120 A 
HETATM   28  N2  UNL     1      12.704  10.530   0.914  1.00  0.00    -0.310 N 
HETATM   29  N3  UNL     1      13.556  11.540   0.944  1.00  0.00    -0.307 N 
ATOM     30  H2  UNL     1      11.926  10.436   0.260  1.00  0.00     0.186 HD
HETATM   31  C19 UNL     1      13.524  12.686   0.050  1.00  0.00     0.177 C 
HETATM   32  C20 UNL     1      14.436  11.312   1.937  1.00  0.00     0.123 A 
ENDBRANCH  10  26
TORSDOF 5
ENDMDL
