MODEL 1
REMARK VINA RESULT: -9.348717596      0.000      0.000
REMARK  5 active torsions:
REMARK  status: ('A' for Active; 'I' for Inactive)
REMARK    1  A    between atoms: C2_2  and  S1_3 
REMARK    2  A    between atoms: S1_3  and  C3_6 
REMARK    3  A    between atoms: C6_9  and  O3_10 
REMARK    4  A    between atoms: C8_12  and  C9_13 
REMARK    5  A    between atoms: C16_22  and  C17_23 
ROOT
HETATM    1  C9  UNL     1      16.507  11.236   4.926  1.00  0.00     0.004 A 
HETATM    2  C10 UNL     1      17.439  11.559   3.936  1.00  0.00     0.107 A 
HETATM    3  N1  UNL     1      17.763  12.806   3.608  1.00  0.00    -0.327 N 
HETATM    4  C11 UNL     1      18.749  13.110   2.561  1.00  0.00     0.159 C 
HETATM    5  C12 UNL     1      17.178  13.818   4.247  1.00  0.00     0.258 A 
HETATM    6  O4  UNL     1      17.460  15.022   3.963  1.00  0.00    -0.267 OA
HETATM    7  C13 UNL     1      16.239  13.596   5.244  1.00  0.00     0.043 A 
HETATM    8  C14 UNL     1      15.657  14.682   5.862  1.00  0.00     0.019 A 
HETATM    9  C15 UNL     1      14.727  14.476   6.829  1.00  0.00     0.013 A 
HETATM   10  C16 UNL     1      14.369  13.199   7.189  1.00  0.00    -0.022 A 
HETATM   11  C21 UNL     1      14.958  12.112   6.565  1.00  0.00     0.025 A 
HETATM   12  C22 UNL     1      15.903  12.277   5.583  1.00  0.00    -0.007 A 
ENDROOT
BRANCH   1  13
HETATM   13  C8  UNL     1      16.218   9.870   5.284  1.00  0.00     0.011 A 
HETATM   14  C6  UNL     1      15.561   9.045   4.362  1.00  0.00     0.079 A 
HETATM   15  C5  UNL     1      15.290   7.718   4.646  1.00  0.00     0.039 A 
HETATM   16  C4  UNL     1      15.664   7.178   5.852  1.00  0.00     0.026 A 
HETATM   17  C3  UNL     1      16.312   7.952   6.786  1.00  0.00     0.060 A 
HETATM   18  C23 UNL     1      16.573   9.281   6.477  1.00  0.00     0.038 A 
BRANCH  14  19
HETATM   19  O3  UNL     1      15.194   9.618   3.152  1.00  0.00    -0.355 OA
HETATM   20  C7  UNL     1      13.934   9.276   2.608  1.00  0.00     0.210 C 
ENDBRANCH  14  19
BRANCH  17  21
HETATM   21  S1  UNL     1      16.811   7.315   8.341  1.00  0.00     0.175 S 
HETATM   22  O1  UNL     1      15.638   6.861   9.162  1.00  0.00    -0.223 OA
HETATM   23  O2  UNL     1      17.594   8.358   9.049  1.00  0.00    -0.223 OA
BRANCH  21  24
HETATM   24  C2  UNL     1      17.852   5.888   8.102  1.00  0.00     0.141 C 
HETATM   25  C1  UNL     1      19.062   6.233   7.270  1.00  0.00     0.021 C 
ENDBRANCH  21  24
ENDBRANCH  17  21
ENDBRANCH   1  13
BRANCH  10  26
HETATM   26  C17 UNL     1      13.366  12.992   8.233  1.00  0.00     0.008 A 
HETATM   27  C18 UNL     1      12.704  11.821   8.527  1.00  0.00     0.120 A 
HETATM   28  N2  UNL     1      11.857  12.054   9.563  1.00  0.00    -0.310 N 
HETATM   29  N3  UNL     1      11.954  13.319   9.937  1.00  0.00    -0.307 N 
ATOM     30  H2  UNL     1      11.242  11.361   9.987  1.00  0.00     0.186 HD
HETATM   31  C19 UNL     1      11.196  13.930  11.017  1.00  0.00     0.177 C 
HETATM   32  C20 UNL     1      12.865  13.917   9.146  1.00  0.00     0.123 A 
ENDBRANCH  10  26
TORSDOF 5
ENDMDL
