MODEL 2
REMARK VINA RESULT: -9.196635868      1.748      5.263
REMARK  5 active torsions:
REMARK  status: ('A' for Active; 'I' for Inactive)
REMARK    1  A    between atoms: C2_2  and  S1_3 
REMARK    2  A    between atoms: S1_3  and  C3_6 
REMARK    3  A    between atoms: C6_9  and  O3_10 
REMARK    4  A    between atoms: C8_12  and  C9_13 
REMARK    5  A    between atoms: C16_22  and  C17_23 
ROOT
HETATM    1  C9  UNL     1      14.938  10.980   6.834  1.00  0.00     0.004 A 
HETATM    2  C10 UNL     1      13.828  11.123   7.673  1.00  0.00     0.107 A 
HETATM    3  N1  UNL     1      13.231  12.286   7.913  1.00  0.00    -0.327 N 
HETATM    4  C11 UNL     1      12.066  12.399   8.802  1.00  0.00     0.159 C 
HETATM    5  C12 UNL     1      13.699  13.389   7.330  1.00  0.00     0.258 A 
HETATM    6  O4  UNL     1      13.157  14.517   7.533  1.00  0.00    -0.267 OA
HETATM    7  C13 UNL     1      14.796  13.347   6.482  1.00  0.00     0.043 A 
HETATM    8  C14 UNL     1      15.244  14.521   5.916  1.00  0.00     0.019 A 
HETATM    9  C15 UNL     1      16.325  14.493   5.095  1.00  0.00     0.013 A 
HETATM   10  C16 UNL     1      16.966  13.306   4.830  1.00  0.00    -0.022 A 
HETATM   11  C21 UNL     1      16.511  12.130   5.401  1.00  0.00     0.025 A 
HETATM   12  C22 UNL     1      15.421  12.115   6.235  1.00  0.00    -0.007 A 
ENDROOT
BRANCH   1  13
HETATM   13  C8  UNL     1      15.528   9.694   6.563  1.00  0.00     0.011 A 
HETATM   14  C6  UNL     1      15.278   9.071   5.334  1.00  0.00     0.079 A 
HETATM   15  C5  UNL     1      15.847   7.850   5.015  1.00  0.00     0.039 A 
HETATM   16  C4  UNL     1      16.679   7.220   5.908  1.00  0.00     0.026 A 
HETATM   17  C3  UNL     1      16.953   7.797   7.126  1.00  0.00     0.060 A 
HETATM   18  C23 UNL     1      16.369   9.022   7.422  1.00  0.00     0.038 A 
BRANCH  14  19
HETATM   19  O3  UNL     1      14.433   9.730   4.452  1.00  0.00    -0.355 OA
HETATM   20  C7  UNL     1      14.478   9.362   3.087  1.00  0.00     0.210 C 
ENDBRANCH  14  19
BRANCH  17  21
HETATM   21  S1  UNL     1      18.005   7.036   8.303  1.00  0.00     0.175 S 
HETATM   22  O1  UNL     1      18.006   7.772   9.612  1.00  0.00    -0.223 OA
HETATM   23  O2  UNL     1      19.372   6.953   7.728  1.00  0.00    -0.223 OA
BRANCH  21  24
HETATM   24  C2  UNL     1      17.432   5.383   8.644  1.00  0.00     0.141 C 
HETATM   25  C1  UNL     1      18.199   4.769   9.788  1.00  0.00     0.021 C 
ENDBRANCH  21  24
ENDBRANCH  17  21
ENDBRANCH   1  13
BRANCH  10  26
HETATM   26  C17 UNL     1      18.129  13.291   3.944  1.00  0.00     0.008 A 
HETATM   27  C18 UNL     1      18.551  14.304   3.112  1.00  0.00     0.120 A 
HETATM   28  N2  UNL     1      19.668  13.887   2.461  1.00  0.00    -0.310 N 
HETATM   29  N3  UNL     1      19.971  12.659   2.843  1.00  0.00    -0.307 N 
ATOM     30  H2  UNL     1      20.193  14.438   1.782  1.00  0.00     0.186 HD
HETATM   31  C19 UNL     1      21.104  11.888   2.357  1.00  0.00     0.177 C 
HETATM   32  C20 UNL     1      19.053  12.266   3.746  1.00  0.00     0.123 A 
ENDBRANCH  10  26
TORSDOF 5
ENDMDL
