MODEL 3
REMARK VINA RESULT: -9.165487397      3.327      6.395
REMARK  5 active torsions:
REMARK  status: ('A' for Active; 'I' for Inactive)
REMARK    1  A    between atoms: C2_2  and  S1_3 
REMARK    2  A    between atoms: S1_3  and  C3_6 
REMARK    3  A    between atoms: C6_9  and  O3_10 
REMARK    4  A    between atoms: C8_12  and  C9_13 
REMARK    5  A    between atoms: C16_22  and  C17_23 
ROOT
HETATM    1  C9  UNL     1      15.057  11.180   4.960  1.00  0.00     0.004 A 
HETATM    2  C10 UNL     1      14.733  11.534   3.647  1.00  0.00     0.107 A 
HETATM    3  N1  UNL     1      14.754  10.680   2.628  1.00  0.00    -0.327 N 
HETATM    4  C11 UNL     1      14.407  11.087   1.259  1.00  0.00     0.159 C 
HETATM    5  C12 UNL     1      15.099   9.413   2.849  1.00  0.00     0.258 A 
HETATM    6  O4  UNL     1      15.130   8.568   1.904  1.00  0.00    -0.267 OA
HETATM    7  C13 UNL     1      15.438   8.969   4.119  1.00  0.00     0.043 A 
HETATM    8  C14 UNL     1      15.799   7.649   4.287  1.00  0.00     0.019 A 
HETATM    9  C15 UNL     1      16.146   7.207   5.522  1.00  0.00     0.013 A 
HETATM   10  C16 UNL     1      16.137   8.066   6.596  1.00  0.00    -0.022 A 
HETATM   11  C21 UNL     1      15.773   9.390   6.421  1.00  0.00     0.025 A 
HETATM   12  C22 UNL     1      15.415   9.876   5.188  1.00  0.00    -0.007 A 
ENDROOT
BRANCH   1  13
HETATM   13  C8  UNL     1      14.978  12.125   6.045  1.00  0.00     0.011 A 
HETATM   14  C6  UNL     1      16.010  13.056   6.219  1.00  0.00     0.079 A 
HETATM   15  C5  UNL     1      15.965  14.004   7.226  1.00  0.00     0.039 A 
HETATM   16  C4  UNL     1      14.894  14.051   8.085  1.00  0.00     0.026 A 
HETATM   17  C3  UNL     1      13.858  13.156   7.949  1.00  0.00     0.060 A 
HETATM   18  C23 UNL     1      13.928  12.214   6.931  1.00  0.00     0.038 A 
BRANCH  14  19
HETATM   19  O3  UNL     1      17.079  12.985   5.337  1.00  0.00    -0.355 OA
HETATM   20  C7  UNL     1      17.257  14.047   4.419  1.00  0.00     0.210 C 
ENDBRANCH  14  19
BRANCH  17  21
HETATM   21  S1  UNL     1      12.469  13.169   9.018  1.00  0.00     0.175 S 
HETATM   22  O1  UNL     1      11.175  13.195   8.255  1.00  0.00    -0.223 OA
HETATM   23  O2  UNL     1      12.584  14.338   9.926  1.00  0.00    -0.223 OA
BRANCH  21  24
HETATM   24  C2  UNL     1      12.452  11.684  10.005  1.00  0.00     0.141 C 
HETATM   25  C1  UNL     1      11.576  11.851  11.221  1.00  0.00     0.021 C 
ENDBRANCH  21  24
ENDBRANCH  17  21
ENDBRANCH   1  13
BRANCH  10  26
HETATM   26  C17 UNL     1      16.513   7.576   7.921  1.00  0.00     0.008 A 
HETATM   27  C18 UNL     1      16.132   8.098   9.137  1.00  0.00     0.120 A 
HETATM   28  N2  UNL     1      16.698   7.351  10.121  1.00  0.00    -0.310 N 
HETATM   29  N3  UNL     1      17.418   6.382   9.583  1.00  0.00    -0.307 N 
ATOM     30  H2  UNL     1      16.584   7.513  11.122  1.00  0.00     0.186 HD
HETATM   31  C19 UNL     1      18.169   5.386  10.330  1.00  0.00     0.177 C 
HETATM   32  C20 UNL     1      17.326   6.491   8.244  1.00  0.00     0.123 A 
ENDBRANCH  10  26
TORSDOF 5
ENDMDL
