MODEL 10
REMARK VINA RESULT: -9.113599770      2.840      7.516
REMARK  10 active torsions:
REMARK  status: ('A' for Active; 'I' for Inactive)
REMARK    1  A    between atoms: O1_2  and  C2_3 
REMARK    2  A    between atoms: C7_8  and  C8_9 
REMARK    3  A    between atoms: C8_9  and  N1_10 
REMARK    4  A    between atoms: C8_9  and  C9_14 
REMARK    5  A    between atoms: C9_14  and  N2_15 
REMARK    6  A    between atoms: N2_15  and  C10_17 
REMARK    7  A    between atoms: C15_26  and  N5_27 
REMARK    8  A    between atoms: N5_27  and  C16_29 
REMARK    9  A    between atoms: C16_29  and  C17_30 
REMARK   10  A    between atoms: C16_29  and  C19_33 
ROOT
HETATM    1  C17 UNL     1      26.691 -14.190  26.863  1.00  0.00     0.154 C 
HETATM    2  C18 UNL     1      25.474 -13.385  26.996  1.00  0.00     0.061 C 
HETATM    3  N6  UNL     1      24.517 -12.728  27.110  1.00  0.00    -0.197 NA
ENDROOT
BRANCH   1   4
HETATM    4  C16 UNL     1      27.754 -13.651  27.822  1.00  0.00     0.145 C 
BRANCH   4   5
HETATM    5  N5  UNL     1      27.167 -13.413  29.099  1.00  0.00    -0.215 N 
ATOM      6  H5  UNL     1      26.440 -14.035  29.451  1.00  0.00     0.178 HD
BRANCH   5   7
HETATM    7  C15 UNL     1      27.600 -12.305  29.883  1.00  0.00     0.708 A 
HETATM    8  N4  UNL     1      28.775 -12.130  30.512  1.00  0.00    -0.019 N 
HETATM    9  C14 UNL     1      28.793 -10.932  31.151  1.00  0.00     0.720 A 
ATOM     10  H4  UNL     1      29.543 -12.802  30.510  1.00  0.00     0.203 HD
HETATM   11  N3  UNL     1      29.710 -10.293  31.907  1.00  0.00    -0.193 N 
HETATM   12  N8  UNL     1      27.605 -10.359  30.911  1.00  0.00    -0.055 N 
HETATM   13  C12 UNL     1      29.502  -9.087  32.444  1.00  0.00     0.026 A 
ATOM     14  H3  UNL     1      30.605 -10.752  32.076  1.00  0.00     0.184 HD
HETATM   15  C11 UNL     1      28.260  -8.488  32.192  1.00  0.00     0.076 A 
HETATM   16  C13 UNL     1      30.493  -8.364  33.278  1.00  0.00     0.069 C 
HETATM   17  C10 UNL     1      27.317  -9.125  31.428  1.00  0.00     0.143 A 
HETATM   18  N7  UNL     1      26.892 -11.172  30.156  1.00  0.00    -0.109 N 
ATOM     19  H7  UNL     1      25.946 -10.981  29.825  1.00  0.00     0.207 HD
BRANCH  17  20
HETATM   20  N2  UNL     1      26.023  -8.613  31.150  1.00  0.00    -0.372 N 
ATOM     21  H2  UNL     1      25.406  -9.106  30.504  1.00  0.00     0.161 HD
BRANCH  20  22
HETATM   22  C9  UNL     1      25.582  -7.396  31.780  1.00  0.00     0.159 C 
BRANCH  22  23
HETATM   23  C8  UNL     1      24.340  -7.585  32.603  1.00  0.00     0.236 C 
BRANCH  23  24
HETATM   24  C7  UNL     1      23.778  -8.934  32.485  1.00  0.00     0.007 A 
HETATM   25  C2  UNL     1      23.101  -9.287  31.314  1.00  0.00     0.076 A 
HETATM   26  C3  UNL     1      22.615 -10.560  31.230  1.00  0.00     0.037 A 
HETATM   27  C4  UNL     1      22.762 -11.493  32.235  1.00  0.00     0.003 A 
HETATM   28  C5  UNL     1      23.435 -11.141  33.395  1.00  0.00     0.001 A 
HETATM   29  C6  UNL     1      23.942  -9.837  33.502  1.00  0.00     0.012 A 
BRANCH  25  30
HETATM   30  O1  UNL     1      22.981  -8.326  30.345  1.00  0.00    -0.355 OA
HETATM   31  C1  UNL     1      22.286  -8.504  29.127  1.00  0.00     0.210 C 
ENDBRANCH  25  30
ENDBRANCH  23  24
BRANCH  23  32
HETATM   32  N1  UNL     1      23.400  -6.557  32.177  1.00  0.00    -0.069 N 
ATOM     33  H13 UNL     1      23.431  -6.426  31.165  1.00  0.00     0.275 HD
ATOM     34  H12 UNL     1      22.436  -6.878  32.269  1.00  0.00     0.275 HD
ATOM     35  H11 UNL     1      23.544  -5.676  32.669  1.00  0.00     0.275 HD
ENDBRANCH  23  32
ENDBRANCH  22  23
ENDBRANCH  20  22
ENDBRANCH  17  20
ENDBRANCH   5   7
ENDBRANCH   4   5
BRANCH   4  36
HETATM   36  C19 UNL     1      28.812 -14.696  27.860  1.00  0.00    -0.032 A 
HETATM   37  C20 UNL     1      29.235 -15.217  26.658  1.00  0.00     0.009 A 
HETATM   38  C21 UNL     1      30.216 -16.198  26.605  1.00  0.00     0.002 A 
HETATM   39  C22 UNL     1      30.787 -16.669  27.773  1.00  0.00     0.024 A 
HETATM   40  C23 UNL     1      30.368 -16.153  28.973  1.00  0.00     0.034 A 
HETATM   41 CL1  UNL     1      31.088 -16.748  30.446  1.00  0.00    -0.084 Cl
HETATM   42  C24 UNL     1      29.389 -15.177  29.003  1.00  0.00     0.033 A 
ENDBRANCH   4  36
ENDBRANCH   1   4
TORSDOF 10
ENDMDL
