MODEL 2
REMARK VINA RESULT: -9.957745052      1.155      1.255
REMARK  10 active torsions:
REMARK  status: ('A' for Active; 'I' for Inactive)
REMARK    1  A    between atoms: O1_2  and  C2_3 
REMARK    2  A    between atoms: C7_8  and  C8_9 
REMARK    3  A    between atoms: C8_9  and  N1_10 
REMARK    4  A    between atoms: C8_9  and  C9_14 
REMARK    5  A    between atoms: C9_14  and  N2_15 
REMARK    6  A    between atoms: N2_15  and  C10_17 
REMARK    7  A    between atoms: C15_26  and  N5_27 
REMARK    8  A    between atoms: N5_27  and  C16_29 
REMARK    9  A    between atoms: C16_29  and  C17_30 
REMARK   10  A    between atoms: C16_29  and  C19_33 
ROOT
HETATM    1  C17 UNL     1      22.638  -8.335  30.621  1.00  0.00     0.154 C 
HETATM    2  C18 UNL     1      22.571  -7.263  31.618  1.00  0.00     0.061 C 
HETATM    3  N6  UNL     1      22.539  -6.411  32.413  1.00  0.00    -0.197 NA
ENDROOT
BRANCH   1   4
HETATM    4  C16 UNL     1      23.928  -9.130  30.829  1.00  0.00     0.145 C 
BRANCH   4   5
HETATM    5  N5  UNL     1      24.962  -8.256  31.275  1.00  0.00    -0.215 N 
ATOM      6  H5  UNL     1      24.741  -7.295  31.534  1.00  0.00     0.178 HD
BRANCH   5   7
HETATM    7  C15 UNL     1      26.303  -8.728  31.357  1.00  0.00     0.708 A 
HETATM    8  N4  UNL     1      27.274  -8.351  32.206  1.00  0.00    -0.019 N 
HETATM    9  C14 UNL     1      28.414  -9.045  31.957  1.00  0.00     0.720 A 
ATOM     10  H4  UNL     1      27.170  -7.643  32.934  1.00  0.00     0.203 HD
HETATM   11  N3  UNL     1      29.645  -9.046  32.509  1.00  0.00    -0.193 N 
HETATM   12  N8  UNL     1      28.138  -9.866  30.933  1.00  0.00    -0.055 N 
HETATM   13  C12 UNL     1      30.634  -9.840  32.088  1.00  0.00     0.026 A 
ATOM     14  H3  UNL     1      29.829  -8.411  33.285  1.00  0.00     0.184 HD
HETATM   15  C11 UNL     1      30.346 -10.698  31.018  1.00  0.00     0.076 A 
HETATM   16  C13 UNL     1      31.996  -9.859  32.677  1.00  0.00     0.069 C 
HETATM   17  C10 UNL     1      29.101 -10.708  30.445  1.00  0.00     0.143 A 
HETATM   18  N7  UNL     1      26.882  -9.681  30.573  1.00  0.00    -0.109 N 
ATOM     19  H7  UNL     1      26.413 -10.179  29.817  1.00  0.00     0.207 HD
BRANCH  17  20
HETATM   20  N2  UNL     1      28.728 -11.515  29.338  1.00  0.00    -0.372 N 
ATOM     21  H2  UNL     1      28.910 -11.193  28.387  1.00  0.00     0.161 HD
BRANCH  20  22
HETATM   22  C9  UNL     1      28.094 -12.787  29.559  1.00  0.00     0.159 C 
BRANCH  22  23
HETATM   23  C8  UNL     1      28.572 -13.848  28.609  1.00  0.00     0.236 C 
BRANCH  23  24
HETATM   24  C7  UNL     1      29.415 -14.856  29.256  1.00  0.00     0.007 A 
HETATM   25  C2  UNL     1      29.958 -15.885  28.482  1.00  0.00     0.076 A 
HETATM   26  C3  UNL     1      30.761 -16.790  29.115  1.00  0.00     0.037 A 
HETATM   27  C4  UNL     1      31.051 -16.730  30.463  1.00  0.00     0.003 A 
HETATM   28  C5  UNL     1      30.514 -15.708  31.228  1.00  0.00     0.001 A 
HETATM   29  C6  UNL     1      29.686 -14.767  30.597  1.00  0.00     0.012 A 
BRANCH  25  30
HETATM   30  O1  UNL     1      29.640 -15.903  27.150  1.00  0.00    -0.355 OA
HETATM   31  C1  UNL     1      30.316 -16.677  26.179  1.00  0.00     0.210 C 
ENDBRANCH  25  30
ENDBRANCH  23  24
BRANCH  23  32
HETATM   32  N1  UNL     1      29.268 -13.156  27.532  1.00  0.00    -0.069 N 
ATOM     33  H13 UNL     1      30.144 -12.747  27.862  1.00  0.00     0.275 HD
ATOM     34  H12 UNL     1      29.643 -13.816  26.852  1.00  0.00     0.275 HD
ATOM     35  H11 UNL     1      28.681 -12.455  27.081  1.00  0.00     0.275 HD
ENDBRANCH  23  32
ENDBRANCH  22  23
ENDBRANCH  20  22
ENDBRANCH  17  20
ENDBRANCH   5   7
ENDBRANCH   4   5
BRANCH   4  36
HETATM   36  C19 UNL     1      23.585 -10.175  31.832  1.00  0.00    -0.032 A 
HETATM   37  C20 UNL     1      22.968 -11.317  31.376  1.00  0.00     0.009 A 
HETATM   38  C21 UNL     1      22.612 -12.339  32.245  1.00  0.00     0.002 A 
HETATM   39  C22 UNL     1      22.876 -12.220  33.597  1.00  0.00     0.024 A 
HETATM   40  C23 UNL     1      23.490 -11.083  34.057  1.00  0.00     0.034 A 
HETATM   41 CL1  UNL     1      23.823 -10.933  35.763  1.00  0.00    -0.084 Cl
HETATM   42  C24 UNL     1      23.836 -10.077  33.173  1.00  0.00     0.033 A 
ENDBRANCH   4  36
ENDBRANCH   1   4
TORSDOF 10
ENDMDL
