MODEL 1
REMARK VINA RESULT: -10.053124739      0.000      0.000
REMARK  10 active torsions:
REMARK  status: ('A' for Active; 'I' for Inactive)
REMARK    1  A    between atoms: O1_2  and  C2_3 
REMARK    2  A    between atoms: C7_8  and  C8_9 
REMARK    3  A    between atoms: C8_9  and  N1_10 
REMARK    4  A    between atoms: C8_9  and  C9_14 
REMARK    5  A    between atoms: C9_14  and  N2_15 
REMARK    6  A    between atoms: N2_15  and  C10_17 
REMARK    7  A    between atoms: C15_26  and  N5_27 
REMARK    8  A    between atoms: N5_27  and  C16_29 
REMARK    9  A    between atoms: C16_29  and  C17_30 
REMARK   10  A    between atoms: C16_29  and  C19_33 
ROOT
HETATM    1  C17 UNL     1      23.000  -6.845  32.107  1.00  0.00     0.154 C 
HETATM    2  C18 UNL     1      22.002  -6.793  31.036  1.00  0.00     0.061 C 
HETATM    3  N6  UNL     1      21.215  -6.771  30.175  1.00  0.00    -0.197 NA
ENDROOT
BRANCH   1   4
HETATM    4  C16 UNL     1      24.170  -7.723  31.658  1.00  0.00     0.145 C 
BRANCH   4   5
HETATM    5  N5  UNL     1      25.396  -7.151  32.107  1.00  0.00    -0.215 N 
ATOM      6  H5  UNL     1      25.405  -6.216  32.513  1.00  0.00     0.178 HD
BRANCH   5   7
HETATM    7  C15 UNL     1      26.609  -7.889  31.988  1.00  0.00     0.708 A 
HETATM    8  N4  UNL     1      27.713  -7.815  32.750  1.00  0.00    -0.019 N 
HETATM    9  C14 UNL     1      28.651  -8.692  32.306  1.00  0.00     0.720 A 
ATOM     10  H4  UNL     1      27.831  -7.190  33.547  1.00  0.00     0.203 HD
HETATM   11  N3  UNL     1      29.901  -9.003  32.708  1.00  0.00    -0.193 N 
HETATM   12  N8  UNL     1      28.111  -9.316  31.249  1.00  0.00    -0.055 N 
HETATM   13  C12 UNL     1      30.654  -9.926  32.102  1.00  0.00     0.026 A 
ATOM     14  H3  UNL     1      30.288  -8.512  33.513  1.00  0.00     0.184 HD
HETATM   15  C11 UNL     1      30.090 -10.579  30.998  1.00  0.00     0.076 A 
HETATM   16  C13 UNL     1      32.030 -10.286  32.525  1.00  0.00     0.069 C 
HETATM   17  C10 UNL     1      28.823 -10.272  30.575  1.00  0.00     0.143 A 
HETATM   18  N7  UNL     1      26.895  -8.842  31.056  1.00  0.00    -0.109 N 
ATOM     19  H7  UNL     1      26.262  -9.145  30.317  1.00  0.00     0.207 HD
BRANCH  17  20
HETATM   20  N2  UNL     1      28.185 -10.855  29.449  1.00  0.00    -0.372 N 
ATOM     21  H2  UNL     1      27.431 -10.357  28.975  1.00  0.00     0.161 HD
BRANCH  20  22
HETATM   22  C9  UNL     1      28.603 -12.148  28.977  1.00  0.00     0.159 C 
BRANCH  22  23
HETATM   23  C8  UNL     1      28.188 -13.263  29.894  1.00  0.00     0.236 C 
BRANCH  23  24
HETATM   24  C7  UNL     1      29.123 -14.391  29.879  1.00  0.00     0.007 A 
HETATM   25  C2  UNL     1      29.307 -15.105  28.692  1.00  0.00     0.076 A 
HETATM   26  C3  UNL     1      30.206 -16.132  28.710  1.00  0.00     0.037 A 
HETATM   27  C4  UNL     1      30.926 -16.486  29.832  1.00  0.00     0.003 A 
HETATM   28  C5  UNL     1      30.744 -15.776  31.008  1.00  0.00     0.001 A 
HETATM   29  C6  UNL     1      29.824 -14.717  31.011  1.00  0.00     0.012 A 
BRANCH  25  30
HETATM   30  O1  UNL     1      28.569 -14.716  27.605  1.00  0.00    -0.355 OA
HETATM   31  C1  UNL     1      29.037 -14.744  26.271  1.00  0.00     0.210 C 
ENDBRANCH  25  30
ENDBRANCH  23  24
BRANCH  23  32
HETATM   32  N1  UNL     1      26.845 -13.655  29.488  1.00  0.00    -0.069 N 
ATOM     33  H13 UNL     1      26.361 -14.148  30.239  1.00  0.00     0.275 HD
ATOM     34  H12 UNL     1      26.233 -12.843  29.406  1.00  0.00     0.275 HD
ATOM     35  H11 UNL     1      26.847 -14.204  28.628  1.00  0.00     0.275 HD
ENDBRANCH  23  32
ENDBRANCH  22  23
ENDBRANCH  20  22
ENDBRANCH  17  20
ENDBRANCH   5   7
ENDBRANCH   4   5
BRANCH   4  36
HETATM   36  C19 UNL     1      23.905  -9.060  32.253  1.00  0.00    -0.032 A 
HETATM   37  C20 UNL     1      23.544 -10.077  31.399  1.00  0.00     0.009 A 
HETATM   38  C21 UNL     1      23.278 -11.354  31.873  1.00  0.00     0.002 A 
HETATM   39  C22 UNL     1      23.372 -11.623  33.227  1.00  0.00     0.024 A 
HETATM   40  C23 UNL     1      23.731 -10.613  34.082  1.00  0.00     0.034 A 
HETATM   41 CL1  UNL     1      23.850 -10.952  35.788  1.00  0.00    -0.084 Cl
HETATM   42  C24 UNL     1      23.993  -9.347  33.588  1.00  0.00     0.033 A 
ENDBRANCH   4  36
ENDBRANCH   1   4
TORSDOF 10
ENDMDL
