MODEL 3
REMARK VINA RESULT: -9.688099240      0.820      1.681
REMARK  10 active torsions:
REMARK  status: ('A' for Active; 'I' for Inactive)
REMARK    1  A    between atoms: O1_2  and  C2_3 
REMARK    2  A    between atoms: C7_8  and  C8_9 
REMARK    3  A    between atoms: C8_9  and  N1_10 
REMARK    4  A    between atoms: C8_9  and  C9_14 
REMARK    5  A    between atoms: C9_14  and  N2_15 
REMARK    6  A    between atoms: N2_15  and  C10_17 
REMARK    7  A    between atoms: C15_26  and  N5_27 
REMARK    8  A    between atoms: N5_27  and  C16_29 
REMARK    9  A    between atoms: C16_29  and  C17_30 
REMARK   10  A    between atoms: C16_29  and  C19_33 
ROOT
HETATM    1  C17 UNL     1      22.986  -6.882  32.103  1.00  0.00     0.154 C 
HETATM    2  C18 UNL     1      22.004  -6.798  31.019  1.00  0.00     0.061 C 
HETATM    3  N6  UNL     1      21.232  -6.750  30.147  1.00  0.00    -0.197 NA
ENDROOT
BRANCH   1   4
HETATM    4  C16 UNL     1      24.181  -7.714  31.633  1.00  0.00     0.145 C 
BRANCH   4   5
HETATM    5  N5  UNL     1      25.391  -7.107  32.079  1.00  0.00    -0.215 N 
ATOM      6  H5  UNL     1      25.375  -6.166  32.472  1.00  0.00     0.178 HD
BRANCH   5   7
HETATM    7  C15 UNL     1      26.621  -7.817  31.975  1.00  0.00     0.708 A 
HETATM    8  N4  UNL     1      27.660  -7.823  32.827  1.00  0.00    -0.019 N 
HETATM    9  C14 UNL     1      28.645  -8.635  32.363  1.00  0.00     0.720 A 
ATOM     10  H4  UNL     1      27.704  -7.294  33.698  1.00  0.00     0.203 HD
HETATM   11  N3  UNL     1      29.864  -8.982  32.827  1.00  0.00    -0.193 N 
HETATM   12  N8  UNL     1      28.202  -9.138  31.201  1.00  0.00    -0.055 N 
HETATM   13  C12 UNL     1      30.679  -9.823  32.182  1.00  0.00     0.026 A 
ATOM     14  H3  UNL     1      30.177  -8.584  33.712  1.00  0.00     0.184 HD
HETATM   15  C11 UNL     1      30.215 -10.348  30.969  1.00  0.00     0.076 A 
HETATM   16  C13 UNL     1      32.022 -10.219  32.671  1.00  0.00     0.069 C 
HETATM   17  C10 UNL     1      28.981 -10.004  30.483  1.00  0.00     0.143 A 
HETATM   18  N7  UNL     1      26.997  -8.654  30.967  1.00  0.00    -0.109 N 
ATOM     19  H7  UNL     1      26.430  -8.874  30.148  1.00  0.00     0.207 HD
BRANCH  17  20
HETATM   20  N2  UNL     1      28.444 -10.457  29.249  1.00  0.00    -0.372 N 
ATOM     21  H2  UNL     1      28.533  -9.882  28.411  1.00  0.00     0.161 HD
BRANCH  20  22
HETATM   22  C9  UNL     1      27.775 -11.729  29.182  1.00  0.00     0.159 C 
BRANCH  22  23
HETATM   23  C8  UNL     1      28.583 -12.843  29.784  1.00  0.00     0.236 C 
BRANCH  23  24
HETATM   24  C7  UNL     1      28.971 -13.861  28.803  1.00  0.00     0.007 A 
HETATM   25  C2  UNL     1      29.670 -14.991  29.238  1.00  0.00     0.076 A 
HETATM   26  C3  UNL     1      29.990 -15.930  28.300  1.00  0.00     0.037 A 
HETATM   27  C4  UNL     1      29.658 -15.810  26.967  1.00  0.00     0.003 A 
HETATM   28  C5  UNL     1      28.963 -14.690  26.538  1.00  0.00     0.001 A 
HETATM   29  C6  UNL     1      28.625 -13.712  27.486  1.00  0.00     0.012 A 
BRANCH  25  30
HETATM   30  O1  UNL     1      29.977 -15.064  30.571  1.00  0.00    -0.355 OA
HETATM   31  C1  UNL     1      30.690 -16.128  31.168  1.00  0.00     0.210 C 
ENDBRANCH  25  30
ENDBRANCH  23  24
BRANCH  23  32
HETATM   32  N1  UNL     1      27.782 -13.399  30.866  1.00  0.00    -0.069 N 
ATOM     33  H13 UNL     1      26.842 -13.634  30.546  1.00  0.00     0.275 HD
ATOM     34  H12 UNL     1      28.104 -14.332  31.122  1.00  0.00     0.275 HD
ATOM     35  H11 UNL     1      27.752 -12.783  31.679  1.00  0.00     0.275 HD
ENDBRANCH  23  32
ENDBRANCH  22  23
ENDBRANCH  20  22
ENDBRANCH  17  20
ENDBRANCH   5   7
ENDBRANCH   4   5
BRANCH   4  36
HETATM   36  C19 UNL     1      23.967  -9.067  32.214  1.00  0.00    -0.032 A 
HETATM   37  C20 UNL     1      23.713 -10.101  31.342  1.00  0.00     0.009 A 
HETATM   38  C21 UNL     1      23.500 -11.393  31.801  1.00  0.00     0.002 A 
HETATM   39  C22 UNL     1      23.539 -11.660  33.158  1.00  0.00     0.024 A 
HETATM   40  C23 UNL     1      23.791 -10.633  34.030  1.00  0.00     0.034 A 
HETATM   41 CL1  UNL     1      23.842 -10.970  35.741  1.00  0.00    -0.084 Cl
HETATM   42  C24 UNL     1      24.001  -9.352  33.551  1.00  0.00     0.033 A 
ENDBRANCH   4  36
ENDBRANCH   1   4
TORSDOF 10
ENDMDL
