MODEL 8
REMARK VINA RESULT: -9.185054869      1.163      1.893
REMARK  10 active torsions:
REMARK  status: ('A' for Active; 'I' for Inactive)
REMARK    1  A    between atoms: O1_2  and  C2_3 
REMARK    2  A    between atoms: C7_8  and  C8_9 
REMARK    3  A    between atoms: C8_9  and  N1_10 
REMARK    4  A    between atoms: C8_9  and  C9_14 
REMARK    5  A    between atoms: C9_14  and  N2_15 
REMARK    6  A    between atoms: N2_15  and  C10_17 
REMARK    7  A    between atoms: C15_26  and  N5_27 
REMARK    8  A    between atoms: N5_27  and  C16_29 
REMARK    9  A    between atoms: C16_29  and  C17_30 
REMARK   10  A    between atoms: C16_29  and  C19_33 
ROOT
HETATM    1  C17 UNL     1      22.838  -6.808  32.066  1.00  0.00     0.154 C 
HETATM    2  C18 UNL     1      21.880  -6.640  30.970  1.00  0.00     0.061 C 
HETATM    3  N6  UNL     1      21.125  -6.525  30.089  1.00  0.00    -0.197 NA
ENDROOT
BRANCH   1   4
HETATM    4  C16 UNL     1      23.997  -7.684  31.586  1.00  0.00     0.145 C 
BRANCH   4   5
HETATM    5  N5  UNL     1      25.234  -7.095  31.980  1.00  0.00    -0.215 N 
ATOM      6  H5  UNL     1      25.255  -6.140  32.336  1.00  0.00     0.178 HD
BRANCH   5   7
HETATM    7  C15 UNL     1      26.441  -7.845  31.876  1.00  0.00     0.708 A 
HETATM    8  N4  UNL     1      27.560  -7.740  32.613  1.00  0.00    -0.019 N 
HETATM    9  C14 UNL     1      28.486  -8.642  32.196  1.00  0.00     0.720 A 
ATOM     10  H4  UNL     1      27.695  -7.077  33.377  1.00  0.00     0.203 HD
HETATM   11  N3  UNL     1      29.741  -8.941  32.591  1.00  0.00    -0.193 N 
HETATM   12  N8  UNL     1      27.924  -9.315  31.180  1.00  0.00    -0.055 N 
HETATM   13  C12 UNL     1      30.479  -9.896  32.017  1.00  0.00     0.026 A 
ATOM     14  H3  UNL     1      30.145  -8.413  33.363  1.00  0.00     0.184 HD
HETATM   15  C11 UNL     1      29.892 -10.599  30.957  1.00  0.00     0.076 A 
HETATM   16  C13 UNL     1      31.861 -10.242  32.432  1.00  0.00     0.069 C 
HETATM   17  C10 UNL     1      28.619 -10.307  30.542  1.00  0.00     0.143 A 
HETATM   18  N7  UNL     1      26.707  -8.844  30.987  1.00  0.00    -0.109 N 
ATOM     19  H7  UNL     1      26.059  -9.180  30.274  1.00  0.00     0.207 HD
BRANCH  17  20
HETATM   20  N2  UNL     1      27.958 -10.940  29.457  1.00  0.00    -0.372 N 
ATOM     21  H2  UNL     1      27.909 -10.478  28.549  1.00  0.00     0.161 HD
BRANCH  20  22
HETATM   22  C9  UNL     1      27.357 -12.234  29.641  1.00  0.00     0.159 C 
BRANCH  22  23
HETATM   23  C8  UNL     1      28.296 -13.362  29.318  1.00  0.00     0.236 C 
BRANCH  23  24
HETATM   24  C7  UNL     1      27.718 -14.336  28.388  1.00  0.00     0.007 A 
HETATM   25  C2  UNL     1      28.550 -15.301  27.813  1.00  0.00     0.076 A 
HETATM   26  C3  UNL     1      27.972 -16.209  26.974  1.00  0.00     0.037 A 
HETATM   27  C4  UNL     1      26.625 -16.212  26.676  1.00  0.00     0.003 A 
HETATM   28  C5  UNL     1      25.801 -15.256  27.249  1.00  0.00     0.001 A 
HETATM   29  C6  UNL     1      26.376 -14.313  28.115  1.00  0.00     0.012 A 
BRANCH  25  30
HETATM   30  O1  UNL     1      29.881 -15.257  28.139  1.00  0.00    -0.355 OA
HETATM   31  C1  UNL     1      30.643 -16.380  28.531  1.00  0.00     0.210 C 
ENDBRANCH  25  30
ENDBRANCH  23  24
BRANCH  23  32
HETATM   32  N1  UNL     1      28.669 -13.967  30.589  1.00  0.00    -0.069 N 
ATOM     33  H13 UNL     1      28.153 -14.832  30.752  1.00  0.00     0.275 HD
ATOM     34  H12 UNL     1      29.615 -14.346  30.553  1.00  0.00     0.275 HD
ATOM     35  H11 UNL     1      28.561 -13.320  31.370  1.00  0.00     0.275 HD
ENDBRANCH  23  32
ENDBRANCH  22  23
ENDBRANCH  20  22
ENDBRANCH  17  20
ENDBRANCH   5   7
ENDBRANCH   4   5
BRANCH   4  36
HETATM   36  C19 UNL     1      23.767  -9.014  32.212  1.00  0.00    -0.032 A 
HETATM   37  C20 UNL     1      23.353 -10.040  31.393  1.00  0.00     0.009 A 
HETATM   38  C21 UNL     1      23.113 -11.310  31.898  1.00  0.00     0.002 A 
HETATM   39  C22 UNL     1      23.288 -11.564  33.246  1.00  0.00     0.024 A 
HETATM   40  C23 UNL     1      23.700 -10.544  34.066  1.00  0.00     0.034 A 
HETATM   41 CL1  UNL     1      23.921 -10.865  35.766  1.00  0.00    -0.084 Cl
HETATM   42  C24 UNL     1      23.934  -9.285  33.542  1.00  0.00     0.033 A 
ENDBRANCH   4  36
ENDBRANCH   1   4
TORSDOF 10
ENDMDL
