MODEL 9
REMARK VINA RESULT: -9.142287978      1.352      1.902
REMARK  10 active torsions:
REMARK  status: ('A' for Active; 'I' for Inactive)
REMARK    1  A    between atoms: O1_2  and  C2_3 
REMARK    2  A    between atoms: C7_8  and  C8_9 
REMARK    3  A    between atoms: C8_9  and  N1_10 
REMARK    4  A    between atoms: C8_9  and  C9_14 
REMARK    5  A    between atoms: C9_14  and  N2_15 
REMARK    6  A    between atoms: N2_15  and  C10_17 
REMARK    7  A    between atoms: C15_26  and  N5_27 
REMARK    8  A    between atoms: N5_27  and  C16_29 
REMARK    9  A    between atoms: C16_29  and  C17_30 
REMARK   10  A    between atoms: C16_29  and  C19_33 
ROOT
HETATM    1  C17 UNL     1      22.899  -6.755  32.122  1.00  0.00     0.154 C 
HETATM    2  C18 UNL     1      21.910  -6.664  31.045  1.00  0.00     0.061 C 
HETATM    3  N6  UNL     1      21.132  -6.611  30.179  1.00  0.00    -0.197 NA
ENDROOT
BRANCH   1   4
HETATM    4  C16 UNL     1      24.072  -7.617  31.653  1.00  0.00     0.145 C 
BRANCH   4   5
HETATM    5  N5  UNL     1      25.297  -7.044  32.105  1.00  0.00    -0.215 N 
ATOM      6  H5  UNL     1      25.302  -6.112  32.519  1.00  0.00     0.178 HD
BRANCH   5   7
HETATM    7  C15 UNL     1      26.512  -7.775  31.976  1.00  0.00     0.708 A 
HETATM    8  N4  UNL     1      27.586  -7.766  32.784  1.00  0.00    -0.019 N 
HETATM    9  C14 UNL     1      28.540  -8.608  32.310  1.00  0.00     0.720 A 
ATOM     10  H4  UNL     1      27.673  -7.205  33.632  1.00  0.00     0.203 HD
HETATM   11  N3  UNL     1      29.772  -8.955  32.736  1.00  0.00    -0.193 N 
HETATM   12  N8  UNL     1      28.042  -9.146  31.187  1.00  0.00    -0.055 N 
HETATM   13  C12 UNL     1      30.549  -9.831  32.089  1.00  0.00     0.026 A 
ATOM     14  H3  UNL     1      30.128  -8.530  33.591  1.00  0.00     0.184 HD
HETATM   15  C11 UNL     1      30.028 -10.394  30.917  1.00  0.00     0.076 A 
HETATM   16  C13 UNL     1      31.906 -10.228  32.536  1.00  0.00     0.069 C 
HETATM   17  C10 UNL     1      28.779 -10.050  30.469  1.00  0.00     0.143 A 
HETATM   18  N7  UNL     1      26.835  -8.654  30.985  1.00  0.00    -0.109 N 
ATOM     19  H7  UNL     1      26.231  -8.896  30.200  1.00  0.00     0.207 HD
BRANCH  17  20
HETATM   20  N2  UNL     1      28.185 -10.540  29.277  1.00  0.00    -0.372 N 
ATOM     21  H2  UNL     1      28.270 -10.011  28.409  1.00  0.00     0.161 HD
BRANCH  20  22
HETATM   22  C9  UNL     1      27.461 -11.784  29.295  1.00  0.00     0.159 C 
BRANCH  22  23
HETATM   23  C8  UNL     1      28.362 -12.977  29.442  1.00  0.00     0.236 C 
BRANCH  23  24
HETATM   24  C7  UNL     1      28.218 -13.939  28.346  1.00  0.00     0.007 A 
HETATM   25  C2  UNL     1      26.984 -14.568  28.153  1.00  0.00     0.076 A 
HETATM   26  C3  UNL     1      26.881 -15.437  27.105  1.00  0.00     0.037 A 
HETATM   27  C4  UNL     1      27.924 -15.714  26.247  1.00  0.00     0.003 A 
HETATM   28  C5  UNL     1      29.146 -15.089  26.439  1.00  0.00     0.001 A 
HETATM   29  C6  UNL     1      29.274 -14.191  27.511  1.00  0.00     0.012 A 
BRANCH  25  30
HETATM   30  O1  UNL     1      25.979 -14.261  29.031  1.00  0.00    -0.355 OA
HETATM   31  C1  UNL     1      24.605 -14.256  28.701  1.00  0.00     0.210 C 
ENDBRANCH  25  30
ENDBRANCH  23  24
BRANCH  23  32
HETATM   32  N1  UNL     1      28.057 -13.569  30.738  1.00  0.00    -0.069 N 
ATOM     33  H13 UNL     1      28.233 -14.574  30.736  1.00  0.00     0.275 HD
ATOM     34  H12 UNL     1      28.739 -13.286  31.442  1.00  0.00     0.275 HD
ATOM     35  H11 UNL     1      27.106 -13.361  31.042  1.00  0.00     0.275 HD
ENDBRANCH  23  32
ENDBRANCH  22  23
ENDBRANCH  20  22
ENDBRANCH  17  20
ENDBRANCH   5   7
ENDBRANCH   4   5
BRANCH   4  36
HETATM   36  C19 UNL     1      23.820  -8.966  32.230  1.00  0.00    -0.032 A 
HETATM   37  C20 UNL     1      23.409  -9.959  31.370  1.00  0.00     0.009 A 
HETATM   38  C21 UNL     1      23.150 -11.243  31.827  1.00  0.00     0.002 A 
HETATM   39  C22 UNL     1      23.303 -11.545  33.168  1.00  0.00     0.024 A 
HETATM   40  C23 UNL     1      23.713 -10.558  34.028  1.00  0.00     0.034 A 
HETATM   41 CL1  UNL     1      23.907 -10.939  35.719  1.00  0.00    -0.084 Cl
HETATM   42  C24 UNL     1      23.966  -9.285  33.552  1.00  0.00     0.033 A 
ENDBRANCH   4  36
ENDBRANCH   1   4
TORSDOF 10
ENDMDL
