MODEL 4
REMARK VINA RESULT: -9.374955037      3.613      8.405
REMARK  10 active torsions:
REMARK  status: ('A' for Active; 'I' for Inactive)
REMARK    1  A    between atoms: O1_2  and  C2_3 
REMARK    2  A    between atoms: C7_8  and  C8_9 
REMARK    3  A    between atoms: C8_9  and  N1_10 
REMARK    4  A    between atoms: C8_9  and  C9_14 
REMARK    5  A    between atoms: C9_14  and  N2_15 
REMARK    6  A    between atoms: N2_15  and  C10_17 
REMARK    7  A    between atoms: C15_26  and  N5_27 
REMARK    8  A    between atoms: N5_27  and  C16_29 
REMARK    9  A    between atoms: C16_29  and  C17_30 
REMARK   10  A    between atoms: C16_29  and  C19_33 
ROOT
HETATM    1  C17 UNL     1      28.779 -12.274  29.044  1.00  0.00     0.154 C 
HETATM    2  C18 UNL     1      29.482 -11.506  30.075  1.00  0.00     0.061 C 
HETATM    3  N6  UNL     1      30.042 -10.913  30.908  1.00  0.00    -0.197 NA
ENDROOT
BRANCH   1   4
HETATM    4  C16 UNL     1      28.131 -13.501  29.689  1.00  0.00     0.145 C 
BRANCH   4   5
HETATM    5  N5  UNL     1      26.952 -13.852  28.969  1.00  0.00    -0.215 N 
ATOM      6  H5  UNL     1      26.862 -14.781  28.558  1.00  0.00     0.178 HD
BRANCH   5   7
HETATM    7  C15 UNL     1      25.900 -12.902  28.824  1.00  0.00     0.708 A 
HETATM    8  N4  UNL     1      25.664 -12.062  27.802  1.00  0.00    -0.019 N 
HETATM    9  C14 UNL     1      24.555 -11.318  28.051  1.00  0.00     0.720 A 
ATOM     10  H4  UNL     1      26.236 -11.992  26.960  1.00  0.00     0.203 HD
HETATM   11  N3  UNL     1      23.905 -10.355  27.364  1.00  0.00    -0.193 N 
HETATM   12  N8  UNL     1      24.101 -11.709  29.250  1.00  0.00    -0.055 N 
HETATM   13  C12 UNL     1      22.803  -9.751  27.819  1.00  0.00     0.026 A 
ATOM     14  H3  UNL     1      24.273 -10.075  26.456  1.00  0.00     0.184 HD
HETATM   15  C11 UNL     1      22.328 -10.161  29.072  1.00  0.00     0.076 A 
HETATM   16  C13 UNL     1      22.071  -8.690  27.084  1.00  0.00     0.069 C 
HETATM   17  C10 UNL     1      22.977 -11.136  29.783  1.00  0.00     0.143 A 
HETATM   18  N7  UNL     1      24.898 -12.652  29.714  1.00  0.00    -0.109 N 
ATOM     19  H7  UNL     1      24.781 -13.126  30.610  1.00  0.00     0.207 HD
BRANCH  17  20
HETATM   20  N2  UNL     1      22.592 -11.588  31.072  1.00  0.00    -0.372 N 
ATOM     21  H2  UNL     1      21.661 -11.979  31.219  1.00  0.00     0.161 HD
BRANCH  20  22
HETATM   22  C9  UNL     1      23.515 -11.493  32.172  1.00  0.00     0.159 C 
BRANCH  22  23
HETATM   23  C8  UNL     1      23.577 -10.113  32.761  1.00  0.00     0.236 C 
BRANCH  23  24
HETATM   24  C7  UNL     1      24.743  -9.351  32.307  1.00  0.00     0.007 A 
HETATM   25  C2  UNL     1      24.704  -7.955  32.357  1.00  0.00     0.076 A 
HETATM   26  C3  UNL     1      25.819  -7.280  31.951  1.00  0.00     0.037 A 
HETATM   27  C4  UNL     1      26.962  -7.910  31.503  1.00  0.00     0.003 A 
HETATM   28  C5  UNL     1      27.000  -9.294  31.456  1.00  0.00     0.001 A 
HETATM   29  C6  UNL     1      25.864 -10.007  31.868  1.00  0.00     0.012 A 
BRANCH  25  30
HETATM   30  O1  UNL     1      23.547  -7.376  32.809  1.00  0.00    -0.355 OA
HETATM   31  C1  UNL     1      22.622  -6.694  31.985  1.00  0.00     0.210 C 
ENDBRANCH  25  30
ENDBRANCH  23  24
BRANCH  23  32
HETATM   32  N1  UNL     1      23.556 -10.279  34.208  1.00  0.00    -0.069 N 
ATOM     33  H13 UNL     1      23.983 -11.163  34.484  1.00  0.00     0.275 HD
ATOM     34  H12 UNL     1      24.205  -9.636  34.662  1.00  0.00     0.275 HD
ATOM     35  H11 UNL     1      22.616 -10.187  34.592  1.00  0.00     0.275 HD
ENDBRANCH  23  32
ENDBRANCH  22  23
ENDBRANCH  20  22
ENDBRANCH  17  20
ENDBRANCH   5   7
ENDBRANCH   4   5
BRANCH   4  36
HETATM   36  C19 UNL     1      29.173 -14.562  29.641  1.00  0.00    -0.032 A 
HETATM   37  C20 UNL     1      29.763 -14.929  30.829  1.00  0.00     0.009 A 
HETATM   38  C21 UNL     1      30.745 -15.909  30.871  1.00  0.00     0.002 A 
HETATM   39  C22 UNL     1      31.147 -16.537  29.707  1.00  0.00     0.024 A 
HETATM   40  C23 UNL     1      30.562 -16.174  28.520  1.00  0.00     0.034 A 
HETATM   41 CL1  UNL     1      31.069 -16.966  27.051  1.00  0.00    -0.084 Cl
HETATM   42  C24 UNL     1      29.585 -15.195  28.500  1.00  0.00     0.033 A 
ENDBRANCH   4  36
ENDBRANCH   1   4
TORSDOF 10
ENDMDL
