MODEL 7
REMARK VINA RESULT: -9.196529224      3.104      5.634
REMARK  10 active torsions:
REMARK  status: ('A' for Active; 'I' for Inactive)
REMARK    1  A    between atoms: O1_2  and  C2_3 
REMARK    2  A    between atoms: C7_8  and  C8_9 
REMARK    3  A    between atoms: C8_9  and  N1_10 
REMARK    4  A    between atoms: C8_9  and  C9_14 
REMARK    5  A    between atoms: C9_14  and  N2_15 
REMARK    6  A    between atoms: N2_15  and  C10_17 
REMARK    7  A    between atoms: C15_26  and  N5_27 
REMARK    8  A    between atoms: N5_27  and  C16_29 
REMARK    9  A    between atoms: C16_29  and  C17_30 
REMARK   10  A    between atoms: C16_29  and  C19_33 
ROOT
HETATM    1  C17 UNL     1      21.781  -9.438  28.271  1.00  0.00     0.154 C 
HETATM    2  C18 UNL     1      22.431  -8.824  27.110  1.00  0.00     0.061 C 
HETATM    3  N6  UNL     1      22.965  -8.348  26.190  1.00  0.00    -0.197 NA
ENDROOT
BRANCH   1   4
HETATM    4  C16 UNL     1      22.854 -10.014  29.197  1.00  0.00     0.145 C 
BRANCH   4   5
HETATM    5  N5  UNL     1      24.033 -10.294  28.446  1.00  0.00    -0.215 N 
ATOM      6  H5  UNL     1      24.594  -9.529  28.073  1.00  0.00     0.178 HD
BRANCH   5   7
HETATM    7  C15 UNL     1      24.425 -11.644  28.219  1.00  0.00     0.708 A 
HETATM    8  N4  UNL     1      23.673 -12.757  28.274  1.00  0.00    -0.019 N 
HETATM    9  C14 UNL     1      24.427 -13.850  27.989  1.00  0.00     0.720 A 
ATOM     10  H4  UNL     1      22.678 -12.777  28.499  1.00  0.00     0.203 HD
HETATM   11  N3  UNL     1      24.162 -15.170  27.911  1.00  0.00    -0.193 N 
HETATM   12  N8  UNL     1      25.668 -13.400  27.754  1.00  0.00    -0.055 N 
HETATM   13  C12 UNL     1      25.087 -16.084  27.603  1.00  0.00     0.026 A 
ATOM     14  H3  UNL     1      23.211 -15.486  28.097  1.00  0.00     0.184 HD
HETATM   15  C11 UNL     1      26.384 -15.613  27.357  1.00  0.00     0.076 A 
HETATM   16  C13 UNL     1      24.822 -17.541  27.512  1.00  0.00     0.069 C 
HETATM   17  C10 UNL     1      26.670 -14.275  27.434  1.00  0.00     0.143 A 
HETATM   18  N7  UNL     1      25.671 -12.087  27.889  1.00  0.00    -0.109 N 
ATOM     19  H7  UNL     1      26.489 -11.491  27.765  1.00  0.00     0.207 HD
BRANCH  17  20
HETATM   20  N2  UNL     1      27.958 -13.712  27.236  1.00  0.00    -0.372 N 
ATOM     21  H2  UNL     1      28.166 -13.200  26.379  1.00  0.00     0.161 HD
BRANCH  20  22
HETATM   22  C9  UNL     1      28.971 -13.867  28.247  1.00  0.00     0.159 C 
BRANCH  22  23
HETATM   23  C8  UNL     1      28.451 -13.614  29.633  1.00  0.00     0.236 C 
BRANCH  23  24
HETATM   24  C7  UNL     1      28.461 -12.194  29.996  1.00  0.00     0.007 A 
HETATM   25  C2  UNL     1      27.543 -11.729  30.942  1.00  0.00     0.076 A 
HETATM   26  C3  UNL     1      27.600 -10.406  31.274  1.00  0.00     0.037 A 
HETATM   27  C4  UNL     1      28.510  -9.527  30.724  1.00  0.00     0.003 A 
HETATM   28  C5  UNL     1      29.421  -9.991  29.788  1.00  0.00     0.001 A 
HETATM   29  C6  UNL     1      29.379 -11.348  29.432  1.00  0.00     0.012 A 
BRANCH  25  30
HETATM   30  O1  UNL     1      26.659 -12.639  31.459  1.00  0.00    -0.355 OA
HETATM   31  C1  UNL     1      25.304 -12.359  31.750  1.00  0.00     0.210 C 
ENDBRANCH  25  30
ENDBRANCH  23  24
BRANCH  23  32
HETATM   32  N1  UNL     1      29.266 -14.418  30.534  1.00  0.00    -0.069 N 
ATOM     33  H13 UNL     1      29.086 -14.176  31.509  1.00  0.00     0.275 HD
ATOM     34  H12 UNL     1      28.952 -15.388  30.547  1.00  0.00     0.275 HD
ATOM     35  H11 UNL     1      30.260 -14.355  30.315  1.00  0.00     0.275 HD
ENDBRANCH  23  32
ENDBRANCH  22  23
ENDBRANCH  20  22
ENDBRANCH  17  20
ENDBRANCH   5   7
ENDBRANCH   4   5
BRANCH   4  36
HETATM   36  C19 UNL     1      23.068  -8.974  30.240  1.00  0.00    -0.032 A 
HETATM   37  C20 UNL     1      22.124  -7.979  30.350  1.00  0.00     0.009 A 
HETATM   38  C21 UNL     1      22.250  -6.970  31.295  1.00  0.00     0.002 A 
HETATM   39  C22 UNL     1      23.339  -6.952  32.147  1.00  0.00     0.024 A 
HETATM   40  C23 UNL     1      24.282  -7.942  32.040  1.00  0.00     0.034 A 
HETATM   41 CL1  UNL     1      25.656  -7.919  33.116  1.00  0.00    -0.084 Cl
HETATM   42  C24 UNL     1      24.137  -8.938  31.092  1.00  0.00     0.033 A 
ENDBRANCH   4  36
ENDBRANCH   1   4
TORSDOF 10
ENDMDL
