MODEL 4
REMARK VINA RESULT: -10.809166539      3.672     10.048
REMARK  6 active torsions:
REMARK  status: ('A' for Active; 'I' for Inactive)
REMARK    1  A    between atoms: C3_4  and  C4_5 
REMARK    2  A    between atoms: N2_8  and  C7_9 
REMARK    3  A    between atoms: C7_9  and  O1_10 
REMARK    4  A    between atoms: C7_9  and  C8_12 
REMARK    5  A    between atoms: C18_22  and  N3_23 
REMARK       I    between atoms: N3_23  and  C19_25 
REMARK    6  A    between atoms: C19_25  and  C20_27 
ROOT
HETATM    1  C20 UNL     1      -8.309  29.537  -2.272  1.00  0.00     0.102 A 
HETATM    2  C21 UNL     1      -7.805  29.906  -3.537  1.00  0.00     0.058 A 
HETATM    3  C22 UNL     1      -6.917  30.929  -3.728  1.00  0.00     0.048 A 
HETATM    4  C23 UNL     1      -6.396  31.237  -5.032  1.00  0.00     0.099 C 
HETATM    5  N4  UNL     1      -5.986  31.515  -6.089  1.00  0.00    -0.191 NA
HETATM    6  C24 UNL     1      -6.499  31.637  -2.613  1.00  0.00     0.039 A 
HETATM    7  C25 UNL     1      -7.009  31.256  -1.381  1.00  0.00     0.090 A 
HETATM    8  N5  UNL     1      -7.877  30.246  -1.234  1.00  0.00    -0.361 N 
ATOM      9  H5  UNL     1      -8.216  30.014  -0.300  1.00  0.00     0.165 HD
ENDROOT
BRANCH   1  10
HETATM   10  C19 UNL     1      -9.262  28.441  -2.202  1.00  0.00     0.272 C 
HETATM   11  N3  UNL     1     -10.466  28.369  -2.922  1.00  0.00    -0.322 N 
ATOM     12  H3  UNL     1     -10.653  29.128  -3.578  1.00  0.00     0.169 HD
HETATM   13  O2  UNL     1      -8.947  27.507  -1.393  1.00  0.00    -0.266 OA
BRANCH  11  14
HETATM   14  C18 UNL     1     -11.461  27.338  -2.831  1.00  0.00     0.036 A 
HETATM   15  C17 UNL     1     -11.460  26.323  -3.763  1.00  0.00     0.044 A 
HETATM   16  C16 UNL     1     -12.512  25.406  -3.785  1.00  0.00     0.005 A 
HETATM   17  C3  UNL     1     -12.829  24.367  -4.652  1.00  0.00    -0.005 A 
HETATM   18  C28 UNL     1     -13.579  25.484  -2.878  1.00  0.00     0.045 A 
HETATM   19  C2  UNL     1     -14.072  23.883  -4.207  1.00  0.00     0.103 A 
HETATM   20  N1  UNL     1     -14.510  24.555  -3.146  1.00  0.00    -0.360 N 
HETATM   21  C1  UNL     1     -15.738  24.292  -2.425  1.00  0.00     0.156 C 
HETATM   22  C27 UNL     1     -13.545  26.518  -1.934  1.00  0.00     0.033 A 
HETATM   23  C26 UNL     1     -12.510  27.389  -1.948  1.00  0.00     0.032 A 
BRANCH  17  24
HETATM   24  C4  UNL     1     -12.028  23.706  -5.661  1.00  0.00    -0.064 C 
HETATM   25  C5  UNL     1     -10.553  23.892  -5.548  1.00  0.00     0.055 C 
HETATM   26  C6  UNL     1      -9.828  23.612  -6.801  1.00  0.00     0.129 C 
HETATM   27  N2  UNL     1     -10.703  23.386  -7.975  1.00  0.00    -0.365 N 
HETATM   28  C14 UNL     1     -11.908  22.616  -7.857  1.00  0.00     0.129 C 
HETATM   29  C15 UNL     1     -12.440  22.529  -6.399  1.00  0.00     0.055 C 
BRANCH  27  30
HETATM   30  C7  UNL     1     -10.170  23.955  -9.158  1.00  0.00     0.117 C 
BRANCH  30  31
HETATM   31  O1  UNL     1     -10.685  25.096  -9.557  1.00  0.00    -0.349 OA
ATOM     32  H1  UNL     1     -10.204  25.580 -10.219  1.00  0.00     0.219 HD
ENDBRANCH  30  31
BRANCH  30  33
HETATM   33  C8  UNL     1      -9.107  23.482 -10.056  1.00  0.00     0.060 C 
HETATM   34  C9  UNL     1      -9.313  22.075 -10.555  1.00  0.00     0.013 C 
HETATM   35  C10 UNL     1      -8.259  21.649 -11.511  1.00  0.00     0.001 C 
HETATM   36  C11 UNL     1      -7.992  22.583 -12.643  1.00  0.00     0.000 C 
HETATM   37  C12 UNL     1      -7.970  24.023 -12.211  1.00  0.00     0.001 C 
HETATM   38  C13 UNL     1      -9.099  24.383 -11.322  1.00  0.00     0.013 C 
ENDBRANCH  30  33
ENDBRANCH  27  30
ENDBRANCH  17  24
ENDBRANCH  11  14
ENDBRANCH   1  10
TORSDOF 6
ENDMDL
