MODEL 3
REMARK VINA RESULT: -11.038776083      3.962     10.056
REMARK  6 active torsions:
REMARK  status: ('A' for Active; 'I' for Inactive)
REMARK    1  A    between atoms: C3_4  and  C4_5 
REMARK    2  A    between atoms: N2_8  and  C7_9 
REMARK    3  A    between atoms: C7_9  and  O1_10 
REMARK    4  A    between atoms: C7_9  and  C8_12 
REMARK    5  A    between atoms: C18_22  and  N3_23 
REMARK       I    between atoms: N3_23  and  C19_25 
REMARK    6  A    between atoms: C19_25  and  C20_27 
ROOT
HETATM    1  C20 UNL     1      -8.612  29.480  -2.383  1.00  0.00     0.102 A 
HETATM    2  C21 UNL     1      -8.231  30.068  -1.158  1.00  0.00     0.058 A 
HETATM    3  C22 UNL     1      -7.386  31.141  -1.065  1.00  0.00     0.048 A 
HETATM    4  C23 UNL     1      -7.065  31.734   0.204  1.00  0.00     0.099 C 
HETATM    5  N4  UNL     1      -6.773  32.208   1.230  1.00  0.00    -0.191 NA
HETATM    6  C24 UNL     1      -6.882  31.669  -2.242  1.00  0.00     0.039 A 
HETATM    7  C25 UNL     1      -7.270  31.073  -3.433  1.00  0.00     0.090 A 
HETATM    8  N5  UNL     1      -8.102  30.023  -3.484  1.00  0.00    -0.361 N 
ATOM      9  H5  UNL     1      -8.350  29.630  -4.391  1.00  0.00     0.165 HD
ENDROOT
BRANCH   1  10
HETATM   10  C19 UNL     1      -9.503  28.332  -2.349  1.00  0.00     0.272 C 
HETATM   11  N3  UNL     1     -10.772  28.275  -2.950  1.00  0.00    -0.322 N 
ATOM     12  H3  UNL     1     -11.060  29.092  -3.489  1.00  0.00     0.169 HD
HETATM   13  O2  UNL     1      -9.064  27.331  -1.693  1.00  0.00    -0.266 OA
BRANCH  11  14
HETATM   14  C18 UNL     1     -11.705  27.185  -2.883  1.00  0.00     0.036 A 
HETATM   15  C17 UNL     1     -11.630  26.182  -3.825  1.00  0.00     0.044 A 
HETATM   16  C16 UNL     1     -12.625  25.205  -3.872  1.00  0.00     0.005 A 
HETATM   17  C3  UNL     1     -12.868  24.158  -4.754  1.00  0.00    -0.005 A 
HETATM   18  C28 UNL     1     -13.709  25.210  -2.980  1.00  0.00     0.045 A 
HETATM   19  C2  UNL     1     -14.086  23.597  -4.332  1.00  0.00     0.103 A 
HETATM   20  N1  UNL     1     -14.579  24.230  -3.272  1.00  0.00    -0.360 N 
HETATM   21  C1  UNL     1     -15.799  23.888  -2.572  1.00  0.00     0.156 C 
HETATM   22  C27 UNL     1     -13.750  26.234  -2.026  1.00  0.00     0.033 A 
HETATM   23  C26 UNL     1     -12.768  27.165  -2.016  1.00  0.00     0.032 A 
BRANCH  17  24
HETATM   24  C4  UNL     1     -12.015  23.557  -5.756  1.00  0.00    -0.064 C 
HETATM   25  C5  UNL     1     -10.555  23.830  -5.622  1.00  0.00     0.055 C 
HETATM   26  C6  UNL     1      -9.797  23.606  -6.866  1.00  0.00     0.129 C 
HETATM   27  N2  UNL     1     -10.641  23.338  -8.054  1.00  0.00    -0.365 N 
HETATM   28  C14 UNL     1     -11.798  22.495  -7.959  1.00  0.00     0.129 C 
HETATM   29  C15 UNL     1     -12.344  22.363  -6.509  1.00  0.00     0.055 C 
BRANCH  27  30
HETATM   30  C7  UNL     1     -10.128  23.949  -9.225  1.00  0.00     0.117 C 
BRANCH  30  31
HETATM   31  O1  UNL     1     -10.668  25.091  -9.589  1.00  0.00    -0.349 OA
ATOM     32  H1  UNL     1     -11.391  25.050 -10.204  1.00  0.00     0.219 HD
ENDBRANCH  30  31
BRANCH  30  33
HETATM   33  C8  UNL     1      -9.063  23.521 -10.143  1.00  0.00     0.060 C 
HETATM   34  C9  UNL     1      -9.272  22.144 -10.719  1.00  0.00     0.013 C 
HETATM   35  C10 UNL     1      -8.216  21.766 -11.693  1.00  0.00     0.001 C 
HETATM   36  C11 UNL     1      -7.941  22.759 -12.771  1.00  0.00     0.000 C 
HETATM   37  C12 UNL     1      -7.914  24.173 -12.260  1.00  0.00     0.001 C 
HETATM   38  C13 UNL     1      -9.046  24.489 -11.358  1.00  0.00     0.013 C 
ENDBRANCH  30  33
ENDBRANCH  27  30
ENDBRANCH  17  24
ENDBRANCH  11  14
ENDBRANCH   1  10
TORSDOF 6
ENDMDL
