MODEL 1
REMARK VINA RESULT: -14.248273275      0.000      0.000
REMARK  6 active torsions:
REMARK  status: ('A' for Active; 'I' for Inactive)
REMARK    1  A    between atoms: C3_4  and  C4_5 
REMARK    2  A    between atoms: N2_8  and  C7_9 
REMARK    3  A    between atoms: C7_9  and  O1_10 
REMARK    4  A    between atoms: C7_9  and  C8_12 
REMARK    5  A    between atoms: C18_22  and  N3_23 
REMARK       I    between atoms: N3_23  and  C19_25 
REMARK    6  A    between atoms: C19_25  and  C20_27 
ROOT
HETATM    1  C20 UNL     1     -11.781  25.790  -3.620  1.00  0.00     0.102 A 
HETATM    2  C21 UNL     1     -13.059  25.386  -3.179  1.00  0.00     0.058 A 
HETATM    3  C22 UNL     1     -13.697  24.265  -3.634  1.00  0.00     0.048 A 
HETATM    4  C23 UNL     1     -14.979  23.870  -3.119  1.00  0.00     0.099 C 
HETATM    5  N4  UNL     1     -16.033  23.552  -2.729  1.00  0.00    -0.191 NA
HETATM    6  C24 UNL     1     -13.046  23.493  -4.583  1.00  0.00     0.039 A 
HETATM    7  C25 UNL     1     -11.792  23.911  -5.002  1.00  0.00     0.090 A 
HETATM    8  N5  UNL     1     -11.198  25.016  -4.530  1.00  0.00    -0.361 N 
ATOM      9  H5  UNL     1     -10.274  25.270  -4.878  1.00  0.00     0.165 HD
ENDROOT
BRANCH   1  10
HETATM   10  C19 UNL     1     -11.216  27.012  -3.071  1.00  0.00     0.272 C 
HETATM   11  N3  UNL     1      -9.859  27.208  -2.764  1.00  0.00    -0.322 N 
ATOM     12  H3  UNL     1      -9.223  26.444  -2.991  1.00  0.00     0.169 HD
HETATM   13  O2  UNL     1     -12.060  27.942  -2.850  1.00  0.00    -0.266 OA
BRANCH  11  14
HETATM   14  C18 UNL     1      -9.276  28.374  -2.162  1.00  0.00     0.036 A 
HETATM   15  C17 UNL     1      -8.455  29.180  -2.922  1.00  0.00     0.044 A 
HETATM   16  C16 UNL     1      -7.755  30.221  -2.312  1.00  0.00     0.005 A 
HETATM   17  C3  UNL     1      -6.797  31.110  -2.788  1.00  0.00    -0.005 A 
HETATM   18  C28 UNL     1      -7.862  30.478  -0.937  1.00  0.00     0.045 A 
HETATM   19  C2  UNL     1      -6.390  31.849  -1.664  1.00  0.00     0.103 A 
HETATM   20  N1  UNL     1      -7.033  31.466  -0.564  1.00  0.00    -0.360 N 
HETATM   21  C1  UNL     1      -6.872  32.042   0.755  1.00  0.00     0.156 C 
HETATM   22  C27 UNL     1      -8.713  29.651  -0.194  1.00  0.00     0.033 A 
HETATM   23  C26 UNL     1      -9.372  28.650  -0.821  1.00  0.00     0.032 A 
BRANCH  17  24
HETATM   24  C4  UNL     1      -6.411  31.438  -4.144  1.00  0.00    -0.064 C 
HETATM   25  C5  UNL     1      -5.075  32.079  -4.306  1.00  0.00     0.055 C 
HETATM   26  C6  UNL     1      -4.918  32.796  -5.585  1.00  0.00     0.129 C 
HETATM   27  N2  UNL     1      -6.164  32.907  -6.378  1.00  0.00    -0.365 N 
HETATM   28  C14 UNL     1      -7.072  31.802  -6.480  1.00  0.00     0.129 C 
HETATM   29  C15 UNL     1      -6.914  30.770  -5.328  1.00  0.00     0.055 C 
BRANCH  27  30
HETATM   30  C7  UNL     1      -6.277  34.163  -7.025  1.00  0.00     0.117 C 
BRANCH  30  31
HETATM   31  O1  UNL     1      -7.486  34.564  -7.345  1.00  0.00    -0.349 OA
ATOM     32  H1  UNL     1      -8.070  34.791  -6.630  1.00  0.00     0.219 HD
ENDBRANCH  30  31
BRANCH  30  33
HETATM   33  C8  UNL     1      -5.248  35.135  -7.421  1.00  0.00     0.060 C 
HETATM   34  C9  UNL     1      -5.446  35.704  -8.802  1.00  0.00     0.013 C 
HETATM   35  C10 UNL     1      -4.429  36.731  -9.147  1.00  0.00     0.001 C 
HETATM   36  C11 UNL     1      -4.237  37.819  -8.144  1.00  0.00     0.000 C 
HETATM   37  C12 UNL     1      -4.226  37.305  -6.731  1.00  0.00     0.001 C 
HETATM   38  C13 UNL     1      -5.319  36.347  -6.450  1.00  0.00     0.013 C 
ENDBRANCH  30  33
ENDBRANCH  27  30
ENDBRANCH  17  24
ENDBRANCH  11  14
ENDBRANCH   1  10
TORSDOF 6
ENDMDL
