MODEL 2
REMARK VINA RESULT: -13.392878759      0.829      1.724
REMARK  6 active torsions:
REMARK  status: ('A' for Active; 'I' for Inactive)
REMARK    1  A    between atoms: C3_4  and  C4_5 
REMARK    2  A    between atoms: N2_8  and  C7_9 
REMARK    3  A    between atoms: C7_9  and  O1_10 
REMARK    4  A    between atoms: C7_9  and  C8_12 
REMARK    5  A    between atoms: C18_22  and  N3_23 
REMARK       I    between atoms: N3_23  and  C19_25 
REMARK    6  A    between atoms: C19_25  and  C20_27 
ROOT
HETATM    1  C20 UNL     1     -11.975  25.762  -3.706  1.00  0.00     0.102 A 
HETATM    2  C21 UNL     1     -11.264  25.112  -4.737  1.00  0.00     0.058 A 
HETATM    3  C22 UNL     1     -11.702  23.972  -5.356  1.00  0.00     0.048 A 
HETATM    4  C23 UNL     1     -10.964  23.374  -6.435  1.00  0.00     0.099 C 
HETATM    5  N4  UNL     1     -10.361  22.861  -7.293  1.00  0.00    -0.191 NA
HETATM    6  C24 UNL     1     -12.907  23.434  -4.937  1.00  0.00     0.039 A 
HETATM    7  C25 UNL     1     -13.587  24.089  -3.921  1.00  0.00     0.090 A 
HETATM    8  N5  UNL     1     -13.126  25.207  -3.341  1.00  0.00    -0.361 N 
ATOM      9  H5  UNL     1     -13.673  25.642  -2.599  1.00  0.00     0.165 HD
ENDROOT
BRANCH   1  10
HETATM   10  C19 UNL     1     -11.396  26.958  -3.117  1.00  0.00     0.272 C 
HETATM   11  N3  UNL     1     -10.023  27.173  -2.907  1.00  0.00    -0.322 N 
ATOM     12  H3  UNL     1      -9.390  26.447  -3.242  1.00  0.00     0.169 HD
HETATM   13  O2  UNL     1     -12.241  27.843  -2.758  1.00  0.00    -0.266 OA
BRANCH  11  14
HETATM   14  C18 UNL     1      -9.420  28.310  -2.271  1.00  0.00     0.036 A 
HETATM   15  C17 UNL     1      -8.572  29.115  -3.001  1.00  0.00     0.044 A 
HETATM   16  C16 UNL     1      -7.855  30.124  -2.357  1.00  0.00     0.005 A 
HETATM   17  C3  UNL     1      -6.872  31.001  -2.801  1.00  0.00    -0.005 A 
HETATM   18  C28 UNL     1      -7.972  30.350  -0.978  1.00  0.00     0.045 A 
HETATM   19  C2  UNL     1      -6.461  31.703  -1.654  1.00  0.00     0.103 A 
HETATM   20  N1  UNL     1      -7.125  31.308  -0.571  1.00  0.00    -0.360 N 
HETATM   21  C1  UNL     1      -6.967  31.848   0.763  1.00  0.00     0.156 C 
HETATM   22  C27 UNL     1      -8.852  29.525  -0.265  1.00  0.00     0.033 A 
HETATM   23  C26 UNL     1      -9.526  28.555  -0.924  1.00  0.00     0.032 A 
BRANCH  17  24
HETATM   24  C4  UNL     1      -6.462  31.353  -4.144  1.00  0.00    -0.064 C 
HETATM   25  C5  UNL     1      -5.143  32.037  -4.267  1.00  0.00     0.055 C 
HETATM   26  C6  UNL     1      -4.976  32.770  -5.535  1.00  0.00     0.129 C 
HETATM   27  N2  UNL     1      -6.204  32.849  -6.359  1.00  0.00    -0.365 N 
HETATM   28  C14 UNL     1      -7.075  31.717  -6.492  1.00  0.00     0.129 C 
HETATM   29  C15 UNL     1      -6.914  30.680  -5.345  1.00  0.00     0.055 C 
BRANCH  27  30
HETATM   30  C7  UNL     1      -6.341  34.107  -6.998  1.00  0.00     0.117 C 
BRANCH  30  31
HETATM   31  O1  UNL     1      -7.561  34.510  -7.269  1.00  0.00    -0.349 OA
ATOM     32  H1  UNL     1      -7.666  35.411  -7.551  1.00  0.00     0.219 HD
ENDBRANCH  30  31
BRANCH  30  33
HETATM   33  C8  UNL     1      -5.326  35.077  -7.432  1.00  0.00     0.060 C 
HETATM   34  C9  UNL     1      -5.597  35.676  -8.789  1.00  0.00     0.013 C 
HETATM   35  C10 UNL     1      -4.592  36.701  -9.170  1.00  0.00     0.001 C 
HETATM   36  C11 UNL     1      -4.331  37.766  -8.159  1.00  0.00     0.000 C 
HETATM   37  C12 UNL     1      -4.244  37.223  -6.759  1.00  0.00     0.001 C 
HETATM   38  C13 UNL     1      -5.329  36.269  -6.435  1.00  0.00     0.013 C 
ENDBRANCH  30  33
ENDBRANCH  27  30
ENDBRANCH  17  24
ENDBRANCH  11  14
ENDBRANCH   1  10
TORSDOF 6
ENDMDL
