MODEL 5
REMARK VINA RESULT: -10.112696273      3.930     11.495
REMARK  6 active torsions:
REMARK  status: ('A' for Active; 'I' for Inactive)
REMARK    1  A    between atoms: C3_4  and  C4_5 
REMARK    2  A    between atoms: N2_8  and  C7_9 
REMARK    3  A    between atoms: C7_9  and  O1_10 
REMARK    4  A    between atoms: C7_9  and  C8_12 
REMARK    5  A    between atoms: C18_22  and  N3_23 
REMARK       I    between atoms: N3_23  and  C19_25 
REMARK    6  A    between atoms: C19_25  and  C20_27 
ROOT
HETATM    1  C20 UNL     1      -8.495  29.657  -2.267  1.00  0.00     0.102 A 
HETATM    2  C21 UNL     1      -8.159  30.132  -0.982  1.00  0.00     0.058 A 
HETATM    3  C22 UNL     1      -7.396  31.247  -0.763  1.00  0.00     0.048 A 
HETATM    4  C23 UNL     1      -7.121  31.718   0.567  1.00  0.00     0.099 C 
HETATM    5  N4  UNL     1      -6.866  32.096   1.642  1.00  0.00    -0.191 NA
HETATM    6  C24 UNL     1      -6.929  31.936  -1.870  1.00  0.00     0.039 A 
HETATM    7  C25 UNL     1      -7.271  31.449  -3.122  1.00  0.00     0.090 A 
HETATM    8  N5  UNL     1      -8.023  30.353  -3.297  1.00  0.00    -0.361 N 
ATOM      9  H5  UNL     1      -8.241  30.046  -4.244  1.00  0.00     0.165 HD
ENDROOT
BRANCH   1  10
HETATM   10  C19 UNL     1      -9.300  28.450  -2.369  1.00  0.00     0.272 C 
HETATM   11  N3  UNL     1     -10.584  28.380  -2.935  1.00  0.00    -0.322 N 
ATOM     12  H3  UNL     1     -10.950  29.239  -3.346  1.00  0.00     0.169 HD
HETATM   13  O2  UNL     1      -8.765  27.405  -1.872  1.00  0.00    -0.266 OA
BRANCH  11  14
HETATM   14  C18 UNL     1     -11.433  27.224  -2.994  1.00  0.00     0.036 A 
HETATM   15  C17 UNL     1     -11.270  26.326  -4.026  1.00  0.00     0.044 A 
HETATM   16  C16 UNL     1     -12.188  25.288  -4.189  1.00  0.00     0.005 A 
HETATM   17  C3  UNL     1     -12.339  24.317  -5.173  1.00  0.00    -0.005 A 
HETATM   18  C28 UNL     1     -13.282  25.126  -3.326  1.00  0.00     0.045 A 
HETATM   19  C2  UNL     1     -13.517  23.630  -4.835  1.00  0.00     0.103 A 
HETATM   20  N1  UNL     1     -14.072  24.119  -3.729  1.00  0.00    -0.360 N 
HETATM   21  C1  UNL     1     -15.273  23.621  -3.093  1.00  0.00     0.156 C 
HETATM   22  C27 UNL     1     -13.414  26.046  -2.278  1.00  0.00     0.033 A 
HETATM   23  C26 UNL     1     -12.505  27.041  -2.156  1.00  0.00     0.032 A 
BRANCH  17  24
HETATM   24  C4  UNL     1     -11.428  23.881  -6.211  1.00  0.00    -0.064 C 
HETATM   25  C5  UNL     1     -11.819  24.220  -7.609  1.00  0.00     0.055 C 
HETATM   26  C6  UNL     1     -11.145  23.392  -8.625  1.00  0.00     0.129 C 
HETATM   27  N2  UNL     1     -10.359  22.266  -8.070  1.00  0.00    -0.365 N 
HETATM   28  C14 UNL     1      -9.564  22.436  -6.888  1.00  0.00     0.129 C 
HETATM   29  C15 UNL     1     -10.012  23.641  -6.016  1.00  0.00     0.055 C 
BRANCH  27  30
HETATM   30  C7  UNL     1     -10.458  21.098  -8.868  1.00  0.00     0.117 C 
BRANCH  30  31
HETATM   31  O1  UNL     1     -10.073  21.195 -10.120  1.00  0.00    -0.349 OA
ATOM     32  H1  UNL     1      -9.786  20.396 -10.547  1.00  0.00     0.219 HD
ENDBRANCH  30  31
BRANCH  30  33
HETATM   33  C8  UNL     1     -10.936  19.748  -8.537  1.00  0.00     0.060 C 
HETATM   34  C9  UNL     1     -10.012  18.982  -7.624  1.00  0.00     0.013 C 
HETATM   35  C10 UNL     1     -10.553  17.649  -7.255  1.00  0.00     0.001 C 
HETATM   36  C11 UNL     1     -11.951  17.635  -6.734  1.00  0.00     0.000 C 
HETATM   37  C12 UNL     1     -12.864  18.543  -7.510  1.00  0.00     0.001 C 
HETATM   38  C13 UNL     1     -12.279  19.879  -7.767  1.00  0.00     0.013 C 
ENDBRANCH  30  33
ENDBRANCH  27  30
ENDBRANCH  17  24
ENDBRANCH  11  14
ENDBRANCH   1  10
TORSDOF 6
ENDMDL
