MODEL 1
REMARK VINA RESULT: -9.758125483      0.000      0.000
REMARK  12 active torsions:
REMARK  status: ('A' for Active; 'I' for Inactive)
REMARK    1  A    between atoms: C2_2  and  N1_3 
REMARK    2  A    between atoms: C2_2  and  C11_15 
REMARK       I    between atoms: N1_3  and  C3_5 
REMARK    3  A    between atoms: C3_5  and  O2_7 
REMARK    4  A    between atoms: O2_7  and  C4_8 
REMARK    5  A    between atoms: C4_8  and  C5_9 
REMARK       I    between atoms: C11_15  and  N2_17 
REMARK    6  A    between atoms: N2_17  and  C12_19 
REMARK    7  A    between atoms: C12_19  and  P1_21 
REMARK    8  A    between atoms: P1_21  and  O6_24 
REMARK    9  A    between atoms: O6_24  and  C14_25 
REMARK   10  A    between atoms: C14_25  and  C15_26 
REMARK   11  A    between atoms: C14_25  and  C22_33 
REMARK   12  A    between atoms: C15_26  and  C16_27 
ROOT
HETATM    1  C11 UNL     1      45.728  17.683  36.984  1.00  0.00     0.241 C 
HETATM    2  O3  UNL     1      44.577  17.279  37.296  1.00  0.00    -0.271 OA
HETATM    3  N2  UNL     1      45.949  19.086  37.010  1.00  0.00    -0.343 N 
ATOM      4  H2  UNL     1      46.870  19.447  36.764  1.00  0.00     0.163 HD
ENDROOT
BRANCH   3   5
HETATM    5  C12 UNL     1      44.894  20.024  37.379  1.00  0.00     0.201 C 
HETATM    6  C13 UNL     1      45.322  20.440  38.803  1.00  0.00     0.046 C 
BRANCH   5   7
HETATM    7  P1  UNL     1      44.637  21.371  36.330  1.00  0.00     0.273 P 
HETATM    8  O4  UNL     1      43.550  22.027  37.255  1.00  0.00    -0.645 OA
HETATM    9  O5  UNL     1      43.323  21.213  35.227  1.00  0.00    -0.645 OA
BRANCH   7  10
HETATM   10  O6  UNL     1      45.510  22.724  36.354  1.00  0.00    -0.294 OA
BRANCH  10  11
HETATM   11  C14 UNL     1      46.809  22.763  36.012  1.00  0.00     0.237 C 
BRANCH  11  12
HETATM   12  C15 UNL     1      47.159  24.049  35.326  1.00  0.00     0.082 C 
BRANCH  12  13
HETATM   13  C16 UNL     1      46.615  24.217  33.984  1.00  0.00    -0.055 A 
HETATM   14  C17 UNL     1      46.028  25.398  33.590  1.00  0.00     0.007 A 
HETATM   15  C18 UNL     1      45.499  25.618  32.344  1.00  0.00     0.001 A 
HETATM   16  C19 UNL     1      45.542  24.616  31.406  1.00  0.00     0.000 A 
HETATM   17  C20 UNL     1      46.130  23.413  31.775  1.00  0.00     0.001 A 
HETATM   18  C21 UNL     1      46.660  23.199  33.031  1.00  0.00     0.007 A 
ENDBRANCH  12  13
ENDBRANCH  11  12
BRANCH  11  19
HETATM   19  C22 UNL     1      47.736  22.472  37.143  1.00  0.00     0.204 C 
HETATM   20  O7  UNL     1      48.185  21.310  37.324  1.00  0.00    -0.646 OA
HETATM   21  O8  UNL     1      48.074  23.524  37.974  1.00  0.00    -0.646 OA
ENDBRANCH  11  19
ENDBRANCH  10  11
ENDBRANCH   7  10
ENDBRANCH   5   7
ENDBRANCH   3   5
BRANCH   1  22
HETATM   22  C2  UNL     1      46.766  16.707  36.618  1.00  0.00     0.174 C 
HETATM   23  C1  UNL     1      47.828  16.539  37.674  1.00  0.00     0.042 C 
BRANCH  22  24
HETATM   24  N1  UNL     1      47.444  17.044  35.386  1.00  0.00    -0.324 N 
HETATM   25  C3  UNL     1      46.827  16.872  34.110  1.00  0.00     0.361 C 
HETATM   26  O1  UNL     1      45.672  16.418  34.108  1.00  0.00    -0.238 OA
ATOM     27  H1  UNL     1      48.393  17.416  35.429  1.00  0.00     0.165 HD
BRANCH  25  28
HETATM   28  O2  UNL     1      47.420  17.172  32.920  1.00  0.00    -0.299 OA
BRANCH  28  29
HETATM   29  C4  UNL     1      48.180  16.290  32.117  1.00  0.00     0.219 C 
BRANCH  29  30
HETATM   30  C5  UNL     1      49.644  16.507  32.232  1.00  0.00    -0.034 A 
HETATM   31  C6  UNL     1      50.370  16.164  33.343  1.00  0.00     0.009 A 
HETATM   32  C7  UNL     1      51.724  16.383  33.398  1.00  0.00     0.001 A 
HETATM   33  C8  UNL     1      52.353  16.961  32.302  1.00  0.00     0.000 A 
HETATM   34  C9  UNL     1      51.640  17.313  31.179  1.00  0.00     0.001 A 
HETATM   35  C10 UNL     1      50.282  17.078  31.158  1.00  0.00     0.009 A 
ENDBRANCH  29  30
ENDBRANCH  28  29
ENDBRANCH  25  28
ENDBRANCH  22  24
ENDBRANCH   1  22
TORSDOF 12
ENDMDL
