MODEL 4
REMARK VINA RESULT: -9.514419734      1.359      2.461
REMARK  12 active torsions:
REMARK  status: ('A' for Active; 'I' for Inactive)
REMARK    1  A    between atoms: C2_2  and  N1_3 
REMARK    2  A    between atoms: C2_2  and  C11_15 
REMARK       I    between atoms: N1_3  and  C3_5 
REMARK    3  A    between atoms: C3_5  and  O2_7 
REMARK    4  A    between atoms: O2_7  and  C4_8 
REMARK    5  A    between atoms: C4_8  and  C5_9 
REMARK       I    between atoms: C11_15  and  N2_17 
REMARK    6  A    between atoms: N2_17  and  C12_19 
REMARK    7  A    between atoms: C12_19  and  P1_21 
REMARK    8  A    between atoms: P1_21  and  O6_24 
REMARK    9  A    between atoms: O6_24  and  C14_25 
REMARK   10  A    between atoms: C14_25  and  C15_26 
REMARK   11  A    between atoms: C14_25  and  C22_33 
REMARK   12  A    between atoms: C15_26  and  C16_27 
ROOT
HETATM    1  C11 UNL     1      45.477  18.911  37.592  1.00  0.00     0.241 C 
HETATM    2  O3  UNL     1      44.280  19.295  37.674  1.00  0.00    -0.271 OA
HETATM    3  N2  UNL     1      46.485  19.899  37.745  1.00  0.00    -0.343 N 
ATOM      4  H2  UNL     1      47.465  19.622  37.684  1.00  0.00     0.163 HD
ENDROOT
BRANCH   3   5
HETATM    5  C12 UNL     1      46.157  21.301  37.986  1.00  0.00     0.201 C 
HETATM    6  C13 UNL     1      46.153  21.365  39.529  1.00  0.00     0.046 C 
BRANCH   5   7
HETATM    7  P1  UNL     1      47.185  22.485  37.263  1.00  0.00     0.273 P 
HETATM    8  O4  UNL     1      48.468  21.584  37.344  1.00  0.00    -0.645 OA
HETATM    9  O5  UNL     1      48.054  23.485  38.364  1.00  0.00    -0.645 OA
BRANCH   7  10
HETATM   10  O6  UNL     1      47.386  22.671  35.676  1.00  0.00    -0.294 OA
BRANCH  10  11
HETATM   11  C14 UNL     1      46.457  23.231  34.882  1.00  0.00     0.237 C 
BRANCH  11  12
HETATM   12  C15 UNL     1      47.015  23.555  33.529  1.00  0.00     0.082 C 
BRANCH  12  13
HETATM   13  C16 UNL     1      46.196  24.434  32.702  1.00  0.00    -0.055 A 
HETATM   14  C17 UNL     1      45.782  25.665  33.155  1.00  0.00     0.007 A 
HETATM   15  C18 UNL     1      45.012  26.536  32.426  1.00  0.00     0.001 A 
HETATM   16  C19 UNL     1      44.613  26.186  31.160  1.00  0.00     0.000 A 
HETATM   17  C20 UNL     1      45.017  24.949  30.676  1.00  0.00     0.001 A 
HETATM   18  C21 UNL     1      45.791  24.078  31.415  1.00  0.00     0.007 A 
ENDBRANCH  12  13
ENDBRANCH  11  12
BRANCH  11  19
HETATM   19  C22 UNL     1      45.197  22.441  34.784  1.00  0.00     0.204 C 
HETATM   20  O7  UNL     1      44.162  22.801  35.403  1.00  0.00    -0.646 OA
HETATM   21  O8  UNL     1      45.217  21.308  33.991  1.00  0.00    -0.646 OA
ENDBRANCH  11  19
ENDBRANCH  10  11
ENDBRANCH   7  10
ENDBRANCH   5   7
ENDBRANCH   3   5
BRANCH   1  22
HETATM   22  C2  UNL     1      45.768  17.490  37.348  1.00  0.00     0.174 C 
HETATM   23  C1  UNL     1      46.265  16.763  38.570  1.00  0.00     0.042 C 
BRANCH  22  24
HETATM   24  N1  UNL     1      46.751  17.288  36.307  1.00  0.00    -0.324 N 
HETATM   25  C3  UNL     1      46.399  16.781  35.019  1.00  0.00     0.361 C 
HETATM   26  O1  UNL     1      45.200  16.520  34.834  1.00  0.00    -0.238 OA
ATOM     27  H1  UNL     1      47.727  17.516  36.498  1.00  0.00     0.165 HD
BRANCH  25  28
HETATM   28  O2  UNL     1      47.284  16.571  34.004  1.00  0.00    -0.299 OA
BRANCH  28  29
HETATM   29  C4  UNL     1      48.608  16.089  34.133  1.00  0.00     0.219 C 
BRANCH  29  30
HETATM   30  C5  UNL     1      49.493  16.502  33.015  1.00  0.00    -0.034 A 
HETATM   31  C6  UNL     1      50.861  16.504  33.101  1.00  0.00     0.009 A 
HETATM   32  C7  UNL     1      51.635  16.892  32.036  1.00  0.00     0.001 A 
HETATM   33  C8  UNL     1      51.006  17.285  30.860  1.00  0.00     0.000 A 
HETATM   34  C9  UNL     1      49.634  17.290  30.756  1.00  0.00     0.001 A 
HETATM   35  C10 UNL     1      48.888  16.894  31.846  1.00  0.00     0.009 A 
ENDBRANCH  29  30
ENDBRANCH  28  29
ENDBRANCH  25  28
ENDBRANCH  22  24
ENDBRANCH   1  22
TORSDOF 12
ENDMDL
