MODEL 3
REMARK VINA RESULT: -9.605438144      1.341      2.662
REMARK  12 active torsions:
REMARK  status: ('A' for Active; 'I' for Inactive)
REMARK    1  A    between atoms: C2_2  and  N1_3 
REMARK    2  A    between atoms: C2_2  and  C11_15 
REMARK       I    between atoms: N1_3  and  C3_5 
REMARK    3  A    between atoms: C3_5  and  O2_7 
REMARK    4  A    between atoms: O2_7  and  C4_8 
REMARK    5  A    between atoms: C4_8  and  C5_9 
REMARK       I    between atoms: C11_15  and  N2_17 
REMARK    6  A    between atoms: N2_17  and  C12_19 
REMARK    7  A    between atoms: C12_19  and  P1_21 
REMARK    8  A    between atoms: P1_21  and  O6_24 
REMARK    9  A    between atoms: O6_24  and  C14_25 
REMARK   10  A    between atoms: C14_25  and  C15_26 
REMARK   11  A    between atoms: C14_25  and  C22_33 
REMARK   12  A    between atoms: C15_26  and  C16_27 
ROOT
HETATM    1  C11 UNL     1      45.494  18.872  37.403  1.00  0.00     0.241 C 
HETATM    2  O3  UNL     1      44.306  19.285  37.450  1.00  0.00    -0.271 OA
HETATM    3  N2  UNL     1      46.518  19.817  37.677  1.00  0.00    -0.343 N 
ATOM      4  H2  UNL     1      47.492  19.516  37.647  1.00  0.00     0.163 HD
ENDROOT
BRANCH   3   5
HETATM    5  C12 UNL     1      46.215  21.208  37.998  1.00  0.00     0.201 C 
HETATM    6  C13 UNL     1      46.276  21.198  39.542  1.00  0.00     0.046 C 
BRANCH   5   7
HETATM    7  P1  UNL     1      47.223  22.418  37.290  1.00  0.00     0.273 P 
HETATM    8  O4  UNL     1      48.521  21.537  37.363  1.00  0.00    -0.645 OA
HETATM    9  O5  UNL     1      48.074  23.419  38.404  1.00  0.00    -0.645 OA
BRANCH   7  10
HETATM   10  O6  UNL     1      47.422  22.626  35.706  1.00  0.00    -0.294 OA
BRANCH  10  11
HETATM   11  C14 UNL     1      46.496  23.202  34.922  1.00  0.00     0.237 C 
BRANCH  11  12
HETATM   12  C15 UNL     1      47.053  23.541  33.572  1.00  0.00     0.082 C 
BRANCH  12  13
HETATM   13  C16 UNL     1      46.231  24.423  32.753  1.00  0.00    -0.055 A 
HETATM   14  C17 UNL     1      45.863  24.078  31.473  1.00  0.00     0.007 A 
HETATM   15  C18 UNL     1      45.093  24.865  30.654  1.00  0.00     0.001 A 
HETATM   16  C19 UNL     1      44.644  26.079  31.111  1.00  0.00     0.000 A 
HETATM   17  C20 UNL     1      45.000  26.453  32.400  1.00  0.00     0.001 A 
HETATM   18  C21 UNL     1      45.775  25.657  33.218  1.00  0.00     0.007 A 
ENDBRANCH  12  13
ENDBRANCH  11  12
BRANCH  11  19
HETATM   19  C22 UNL     1      45.230  22.422  34.816  1.00  0.00     0.204 C 
HETATM   20  O7  UNL     1      44.198  22.783  35.440  1.00  0.00    -0.646 OA
HETATM   21  O8  UNL     1      45.242  21.298  34.010  1.00  0.00    -0.646 OA
ENDBRANCH  11  19
ENDBRANCH  10  11
ENDBRANCH   7  10
ENDBRANCH   5   7
ENDBRANCH   3   5
BRANCH   1  22
HETATM   22  C2  UNL     1      45.761  17.463  37.075  1.00  0.00     0.174 C 
HETATM   23  C1  UNL     1      46.316  16.675  38.233  1.00  0.00     0.042 C 
BRANCH  22  24
HETATM   24  N1  UNL     1      46.686  17.308  35.974  1.00  0.00    -0.324 N 
HETATM   25  C3  UNL     1      46.282  16.770  34.715  1.00  0.00     0.361 C 
HETATM   26  O1  UNL     1      45.090  16.441  34.607  1.00  0.00    -0.238 OA
ATOM     27  H1  UNL     1      47.658  17.591  36.102  1.00  0.00     0.165 HD
BRANCH  25  28
HETATM   28  O2  UNL     1      47.112  16.601  33.647  1.00  0.00    -0.299 OA
BRANCH  28  29
HETATM   29  C4  UNL     1      48.504  16.358  33.698  1.00  0.00     0.219 C 
BRANCH  29  30
HETATM   30  C5  UNL     1      49.185  16.574  32.396  1.00  0.00    -0.034 A 
HETATM   31  C6  UNL     1      48.527  16.571  31.194  1.00  0.00     0.009 A 
HETATM   32  C7  UNL     1      49.204  16.780  30.018  1.00  0.00     0.001 A 
HETATM   33  C8  UNL     1      50.576  16.997  30.065  1.00  0.00     0.000 A 
HETATM   34  C9  UNL     1      51.253  17.002  31.263  1.00  0.00     0.001 A 
HETATM   35  C10 UNL     1      50.542  16.789  32.424  1.00  0.00     0.009 A 
ENDBRANCH  29  30
ENDBRANCH  28  29
ENDBRANCH  25  28
ENDBRANCH  22  24
ENDBRANCH   1  22
TORSDOF 12
ENDMDL
