MODEL 2
REMARK VINA RESULT: -11.037949512      2.094      3.070
REMARK  8 active torsions:
REMARK  status: ('A' for Active; 'I' for Inactive)
REMARK    1  A    between atoms: S1_2  and  C2_3 
REMARK    2  A    between atoms: C2_3  and  C3_4 
REMARK       I    between atoms: C3_4  and  N1_6 
REMARK    3  A    between atoms: N1_6  and  C4_8 
REMARK    4  A    between atoms: C8_16  and  C9_17 
REMARK    5  A    between atoms: N4_28  and  C19_29 
REMARK    6  A    between atoms: C19_29  and  C20_30 
REMARK       I    between atoms: C20_30  and  N5_32 
REMARK    7  A    between atoms: N6_35  and  C23_36 
REMARK    8  A    between atoms: C26_39  and  C27_40 
ROOT
HETATM    1  C2  UNL     1      43.309  22.807  14.388  1.00  0.00     0.117 C 
HETATM    2  C17 UNL     1      44.212  22.187  15.415  1.00  0.00     0.062 C 
HETATM    3  C18 UNL     1      44.293  20.704  15.025  1.00  0.00     0.275 C 
HETATM    4  N4  UNL     1      43.750  20.640  13.711  1.00  0.00     0.099 N 
HETATM    5  C35 UNL     1      42.657  21.592  13.745  1.00  0.00     0.303 C 
ENDROOT
BRANCH   1   6
HETATM    6  S1  UNL     1      42.004  23.803  15.116  1.00  0.00    -0.152 SA
HETATM    7  C1  UNL     1      42.586  25.037  16.272  1.00  0.00     0.091 C 
ENDBRANCH   1   6
BRANCH   1   8
HETATM    8  C3  UNL     1      44.064  23.529  13.312  1.00  0.00     0.242 C 
HETATM    9  O1  UNL     1      45.087  24.187  13.607  1.00  0.00    -0.271 OA
HETATM   10  N1  UNL     1      43.653  23.489  11.963  1.00  0.00    -0.326 N 
ATOM     11  H1  UNL     1      42.817  22.940  11.764  1.00  0.00     0.169 HD
BRANCH  10  12
HETATM   12  C4  UNL     1      44.266  24.122  10.852  1.00  0.00     0.035 A 
HETATM   13  C5  UNL     1      43.843  25.284  10.258  1.00  0.00     0.032 A 
HETATM   14  C6  UNL     1      44.490  25.879   9.165  1.00  0.00     0.034 A 
HETATM   15  C7  UNL     1      45.609  25.294   8.637  1.00  0.00     0.060 A 
HETATM   16  N2  UNL     1      46.453  25.574   7.624  1.00  0.00    -0.299 N 
HETATM   17  C15 UNL     1      46.055  24.121   9.219  1.00  0.00     0.023 A 
HETATM   18  N3  UNL     1      47.384  24.638   7.562  1.00  0.00    -0.299 N 
ATOM     19  H2  UNL     1      46.384  26.381   7.004  1.00  0.00     0.187 HD
HETATM   20  C8  UNL     1      47.185  23.722   8.521  1.00  0.00     0.070 A 
ATOM     21  H3  UNL     1      48.144  24.616   6.882  1.00  0.00     0.187 HD
HETATM   22  C16 UNL     1      45.417  23.544  10.289  1.00  0.00     0.045 A 
BRANCH  20  23
HETATM   23  C9  UNL     1      47.954  22.521   8.817  1.00  0.00    -0.007 A 
HETATM   24  C10 UNL     1      48.981  22.482   9.720  1.00  0.00     0.017 A 
HETATM   25  C11 UNL     1      49.625  21.269   9.913  1.00  0.00     0.043 A 
HETATM   26  C12 UNL     1      49.283  20.112   9.245  1.00  0.00     0.116 A 
HETATM   27  F1  UNL     1      49.939  18.942   9.462  1.00  0.00    -0.206 F 
HETATM   28  C13 UNL     1      48.239  20.185   8.338  1.00  0.00     0.043 A 
HETATM   29  C14 UNL     1      47.575  21.370   8.119  1.00  0.00     0.017 A 
ENDBRANCH  20  23
ENDBRANCH  10  12
ENDBRANCH   1   8
BRANCH   4  30
HETATM   30  C19 UNL     1      43.265  19.382  13.265  1.00  0.00     0.374 C 
BRANCH  30  31
HETATM   31  C20 UNL     1      43.532  18.208  14.076  1.00  0.00     0.248 C 
HETATM   32  O2  UNL     1      42.750  17.755  14.923  1.00  0.00    -0.271 OA
HETATM   33  N5  UNL     1      44.790  17.546  13.865  1.00  0.00    -0.348 N 
HETATM   34  C21 UNL     1      45.737  18.024  12.893  1.00  0.00     0.145 C 
HETATM   35  C34 UNL     1      45.066  16.367  14.673  1.00  0.00     0.145 C 
HETATM   36  C22 UNL     1      46.790  16.966  12.620  1.00  0.00     0.143 C 
HETATM   37  N6  UNL     1      46.316  15.628  12.686  1.00  0.00    -0.378 N 
HETATM   38  C33 UNL     1      45.373  15.252  13.717  1.00  0.00     0.143 C 
BRANCH  37  39
HETATM   39  C23 UNL     1      46.749  14.644  11.768  1.00  0.00     0.030 A 
HETATM   40  C24 UNL     1      47.672  13.701  12.230  1.00  0.00     0.030 A 
HETATM   41  C25 UNL     1      48.109  12.740  11.358  1.00  0.00     0.017 A 
HETATM   42  C26 UNL     1      47.688  12.653  10.054  1.00  0.00     0.008 A 
HETATM   43  C31 UNL     1      46.783  13.593   9.631  1.00  0.00     0.017 A 
HETATM   44  C32 UNL     1      46.301  14.598  10.476  1.00  0.00     0.030 A 
BRANCH  42  45
HETATM   45  C27 UNL     1      48.175  11.611   9.153  1.00  0.00     0.115 A 
HETATM   46  N7  UNL     1      47.339  10.684   8.669  1.00  0.00    -0.352 N 
HETATM   47  C28 UNL     1      47.802   9.720   7.834  1.00  0.00     0.091 A 
ATOM     48  H7  UNL     1      46.353  10.703   8.928  1.00  0.00     0.166 HD
HETATM   49  C29 UNL     1      49.133   9.670   7.469  1.00  0.00     0.034 A 
HETATM   50  C30 UNL     1      49.980  10.637   7.981  1.00  0.00     0.091 A 
HETATM   51  N8  UNL     1      49.465  11.569   8.804  1.00  0.00    -0.352 N 
ATOM     52  H8  UNL     1      50.092  12.281   9.180  1.00  0.00     0.166 HD
ENDBRANCH  42  45
ENDBRANCH  37  39
ENDBRANCH  30  31
ENDBRANCH   4  30
TORSDOF 8
ENDMDL
