MODEL 4
REMARK VINA RESULT: -10.884259381      1.221      1.582
REMARK  8 active torsions:
REMARK  status: ('A' for Active; 'I' for Inactive)
REMARK    1  A    between atoms: S1_2  and  C2_3 
REMARK    2  A    between atoms: C2_3  and  C3_4 
REMARK       I    between atoms: C3_4  and  N1_6 
REMARK    3  A    between atoms: N1_6  and  C4_8 
REMARK    4  A    between atoms: C8_16  and  C9_17 
REMARK    5  A    between atoms: N4_28  and  C19_29 
REMARK    6  A    between atoms: C19_29  and  C20_30 
REMARK       I    between atoms: C20_30  and  N5_32 
REMARK    7  A    between atoms: N6_35  and  C23_36 
REMARK    8  A    between atoms: C26_39  and  C27_40 
ROOT
HETATM    1  C2  UNL     1      43.692  22.396  13.582  1.00  0.00     0.117 C 
HETATM    2  C17 UNL     1      44.604  22.012  14.711  1.00  0.00     0.062 C 
HETATM    3  C18 UNL     1      44.423  20.495  14.868  1.00  0.00     0.275 C 
HETATM    4  N4  UNL     1      43.733  20.086  13.692  1.00  0.00     0.099 N 
HETATM    5  C35 UNL     1      42.802  21.170  13.447  1.00  0.00     0.303 C 
ENDROOT
BRANCH   1   6
HETATM    6  S1  UNL     1      42.637  23.793  13.981  1.00  0.00    -0.152 SA
HETATM    7  C1  UNL     1      43.008  24.564  15.551  1.00  0.00     0.091 C 
ENDBRANCH   1   6
BRANCH   1   8
HETATM    8  C3  UNL     1      44.419  22.565  12.282  1.00  0.00     0.242 C 
HETATM    9  O1  UNL     1      43.781  22.868  11.249  1.00  0.00    -0.271 OA
HETATM   10  N1  UNL     1      45.816  22.391  12.186  1.00  0.00    -0.326 N 
ATOM     11  H1  UNL     1      46.300  22.148  13.051  1.00  0.00     0.169 HD
BRANCH  10  12
HETATM   12  C4  UNL     1      46.628  22.516  11.030  1.00  0.00     0.035 A 
HETATM   13  C5  UNL     1      46.899  23.682  10.363  1.00  0.00     0.032 A 
HETATM   14  C6  UNL     1      47.717  23.758   9.227  1.00  0.00     0.034 A 
HETATM   15  C7  UNL     1      48.295  22.621   8.730  1.00  0.00     0.060 A 
HETATM   16  N2  UNL     1      49.106  22.329   7.693  1.00  0.00    -0.299 N 
HETATM   17  C15 UNL     1      48.037  21.431   9.386  1.00  0.00     0.023 A 
HETATM   18  N3  UNL     1      49.353  21.031   7.686  1.00  0.00    -0.299 N 
ATOM     19  H2  UNL     1      49.471  23.003   7.020  1.00  0.00     0.187 HD
HETATM   20  C8  UNL     1      48.719  20.433   8.706  1.00  0.00     0.070 A 
ATOM     21  H3  UNL     1      49.940  20.553   7.003  1.00  0.00     0.187 HD
HETATM   22  C16 UNL     1      47.234  21.364  10.497  1.00  0.00     0.045 A 
BRANCH  20  23
HETATM   23  C9  UNL     1      48.701  19.024   9.076  1.00  0.00    -0.007 A 
HETATM   24  C10 UNL     1      47.732  18.147   8.673  1.00  0.00     0.017 A 
HETATM   25  C11 UNL     1      47.841  16.829   9.090  1.00  0.00     0.043 A 
HETATM   26  C12 UNL     1      48.868  16.365   9.884  1.00  0.00     0.116 A 
HETATM   27  F1  UNL     1      48.939  15.065  10.272  1.00  0.00    -0.206 F 
HETATM   28  C13 UNL     1      49.833  17.279  10.275  1.00  0.00     0.043 A 
HETATM   29  C14 UNL     1      49.761  18.595   9.882  1.00  0.00     0.017 A 
ENDBRANCH  20  23
ENDBRANCH  10  12
ENDBRANCH   1   8
BRANCH   4  30
HETATM   30  C19 UNL     1      43.022  18.858  13.747  1.00  0.00     0.374 C 
BRANCH  30  31
HETATM   31  C20 UNL     1      43.530  17.800  14.602  1.00  0.00     0.248 C 
HETATM   32  O2  UNL     1      42.964  17.404  15.629  1.00  0.00    -0.271 OA
HETATM   33  N5  UNL     1      44.769  17.187  14.209  1.00  0.00    -0.348 N 
HETATM   34  C21 UNL     1      45.471  17.602  13.024  1.00  0.00     0.145 C 
HETATM   35  C34 UNL     1      45.286  16.124  15.060  1.00  0.00     0.145 C 
HETATM   36  C22 UNL     1      46.527  16.579  12.651  1.00  0.00     0.143 C 
HETATM   37  N6  UNL     1      46.177  15.233  12.946  1.00  0.00    -0.378 N 
HETATM   38  C33 UNL     1      45.484  14.926  14.179  1.00  0.00     0.143 C 
BRANCH  37  39
HETATM   39  C23 UNL     1      46.498  14.176  12.064  1.00  0.00     0.030 A 
HETATM   40  C24 UNL     1      47.508  13.295  12.460  1.00  0.00     0.030 A 
HETATM   41  C25 UNL     1      47.837  12.265  11.621  1.00  0.00     0.017 A 
HETATM   42  C26 UNL     1      47.227  12.052  10.409  1.00  0.00     0.008 A 
HETATM   43  C31 UNL     1      46.241  12.934  10.047  1.00  0.00     0.017 A 
HETATM   44  C32 UNL     1      45.861  14.004  10.864  1.00  0.00     0.030 A 
BRANCH  42  45
HETATM   45  C27 UNL     1      47.605  10.940   9.540  1.00  0.00     0.115 A 
HETATM   46  N7  UNL     1      47.994  11.162   8.278  1.00  0.00    -0.352 N 
HETATM   47  C28 UNL     1      48.341  10.122   7.480  1.00  0.00     0.091 A 
ATOM     48  H7  UNL     1      48.028  12.116   7.917  1.00  0.00     0.166 HD
HETATM   49  C29 UNL     1      48.302   8.822   7.943  1.00  0.00     0.034 A 
HETATM   50  C30 UNL     1      47.897   8.613   9.249  1.00  0.00     0.091 A 
HETATM   51  N8  UNL     1      47.564   9.683   9.996  1.00  0.00    -0.352 N 
ATOM     52  H8  UNL     1      47.266   9.527  10.959  1.00  0.00     0.166 HD
ENDBRANCH  42  45
ENDBRANCH  37  39
ENDBRANCH  30  31
ENDBRANCH   4  30
TORSDOF 8
ENDMDL
