MODEL 1
REMARK VINA RESULT: -11.164998053      0.000      0.000
REMARK  8 active torsions:
REMARK  status: ('A' for Active; 'I' for Inactive)
REMARK    1  A    between atoms: S1_2  and  C2_3 
REMARK    2  A    between atoms: C2_3  and  C3_4 
REMARK       I    between atoms: C3_4  and  N1_6 
REMARK    3  A    between atoms: N1_6  and  C4_8 
REMARK    4  A    between atoms: C8_16  and  C9_17 
REMARK    5  A    between atoms: N4_28  and  C19_29 
REMARK    6  A    between atoms: C19_29  and  C20_30 
REMARK       I    between atoms: C20_30  and  N5_32 
REMARK    7  A    between atoms: N6_35  and  C23_36 
REMARK    8  A    between atoms: C26_39  and  C27_40 
ROOT
HETATM    1  C2  UNL     1      44.430  21.834  14.265  1.00  0.00     0.117 C 
HETATM    2  C17 UNL     1      45.545  21.593  15.241  1.00  0.00     0.062 C 
HETATM    3  C18 UNL     1      45.426  20.109  15.617  1.00  0.00     0.275 C 
HETATM    4  N4  UNL     1      44.534  19.557  14.654  1.00  0.00     0.099 N 
HETATM    5  C35 UNL     1      43.554  20.606  14.455  1.00  0.00     0.303 C 
ENDROOT
BRANCH   1   6
HETATM    6  S1  UNL     1      43.442  23.277  14.677  1.00  0.00    -0.152 SA
HETATM    7  C1  UNL     1      44.248  24.420  15.790  1.00  0.00     0.091 C 
ENDBRANCH   1   6
BRANCH   1   8
HETATM    8  C3  UNL     1      44.897  21.833  12.840  1.00  0.00     0.242 C 
HETATM    9  O1  UNL     1      44.086  21.578  11.921  1.00  0.00    -0.271 OA
HETATM   10  N1  UNL     1      46.237  22.115  12.499  1.00  0.00    -0.326 N 
ATOM     11  H1  UNL     1      46.865  22.321  13.276  1.00  0.00     0.169 HD
BRANCH  10  12
HETATM   12  C4  UNL     1      46.813  22.146  11.203  1.00  0.00     0.035 A 
HETATM   13  C5  UNL     1      46.941  23.256  10.410  1.00  0.00     0.032 A 
HETATM   14  C6  UNL     1      47.529  23.240   9.137  1.00  0.00     0.034 A 
HETATM   15  C7  UNL     1      48.013  22.065   8.628  1.00  0.00     0.060 A 
HETATM   16  N2  UNL     1      48.616  21.690   7.481  1.00  0.00    -0.299 N 
HETATM   17  C15 UNL     1      47.896  20.931   9.410  1.00  0.00     0.023 A 
HETATM   18  N3  UNL     1      48.870  20.394   7.527  1.00  0.00    -0.299 N 
ATOM     19  H2  UNL     1      48.840  22.308   6.702  1.00  0.00     0.187 HD
HETATM   20  C8  UNL     1      48.447  19.880   8.693  1.00  0.00     0.070 A 
ATOM     21  H3  UNL     1      49.322  19.862   6.784  1.00  0.00     0.187 HD
HETATM   22  C16 UNL     1      47.319  20.954  10.655  1.00  0.00     0.045 A 
BRANCH  20  23
HETATM   23  C9  UNL     1      48.513  18.504   9.166  1.00  0.00    -0.007 A 
HETATM   24  C10 UNL     1      47.569  17.557   8.879  1.00  0.00     0.017 A 
HETATM   25  C11 UNL     1      47.760  16.281   9.387  1.00  0.00     0.043 A 
HETATM   26  C12 UNL     1      48.844  15.924  10.160  1.00  0.00     0.116 A 
HETATM   27  F1  UNL     1      48.995  14.662  10.639  1.00  0.00    -0.206 F 
HETATM   28  C13 UNL     1      49.783  16.906  10.432  1.00  0.00     0.043 A 
HETATM   29  C14 UNL     1      49.629  18.184   9.946  1.00  0.00     0.017 A 
ENDBRANCH  20  23
ENDBRANCH  10  12
ENDBRANCH   1   8
BRANCH   4  30
HETATM   30  C19 UNL     1      43.870  18.349  14.996  1.00  0.00     0.374 C 
BRANCH  30  31
HETATM   31  C20 UNL     1      43.084  17.677  13.977  1.00  0.00     0.248 C 
HETATM   32  O2  UNL     1      42.265  18.245  13.243  1.00  0.00    -0.271 OA
HETATM   33  N5  UNL     1      43.287  16.262  13.830  1.00  0.00    -0.348 N 
HETATM   34  C21 UNL     1      44.228  15.548  14.651  1.00  0.00     0.145 C 
HETATM   35  C34 UNL     1      42.504  15.579  12.809  1.00  0.00     0.145 C 
HETATM   36  C22 UNL     1      44.508  14.177  14.062  1.00  0.00     0.143 C 
HETATM   37  N6  UNL     1      44.485  14.128  12.642  1.00  0.00    -0.378 N 
HETATM   38  C33 UNL     1      43.482  14.876  11.914  1.00  0.00     0.143 C 
BRANCH  37  39
HETATM   39  C23 UNL     1      45.418  13.356  11.915  1.00  0.00     0.030 A 
HETATM   40  C24 UNL     1      45.500  13.579  10.537  1.00  0.00     0.030 A 
HETATM   41  C25 UNL     1      46.395  12.840   9.812  1.00  0.00     0.017 A 
HETATM   42  C26 UNL     1      47.218  11.891  10.366  1.00  0.00     0.008 A 
HETATM   43  C31 UNL     1      47.115  11.695  11.720  1.00  0.00     0.017 A 
HETATM   44  C32 UNL     1      46.219  12.420  12.512  1.00  0.00     0.030 A 
BRANCH  42  45
HETATM   45  C27 UNL     1      48.164  11.123   9.559  1.00  0.00     0.115 A 
HETATM   46  N7  UNL     1      49.153  11.739   8.899  1.00  0.00    -0.352 N 
HETATM   47  C28 UNL     1      50.025  11.017   8.152  1.00  0.00     0.091 A 
ATOM     48  H7  UNL     1      49.251  12.752   8.958  1.00  0.00     0.166 HD
HETATM   49  C29 UNL     1      49.915   9.644   8.053  1.00  0.00     0.034 A 
HETATM   50  C30 UNL     1      48.885   9.027   8.742  1.00  0.00     0.091 A 
HETATM   51  N8  UNL     1      48.050   9.794   9.468  1.00  0.00    -0.352 N 
ATOM     52  H8  UNL     1      47.292   9.337   9.975  1.00  0.00     0.166 HD
ENDBRANCH  42  45
ENDBRANCH  37  39
ENDBRANCH  30  31
ENDBRANCH   4  30
TORSDOF 8
ENDMDL
