MODEL 3
REMARK VINA RESULT: -10.930630507      4.013     11.343
REMARK  8 active torsions:
REMARK  status: ('A' for Active; 'I' for Inactive)
REMARK    1  A    between atoms: S1_2  and  C2_3 
REMARK    2  A    between atoms: C2_3  and  C3_4 
REMARK       I    between atoms: C3_4  and  N1_6 
REMARK    3  A    between atoms: N1_6  and  C4_8 
REMARK    4  A    between atoms: C8_16  and  C9_17 
REMARK    5  A    between atoms: N4_28  and  C19_29 
REMARK    6  A    between atoms: C19_29  and  C20_30 
REMARK       I    between atoms: C20_30  and  N5_32 
REMARK    7  A    between atoms: N6_35  and  C23_36 
REMARK    8  A    between atoms: C26_39  and  C27_40 
ROOT
HETATM    1  C2  UNL     1      48.240  16.585  10.354  1.00  0.00     0.117 C 
HETATM    2  C17 UNL     1      47.157  17.023   9.410  1.00  0.00     0.062 C 
HETATM    3  C18 UNL     1      47.626  18.384   8.876  1.00  0.00     0.275 C 
HETATM    4  N4  UNL     1      48.995  18.475   9.257  1.00  0.00     0.099 N 
HETATM    5  C35 UNL     1      49.025  17.868  10.573  1.00  0.00     0.303 C 
ENDROOT
BRANCH   1   6
HETATM    6  S1  UNL     1      47.604  16.058  11.949  1.00  0.00    -0.152 SA
HETATM    7  C1  UNL     1      46.099  16.887  12.446  1.00  0.00     0.091 C 
ENDBRANCH   1   6
BRANCH   1   8
HETATM    8  C3  UNL     1      49.176  15.587   9.740  1.00  0.00     0.242 C 
HETATM    9  O1  UNL     1      50.354  15.920   9.478  1.00  0.00    -0.271 OA
HETATM   10  N1  UNL     1      48.765  14.270   9.444  1.00  0.00    -0.326 N 
ATOM     11  H1  UNL     1      47.799  14.038   9.675  1.00  0.00     0.169 HD
BRANCH  10  12
HETATM   12  C4  UNL     1      49.537  13.232   8.864  1.00  0.00     0.035 A 
HETATM   13  C5  UNL     1      50.644  13.402   8.074  1.00  0.00     0.032 A 
HETATM   14  C6  UNL     1      51.384  12.342   7.531  1.00  0.00     0.034 A 
HETATM   15  C7  UNL     1      51.007  11.051   7.785  1.00  0.00     0.060 A 
HETATM   16  N2  UNL     1      51.463   9.830   7.439  1.00  0.00    -0.299 N 
HETATM   17  C15 UNL     1      49.893  10.853   8.581  1.00  0.00     0.023 A 
HETATM   18  N3  UNL     1      50.689   8.906   7.981  1.00  0.00    -0.299 N 
ATOM     19  H2  UNL     1      52.277   9.648   6.852  1.00  0.00     0.187 HD
HETATM   20  C8  UNL     1      49.709   9.483   8.694  1.00  0.00     0.070 A 
ATOM     21  H3  UNL     1      50.818   7.901   7.873  1.00  0.00     0.187 HD
HETATM   22  C16 UNL     1      49.174  11.895   9.109  1.00  0.00     0.045 A 
BRANCH  20  23
HETATM   23  C9  UNL     1      48.632   8.856   9.447  1.00  0.00    -0.007 A 
HETATM   24  C10 UNL     1      47.787   9.542  10.276  1.00  0.00     0.017 A 
HETATM   25  C11 UNL     1      46.797   8.822  10.927  1.00  0.00     0.043 A 
HETATM   26  C12 UNL     1      46.625   7.462  10.782  1.00  0.00     0.116 A 
HETATM   27  F1  UNL     1      45.642   6.792  11.438  1.00  0.00    -0.206 F 
HETATM   28  C13 UNL     1      47.497   6.796   9.935  1.00  0.00     0.043 A 
HETATM   29  C14 UNL     1      48.492   7.476   9.271  1.00  0.00     0.017 A 
ENDBRANCH  20  23
ENDBRANCH  10  12
ENDBRANCH   1   8
BRANCH   4  30
HETATM   30  C19 UNL     1      49.569  19.772   9.322  1.00  0.00     0.374 C 
BRANCH  30  31
HETATM   31  C20 UNL     1      49.280  20.714   8.255  1.00  0.00     0.248 C 
HETATM   32  O2  UNL     1      49.470  20.485   7.054  1.00  0.00    -0.271 OA
HETATM   33  N5  UNL     1      48.738  21.987   8.644  1.00  0.00    -0.348 N 
HETATM   34  C21 UNL     1      48.492  22.311  10.024  1.00  0.00     0.145 C 
HETATM   35  C34 UNL     1      48.444  22.938   7.581  1.00  0.00     0.145 C 
HETATM   36  C22 UNL     1      47.605  23.537  10.128  1.00  0.00     0.143 C 
HETATM   37  N6  UNL     1      46.639  23.658   9.091  1.00  0.00    -0.378 N 
HETATM   38  C33 UNL     1      47.000  23.319   7.732  1.00  0.00     0.143 C 
BRANCH  37  39
HETATM   39  C23 UNL     1      45.327  24.111   9.354  1.00  0.00     0.030 A 
HETATM   40  C24 UNL     1      44.812  23.878  10.633  1.00  0.00     0.030 A 
HETATM   41  C25 UNL     1      43.542  24.306  10.910  1.00  0.00     0.017 A 
HETATM   42  C26 UNL     1      42.746  24.954   9.998  1.00  0.00     0.008 A 
HETATM   43  C31 UNL     1      43.279  25.169   8.752  1.00  0.00     0.017 A 
HETATM   44  C32 UNL     1      44.571  24.754   8.411  1.00  0.00     0.030 A 
BRANCH  42  45
HETATM   45  C27 UNL     1      41.395  25.399  10.331  1.00  0.00     0.115 A 
HETATM   46  N7  UNL     1      40.404  25.301   9.435  1.00  0.00    -0.352 N 
HETATM   47  C28 UNL     1      39.154  25.718   9.754  1.00  0.00     0.091 A 
ATOM     48  H7  UNL     1      40.591  24.912   8.511  1.00  0.00     0.166 HD
HETATM   49  C29 UNL     1      38.874  26.249  10.998  1.00  0.00     0.034 A 
HETATM   50  C30 UNL     1      39.911  26.343  11.909  1.00  0.00     0.091 A 
HETATM   51  N8  UNL     1      41.131  25.913  11.537  1.00  0.00    -0.352 N 
ATOM     52  H8  UNL     1      41.894  25.982  12.211  1.00  0.00     0.166 HD
ENDBRANCH  42  45
ENDBRANCH  37  39
ENDBRANCH  30  31
ENDBRANCH   4  30
TORSDOF 8
ENDMDL
