MODEL 1
REMARK VINA RESULT: -8.711898949      0.000      0.000
REMARK  5 active torsions:
REMARK  status: ('A' for Active; 'I' for Inactive)
REMARK    1  A    between atoms: C2_2  and  N1_4 
REMARK    2  A    between atoms: C7_12  and  N4_13 
REMARK    3  A    between atoms: N4_13  and  C8_15 
REMARK    4  A    between atoms: C10_17  and  C11_18 
REMARK    5  A    between atoms: C15_27  and  N7_28 
ROOT
HETATM    1  C8  UNL     1     -34.131 -14.641 -15.669  1.00  0.00     0.124 A 
HETATM    2  C9  UNL     1     -35.101 -15.372 -16.319  1.00  0.00     0.075 A 
HETATM    3  C10 UNL     1     -35.151 -15.436 -17.688  1.00  0.00     0.036 A 
HETATM    4  N6  UNL     1     -34.211 -14.752 -18.365  1.00  0.00    -0.195 N 
ATOM      5  H6  UNL     1     -34.234 -14.789 -19.384  1.00  0.00     0.184 HD
HETATM    6  C15 UNL     1     -33.243 -14.024 -17.783  1.00  0.00     0.682 A 
HETATM    7  N8  UNL     1     -33.243 -13.998 -16.423  1.00  0.00    -0.176 N 
ATOM      8  H8  UNL     1     -32.520 -13.454 -15.954  1.00  0.00     0.186 HD
ENDROOT
BRANCH   1   9
HETATM    9  N4  UNL     1     -34.129 -14.613 -14.249  1.00  0.00    -0.328 N 
ATOM     10  H4  UNL     1     -34.936 -14.983 -13.745  1.00  0.00     0.169 HD
BRANCH   9  11
HETATM   11  C7  UNL     1     -33.034 -14.084 -13.507  1.00  0.00     0.108 A 
HETATM   12  N3  UNL     1     -32.222 -14.928 -12.830  1.00  0.00    -0.351 N 
HETATM   13  C6  UNL     1     -31.170 -14.501 -12.108  1.00  0.00     0.104 A 
ATOM     14  H3  UNL     1     -32.415 -15.929 -12.868  1.00  0.00     0.166 HD
HETATM   15  C5  UNL     1     -30.879 -13.150 -12.034  1.00  0.00     0.025 A 
HETATM   16  C4  UNL     1     -29.901 -12.401 -11.399  1.00  0.00     0.122 A 
HETATM   17  C21 UNL     1     -31.716 -12.296 -12.730  1.00  0.00     0.067 A 
HETATM   18  N2  UNL     1     -30.171 -11.138 -11.724  1.00  0.00    -0.308 N 
HETATM   19  N1  UNL     1     -31.238 -11.056 -12.508  1.00  0.00    -0.288 N 
ATOM     20  H2  UNL     1     -29.626 -10.336 -11.409  1.00  0.00     0.186 HD
HETATM   21  C20 UNL     1     -32.795 -12.727 -13.471  1.00  0.00     0.080 A 
BRANCH  19  22
HETATM   22  C2  UNL     1     -31.782  -9.844 -13.027  1.00  0.00     0.100 C 
HETATM   23  C1  UNL     1     -31.042  -9.319 -14.227  1.00  0.00     0.034 C 
HETATM   24  C3  UNL     1     -31.775  -8.782 -11.949  1.00  0.00     0.034 C 
ENDBRANCH  19  22
ENDBRANCH   9  11
ENDBRANCH   1   9
BRANCH   3  25
HETATM   25  C11 UNL     1     -36.157 -16.195 -18.439  1.00  0.00     0.063 C 
HETATM   26  C12 UNL     1     -36.931 -17.160 -17.580  1.00  0.00     0.040 C 
HETATM   27  C13 UNL     1     -37.143 -18.323 -18.552  1.00  0.00     0.233 C 
HETATM   28  N5  UNL     1     -35.821 -18.398 -19.163  1.00  0.00    -0.074 N 
HETATM   29  C14 UNL     1     -35.538 -17.030 -19.547  1.00  0.00     0.243 C 
ATOM     30  H52 UNL     1     -35.107 -18.824 -18.571  1.00  0.00     0.277 HD
ATOM     31  H51 UNL     1     -35.747 -19.072 -19.926  1.00  0.00     0.277 HD
ENDBRANCH   3  25
BRANCH   6  32
HETATM   32  N7  UNL     1     -32.264 -13.314 -18.522  1.00  0.00    -0.212 N 
HETATM   33  C16 UNL     1     -31.939 -11.915 -18.385  1.00  0.00     0.147 C 
HETATM   34  C17 UNL     1     -31.140 -11.542 -19.615  1.00  0.00     0.101 C 
HETATM   35  C18 UNL     1     -31.368 -12.723 -20.552  1.00  0.00     0.261 C 
HETATM   36  F1  UNL     1     -30.350 -12.873 -21.453  1.00  0.00    -0.204 F 
HETATM   37  F2  UNL     1     -32.614 -12.627 -21.173  1.00  0.00    -0.204 F 
HETATM   38  C19 UNL     1     -31.415 -13.868 -19.550  1.00  0.00     0.220 C 
ENDBRANCH   6  32
TORSDOF 5
ENDMDL
