MODEL 6
REMARK VINA RESULT: -8.585448893      2.779      5.464
REMARK  5 active torsions:
REMARK  status: ('A' for Active; 'I' for Inactive)
REMARK    1  A    between atoms: C2_2  and  N1_4 
REMARK    2  A    between atoms: C7_12  and  N4_13 
REMARK    3  A    between atoms: N4_13  and  C8_15 
REMARK    4  A    between atoms: C10_17  and  C11_18 
REMARK    5  A    between atoms: C15_27  and  N7_28 
ROOT
HETATM    1  C8  UNL     1     -33.694 -14.525 -18.861  1.00  0.00     0.124 A 
HETATM    2  C9  UNL     1     -34.610 -15.555 -18.868  1.00  0.00     0.075 A 
HETATM    3  C10 UNL     1     -35.079 -16.102 -17.701  1.00  0.00     0.036 A 
HETATM    4  N6  UNL     1     -34.606 -15.587 -16.553  1.00  0.00    -0.195 N 
ATOM      5  H6  UNL     1     -34.944 -15.983 -15.675  1.00  0.00     0.184 HD
HETATM    6  C15 UNL     1     -33.713 -14.584 -16.487  1.00  0.00     0.682 A 
HETATM    7  N8  UNL     1     -33.283 -14.082 -17.676  1.00  0.00    -0.176 N 
ATOM      8  H8  UNL     1     -32.606 -13.319 -17.658  1.00  0.00     0.186 HD
ENDROOT
BRANCH   1   9
HETATM    9  N4  UNL     1     -33.245 -13.999 -20.102  1.00  0.00    -0.328 N 
ATOM     10  H4  UNL     1     -33.652 -14.354 -20.967  1.00  0.00     0.169 HD
BRANCH   9  11
HETATM   11  C7  UNL     1     -32.242 -12.989 -20.172  1.00  0.00     0.108 A 
HETATM   12  N3  UNL     1     -31.635 -12.739 -21.356  1.00  0.00    -0.351 N 
HETATM   13  C6  UNL     1     -30.681 -11.802 -21.499  1.00  0.00     0.104 A 
ATOM     14  H3  UNL     1     -31.914 -13.283 -22.173  1.00  0.00     0.166 HD
HETATM   15  C5  UNL     1     -30.279 -11.047 -20.411  1.00  0.00     0.025 A 
HETATM   16  C4  UNL     1     -29.352 -10.034 -20.222  1.00  0.00     0.122 A 
HETATM   17  C21 UNL     1     -30.905 -11.311 -19.207  1.00  0.00     0.067 A 
HETATM   18  N2  UNL     1     -29.443  -9.721 -18.931  1.00  0.00    -0.308 N 
HETATM   19  N1  UNL     1     -30.354 -10.464 -18.315  1.00  0.00    -0.288 N 
ATOM     20  H2  UNL     1     -28.883  -9.003 -18.473  1.00  0.00     0.186 HD
HETATM   21  C20 UNL     1     -31.884 -12.269 -19.054  1.00  0.00     0.080 A 
BRANCH  19  22
HETATM   22  C2  UNL     1     -30.687 -10.372 -16.932  1.00  0.00     0.100 C 
HETATM   23  C1  UNL     1     -31.079  -8.984 -16.499  1.00  0.00     0.034 C 
HETATM   24  C3  UNL     1     -29.512 -10.827 -16.095  1.00  0.00     0.034 C 
ENDBRANCH  19  22
ENDBRANCH   9  11
ENDBRANCH   1   9
BRANCH   3  25
HETATM   25  C11 UNL     1     -36.053 -17.198 -17.641  1.00  0.00     0.063 C 
HETATM   26  C12 UNL     1     -35.509 -18.436 -16.979  1.00  0.00     0.040 C 
HETATM   27  C13 UNL     1     -36.196 -19.536 -17.791  1.00  0.00     0.233 C 
HETATM   28  N5  UNL     1     -36.046 -18.999 -19.139  1.00  0.00    -0.074 N 
HETATM   29  C14 UNL     1     -36.513 -17.633 -19.022  1.00  0.00     0.243 C 
ATOM     30  H52 UNL     1     -35.107 -19.090 -19.526  1.00  0.00     0.277 HD
ATOM     31  H51 UNL     1     -36.516 -19.543 -19.863  1.00  0.00     0.277 HD
ENDBRANCH   3  25
BRANCH   6  32
HETATM   32  N7  UNL     1     -33.231 -14.061 -15.262  1.00  0.00    -0.212 N 
HETATM   33  C16 UNL     1     -33.916 -14.091 -13.992  1.00  0.00     0.147 C 
HETATM   34  C17 UNL     1     -33.204 -13.096 -13.100  1.00  0.00     0.101 C 
HETATM   35  C18 UNL     1     -32.345 -12.303 -14.079  1.00  0.00     0.261 C 
HETATM   36  F1  UNL     1     -31.247 -11.754 -13.476  1.00  0.00    -0.204 F 
HETATM   37  F2  UNL     1     -33.112 -11.351 -14.749  1.00  0.00    -0.204 F 
HETATM   38  C19 UNL     1     -31.964 -13.398 -15.065  1.00  0.00     0.220 C 
ENDBRANCH   6  32
TORSDOF 5
ENDMDL
