MODEL 3
REMARK VINA RESULT: -8.631925250      2.218      7.472
REMARK  5 active torsions:
REMARK  status: ('A' for Active; 'I' for Inactive)
REMARK    1  A    between atoms: C2_2  and  N1_4 
REMARK    2  A    between atoms: C7_12  and  N4_13 
REMARK    3  A    between atoms: N4_13  and  C8_15 
REMARK    4  A    between atoms: C10_17  and  C11_18 
REMARK    5  A    between atoms: C15_27  and  N7_28 
ROOT
HETATM    1  C8  UNL     1     -32.669 -11.871 -14.244  1.00  0.00     0.124 A 
HETATM    2  C9  UNL     1     -32.678 -10.971 -13.201  1.00  0.00     0.075 A 
HETATM    3  C10 UNL     1     -31.877  -9.857 -13.211  1.00  0.00     0.036 A 
HETATM    4  N6  UNL     1     -31.085  -9.686 -14.283  1.00  0.00    -0.195 N 
ATOM      5  H6  UNL     1     -30.482  -8.863 -14.306  1.00  0.00     0.184 HD
HETATM    6  C15 UNL     1     -31.035 -10.531 -15.327  1.00  0.00     0.682 A 
HETATM    7  N8  UNL     1     -31.851 -11.617 -15.262  1.00  0.00    -0.176 N 
ATOM      8  H8  UNL     1     -31.836 -12.276 -16.040  1.00  0.00     0.186 HD
ENDROOT
BRANCH   1   9
HETATM    9  N4  UNL     1     -33.521 -13.006 -14.177  1.00  0.00    -0.328 N 
ATOM     10  H4  UNL     1     -33.847 -13.328 -13.266  1.00  0.00     0.169 HD
BRANCH   9  11
HETATM   11  C7  UNL     1     -33.934 -13.708 -15.347  1.00  0.00     0.108 A 
HETATM   12  N3  UNL     1     -34.981 -14.561 -15.273  1.00  0.00    -0.351 N 
HETATM   13  C6  UNL     1     -35.427 -15.257 -16.334  1.00  0.00     0.104 A 
ATOM     14  H3  UNL     1     -35.453 -14.681 -14.376  1.00  0.00     0.166 HD
HETATM   15  C5  UNL     1     -34.811 -15.118 -17.566  1.00  0.00     0.025 A 
HETATM   16  C4  UNL     1     -35.014 -15.671 -18.821  1.00  0.00     0.122 A 
HETATM   17  C21 UNL     1     -33.741 -14.244 -17.629  1.00  0.00     0.067 A 
HETATM   18  N2  UNL     1     -34.077 -15.124 -19.593  1.00  0.00    -0.308 N 
HETATM   19  N1  UNL     1     -33.317 -14.279 -18.908  1.00  0.00    -0.288 N 
ATOM     20  H2  UNL     1     -33.959 -15.329 -20.585  1.00  0.00     0.186 HD
HETATM   21  C20 UNL     1     -33.280 -13.528 -16.546  1.00  0.00     0.080 A 
BRANCH  19  22
HETATM   22  C2  UNL     1     -32.227 -13.535 -19.449  1.00  0.00     0.100 C 
HETATM   23  C1  UNL     1     -32.575 -12.790 -20.710  1.00  0.00     0.034 C 
HETATM   24  C3  UNL     1     -31.070 -14.466 -19.739  1.00  0.00     0.034 C 
ENDBRANCH  19  22
ENDBRANCH   9  11
ENDBRANCH   1   9
BRANCH   3  25
HETATM   25  C11 UNL     1     -31.841  -8.862 -12.133  1.00  0.00     0.063 C 
HETATM   26  C12 UNL     1     -32.342  -7.508 -12.562  1.00  0.00     0.040 C 
HETATM   27  C13 UNL     1     -31.431  -6.582 -11.753  1.00  0.00     0.233 C 
HETATM   28  N5  UNL     1     -30.149  -7.255 -11.931  1.00  0.00    -0.074 N 
HETATM   29  C14 UNL     1     -30.434  -8.637 -11.606  1.00  0.00     0.243 C 
ATOM     30  H52 UNL     1     -29.727  -7.117 -12.850  1.00  0.00     0.277 HD
ATOM     31  H51 UNL     1     -29.382  -6.847 -11.396  1.00  0.00     0.277 HD
ENDBRANCH   3  25
BRANCH   6  32
HETATM   32  N7  UNL     1     -30.190 -10.325 -16.446  1.00  0.00    -0.212 N 
HETATM   33  C16 UNL     1     -29.094  -9.391 -16.527  1.00  0.00     0.147 C 
HETATM   34  C17 UNL     1     -28.756  -9.257 -17.997  1.00  0.00     0.101 C 
HETATM   35  C18 UNL     1     -29.955  -9.896 -18.690  1.00  0.00     0.261 C 
HETATM   36  F1  UNL     1     -29.639 -10.377 -19.930  1.00  0.00    -0.204 F 
HETATM   37  F2  UNL     1     -31.034  -9.012 -18.723  1.00  0.00    -0.204 F 
HETATM   38  C19 UNL     1     -30.278 -11.016 -17.710  1.00  0.00     0.220 C 
ENDBRANCH   6  32
TORSDOF 5
ENDMDL
