MODEL 2
REMARK VINA RESULT: -8.633996108      2.302      4.896
REMARK  5 active torsions:
REMARK  status: ('A' for Active; 'I' for Inactive)
REMARK    1  A    between atoms: C2_2  and  N1_4 
REMARK    2  A    between atoms: C7_12  and  N4_13 
REMARK    3  A    between atoms: N4_13  and  C8_15 
REMARK    4  A    between atoms: C10_17  and  C11_18 
REMARK    5  A    between atoms: C15_27  and  N7_28 
ROOT
HETATM    1  C8  UNL     1     -31.991 -14.307 -16.219  1.00  0.00     0.124 A 
HETATM    2  C9  UNL     1     -31.651 -13.200 -16.964  1.00  0.00     0.075 A 
HETATM    3  C10 UNL     1     -32.426 -12.781 -18.016  1.00  0.00     0.036 A 
HETATM    4  N6  UNL     1     -33.531 -13.500 -18.283  1.00  0.00    -0.195 N 
ATOM      5  H6  UNL     1     -34.118 -13.202 -19.062  1.00  0.00     0.184 HD
HETATM    6  C15 UNL     1     -33.910 -14.587 -17.590  1.00  0.00     0.682 A 
HETATM    7  N8  UNL     1     -33.102 -14.955 -16.559  1.00  0.00    -0.176 N 
ATOM      8  H8  UNL     1     -33.364 -15.776 -16.014  1.00  0.00     0.186 HD
ENDROOT
BRANCH   1   9
HETATM    9  N4  UNL     1     -31.149 -14.693 -15.141  1.00  0.00    -0.328 N 
ATOM     10  H4  UNL     1     -30.342 -15.288 -15.331  1.00  0.00     0.169 HD
BRANCH   9  11
HETATM   11  C7  UNL     1     -31.399 -14.274 -13.802  1.00  0.00     0.108 A 
HETATM   12  N3  UNL     1     -31.771 -15.191 -12.879  1.00  0.00    -0.351 N 
HETATM   13  C6  UNL     1     -32.023 -14.869 -11.598  1.00  0.00     0.104 A 
ATOM     14  H3  UNL     1     -31.863 -16.166 -13.166  1.00  0.00     0.166 HD
HETATM   15  C5  UNL     1     -31.908 -13.557 -11.173  1.00  0.00     0.025 A 
HETATM   16  C4  UNL     1     -32.089 -12.909  -9.962  1.00  0.00     0.122 A 
HETATM   17  C21 UNL     1     -31.527 -12.629 -12.126  1.00  0.00     0.067 A 
HETATM   18  N2  UNL     1     -31.819 -11.630 -10.213  1.00  0.00    -0.308 N 
HETATM   19  N1  UNL     1     -31.485 -11.445 -11.484  1.00  0.00    -0.288 N 
ATOM     20  H2  UNL     1     -31.863 -10.886  -9.517  1.00  0.00     0.186 HD
HETATM   21  C20 UNL     1     -31.267 -12.952 -13.440  1.00  0.00     0.080 A 
BRANCH  19  22
HETATM   22  C2  UNL     1     -31.140 -10.189 -12.066  1.00  0.00     0.100 C 
HETATM   23  C1  UNL     1     -30.142  -9.406 -11.256  1.00  0.00     0.034 C 
HETATM   24  C3  UNL     1     -32.387  -9.351 -12.242  1.00  0.00     0.034 C 
ENDBRANCH  19  22
ENDBRANCH   9  11
ENDBRANCH   1   9
BRANCH   3  25
HETATM   25  C11 UNL     1     -32.120 -11.611 -18.847  1.00  0.00     0.063 C 
HETATM   26  C12 UNL     1     -31.143 -11.913 -19.954  1.00  0.00     0.040 C 
HETATM   27  C13 UNL     1     -30.351 -10.605 -20.018  1.00  0.00     0.233 C 
HETATM   28  N5  UNL     1     -30.169 -10.338 -18.596  1.00  0.00    -0.074 N 
HETATM   29  C14 UNL     1     -31.500 -10.481 -18.043  1.00  0.00     0.243 C 
ATOM     30  H52 UNL     1     -29.463 -10.921 -18.146  1.00  0.00     0.277 HD
ATOM     31  H51 UNL     1     -29.722  -9.445 -18.389  1.00  0.00     0.277 HD
ENDBRANCH   3  25
BRANCH   6  32
HETATM   32  N7  UNL     1     -35.080 -15.325 -17.894  1.00  0.00    -0.212 N 
HETATM   33  C16 UNL     1     -36.146 -15.651 -16.978  1.00  0.00     0.147 C 
HETATM   34  C17 UNL     1     -36.954 -16.748 -17.639  1.00  0.00     0.101 C 
HETATM   35  C18 UNL     1     -36.051 -17.210 -18.777  1.00  0.00     0.261 C 
HETATM   36  F1  UNL     1     -36.758 -17.771 -19.804  1.00  0.00    -0.204 F 
HETATM   37  F2  UNL     1     -35.049 -18.056 -18.300  1.00  0.00    -0.204 F 
HETATM   38  C19 UNL     1     -35.414 -15.887 -19.181  1.00  0.00     0.220 C 
ENDBRANCH   6  32
TORSDOF 5
ENDMDL
