MODEL 15
REMARK VINA RESULT: -11.729905954      2.649      2.969
REMARK  10 active torsions:
REMARK  status: ('A' for Active; 'I' for Inactive)
REMARK       I    between atoms: C1_2  and  N1_3 
REMARK    1  A    between atoms: C1_2  and  C13_21 
REMARK    2  A    between atoms: N1_3  and  C2_5 
REMARK    3  A    between atoms: C2_5  and  C3_6 
REMARK    4  A    between atoms: C2_5  and  C7_13 
REMARK    5  A    between atoms: C3_6  and  N2_7 
REMARK    6  A    between atoms: C16_24  and  C17_25 
REMARK    7  A    between atoms: C18_30  and  C19_31 
REMARK    8  A    between atoms: C22_34  and  O2_35 
REMARK    9  A    between atoms: O2_35  and  C23_36 
REMARK   10  A    between atoms: C23_36  and  C24_37 
ROOT
HETATM    1  C13 UNL     1     -86.773 163.630 -15.113  1.00  0.00     0.032 A 
HETATM    2  C14 UNL     1     -87.633 163.767 -14.048  1.00  0.00     0.018 A 
HETATM    3  C15 UNL     1     -88.779 164.550 -14.128  1.00  0.00     0.017 A 
HETATM    4  C16 UNL     1     -89.075 165.214 -15.296  1.00  0.00     0.017 A 
HETATM    5  C27 UNL     1     -88.243 165.104 -16.380  1.00  0.00     0.017 A 
HETATM    6  C28 UNL     1     -87.099 164.304 -16.260  1.00  0.00     0.018 A 
ENDROOT
BRANCH   1   7
HETATM    7  C1  UNL     1     -85.578 162.814 -14.977  1.00  0.00     0.256 C 
HETATM    8  O1  UNL     1     -85.087 162.325 -16.050  1.00  0.00    -0.267 OA
HETATM    9  N1  UNL     1     -84.953 162.542 -13.755  1.00  0.00    -0.324 N 
ATOM     10  H1  UNL     1     -85.390 162.946 -12.927  1.00  0.00     0.169 HD
BRANCH   9  11
HETATM   11  C2  UNL     1     -83.743 161.743 -13.524  1.00  0.00     0.042 C 
BRANCH  11  12
HETATM   12  C3  UNL     1     -83.060 162.326 -12.374  1.00  0.00     0.187 C 
BRANCH  12  13
HETATM   13  N2  UNL     1     -81.777 161.789 -12.007  1.00  0.00    -0.346 N 
HETATM   14  C4  UNL     1     -81.413 160.552 -11.754  1.00  0.00     0.109 A 
HETATM   15  C5  UNL     1     -80.070 160.542 -11.427  1.00  0.00     0.106 A 
HETATM   16  N3  UNL     1     -79.644 161.800 -11.492  1.00  0.00    -0.361 N 
HETATM   17  C6  UNL     1     -80.666 162.581 -11.843  1.00  0.00     0.182 A 
ATOM     18  H3  UNL     1     -78.692 162.114 -11.304  1.00  0.00     0.166 HD
ENDBRANCH  12  13
ENDBRANCH  11  12
BRANCH  11  19
HETATM   19  C7  UNL     1     -83.887 160.321 -13.754  1.00  0.00     0.010 A 
HETATM   20  C8  UNL     1     -84.686 159.474 -13.061  1.00  0.00     0.017 A 
HETATM   21  C9  UNL     1     -84.772 158.123 -13.381  1.00  0.00     0.025 A 
HETATM   22  C10 UNL     1     -84.050 157.590 -14.414  1.00  0.00     0.035 A 
HETATM   23 CL1  UNL     1     -84.172 155.880 -14.803  1.00  0.00    -0.084 Cl
HETATM   24  C11 UNL     1     -83.237 158.428 -15.123  1.00  0.00     0.048 A 
HETATM   25  C12 UNL     1     -83.143 159.745 -14.822  1.00  0.00     0.048 A 
HETATM   26 CL2  UNL     1     -82.033 160.791 -15.718  1.00  0.00    -0.083 Cl
ENDBRANCH  11  19
ENDBRANCH   9  11
ENDBRANCH   1   7
BRANCH   4  27
HETATM   27  C17 UNL     1     -90.295 166.038 -15.353  1.00  0.00     0.174 A 
HETATM   28  N4  UNL     1     -91.555 165.559 -15.517  1.00  0.00    -0.277 N 
HETATM   29  N5  UNL     1     -92.382 166.584 -15.517  1.00  0.00    -0.277 N 
ATOM     30  H4  UNL     1     -91.815 164.579 -15.623  1.00  0.00     0.189 HD
HETATM   31  C18 UNL     1     -91.683 167.688 -15.357  1.00  0.00     0.177 A 
ATOM     32  H5  UNL     1     -93.395 166.531 -15.623  1.00  0.00     0.189 HD
HETATM   33  O3  UNL     1     -90.419 167.338 -15.260  1.00  0.00    -0.273 OA
BRANCH  31  34
HETATM   34  C19 UNL     1     -92.192 169.065 -15.296  1.00  0.00     0.055 A 
HETATM   35  C20 UNL     1     -91.586 170.004 -14.498  1.00  0.00     0.022 A 
HETATM   36  C21 UNL     1     -92.048 171.312 -14.444  1.00  0.00     0.038 A 
HETATM   37  C22 UNL     1     -93.133 171.729 -15.185  1.00  0.00     0.072 A 
HETATM   38  C25 UNL     1     -93.748 170.792 -15.990  1.00  0.00     0.080 A 
HETATM   39  C26 UNL     1     -93.282 169.472 -16.045  1.00  0.00     0.133 A 
HETATM   40  F4  UNL     1     -93.884 168.562 -16.826  1.00  0.00    -0.205 F 
BRANCH  37  41
HETATM   41  O2  UNL     1     -93.566 173.051 -15.108  1.00  0.00    -0.342 OA
BRANCH  41  42
HETATM   42  C23 UNL     1     -92.752 174.051 -14.538  1.00  0.00     0.293 C 
BRANCH  42  43
HETATM   43  C24 UNL     1     -91.824 174.666 -15.571  1.00  0.00     0.408 C 
HETATM   44  F1  UNL     1     -92.102 174.115 -16.790  1.00  0.00    -0.169 F 
HETATM   45  F2  UNL     1     -90.499 174.293 -15.289  1.00  0.00    -0.169 F 
HETATM   46  F3  UNL     1     -91.875 176.031 -15.550  1.00  0.00    -0.169 F 
ENDBRANCH  42  43
ENDBRANCH  41  42
ENDBRANCH  37  41
ENDBRANCH  31  34
ENDBRANCH   4  27
TORSDOF 10
ENDMDL
