MODEL 5
REMARK VINA RESULT: -12.376492614      1.439      1.725
REMARK  10 active torsions:
REMARK  status: ('A' for Active; 'I' for Inactive)
REMARK       I    between atoms: C1_2  and  N1_3 
REMARK    1  A    between atoms: C1_2  and  C13_21 
REMARK    2  A    between atoms: N1_3  and  C2_5 
REMARK    3  A    between atoms: C2_5  and  C3_6 
REMARK    4  A    between atoms: C2_5  and  C7_13 
REMARK    5  A    between atoms: C3_6  and  N2_7 
REMARK    6  A    between atoms: C16_24  and  C17_25 
REMARK    7  A    between atoms: C18_30  and  C19_31 
REMARK    8  A    between atoms: C22_34  and  O2_35 
REMARK    9  A    between atoms: O2_35  and  C23_36 
REMARK   10  A    between atoms: C23_36  and  C24_37 
ROOT
HETATM    1  C13 UNL     1     -86.061 162.700 -15.221  1.00  0.00     0.032 A 
HETATM    2  C14 UNL     1     -87.274 162.254 -14.751  1.00  0.00     0.018 A 
HETATM    3  C15 UNL     1     -88.464 162.898 -15.069  1.00  0.00     0.017 A 
HETATM    4  C16 UNL     1     -88.445 164.013 -15.874  1.00  0.00     0.017 A 
HETATM    5  C27 UNL     1     -87.257 164.490 -16.362  1.00  0.00     0.017 A 
HETATM    6  C28 UNL     1     -86.079 163.812 -16.020  1.00  0.00     0.018 A 
ENDROOT
BRANCH   1   7
HETATM    7  C1  UNL     1     -84.841 162.004 -14.848  1.00  0.00     0.256 C 
HETATM    8  O1  UNL     1     -83.746 162.463 -15.319  1.00  0.00    -0.267 OA
HETATM    9  N1  UNL     1     -84.806 160.878 -14.016  1.00  0.00    -0.324 N 
ATOM     10  H1  UNL     1     -85.707 160.544 -13.674  1.00  0.00     0.169 HD
BRANCH   9  11
HETATM   11  C2  UNL     1     -83.627 160.122 -13.577  1.00  0.00     0.042 C 
BRANCH  11  12
HETATM   12  C3  UNL     1     -83.339 160.537 -12.209  1.00  0.00     0.187 C 
BRANCH  12  13
HETATM   13  N2  UNL     1     -82.085 161.192 -11.950  1.00  0.00    -0.346 N 
HETATM   14  C4  UNL     1     -81.747 162.457 -12.059  1.00  0.00     0.109 A 
HETATM   15  C5  UNL     1     -80.417 162.594 -11.711  1.00  0.00     0.106 A 
HETATM   16  N3  UNL     1     -79.971 161.382 -11.393  1.00  0.00    -0.361 N 
HETATM   17  C6  UNL     1     -80.968 160.509 -11.531  1.00  0.00     0.182 A 
ATOM     18  H3  UNL     1     -79.022 161.158 -11.093  1.00  0.00     0.166 HD
ENDBRANCH  12  13
ENDBRANCH  11  12
BRANCH  11  19
HETATM   19  C7  UNL     1     -83.558 158.755 -14.048  1.00  0.00     0.010 A 
HETATM   20  C8  UNL     1     -84.160 157.681 -13.483  1.00  0.00     0.017 A 
HETATM   21  C9  UNL     1     -84.053 156.408 -14.031  1.00  0.00     0.025 A 
HETATM   22  C10 UNL     1     -83.330 156.185 -15.172  1.00  0.00     0.035 A 
HETATM   23 CL1  UNL     1     -83.205 154.568 -15.851  1.00  0.00    -0.084 Cl
HETATM   24  C11 UNL     1     -82.714 157.255 -15.757  1.00  0.00     0.048 A 
HETATM   25  C12 UNL     1     -82.811 158.500 -15.232  1.00  0.00     0.048 A 
HETATM   26 CL2  UNL     1     -81.948 159.853 -15.976  1.00  0.00    -0.083 Cl
ENDBRANCH  11  19
ENDBRANCH   9  11
ENDBRANCH   1   7
BRANCH   4  27
HETATM   27  C17 UNL     1     -89.722 164.676 -16.194  1.00  0.00     0.174 A 
HETATM   28  N4  UNL     1     -90.620 164.240 -17.113  1.00  0.00    -0.277 N 
HETATM   29  N5  UNL     1     -91.633 165.083 -17.123  1.00  0.00    -0.277 N 
ATOM     30  H4  UNL     1     -90.528 163.407 -17.694  1.00  0.00     0.189 HD
HETATM   31  C18 UNL     1     -91.398 166.031 -16.241  1.00  0.00     0.177 A 
ATOM     32  H5  UNL     1     -92.460 165.012 -17.716  1.00  0.00     0.189 HD
HETATM   33  O3  UNL     1     -90.235 165.769 -15.687  1.00  0.00    -0.273 OA
BRANCH  31  34
HETATM   34  C19 UNL     1     -92.257 167.178 -15.915  1.00  0.00     0.055 A 
HETATM   35  C20 UNL     1     -92.309 167.678 -14.637  1.00  0.00     0.022 A 
HETATM   36  C21 UNL     1     -93.104 168.770 -14.321  1.00  0.00     0.038 A 
HETATM   37  C22 UNL     1     -93.877 169.404 -15.270  1.00  0.00     0.072 A 
HETATM   38  C25 UNL     1     -93.832 168.909 -16.557  1.00  0.00     0.080 A 
HETATM   39  C26 UNL     1     -93.029 167.806 -16.877  1.00  0.00     0.133 A 
HETATM   40  F4  UNL     1     -92.989 167.325 -18.128  1.00  0.00    -0.205 F 
BRANCH  37  41
HETATM   41  O2  UNL     1     -94.660 170.501 -14.916  1.00  0.00    -0.342 OA
BRANCH  41  42
HETATM   42  C23 UNL     1     -94.359 171.793 -15.392  1.00  0.00     0.293 C 
BRANCH  42  43
HETATM   43  C24 UNL     1     -93.080 172.328 -14.774  1.00  0.00     0.408 C 
HETATM   44  F1  UNL     1     -93.011 173.673 -15.009  1.00  0.00    -0.169 F 
HETATM   45  F2  UNL     1     -91.973 171.779 -15.441  1.00  0.00    -0.169 F 
HETATM   46  F3  UNL     1     -92.971 171.986 -13.456  1.00  0.00    -0.169 F 
ENDBRANCH  42  43
ENDBRANCH  41  42
ENDBRANCH  37  41
ENDBRANCH  31  34
ENDBRANCH   4  27
TORSDOF 10
ENDMDL
