MODEL 6
REMARK VINA RESULT: -12.067265306      2.911      3.599
REMARK  10 active torsions:
REMARK  status: ('A' for Active; 'I' for Inactive)
REMARK       I    between atoms: C1_2  and  N1_3 
REMARK    1  A    between atoms: C1_2  and  C13_21 
REMARK    2  A    between atoms: N1_3  and  C2_5 
REMARK    3  A    between atoms: C2_5  and  C3_6 
REMARK    4  A    between atoms: C2_5  and  C7_13 
REMARK    5  A    between atoms: C3_6  and  N2_7 
REMARK    6  A    between atoms: C16_24  and  C17_25 
REMARK    7  A    between atoms: C18_30  and  C19_31 
REMARK    8  A    between atoms: C22_34  and  O2_35 
REMARK    9  A    between atoms: O2_35  and  C23_36 
REMARK   10  A    between atoms: C23_36  and  C24_37 
ROOT
HETATM    1  C13 UNL     1     -86.515 163.815 -15.523  1.00  0.00     0.032 A 
HETATM    2  C14 UNL     1     -87.720 163.285 -15.123  1.00  0.00     0.018 A 
HETATM    3  C15 UNL     1     -88.924 163.929 -15.382  1.00  0.00     0.017 A 
HETATM    4  C16 UNL     1     -88.929 165.129 -16.053  1.00  0.00     0.017 A 
HETATM    5  C27 UNL     1     -87.749 165.691 -16.469  1.00  0.00     0.017 A 
HETATM    6  C28 UNL     1     -86.556 165.010 -16.190  1.00  0.00     0.018 A 
ENDROOT
BRANCH   1   7
HETATM    7  C1  UNL     1     -85.279 163.114 -15.215  1.00  0.00     0.256 C 
HETATM    8  O1  UNL     1     -84.344 163.182 -16.082  1.00  0.00    -0.267 OA
HETATM    9  N1  UNL     1     -85.068 162.381 -14.041  1.00  0.00    -0.324 N 
ATOM     10  H1  UNL     1     -85.849 162.348 -13.385  1.00  0.00     0.169 HD
BRANCH   9  11
HETATM   11  C2  UNL     1     -83.856 161.656 -13.641  1.00  0.00     0.042 C 
BRANCH  11  12
HETATM   12  C3  UNL     1     -83.398 162.247 -12.389  1.00  0.00     0.187 C 
BRANCH  12  13
HETATM   13  N2  UNL     1     -82.066 161.939 -11.943  1.00  0.00    -0.346 N 
HETATM   14  C4  UNL     1     -81.650 161.107 -11.014  1.00  0.00     0.109 A 
HETATM   15  C5  UNL     1     -80.272 161.173 -10.943  1.00  0.00     0.106 A 
HETATM   16  N3  UNL     1     -79.877 162.061 -11.850  1.00  0.00    -0.361 N 
HETATM   17  C6  UNL     1     -80.952 162.543 -12.474  1.00  0.00     0.182 A 
ATOM     18  H3  UNL     1     -78.911 162.329 -12.038  1.00  0.00     0.166 HD
ENDBRANCH  12  13
ENDBRANCH  11  12
BRANCH  11  19
HETATM   19  C7  UNL     1     -83.866 160.235 -13.918  1.00  0.00     0.010 A 
HETATM   20  C8  UNL     1     -84.633 159.303 -13.301  1.00  0.00     0.017 A 
HETATM   21  C9  UNL     1     -84.587 157.961 -13.661  1.00  0.00     0.025 A 
HETATM   22  C10 UNL     1     -83.760 157.522 -14.659  1.00  0.00     0.035 A 
HETATM   23 CL1  UNL     1     -83.715 155.820 -15.101  1.00  0.00    -0.084 Cl
HETATM   24  C11 UNL     1     -82.977 158.446 -15.292  1.00  0.00     0.048 A 
HETATM   25  C12 UNL     1     -83.013 159.755 -14.951  1.00  0.00     0.048 A 
HETATM   26 CL2  UNL     1     -81.940 160.916 -15.745  1.00  0.00    -0.083 Cl
ENDBRANCH  11  19
ENDBRANCH   9  11
ENDBRANCH   1   7
BRANCH   4  27
HETATM   27  C17 UNL     1     -90.220 165.790 -16.314  1.00  0.00     0.174 A 
HETATM   28  N4  UNL     1     -90.810 166.701 -15.499  1.00  0.00    -0.277 N 
HETATM   29  N5  UNL     1     -91.945 167.070 -16.056  1.00  0.00    -0.277 N 
ATOM     30  H4  UNL     1     -90.440 167.041 -14.611  1.00  0.00     0.189 HD
HETATM   31  C18 UNL     1     -92.085 166.420 -17.192  1.00  0.00     0.177 A 
ATOM     32  H5  UNL     1     -92.606 167.745 -15.671  1.00  0.00     0.189 HD
HETATM   33  O3  UNL     1     -91.030 165.648 -17.332  1.00  0.00    -0.273 OA
BRANCH  31  34
HETATM   34  C19 UNL     1     -93.200 166.519 -18.145  1.00  0.00     0.055 A 
HETATM   35  C20 UNL     1     -92.985 166.397 -19.495  1.00  0.00     0.022 A 
HETATM   36  C21 UNL     1     -94.031 166.473 -20.403  1.00  0.00     0.038 A 
HETATM   37  C22 UNL     1     -95.332 166.674 -19.995  1.00  0.00     0.072 A 
HETATM   38  C25 UNL     1     -95.559 166.797 -18.640  1.00  0.00     0.080 A 
HETATM   39  C26 UNL     1     -94.502 166.720 -17.723  1.00  0.00     0.133 A 
HETATM   40  F4  UNL     1     -94.725 166.844 -16.405  1.00  0.00    -0.205 F 
BRANCH  37  41
HETATM   41  O2  UNL     1     -96.359 166.740 -20.936  1.00  0.00    -0.342 OA
BRANCH  41  42
HETATM   42  C23 UNL     1     -96.600 167.921 -21.667  1.00  0.00     0.293 C 
BRANCH  42  43
HETATM   43  C24 UNL     1     -97.948 168.525 -21.317  1.00  0.00     0.408 C 
HETATM   44  F1  UNL     1     -97.767 169.842 -21.000  1.00  0.00    -0.169 F 
HETATM   45  F2  UNL     1     -98.438 167.926 -20.145  1.00  0.00    -0.169 F 
HETATM   46  F3  UNL     1     -98.872 168.309 -22.300  1.00  0.00    -0.169 F 
ENDBRANCH  42  43
ENDBRANCH  41  42
ENDBRANCH  37  41
ENDBRANCH  31  34
ENDBRANCH   4  27
TORSDOF 10
ENDMDL
