MODEL 16
REMARK VINA RESULT: -11.675131475      2.001      2.560
REMARK  10 active torsions:
REMARK  status: ('A' for Active; 'I' for Inactive)
REMARK       I    between atoms: C1_2  and  N1_3 
REMARK    1  A    between atoms: C1_2  and  C13_21 
REMARK    2  A    between atoms: N1_3  and  C2_5 
REMARK    3  A    between atoms: C2_5  and  C3_6 
REMARK    4  A    between atoms: C2_5  and  C7_13 
REMARK    5  A    between atoms: C3_6  and  N2_7 
REMARK    6  A    between atoms: C16_24  and  C17_25 
REMARK    7  A    between atoms: C18_30  and  C19_31 
REMARK    8  A    between atoms: C22_34  and  O2_35 
REMARK    9  A    between atoms: O2_35  and  C23_36 
REMARK   10  A    between atoms: C23_36  and  C24_37 
ROOT
HETATM    1  C13 UNL     1     -86.160 162.751 -15.541  1.00  0.00     0.032 A 
HETATM    2  C14 UNL     1     -86.208 163.914 -16.275  1.00  0.00     0.018 A 
HETATM    3  C15 UNL     1     -87.390 164.625 -16.442  1.00  0.00     0.017 A 
HETATM    4  C16 UNL     1     -88.552 164.169 -15.866  1.00  0.00     0.017 A 
HETATM    5  C27 UNL     1     -88.546 163.014 -15.126  1.00  0.00     0.017 A 
HETATM    6  C28 UNL     1     -87.334 162.326 -14.981  1.00  0.00     0.018 A 
ENDROOT
BRANCH   1   7
HETATM    7  C1  UNL     1     -84.904 162.031 -15.409  1.00  0.00     0.256 C 
HETATM    8  O1  UNL     1     -83.929 162.432 -16.130  1.00  0.00    -0.267 OA
HETATM    9  N1  UNL     1     -84.714 160.943 -14.550  1.00  0.00    -0.324 N 
ATOM     10  H1  UNL     1     -85.526 160.654 -14.003  1.00  0.00     0.169 HD
BRANCH   9  11
HETATM   11  C2  UNL     1     -83.485 160.167 -14.342  1.00  0.00     0.042 C 
BRANCH  11  12
HETATM   12  C3  UNL     1     -82.717 160.854 -13.309  1.00  0.00     0.187 C 
BRANCH  12  13
HETATM   13  N2  UNL     1     -83.435 161.433 -12.205  1.00  0.00    -0.346 N 
HETATM   14  C4  UNL     1     -83.892 162.654 -12.033  1.00  0.00     0.109 A 
HETATM   15  C5  UNL     1     -84.503 162.729 -10.796  1.00  0.00     0.106 A 
HETATM   16  N3  UNL     1     -84.400 161.528 -10.236  1.00  0.00    -0.361 N 
HETATM   17  C6  UNL     1     -83.752 160.719 -11.075  1.00  0.00     0.182 A 
ATOM     18  H3  UNL     1     -84.757 161.268  -9.317  1.00  0.00     0.166 HD
ENDBRANCH  12  13
ENDBRANCH  11  12
BRANCH  11  19
HETATM   19  C7  UNL     1     -83.639 158.730 -14.425  1.00  0.00     0.010 A 
HETATM   20  C8  UNL     1     -84.454 157.965 -13.659  1.00  0.00     0.017 A 
HETATM   21  C9  UNL     1     -84.548 156.589 -13.838  1.00  0.00     0.025 A 
HETATM   22  C10 UNL     1     -83.819 155.947 -14.801  1.00  0.00     0.035 A 
HETATM   23 CL1  UNL     1     -83.951 154.206 -15.013  1.00  0.00    -0.084 Cl
HETATM   24  C11 UNL     1     -82.989 156.701 -15.583  1.00  0.00     0.048 A 
HETATM   25  C12 UNL     1     -82.888 158.041 -15.418  1.00  0.00     0.048 A 
HETATM   26 CL2  UNL     1     -81.757 158.980 -16.403  1.00  0.00    -0.083 Cl
ENDBRANCH  11  19
ENDBRANCH   9  11
ENDBRANCH   1   7
BRANCH   4  27
HETATM   27  C17 UNL     1     -89.791 164.943 -16.059  1.00  0.00     0.174 A 
HETATM   28  N4  UNL     1     -90.898 164.498 -16.705  1.00  0.00    -0.277 N 
HETATM   29  N5  UNL     1     -91.798 165.459 -16.679  1.00  0.00    -0.277 N 
ATOM     30  H4  UNL     1     -91.014 163.580 -17.135  1.00  0.00     0.189 HD
HETATM   31  C18 UNL     1     -91.291 166.491 -16.038  1.00  0.00     0.177 A 
ATOM     32  H5  UNL     1     -92.731 165.412 -17.087  1.00  0.00     0.189 HD
HETATM   33  O3  UNL     1     -90.073 166.161 -15.670  1.00  0.00    -0.273 OA
BRANCH  31  34
HETATM   34  C19 UNL     1     -91.941 167.782 -15.770  1.00  0.00     0.055 A 
HETATM   35  C20 UNL     1     -91.452 168.629 -14.806  1.00  0.00     0.022 A 
HETATM   36  C21 UNL     1     -92.048 169.857 -14.554  1.00  0.00     0.038 A 
HETATM   37  C22 UNL     1     -93.154 170.283 -15.257  1.00  0.00     0.072 A 
HETATM   38  C25 UNL     1     -93.652 169.439 -16.228  1.00  0.00     0.080 A 
HETATM   39  C26 UNL     1     -93.051 168.200 -16.482  1.00  0.00     0.133 A 
HETATM   40  F4  UNL     1     -93.539 167.379 -17.424  1.00  0.00    -0.205 F 
BRANCH  37  41
HETATM   41  O2  UNL     1     -93.723 171.525 -14.980  1.00  0.00    -0.342 OA
BRANCH  41  42
HETATM   42  C23 UNL     1     -93.182 172.710 -15.519  1.00  0.00     0.293 C 
BRANCH  42  43
HETATM   43  C24 UNL     1     -92.251 173.394 -14.534  1.00  0.00     0.408 C 
HETATM   44  F1  UNL     1     -92.464 174.743 -14.598  1.00  0.00    -0.169 F 
HETATM   45  F2  UNL     1     -90.921 173.209 -14.943  1.00  0.00    -0.169 F 
HETATM   46  F3  UNL     1     -92.367 172.870 -13.278  1.00  0.00    -0.169 F 
ENDBRANCH  42  43
ENDBRANCH  41  42
ENDBRANCH  37  41
ENDBRANCH  31  34
ENDBRANCH   4  27
TORSDOF 10
ENDMDL
