MODEL 7
REMARK VINA RESULT: -12.056573198      6.476     13.981
REMARK  10 active torsions:
REMARK  status: ('A' for Active; 'I' for Inactive)
REMARK       I    between atoms: C1_2  and  N1_3 
REMARK    1  A    between atoms: C1_2  and  C13_21 
REMARK    2  A    between atoms: N1_3  and  C2_5 
REMARK    3  A    between atoms: C2_5  and  C3_6 
REMARK    4  A    between atoms: C2_5  and  C7_13 
REMARK    5  A    between atoms: C3_6  and  N2_7 
REMARK    6  A    between atoms: C16_24  and  C17_25 
REMARK    7  A    between atoms: C18_30  and  C19_31 
REMARK    8  A    between atoms: C22_34  and  O2_35 
REMARK    9  A    between atoms: O2_35  and  C23_36 
REMARK   10  A    between atoms: C23_36  and  C24_37 
ROOT
HETATM    1  C13 UNL     1     -90.318 166.163 -15.797  1.00  0.00     0.032 A 
HETATM    2  C14 UNL     1     -89.139 166.702 -15.335  1.00  0.00     0.018 A 
HETATM    3  C15 UNL     1     -87.971 165.953 -15.264  1.00  0.00     0.017 A 
HETATM    4  C16 UNL     1     -87.976 164.636 -15.661  1.00  0.00     0.017 A 
HETATM    5  C27 UNL     1     -89.130 164.062 -16.127  1.00  0.00     0.017 A 
HETATM    6  C28 UNL     1     -90.287 164.851 -16.184  1.00  0.00     0.018 A 
ENDROOT
BRANCH   1   7
HETATM    7  C1  UNL     1     -91.519 166.981 -15.837  1.00  0.00     0.256 C 
HETATM    8  O1  UNL     1     -92.296 166.818 -16.837  1.00  0.00    -0.267 OA
HETATM    9  N1  UNL     1     -91.859 167.919 -14.855  1.00  0.00    -0.324 N 
ATOM     10  H1  UNL     1     -91.201 168.019 -14.083  1.00  0.00     0.169 HD
BRANCH   9  11
HETATM   11  C2  UNL     1     -93.051 168.775 -14.806  1.00  0.00     0.042 C 
BRANCH  11  12
HETATM   12  C3  UNL     1     -94.079 168.034 -14.084  1.00  0.00     0.187 C 
BRANCH  12  13
HETATM   13  N2  UNL     1     -95.438 168.494 -14.182  1.00  0.00    -0.346 N 
HETATM   14  C4  UNL     1     -96.365 168.229 -15.076  1.00  0.00     0.109 A 
HETATM   15  C5  UNL     1     -97.512 168.926 -14.748  1.00  0.00     0.106 A 
HETATM   16  N3  UNL     1     -97.248 169.611 -13.639  1.00  0.00    -0.361 N 
HETATM   17  C6  UNL     1     -95.990 169.365 -13.273  1.00  0.00     0.182 A 
ATOM     18  H3  UNL     1     -97.900 170.222 -13.149  1.00  0.00     0.166 HD
ENDBRANCH  12  13
ENDBRANCH  11  12
BRANCH  11  19
HETATM   19  C7  UNL     1     -92.790 170.188 -14.634  1.00  0.00     0.010 A 
HETATM   20  C8  UNL     1     -91.999 170.749 -13.688  1.00  0.00     0.017 A 
HETATM   21  C9  UNL     1     -91.792 172.123 -13.625  1.00  0.00     0.025 A 
HETATM   22  C10 UNL     1     -92.384 172.971 -14.521  1.00  0.00     0.035 A 
HETATM   23 CL1  UNL     1     -92.112 174.706 -14.426  1.00  0.00    -0.084 Cl
HETATM   24  C11 UNL     1     -93.188 172.426 -15.483  1.00  0.00     0.048 A 
HETATM   25  C12 UNL     1     -93.397 171.089 -15.554  1.00  0.00     0.048 A 
HETATM   26 CL2  UNL     1     -94.494 170.420 -16.770  1.00  0.00    -0.083 Cl
ENDBRANCH  11  19
ENDBRANCH   9  11
ENDBRANCH   1   7
BRANCH   4  27
HETATM   27  C17 UNL     1     -86.722 163.865 -15.575  1.00  0.00     0.174 A 
HETATM   28  N4  UNL     1     -85.508 164.298 -15.997  1.00  0.00    -0.277 N 
HETATM   29  N5  UNL     1     -84.630 163.345 -15.758  1.00  0.00    -0.277 N 
ATOM     30  H4  UNL     1     -85.308 165.203 -16.424  1.00  0.00     0.189 HD
HETATM   31  C18 UNL     1     -85.256 162.330 -15.200  1.00  0.00     0.177 A 
ATOM     32  H5  UNL     1     -83.634 163.387 -15.969  1.00  0.00     0.189 HD
HETATM   33  O3  UNL     1     -86.524 162.663 -15.097  1.00  0.00    -0.273 OA
BRANCH  31  34
HETATM   34  C19 UNL     1     -84.673 161.054 -14.764  1.00  0.00     0.055 A 
HETATM   35  C20 UNL     1     -85.265 159.860 -15.094  1.00  0.00     0.022 A 
HETATM   36  C21 UNL     1     -84.715 158.648 -14.702  1.00  0.00     0.038 A 
HETATM   37  C22 UNL     1     -83.553 158.584 -13.964  1.00  0.00     0.072 A 
HETATM   38  C25 UNL     1     -82.950 159.778 -13.627  1.00  0.00     0.080 A 
HETATM   39  C26 UNL     1     -83.505 161.002 -14.024  1.00  0.00     0.133 A 
HETATM   40  F4  UNL     1     -82.918 162.162 -13.692  1.00  0.00    -0.205 F 
BRANCH  37  41
HETATM   41  O2  UNL     1     -83.028 157.348 -13.592  1.00  0.00    -0.342 OA
BRANCH  41  42
HETATM   42  C23 UNL     1     -82.058 156.701 -14.385  1.00  0.00     0.293 C 
BRANCH  42  43
HETATM   43  C24 UNL     1     -82.699 155.740 -15.371  1.00  0.00     0.408 C 
HETATM   44  F1  UNL     1     -83.172 156.458 -16.433  1.00  0.00    -0.169 F 
HETATM   45  F2  UNL     1     -83.833 155.156 -14.784  1.00  0.00    -0.169 F 
HETATM   46  F3  UNL     1     -81.851 154.726 -15.716  1.00  0.00    -0.169 F 
ENDBRANCH  42  43
ENDBRANCH  41  42
ENDBRANCH  37  41
ENDBRANCH  31  34
ENDBRANCH   4  27
TORSDOF 10
ENDMDL
