MODEL 11
REMARK VINA RESULT: -11.823037789      2.924      3.752
REMARK  10 active torsions:
REMARK  status: ('A' for Active; 'I' for Inactive)
REMARK       I    between atoms: C1_2  and  N1_3 
REMARK    1  A    between atoms: C1_2  and  C13_21 
REMARK    2  A    between atoms: N1_3  and  C2_5 
REMARK    3  A    between atoms: C2_5  and  C3_6 
REMARK    4  A    between atoms: C2_5  and  C7_13 
REMARK    5  A    between atoms: C3_6  and  N2_7 
REMARK    6  A    between atoms: C16_24  and  C17_25 
REMARK    7  A    between atoms: C18_30  and  C19_31 
REMARK    8  A    between atoms: C22_34  and  O2_35 
REMARK    9  A    between atoms: O2_35  and  C23_36 
REMARK   10  A    between atoms: C23_36  and  C24_37 
ROOT
HETATM    1  C13 UNL     1     -86.777 163.797 -15.259  1.00  0.00     0.032 A 
HETATM    2  C14 UNL     1     -86.990 164.474 -16.437  1.00  0.00     0.018 A 
HETATM    3  C15 UNL     1     -88.172 165.162 -16.681  1.00  0.00     0.017 A 
HETATM    4  C16 UNL     1     -89.166 165.176 -15.731  1.00  0.00     0.017 A 
HETATM    5  C27 UNL     1     -88.993 164.514 -14.543  1.00  0.00     0.017 A 
HETATM    6  C28 UNL     1     -87.786 163.832 -14.334  1.00  0.00     0.018 A 
ENDROOT
BRANCH   1   7
HETATM    7  C1  UNL     1     -85.531 163.076 -15.054  1.00  0.00     0.256 C 
HETATM    8  O1  UNL     1     -84.775 162.928 -16.073  1.00  0.00    -0.267 OA
HETATM    9  N1  UNL     1     -85.128 162.546 -13.823  1.00  0.00    -0.324 N 
ATOM     10  H1  UNL     1     -85.771 162.681 -13.043  1.00  0.00     0.169 HD
BRANCH   9  11
HETATM   11  C2  UNL     1     -83.889 161.819 -13.522  1.00  0.00     0.042 C 
BRANCH  11  12
HETATM   12  C3  UNL     1     -83.378 162.350 -12.263  1.00  0.00     0.187 C 
BRANCH  12  13
HETATM   13  N2  UNL     1     -82.044 161.984 -11.866  1.00  0.00    -0.346 N 
HETATM   14  C4  UNL     1     -81.630 161.109 -10.977  1.00  0.00     0.109 A 
HETATM   15  C5  UNL     1     -80.249 161.128 -10.944  1.00  0.00     0.106 A 
HETATM   16  N3  UNL     1     -79.850 162.034 -11.833  1.00  0.00    -0.361 N 
HETATM   17  C6  UNL     1     -80.926 162.571 -12.409  1.00  0.00     0.182 A 
ATOM     18  H3  UNL     1     -78.882 162.277 -12.039  1.00  0.00     0.166 HD
ENDBRANCH  12  13
ENDBRANCH  11  12
BRANCH  11  19
HETATM   19  C7  UNL     1     -83.894 160.414 -13.873  1.00  0.00     0.010 A 
HETATM   20  C8  UNL     1     -84.670 159.452 -13.318  1.00  0.00     0.017 A 
HETATM   21  C9  UNL     1     -84.618 158.130 -13.748  1.00  0.00     0.025 A 
HETATM   22  C10 UNL     1     -83.776 157.744 -14.755  1.00  0.00     0.035 A 
HETATM   23 CL1  UNL     1     -83.723 156.069 -15.285  1.00  0.00    -0.084 Cl
HETATM   24  C11 UNL     1     -82.983 158.700 -15.327  1.00  0.00     0.048 A 
HETATM   25  C12 UNL     1     -83.025 159.990 -14.917  1.00  0.00     0.048 A 
HETATM   26 CL2  UNL     1     -81.941 161.190 -15.633  1.00  0.00    -0.083 Cl
ENDBRANCH  11  19
ENDBRANCH   9  11
ENDBRANCH   1   7
BRANCH   4  27
HETATM   27  C17 UNL     1     -90.409 165.914 -16.017  1.00  0.00     0.174 A 
HETATM   28  N4  UNL     1     -90.926 166.905 -15.247  1.00  0.00    -0.277 N 
HETATM   29  N5  UNL     1     -92.037 167.325 -15.816  1.00  0.00    -0.277 N 
ATOM     30  H4  UNL     1     -90.524 167.262 -14.380  1.00  0.00     0.189 HD
HETATM   31  C18 UNL     1     -92.233 166.630 -16.917  1.00  0.00     0.177 A 
ATOM     32  H5  UNL     1     -92.644 168.064 -15.462  1.00  0.00     0.189 HD
HETATM   33  O3  UNL     1     -91.237 165.779 -17.023  1.00  0.00    -0.273 OA
BRANCH  31  34
HETATM   34  C19 UNL     1     -93.346 166.761 -17.867  1.00  0.00     0.055 A 
HETATM   35  C20 UNL     1     -93.146 166.588 -19.214  1.00  0.00     0.022 A 
HETATM   36  C21 UNL     1     -94.192 166.693 -20.120  1.00  0.00     0.038 A 
HETATM   37  C22 UNL     1     -95.478 166.975 -19.711  1.00  0.00     0.072 A 
HETATM   38  C25 UNL     1     -95.690 167.149 -18.360  1.00  0.00     0.080 A 
HETATM   39  C26 UNL     1     -94.634 167.043 -17.446  1.00  0.00     0.133 A 
HETATM   40  F4  UNL     1     -94.842 167.217 -16.131  1.00  0.00    -0.205 F 
BRANCH  37  41
HETATM   41  O2  UNL     1     -96.505 167.068 -20.650  1.00  0.00    -0.342 OA
BRANCH  41  42
HETATM   42  C23 UNL     1     -97.042 165.915 -21.257  1.00  0.00     0.293 C 
BRANCH  42  43
HETATM   43  C24 UNL     1     -98.148 165.307 -20.412  1.00  0.00     0.408 C 
HETATM   44  F1  UNL     1     -99.039 164.686 -21.242  1.00  0.00    -0.169 F 
HETATM   45  F2  UNL     1     -98.877 166.333 -19.788  1.00  0.00    -0.169 F 
HETATM   46  F3  UNL     1     -97.650 164.504 -19.426  1.00  0.00    -0.169 F 
ENDBRANCH  42  43
ENDBRANCH  41  42
ENDBRANCH  37  41
ENDBRANCH  31  34
ENDBRANCH   4  27
TORSDOF 10
ENDMDL
