MODEL 7
REMARK VINA RESULT: -5.860959406      4.238      5.413
REMARK  2 active torsions:
REMARK  status: ('A' for Active; 'I' for Inactive)
REMARK       I    between atoms: C1_2  and  N1_3 
REMARK    1  A    between atoms: C1_2  and  C2_7 
REMARK    2  A    between atoms: N1_3  and  O2_5 
ROOT
HETATM    1  C2  UNL     1      30.513  -3.316  -9.801  1.00  0.00     0.008 C 
HETATM    2  C3  UNL     1      30.074  -4.347 -10.500  1.00  0.00    -0.014 C 
HETATM    3  C4  UNL     1      29.246  -5.424  -9.880  1.00  0.00     0.028 C 
HETATM    4  C5  UNL     1      28.302  -4.928  -8.837  1.00  0.00     0.004 C 
HETATM    5  C6  UNL     1      28.690  -3.656  -8.175  1.00  0.00     0.005 C 
HETATM    6  C7  UNL     1      30.137  -3.285  -8.361  1.00  0.00     0.044 C 
ENDROOT
BRANCH   1   7
HETATM    7  C1  UNL     1      31.319  -2.247 -10.362  1.00  0.00     0.270 C 
HETATM    8  O1  UNL     1      31.595  -1.267  -9.573  1.00  0.00    -0.266 OA
HETATM    9  N1  UNL     1      31.797  -2.241 -11.691  1.00  0.00    -0.234 N 
ATOM     10  H1  UNL     1      31.591  -3.006 -12.333  1.00  0.00     0.197 HD
BRANCH   9  11
HETATM   11  O2  UNL     1      32.539  -1.177 -12.078  1.00  0.00    -0.287 OA
ATOM     12  H2  UNL     1      32.088  -0.471 -12.526  1.00  0.00     0.244 HD
ENDBRANCH   9  11
ENDBRANCH   1   7
TORSDOF 2
ENDMDL
