MODEL 2
REMARK VINA RESULT: -6.791501570      1.470      1.902
REMARK  2 active torsions:
REMARK  status: ('A' for Active; 'I' for Inactive)
REMARK       I    between atoms: C1_2  and  N1_3 
REMARK    1  A    between atoms: C1_2  and  C2_7 
REMARK    2  A    between atoms: N1_3  and  O2_5 
ROOT
HETATM    1  C2  UNL     1      29.413  -3.974  -8.713  1.00  0.00     0.008 C 
HETATM    2  C3  UNL     1      30.617  -3.432  -8.672  1.00  0.00    -0.014 C 
HETATM    3  C4  UNL     1      31.774  -4.026  -9.406  1.00  0.00     0.028 C 
HETATM    4  C5  UNL     1      31.404  -4.627 -10.720  1.00  0.00     0.004 C 
HETATM    5  C6  UNL     1      29.990  -5.066 -10.848  1.00  0.00     0.005 C 
HETATM    6  C7  UNL     1      29.271  -5.208  -9.533  1.00  0.00     0.044 C 
ENDROOT
BRANCH   1   7
HETATM    7  C1  UNL     1      28.261  -3.432  -8.016  1.00  0.00     0.270 C 
HETATM    8  O1  UNL     1      27.318  -2.957  -8.755  1.00  0.00    -0.266 OA
HETATM    9  N1  UNL     1      28.137  -3.405  -6.609  1.00  0.00    -0.234 N 
ATOM     10  H1  UNL     1      28.871  -3.774  -6.005  1.00  0.00     0.197 HD
BRANCH   9  11
HETATM   11  O2  UNL     1      27.006  -2.868  -6.096  1.00  0.00    -0.287 OA
ATOM     12  H2  UNL     1      27.104  -2.170  -5.460  1.00  0.00     0.244 HD
ENDBRANCH   9  11
ENDBRANCH   1   7
TORSDOF 2
ENDMDL
