MODEL 1
REMARK VINA RESULT: -6.820273210      0.000      0.000
REMARK  2 active torsions:
REMARK  status: ('A' for Active; 'I' for Inactive)
REMARK       I    between atoms: C1_2  and  N1_3 
REMARK    1  A    between atoms: C1_2  and  C2_7 
REMARK    2  A    between atoms: N1_3  and  O2_5 
ROOT
HETATM    1  C2  UNL     1      28.248  -3.825  -7.485  1.00  0.00     0.008 C 
HETATM    2  C3  UNL     1      29.337  -3.100  -7.303  1.00  0.00    -0.014 C 
HETATM    3  C4  UNL     1      30.580  -3.331  -8.097  1.00  0.00     0.028 C 
HETATM    4  C5  UNL     1      30.321  -3.725  -9.512  1.00  0.00     0.004 C 
HETATM    5  C6  UNL     1      29.008  -4.371  -9.768  1.00  0.00     0.005 C 
HETATM    6  C7  UNL     1      28.326  -4.885  -8.528  1.00  0.00     0.044 C 
ENDROOT
BRANCH   1   7
HETATM    7  C1  UNL     1      27.019  -3.635  -6.737  1.00  0.00     0.270 C 
HETATM    8  O1  UNL     1      26.414  -2.510  -6.910  1.00  0.00    -0.266 OA
HETATM    9  N1  UNL     1      26.479  -4.600  -5.858  1.00  0.00    -0.234 N 
ATOM     10  H1  UNL     1      26.941  -5.497  -5.706  1.00  0.00     0.197 HD
BRANCH   9  11
HETATM   11  O2  UNL     1      25.324  -4.287  -5.227  1.00  0.00    -0.287 OA
ATOM     12  H2  UNL     1      24.743  -5.003  -5.000  1.00  0.00     0.244 HD
ENDBRANCH   9  11
ENDBRANCH   1   7
TORSDOF 2
ENDMDL
