MODEL 9
REMARK VINA RESULT: -5.482386338      4.494      5.310
REMARK  2 active torsions:
REMARK  status: ('A' for Active; 'I' for Inactive)
REMARK       I    between atoms: C1_2  and  N1_3 
REMARK    1  A    between atoms: C1_2  and  C2_7 
REMARK    2  A    between atoms: N1_3  and  O2_5 
ROOT
HETATM    1  C2  UNL     1      30.928  -3.813  -9.489  1.00  0.00     0.008 C 
HETATM    2  C3  UNL     1      30.243  -3.346  -8.461  1.00  0.00    -0.014 C 
HETATM    3  C4  UNL     1      28.769  -3.550  -8.337  1.00  0.00     0.028 C 
HETATM    4  C5  UNL     1      28.303  -4.871  -8.850  1.00  0.00     0.004 C 
HETATM    5  C6  UNL     1      29.174  -5.504  -9.874  1.00  0.00     0.005 C 
HETATM    6  C7  UNL     1      30.151  -4.557 -10.518  1.00  0.00     0.044 C 
ENDROOT
BRANCH   1   7
HETATM    7  C1  UNL     1      32.360  -3.638  -9.650  1.00  0.00     0.270 C 
HETATM    8  O1  UNL     1      32.744  -2.520 -10.163  1.00  0.00    -0.266 OA
HETATM    9  N1  UNL     1      33.315  -4.610  -9.279  1.00  0.00    -0.234 N 
ATOM     10  H1  UNL     1      33.033  -5.502  -8.871  1.00  0.00     0.197 HD
BRANCH   9  11
HETATM   11  O2  UNL     1      34.618  -4.311  -9.486  1.00  0.00    -0.287 OA
ATOM     12  H2  UNL     1      35.212  -4.419  -8.753  1.00  0.00     0.244 HD
ENDBRANCH   9  11
ENDBRANCH   1   7
TORSDOF 2
ENDMDL
