MODEL 10
REMARK VINA RESULT: -5.468986160      4.832      5.792
REMARK  2 active torsions:
REMARK  status: ('A' for Active; 'I' for Inactive)
REMARK       I    between atoms: C1_2  and  N1_3 
REMARK    1  A    between atoms: C1_2  and  C2_7 
REMARK    2  A    between atoms: N1_3  and  O2_5 
ROOT
HETATM    1  C2  UNL     1      30.508  -5.088 -10.251  1.00  0.00     0.008 C 
HETATM    2  C3  UNL     1      29.299  -5.556  -9.995  1.00  0.00    -0.014 C 
HETATM    3  C4  UNL     1      28.425  -4.951  -8.946  1.00  0.00     0.028 C 
HETATM    4  C5  UNL     1      28.557  -3.469  -8.839  1.00  0.00     0.004 C 
HETATM    5  C6  UNL     1      29.850  -2.906  -9.309  1.00  0.00     0.005 C 
HETATM    6  C7  UNL     1      30.951  -3.923  -9.437  1.00  0.00     0.044 C 
ENDROOT
BRANCH   1   7
HETATM    7  C1  UNL     1      31.390  -5.645 -11.260  1.00  0.00     0.270 C 
HETATM    8  O1  UNL     1      31.269  -5.166 -12.450  1.00  0.00    -0.266 OA
HETATM    9  N1  UNL     1      32.342  -6.654 -10.998  1.00  0.00    -0.234 N 
ATOM     10  H1  UNL     1      32.455  -7.048 -10.063  1.00  0.00     0.197 HD
BRANCH   9  11
HETATM   11  O2  UNL     1      33.099  -7.078 -12.037  1.00  0.00    -0.287 OA
ATOM     12  H2  UNL     1      33.069  -8.004 -12.248  1.00  0.00     0.244 HD
ENDBRANCH   9  11
ENDBRANCH   1   7
TORSDOF 2
ENDMDL
