MODEL 3
REMARK VINA RESULT: -6.769623147      1.107      1.905
REMARK  2 active torsions:
REMARK  status: ('A' for Active; 'I' for Inactive)
REMARK       I    between atoms: C1_2  and  N1_3 
REMARK    1  A    between atoms: C1_2  and  C2_7 
REMARK    2  A    between atoms: N1_3  and  O2_5 
ROOT
HETATM    1  C2  UNL     1      28.624  -4.047  -8.275  1.00  0.00     0.008 C 
HETATM    2  C3  UNL     1      28.473  -5.176  -8.944  1.00  0.00    -0.014 C 
HETATM    3  C4  UNL     1      29.237  -5.460 -10.195  1.00  0.00     0.028 C 
HETATM    4  C5  UNL     1      30.629  -4.923 -10.180  1.00  0.00     0.004 C 
HETATM    5  C6  UNL     1      30.860  -3.765  -9.278  1.00  0.00     0.005 C 
HETATM    6  C7  UNL     1      29.599  -3.072  -8.836  1.00  0.00     0.044 C 
ENDROOT
BRANCH   1   7
HETATM    7  C1  UNL     1      27.903  -3.730  -7.056  1.00  0.00     0.270 C 
HETATM    8  O1  UNL     1      28.221  -2.623  -6.477  1.00  0.00    -0.266 OA
HETATM    9  N1  UNL     1      26.902  -4.557  -6.500  1.00  0.00    -0.234 N 
ATOM     10  H1  UNL     1      26.635  -5.437  -6.941  1.00  0.00     0.197 HD
BRANCH   9  11
HETATM   11  O2  UNL     1      26.313  -4.134  -5.357  1.00  0.00    -0.287 OA
ATOM     12  H2  UNL     1      25.570  -4.634  -5.040  1.00  0.00     0.244 HD
ENDBRANCH   9  11
ENDBRANCH   1   7
TORSDOF 2
ENDMDL
