MODEL 5
REMARK VINA RESULT: -6.469082969      1.661      2.493
REMARK  2 active torsions:
REMARK  status: ('A' for Active; 'I' for Inactive)
REMARK       I    between atoms: C1_2  and  N1_3 
REMARK    1  A    between atoms: C1_2  and  C2_7 
REMARK    2  A    between atoms: N1_3  and  O2_5 
ROOT
HETATM    1  C2  UNL     1      29.097  -3.894  -8.694  1.00  0.00     0.008 C 
HETATM    2  C3  UNL     1      28.852  -5.148  -9.031  1.00  0.00    -0.014 C 
HETATM    3  C4  UNL     1      29.225  -5.692 -10.370  1.00  0.00     0.028 C 
HETATM    4  C5  UNL     1      30.504  -5.139 -10.905  1.00  0.00     0.004 C 
HETATM    5  C6  UNL     1      30.893  -3.804 -10.382  1.00  0.00     0.005 C 
HETATM    6  C7  UNL     1      29.769  -3.053  -9.722  1.00  0.00     0.044 C 
ENDROOT
BRANCH   1   7
HETATM    7  C1  UNL     1      28.752  -3.325  -7.404  1.00  0.00     0.270 C 
HETATM    8  O1  UNL     1      29.729  -2.848  -6.712  1.00  0.00    -0.266 OA
HETATM    9  N1  UNL     1      27.435  -3.274  -6.897  1.00  0.00    -0.234 N 
ATOM     10  H1  UNL     1      26.647  -3.646  -7.428  1.00  0.00     0.197 HD
BRANCH   9  11
HETATM   11  O2  UNL     1      27.261  -2.712  -5.678  1.00  0.00    -0.287 OA
ATOM     12  H2  UNL     1      27.967  -2.174  -5.341  1.00  0.00     0.244 HD
ENDBRANCH   9  11
ENDBRANCH   1   7
TORSDOF 2
ENDMDL
