MODEL 4
REMARK VINA RESULT: -6.589034591      1.690      2.670
REMARK  2 active torsions:
REMARK  status: ('A' for Active; 'I' for Inactive)
REMARK       I    between atoms: C1_2  and  N1_3 
REMARK    1  A    between atoms: C1_2  and  C2_7 
REMARK    2  A    between atoms: N1_3  and  O2_5 
ROOT
HETATM    1  C2  UNL     1      29.469  -3.809  -9.123  1.00  0.00     0.008 C 
HETATM    2  C3  UNL     1      29.419  -4.943  -9.798  1.00  0.00    -0.014 C 
HETATM    3  C4  UNL     1      30.510  -5.353 -10.733  1.00  0.00     0.028 C 
HETATM    4  C5  UNL     1      31.872  -4.960 -10.270  1.00  0.00     0.004 C 
HETATM    5  C6  UNL     1      31.925  -3.797  -9.346  1.00  0.00     0.005 C 
HETATM    6  C7  UNL     1      30.674  -2.962  -9.341  1.00  0.00     0.044 C 
ENDROOT
BRANCH   1   7
HETATM    7  C1  UNL     1      28.433  -3.371  -8.205  1.00  0.00     0.270 C 
HETATM    8  O1  UNL     1      27.322  -2.994  -8.737  1.00  0.00    -0.266 OA
HETATM    9  N1  UNL     1      28.589  -3.344  -6.802  1.00  0.00    -0.234 N 
ATOM     10  H1  UNL     1      29.461  -3.638  -6.359  1.00  0.00     0.197 HD
BRANCH   9  11
HETATM   11  O2  UNL     1      27.537  -2.912  -6.068  1.00  0.00    -0.287 OA
ATOM     12  H2  UNL     1      26.910  -3.565  -5.780  1.00  0.00     0.244 HD
ENDBRANCH   9  11
ENDBRANCH   1   7
TORSDOF 2
ENDMDL
