MODEL 12
REMARK VINA RESULT: -5.621445036      4.200      5.072
REMARK  2 active torsions:
REMARK  status: ('A' for Active; 'I' for Inactive)
REMARK       I    between atoms: C1_2  and  N1_3 
REMARK    1  A    between atoms: C1_2  and  C2_7 
REMARK    2  A    between atoms: N1_3  and  O2_5 
ROOT
HETATM    1  C2  UNL     1     -30.580  -3.466  10.040  1.00  0.00     0.080 C 
HETATM    2  C3  UNL     1     -29.436  -2.812   9.321  1.00  0.00     0.014 C 
HETATM    3  C4  UNL     1     -28.821  -3.794   8.372  1.00  0.00     0.001 C 
HETATM    4  C5  UNL     1     -28.378  -5.064   9.006  1.00  0.00     0.000 C 
HETATM    5  C6  UNL     1     -29.295  -5.632  10.018  1.00  0.00     0.001 C 
HETATM    6  C7  UNL     1     -30.128  -4.690  10.782  1.00  0.00     0.014 C 
ENDROOT
BRANCH   1   7
HETATM    7  C1  UNL     1     -31.088  -2.503  11.037  1.00  0.00     0.245 C 
HETATM    8  O1  UNL     1     -31.022  -1.281  10.780  1.00  0.00    -0.271 OA
HETATM    9  N1  UNL     1     -31.648  -2.906  12.279  1.00  0.00    -0.237 N 
ATOM     10  H1  UNL     1     -31.716  -3.894  12.521  1.00  0.00     0.197 HD
BRANCH   9  11
HETATM   11  O2  UNL     1     -32.088  -1.962  13.130  1.00  0.00    -0.287 OA
ATOM     12  H2  UNL     1     -32.281  -1.095  12.794  1.00  0.00     0.244 HD
ENDBRANCH   9  11
ENDBRANCH   1   7
TORSDOF 2
ENDMDL
