MODEL 9
REMARK VINA RESULT: -5.704728954      4.350      5.208
REMARK  2 active torsions:
REMARK  status: ('A' for Active; 'I' for Inactive)
REMARK       I    between atoms: C1_2  and  N1_3 
REMARK    1  A    between atoms: C1_2  and  C2_7 
REMARK    2  A    between atoms: N1_3  and  O2_5 
ROOT
HETATM    1  C2  UNL     1     -30.093  -4.461  10.493  1.00  0.00     0.080 C 
HETATM    2  C3  UNL     1     -29.157  -5.416   9.811  1.00  0.00     0.014 C 
HETATM    3  C4  UNL     1     -28.233  -4.650   8.915  1.00  0.00     0.001 C 
HETATM    4  C5  UNL     1     -28.921  -3.794   7.913  1.00  0.00     0.000 C 
HETATM    5  C6  UNL     1     -30.104  -3.053   8.404  1.00  0.00     0.001 C 
HETATM    6  C7  UNL     1     -30.881  -3.665   9.494  1.00  0.00     0.014 C 
ENDROOT
BRANCH   1   7
HETATM    7  C1  UNL     1     -31.051  -5.261  11.281  1.00  0.00     0.245 C 
HETATM    8  O1  UNL     1     -31.120  -5.072  12.515  1.00  0.00    -0.271 OA
HETATM    9  N1  UNL     1     -31.899  -6.240  10.696  1.00  0.00    -0.237 N 
ATOM     10  H1  UNL     1     -31.867  -6.420   9.693  1.00  0.00     0.197 HD
BRANCH   9  11
HETATM   11  O2  UNL     1     -32.743  -6.924  11.487  1.00  0.00    -0.287 OA
ATOM     12  H2  UNL     1     -33.608  -7.138  11.159  1.00  0.00     0.244 HD
ENDBRANCH   9  11
ENDBRANCH   1   7
TORSDOF 2
ENDMDL
