MODEL 1
REMARK VINA RESULT: -7.448856225      0.000      0.000
REMARK  2 active torsions:
REMARK  status: ('A' for Active; 'I' for Inactive)
REMARK       I    between atoms: C1_2  and  N1_3 
REMARK    1  A    between atoms: C1_2  and  C2_7 
REMARK    2  A    between atoms: N1_3  and  O2_5 
ROOT
HETATM    1  C2  UNL     1     -28.170  -3.449   8.312  1.00  0.00     0.080 C 
HETATM    2  C3  UNL     1     -29.501  -3.081   7.722  1.00  0.00     0.014 C 
HETATM    3  C4  UNL     1     -30.538  -3.079   8.802  1.00  0.00     0.001 C 
HETATM    4  C5  UNL     1     -30.640  -4.355   9.557  1.00  0.00     0.000 C 
HETATM    5  C6  UNL     1     -29.355  -5.005   9.899  1.00  0.00     0.001 C 
HETATM    6  C7  UNL     1     -28.224  -4.790   8.983  1.00  0.00     0.014 C 
ENDROOT
BRANCH   1   7
HETATM    7  C1  UNL     1     -27.201  -3.544   7.202  1.00  0.00     0.245 C 
HETATM    8  O1  UNL     1     -26.511  -2.540   6.920  1.00  0.00    -0.271 OA
HETATM    9  N1  UNL     1     -27.020  -4.728   6.439  1.00  0.00    -0.237 N 
ATOM     10  H1  UNL     1     -27.567  -5.564   6.642  1.00  0.00     0.197 HD
BRANCH   9  11
HETATM   11  O2  UNL     1     -26.115  -4.728   5.445  1.00  0.00    -0.287 OA
ATOM     12  H2  UNL     1     -26.222  -5.340   4.728  1.00  0.00     0.244 HD
ENDBRANCH   9  11
ENDBRANCH   1   7
TORSDOF 2
ENDMDL
