MODEL 10
REMARK VINA RESULT: -5.669778902      4.051      4.822
REMARK  2 active torsions:
REMARK  status: ('A' for Active; 'I' for Inactive)
REMARK       I    between atoms: C1_2  and  N1_3 
REMARK    1  A    between atoms: C1_2  and  C2_7 
REMARK    2  A    between atoms: N1_3  and  O2_5 
ROOT
HETATM    1  C2  UNL     1     -30.353  -4.391   9.690  1.00  0.00     0.080 C 
HETATM    2  C3  UNL     1     -30.420  -3.019   9.085  1.00  0.00     0.014 C 
HETATM    3  C4  UNL     1     -29.829  -3.055   7.709  1.00  0.00     0.001 C 
HETATM    4  C5  UNL     1     -28.439  -3.581   7.652  1.00  0.00     0.000 C 
HETATM    5  C6  UNL     1     -28.161  -4.757   8.505  1.00  0.00     0.001 C 
HETATM    6  C7  UNL     1     -28.940  -4.893   9.746  1.00  0.00     0.014 C 
ENDROOT
BRANCH   1   7
HETATM    7  C1  UNL     1     -30.845  -4.289  11.079  1.00  0.00     0.245 C 
HETATM    8  O1  UNL     1     -31.109  -3.158  11.541  1.00  0.00    -0.271 OA
HETATM    9  N1  UNL     1     -31.030  -5.424  11.913  1.00  0.00    -0.237 N 
ATOM     10  H1  UNL     1     -30.823  -6.361  11.568  1.00  0.00     0.197 HD
BRANCH   9  11
HETATM   11  O2  UNL     1     -31.483  -5.242  13.166  1.00  0.00    -0.287 OA
ATOM     12  H2  UNL     1     -31.722  -6.002  13.682  1.00  0.00     0.244 HD
ENDBRANCH   9  11
ENDBRANCH   1   7
TORSDOF 2
ENDMDL
