MODEL 4
REMARK VINA RESULT: -7.048201241      1.462      2.341
REMARK  2 active torsions:
REMARK  status: ('A' for Active; 'I' for Inactive)
REMARK       I    between atoms: C1_2  and  N1_3 
REMARK    1  A    between atoms: C1_2  and  C2_7 
REMARK    2  A    between atoms: N1_3  and  O2_5 
ROOT
HETATM    1  C2  UNL     1     -29.469  -3.797   8.959  1.00  0.00     0.080 C 
HETATM    2  C3  UNL     1     -29.023  -5.057   9.643  1.00  0.00     0.014 C 
HETATM    3  C4  UNL     1     -30.161  -5.617  10.440  1.00  0.00     0.001 C 
HETATM    4  C5  UNL     1     -30.744  -4.669  11.426  1.00  0.00     0.000 C 
HETATM    5  C6  UNL     1     -30.909  -3.275  10.959  1.00  0.00     0.001 C 
HETATM    6  C7  UNL     1     -29.956  -2.782   9.951  1.00  0.00     0.014 C 
ENDROOT
BRANCH   1   7
HETATM    7  C1  UNL     1     -28.294  -3.222   8.274  1.00  0.00     0.245 C 
HETATM    8  O1  UNL     1     -27.363  -2.756   8.966  1.00  0.00    -0.271 OA
HETATM    9  N1  UNL     1     -28.177  -3.174   6.859  1.00  0.00    -0.237 N 
ATOM     10  H1  UNL     1     -28.919  -3.543   6.264  1.00  0.00     0.197 HD
BRANCH   9  11
HETATM   11  O2  UNL     1     -27.073  -2.632   6.317  1.00  0.00    -0.287 OA
ATOM     12  H2  UNL     1     -26.434  -3.205   5.908  1.00  0.00     0.244 HD
ENDBRANCH   9  11
ENDBRANCH   1   7
TORSDOF 2
ENDMDL
