MODEL 2
REMARK VINA RESULT: -7.113801421      1.105      1.831
REMARK  2 active torsions:
REMARK  status: ('A' for Active; 'I' for Inactive)
REMARK       I    between atoms: C1_2  and  N1_3 
REMARK    1  A    between atoms: C1_2  and  C2_7 
REMARK    2  A    between atoms: N1_3  and  O2_5 
ROOT
HETATM    1  C2  UNL     1     -29.035  -4.089   8.514  1.00  0.00     0.080 C 
HETATM    2  C3  UNL     1     -28.760  -5.276   9.391  1.00  0.00     0.014 C 
HETATM    3  C4  UNL     1     -29.953  -5.538  10.257  1.00  0.00     0.001 C 
HETATM    4  C5  UNL     1     -30.384  -4.375  11.077  1.00  0.00     0.000 C 
HETATM    5  C6  UNL     1     -30.359  -3.062  10.394  1.00  0.00     0.001 C 
HETATM    6  C7  UNL     1     -29.361  -2.872   9.329  1.00  0.00     0.014 C 
ENDROOT
BRANCH   1   7
HETATM    7  C1  UNL     1     -27.801  -3.800   7.756  1.00  0.00     0.245 C 
HETATM    8  O1  UNL     1     -27.159  -2.762   8.027  1.00  0.00    -0.271 OA
HETATM    9  N1  UNL     1     -27.313  -4.651   6.729  1.00  0.00    -0.237 N 
ATOM     10  H1  UNL     1     -27.813  -5.504   6.481  1.00  0.00     0.197 HD
BRANCH   9  11
HETATM   11  O2  UNL     1     -26.180  -4.312   6.088  1.00  0.00    -0.287 OA
ATOM     12  H2  UNL     1     -26.052  -4.608   5.195  1.00  0.00     0.244 HD
ENDBRANCH   9  11
ENDBRANCH   1   7
TORSDOF 2
ENDMDL
