MODEL 3
REMARK VINA RESULT: -7.109763244      0.598      1.687
REMARK  2 active torsions:
REMARK  status: ('A' for Active; 'I' for Inactive)
REMARK       I    between atoms: C1_2  and  N1_3 
REMARK    1  A    between atoms: C1_2  and  C2_7 
REMARK    2  A    between atoms: N1_3  and  O2_5 
ROOT
HETATM    1  C2  UNL     1     -28.419  -4.249   7.728  1.00  0.00     0.080 C 
HETATM    2  C3  UNL     1     -28.001  -4.800   9.060  1.00  0.00     0.014 C 
HETATM    3  C4  UNL     1     -29.217  -5.230   9.822  1.00  0.00     0.001 C 
HETATM    4  C5  UNL     1     -30.239  -4.166   9.998  1.00  0.00     0.000 C 
HETATM    5  C6  UNL     1     -30.488  -3.311   8.816  1.00  0.00     0.001 C 
HETATM    6  C7  UNL     1     -29.366  -3.096   7.888  1.00  0.00     0.014 C 
ENDROOT
BRANCH   1   7
HETATM    7  C1  UNL     1     -27.207  -3.740   7.056  1.00  0.00     0.245 C 
HETATM    8  O1  UNL     1     -26.808  -2.587   7.329  1.00  0.00    -0.271 OA
HETATM    9  N1  UNL     1     -26.474  -4.505   6.109  1.00  0.00    -0.237 N 
ATOM     10  H1  UNL     1     -26.773  -5.449   5.863  1.00  0.00     0.197 HD
BRANCH   9  11
HETATM   11  O2  UNL     1     -25.381  -3.965   5.544  1.00  0.00    -0.287 OA
ATOM     12  H2  UNL     1     -24.548  -4.409   5.640  1.00  0.00     0.244 HD
ENDBRANCH   9  11
ENDBRANCH   1   7
TORSDOF 2
ENDMDL
