MODEL 5
REMARK VINA RESULT: -6.791347767      1.281      1.481
REMARK  2 active torsions:
REMARK  status: ('A' for Active; 'I' for Inactive)
REMARK       I    between atoms: C1_2  and  N1_3 
REMARK    1  A    between atoms: C1_2  and  C2_7 
REMARK    2  A    between atoms: N1_3  and  O2_5 
ROOT
HETATM    1  C2  UNL     1     -28.543  -3.553   8.869  1.00  0.00     0.080 C 
HETATM    2  C3  UNL     1     -29.897  -2.993   9.195  1.00  0.00     0.014 C 
HETATM    3  C4  UNL     1     -30.323  -3.481  10.545  1.00  0.00     0.001 C 
HETATM    4  C5  UNL     1     -30.325  -4.961  10.689  1.00  0.00     0.000 C 
HETATM    5  C6  UNL     1     -29.178  -5.669  10.079  1.00  0.00     0.001 C 
HETATM    6  C7  UNL     1     -28.554  -5.053   8.897  1.00  0.00     0.014 C 
ENDROOT
BRANCH   1   7
HETATM    7  C1  UNL     1     -28.208  -3.136   7.492  1.00  0.00     0.245 C 
HETATM    8  O1  UNL     1     -29.079  -2.549   6.814  1.00  0.00    -0.271 OA
HETATM    9  N1  UNL     1     -26.937  -3.375   6.905  1.00  0.00    -0.237 N 
ATOM     10  H1  UNL     1     -26.205  -3.852   7.430  1.00  0.00     0.197 HD
BRANCH   9  11
HETATM   11  O2  UNL     1     -26.716  -2.961   5.645  1.00  0.00    -0.287 OA
ATOM     12  H2  UNL     1     -25.842  -3.042   5.282  1.00  0.00     0.244 HD
ENDBRANCH   9  11
ENDBRANCH   1   7
TORSDOF 2
ENDMDL
