MODEL 9
REMARK VINA RESULT: -5.579677120      4.482      5.312
REMARK  2 active torsions:
REMARK  status: ('A' for Active; 'I' for Inactive)
REMARK       I    between atoms: C1_2  and  N1_3 
REMARK    1  A    between atoms: C1_2  and  C2_7 
REMARK    2  A    between atoms: N1_3  and  O2_5 
ROOT
HETATM    1  C2  UNL     1      -6.981  -4.871  15.340  1.00  0.00     0.034 A 
HETATM    2  C3  UNL     1      -6.731  -3.622  15.863  1.00  0.00     0.017 A 
HETATM    3  C4  UNL     1      -7.600  -3.020  16.757  1.00  0.00     0.001 A 
HETATM    4  C5  UNL     1      -8.758  -3.644  17.164  1.00  0.00     0.000 A 
HETATM    5  C6  UNL     1      -9.015  -4.894  16.643  1.00  0.00     0.001 A 
HETATM    6  C7  UNL     1      -8.149  -5.493  15.754  1.00  0.00     0.017 A 
ENDROOT
BRANCH   1   7
HETATM    7  C1  UNL     1      -6.090  -5.538  14.396  1.00  0.00     0.275 C 
HETATM    8  O1  UNL     1      -5.321  -6.448  14.797  1.00  0.00    -0.265 OA
HETATM    9  N1  UNL     1      -6.036  -5.217  13.016  1.00  0.00    -0.233 N 
ATOM     10  H1  UNL     1      -6.649  -4.484  12.660  1.00  0.00     0.197 HD
BRANCH   9  11
HETATM   11  O2  UNL     1      -5.199  -5.848  12.147  1.00  0.00    -0.287 OA
ATOM     12  H2  UNL     1      -4.372  -5.474  11.870  1.00  0.00     0.244 HD
ENDBRANCH   9  11
ENDBRANCH   1   7
TORSDOF 2
ENDMDL
