MODEL 1
REMARK VINA RESULT: -7.231182729      0.000      0.000
REMARK  2 active torsions:
REMARK  status: ('A' for Active; 'I' for Inactive)
REMARK       I    between atoms: C1_2  and  N1_3 
REMARK    1  A    between atoms: C1_2  and  C2_7 
REMARK    2  A    between atoms: N1_3  and  O2_5 
ROOT
HETATM    1  C2  UNL     1      -8.998  -4.009  17.453  1.00  0.00     0.034 A 
HETATM    2  C3  UNL     1      -7.962  -3.138  17.195  1.00  0.00     0.017 A 
HETATM    3  C4  UNL     1      -7.033  -3.387  16.200  1.00  0.00     0.001 A 
HETATM    4  C5  UNL     1      -7.102  -4.520  15.420  1.00  0.00     0.000 A 
HETATM    5  C6  UNL     1      -8.136  -5.396  15.672  1.00  0.00     0.001 A 
HETATM    6  C7  UNL     1      -9.061  -5.148  16.664  1.00  0.00     0.017 A 
ENDROOT
BRANCH   1   7
HETATM    7  C1  UNL     1      -9.997  -3.782  18.493  1.00  0.00     0.275 C 
HETATM    8  O1  UNL     1     -10.518  -2.646  18.624  1.00  0.00    -0.265 OA
HETATM    9  N1  UNL     1     -10.429  -4.791  19.390  1.00  0.00    -0.233 N 
ATOM     10  H1  UNL     1     -10.026  -5.724  19.309  1.00  0.00     0.197 HD
BRANCH   9  11
HETATM   11  O2  UNL     1     -11.361  -4.566  20.356  1.00  0.00    -0.287 OA
ATOM     12  H2  UNL     1     -11.763  -3.716  20.492  1.00  0.00     0.244 HD
ENDBRANCH   9  11
ENDBRANCH   1   7
TORSDOF 2
ENDMDL
