MODEL 7
REMARK VINA RESULT: -5.638391798      4.385      5.343
REMARK  2 active torsions:
REMARK  status: ('A' for Active; 'I' for Inactive)
REMARK       I    between atoms: C1_2  and  N1_3 
REMARK    1  A    between atoms: C1_2  and  C2_7 
REMARK    2  A    between atoms: N1_3  and  O2_5 
ROOT
HETATM    1  C2  UNL     1      -7.029  -4.900  15.341  1.00  0.00     0.034 A 
HETATM    2  C3  UNL     1      -8.196  -5.490  15.774  1.00  0.00     0.017 A 
HETATM    3  C4  UNL     1      -9.032  -4.867  16.684  1.00  0.00     0.001 A 
HETATM    4  C5  UNL     1      -8.735  -3.625  17.200  1.00  0.00     0.000 A 
HETATM    5  C6  UNL     1      -7.568  -3.029  16.771  1.00  0.00     0.001 A 
HETATM    6  C7  UNL     1      -6.736  -3.649  15.865  1.00  0.00     0.017 A 
ENDROOT
BRANCH   1   7
HETATM    7  C1  UNL     1      -6.122  -5.524  14.383  1.00  0.00     0.275 C 
HETATM    8  O1  UNL     1      -6.122  -5.149  13.184  1.00  0.00    -0.265 OA
HETATM    9  N1  UNL     1      -5.213  -6.556  14.730  1.00  0.00    -0.233 N 
ATOM     10  H1  UNL     1      -5.188  -6.881  15.696  1.00  0.00     0.197 HD
BRANCH   9  11
HETATM   11  O2  UNL     1      -4.373  -7.129  13.826  1.00  0.00    -0.287 OA
ATOM     12  H2  UNL     1      -4.345  -6.867  12.914  1.00  0.00     0.244 HD
ENDBRANCH   9  11
ENDBRANCH   1   7
TORSDOF 2
ENDMDL
