MODEL 5
REMARK VINA RESULT: -6.401251599      1.467      2.445
REMARK  2 active torsions:
REMARK  status: ('A' for Active; 'I' for Inactive)
REMARK       I    between atoms: C1_2  and  N1_3 
REMARK    1  A    between atoms: C1_2  and  C2_7 
REMARK    2  A    between atoms: N1_3  and  O2_5 
ROOT
HETATM    1  C2  UNL     1      -7.696  -3.710  16.462  1.00  0.00     0.034 A 
HETATM    2  C3  UNL     1      -7.794  -4.954  15.877  1.00  0.00     0.017 A 
HETATM    3  C4  UNL     1      -7.044  -5.296  14.765  1.00  0.00     0.001 A 
HETATM    4  C5  UNL     1      -6.164  -4.406  14.190  1.00  0.00     0.000 A 
HETATM    5  C6  UNL     1      -6.062  -3.159  14.770  1.00  0.00     0.001 A 
HETATM    6  C7  UNL     1      -6.808  -2.819  15.877  1.00  0.00     0.017 A 
ENDROOT
BRANCH   1   7
HETATM    7  C1  UNL     1      -8.468  -3.312  17.634  1.00  0.00     0.275 C 
HETATM    8  O1  UNL     1      -7.880  -3.053  18.714  1.00  0.00    -0.265 OA
HETATM    9  N1  UNL     1      -9.882  -3.196  17.632  1.00  0.00    -0.233 N 
ATOM     10  H1  UNL     1     -10.388  -3.398  16.771  1.00  0.00     0.197 HD
BRANCH   9  11
HETATM   11  O2  UNL     1     -10.590  -2.823  18.734  1.00  0.00    -0.287 OA
ATOM     12  H2  UNL     1     -11.225  -2.118  18.720  1.00  0.00     0.244 HD
ENDBRANCH   9  11
ENDBRANCH   1   7
TORSDOF 2
ENDMDL
