MODEL 4
REMARK VINA RESULT: -6.714875650      1.395      1.608
REMARK  2 active torsions:
REMARK  status: ('A' for Active; 'I' for Inactive)
REMARK       I    between atoms: C1_2  and  N1_3 
REMARK    1  A    between atoms: C1_2  and  C2_7 
REMARK    2  A    between atoms: N1_3  and  O2_5 
ROOT
HETATM    1  C2  UNL     1      -7.972  -3.773  16.727  1.00  0.00     0.034 A 
HETATM    2  C3  UNL     1      -6.726  -3.191  16.644  1.00  0.00     0.017 A 
HETATM    3  C4  UNL     1      -5.734  -3.709  15.829  1.00  0.00     0.001 A 
HETATM    4  C5  UNL     1      -5.948  -4.832  15.062  1.00  0.00     0.000 A 
HETATM    5  C6  UNL     1      -7.193  -5.420  15.141  1.00  0.00     0.001 A 
HETATM    6  C7  UNL     1      -8.180  -4.904  15.952  1.00  0.00     0.017 A 
ENDROOT
BRANCH   1   7
HETATM    7  C1  UNL     1      -9.043  -3.257  17.574  1.00  0.00     0.275 C 
HETATM    8  O1  UNL     1     -10.149  -2.945  17.064  1.00  0.00    -0.265 OA
HETATM    9  N1  UNL     1      -8.912  -3.081  18.974  1.00  0.00    -0.233 N 
ATOM     10  H1  UNL     1      -8.027  -3.327  19.418  1.00  0.00     0.197 HD
BRANCH   9  11
HETATM   11  O2  UNL     1      -9.920  -2.599  19.752  1.00  0.00    -0.287 OA
ATOM     12  H2  UNL     1      -9.797  -1.885  20.366  1.00  0.00     0.244 HD
ENDBRANCH   9  11
ENDBRANCH   1   7
TORSDOF 2
ENDMDL
