MODEL 2
REMARK VINA RESULT: -7.200548880      0.533      1.566
REMARK  2 active torsions:
REMARK  status: ('A' for Active; 'I' for Inactive)
REMARK       I    between atoms: C1_2  and  N1_3 
REMARK    1  A    between atoms: C1_2  and  C2_7 
REMARK    2  A    between atoms: N1_3  and  O2_5 
ROOT
HETATM    1  C2  UNL     1      -9.234  -3.887  17.850  1.00  0.00     0.034 A 
HETATM    2  C3  UNL     1      -9.297  -4.886  16.903  1.00  0.00     0.017 A 
HETATM    3  C4  UNL     1      -8.281  -5.079  15.982  1.00  0.00     0.001 A 
HETATM    4  C5  UNL     1      -7.160  -4.281  15.971  1.00  0.00     0.000 A 
HETATM    5  C6  UNL     1      -7.091  -3.279  16.916  1.00  0.00     0.001 A 
HETATM    6  C7  UNL     1      -8.102  -3.087  17.833  1.00  0.00     0.017 A 
ENDROOT
BRANCH   1   7
HETATM    7  C1  UNL     1     -10.283  -3.651  18.837  1.00  0.00     0.275 C 
HETATM    8  O1  UNL     1     -10.826  -2.521  18.917  1.00  0.00    -0.265 OA
HETATM    9  N1  UNL     1     -10.743  -4.646  19.737  1.00  0.00    -0.233 N 
ATOM     10  H1  UNL     1     -10.323  -5.575  19.696  1.00  0.00     0.197 HD
BRANCH   9  11
HETATM   11  O2  UNL     1     -11.722  -4.412  20.653  1.00  0.00    -0.287 OA
ATOM     12  H2  UNL     1     -12.161  -5.110  21.124  1.00  0.00     0.244 HD
ENDBRANCH   9  11
ENDBRANCH   1   7
TORSDOF 2
ENDMDL
