MODEL 3
REMARK VINA RESULT: -6.736908216      1.393      2.180
REMARK  2 active torsions:
REMARK  status: ('A' for Active; 'I' for Inactive)
REMARK       I    between atoms: C1_2  and  N1_3 
REMARK    1  A    between atoms: C1_2  and  C2_7 
REMARK    2  A    between atoms: N1_3  and  O2_5 
ROOT
HETATM    1  C2  UNL     1      -7.997  -3.776  16.724  1.00  0.00     0.034 A 
HETATM    2  C3  UNL     1      -8.141  -4.894  15.932  1.00  0.00     0.017 A 
HETATM    3  C4  UNL     1      -7.108  -5.362  15.139  1.00  0.00     0.001 A 
HETATM    4  C5  UNL     1      -5.885  -4.729  15.104  1.00  0.00     0.000 A 
HETATM    5  C6  UNL     1      -5.734  -3.609  15.894  1.00  0.00     0.001 A 
HETATM    6  C7  UNL     1      -6.763  -3.143  16.684  1.00  0.00     0.017 A 
ENDROOT
BRANCH   1   7
HETATM    7  C1  UNL     1      -9.061  -3.251  17.574  1.00  0.00     0.275 C 
HETATM    8  O1  UNL     1     -10.162  -2.921  17.067  1.00  0.00    -0.265 OA
HETATM    9  N1  UNL     1      -8.928  -3.087  18.976  1.00  0.00    -0.233 N 
ATOM     10  H1  UNL     1      -8.047  -3.348  19.417  1.00  0.00     0.197 HD
BRANCH   9  11
HETATM   11  O2  UNL     1      -9.929  -2.597  19.756  1.00  0.00    -0.287 OA
ATOM     12  H2  UNL     1     -10.371  -1.778  19.568  1.00  0.00     0.244 HD
ENDBRANCH   9  11
ENDBRANCH   1   7
TORSDOF 2
ENDMDL
