MODEL 8
REMARK VINA RESULT: -5.604519620      4.174      4.946
REMARK  2 active torsions:
REMARK  status: ('A' for Active; 'I' for Inactive)
REMARK       I    between atoms: C1_2  and  N1_3 
REMARK    1  A    between atoms: C1_2  and  C2_7 
REMARK    2  A    between atoms: N1_3  and  O2_5 
ROOT
HETATM    1  C2  UNL     1      -7.172  -4.672  15.638  1.00  0.00     0.034 A 
HETATM    2  C3  UNL     1      -6.973  -3.525  16.374  1.00  0.00     0.017 A 
HETATM    3  C4  UNL     1      -7.897  -3.091  17.308  1.00  0.00     0.001 A 
HETATM    4  C5  UNL     1      -9.062  -3.786  17.544  1.00  0.00     0.000 A 
HETATM    5  C6  UNL     1      -9.268  -4.935  16.810  1.00  0.00     0.001 A 
HETATM    6  C7  UNL     1      -8.347  -5.368  15.881  1.00  0.00     0.017 A 
ENDROOT
BRANCH   1   7
HETATM    7  C1  UNL     1      -6.222  -5.164  14.645  1.00  0.00     0.275 C 
HETATM    8  O1  UNL     1      -6.035  -4.518  13.583  1.00  0.00    -0.265 OA
HETATM    9  N1  UNL     1      -5.473  -6.357  14.808  1.00  0.00    -0.233 N 
ATOM     10  H1  UNL     1      -5.601  -6.902  15.660  1.00  0.00     0.197 HD
BRANCH   9  11
HETATM   11  O2  UNL     1      -4.591  -6.804  13.873  1.00  0.00    -0.287 OA
ATOM     12  H2  UNL     1      -4.064  -6.217  13.344  1.00  0.00     0.244 HD
ENDBRANCH   9  11
ENDBRANCH   1   7
TORSDOF 2
ENDMDL
