MODEL 5
REMARK VINA RESULT: -5.945174417      1.348      1.550
REMARK  2 active torsions:
REMARK  status: ('A' for Active; 'I' for Inactive)
REMARK       I    between atoms: C1_2  and  N1_3 
REMARK    1  A    between atoms: C1_2  and  C2_7 
REMARK    2  A    between atoms: N1_3  and  O2_5 
ROOT
HETATM    1  O1  UNL     1      29.720  -2.895  -6.863  1.00  0.00    -0.266 OA
HETATM    2  C1  UNL     1      28.926  -3.397  -7.684  1.00  0.00     0.270 C 
HETATM    3  N1  UNL     1      27.518  -3.457  -7.433  1.00  0.00    -0.234 N 
ATOM      4  H1  UNL     1      26.875  -3.868  -8.110  1.00  0.00     0.197 HD
ENDROOT
BRANCH   2   5
HETATM    5  C2  UNL     1      29.449  -3.931  -8.924  1.00  0.00     0.008 C 
HETATM    6  C3  UNL     1      29.179  -5.126  -9.408  1.00  0.00    -0.014 C 
HETATM    7  C4  UNL     1      29.884  -5.330 -10.688  1.00  0.00     0.028 C 
HETATM    8  C5  UNL     1      31.095  -4.405 -10.497  1.00  0.00     0.009 C 
HETATM    9  C6  UNL     1      30.385  -3.220  -9.872  1.00  0.00     0.044 C 
ENDBRANCH   2   5
BRANCH   3  10
HETATM   10  O2  UNL     1      27.079  -2.948  -6.268  1.00  0.00    -0.287 OA
ATOM     11  H2  UNL     1      27.210  -3.473  -5.487  1.00  0.00     0.244 HD
ENDBRANCH   3  10
TORSDOF 2
ENDMDL
