MODEL 2
REMARK VINA RESULT: -6.360516448      0.877      1.504
REMARK  2 active torsions:
REMARK  status: ('A' for Active; 'I' for Inactive)
REMARK       I    between atoms: C1_2  and  N1_3 
REMARK    1  A    between atoms: C1_2  and  C2_7 
REMARK    2  A    between atoms: N1_3  and  O2_5 
ROOT
HETATM    1  O1  UNL     1      26.654  -2.553  -6.807  1.00  0.00    -0.266 OA
HETATM    2  C1  UNL     1      27.228  -3.661  -6.817  1.00  0.00     0.270 C 
HETATM    3  N1  UNL     1      26.768  -4.756  -6.019  1.00  0.00    -0.234 N 
ATOM      4  H1  UNL     1      27.242  -5.660  -6.033  1.00  0.00     0.197 HD
ENDROOT
BRANCH   2   5
HETATM    5  C2  UNL     1      28.390  -3.838  -7.663  1.00  0.00     0.008 C 
HETATM    6  C3  UNL     1      29.512  -3.154  -7.561  1.00  0.00    -0.014 C 
HETATM    7  C4  UNL     1      30.477  -3.601  -8.585  1.00  0.00     0.028 C 
HETATM    8  C5  UNL     1      29.521  -4.102  -9.677  1.00  0.00     0.009 C 
HETATM    9  C6  UNL     1      28.521  -4.826  -8.797  1.00  0.00     0.044 C 
ENDBRANCH   2   5
BRANCH   3  10
HETATM   10  O2  UNL     1      25.685  -4.545  -5.250  1.00  0.00    -0.287 OA
ATOM     11  H2  UNL     1      25.145  -5.299  -5.042  1.00  0.00     0.244 HD
ENDBRANCH   3  10
TORSDOF 2
ENDMDL
