MODEL 1
REMARK VINA RESULT: -6.544704574      0.000      0.000
REMARK  2 active torsions:
REMARK  status: ('A' for Active; 'I' for Inactive)
REMARK       I    between atoms: C1_2  and  N1_3 
REMARK    1  A    between atoms: C1_2  and  C2_7 
REMARK    2  A    between atoms: N1_3  and  O2_5 
ROOT
HETATM    1  O1  UNL     1      27.084  -2.716  -7.212  1.00  0.00    -0.266 OA
HETATM    2  C1  UNL     1      27.565  -3.860  -7.335  1.00  0.00     0.270 C 
HETATM    3  N1  UNL     1      27.233  -4.919  -6.432  1.00  0.00    -0.234 N 
ATOM      4  H1  UNL     1      27.629  -5.854  -6.540  1.00  0.00     0.197 HD
ENDROOT
BRANCH   2   5
HETATM    5  C2  UNL     1      28.482  -4.118  -8.425  1.00  0.00     0.008 C 
HETATM    6  C3  UNL     1      28.588  -5.261  -9.073  1.00  0.00    -0.014 C 
HETATM    7  C4  UNL     1      29.623  -5.160 -10.120  1.00  0.00     0.028 C 
HETATM    8  C5  UNL     1      30.535  -4.083  -9.517  1.00  0.00     0.009 C 
HETATM    9  C6  UNL     1      29.468  -3.133  -9.008  1.00  0.00     0.044 C 
ENDBRANCH   2   5
BRANCH   3  10
HETATM   10  O2  UNL     1      26.376  -4.633  -5.435  1.00  0.00    -0.287 OA
ATOM     11  H2  UNL     1      26.679  -4.777  -4.546  1.00  0.00     0.244 HD
ENDBRANCH   3  10
TORSDOF 2
ENDMDL
