MODEL 8
REMARK VINA RESULT: -5.285956131      3.852      4.747
REMARK  2 active torsions:
REMARK  status: ('A' for Active; 'I' for Inactive)
REMARK       I    between atoms: C1_2  and  N1_3 
REMARK    1  A    between atoms: C1_2  and  C2_7 
REMARK    2  A    between atoms: N1_3  and  O2_5 
ROOT
HETATM    1  O1  UNL     1      31.399  -1.602  -9.488  1.00  0.00    -0.266 OA
HETATM    2  C1  UNL     1      31.123  -2.570 -10.225  1.00  0.00     0.270 C 
HETATM    3  N1  UNL     1      31.651  -2.685 -11.550  1.00  0.00    -0.234 N 
ATOM      4  H1  UNL     1      31.422  -3.480 -12.146  1.00  0.00     0.197 HD
ENDROOT
BRANCH   2   5
HETATM    5  C2  UNL     1      30.246  -3.605  -9.718  1.00  0.00     0.008 C 
HETATM    6  C3  UNL     1      29.953  -4.726 -10.348  1.00  0.00    -0.014 C 
HETATM    7  C4  UNL     1      29.032  -5.542  -9.534  1.00  0.00     0.028 C 
HETATM    8  C5  UNL     1      28.320  -4.448  -8.725  1.00  0.00     0.009 C 
HETATM    9  C6  UNL     1      29.522  -3.585  -8.393  1.00  0.00     0.044 C 
ENDBRANCH   2   5
BRANCH   3  10
HETATM   10  O2  UNL     1      32.461  -1.699 -11.977  1.00  0.00    -0.287 OA
ATOM     11  H2  UNL     1      32.050  -0.929 -12.350  1.00  0.00     0.244 HD
ENDBRANCH   3  10
TORSDOF 2
ENDMDL
