MODEL 3
REMARK VINA RESULT: -6.354956553      1.259      1.900
REMARK  2 active torsions:
REMARK  status: ('A' for Active; 'I' for Inactive)
REMARK       I    between atoms: C1_2  and  N1_3 
REMARK    1  A    between atoms: C1_2  and  C2_7 
REMARK    2  A    between atoms: N1_3  and  O2_5 
ROOT
HETATM    1  O1  UNL     1      27.337  -2.890  -8.822  1.00  0.00    -0.266 OA
HETATM    2  C1  UNL     1      28.294  -3.415  -8.219  1.00  0.00     0.270 C 
HETATM    3  N1  UNL     1      28.376  -3.417  -6.790  1.00  0.00    -0.234 N 
ATOM      4  H1  UNL     1      29.161  -3.849  -6.303  1.00  0.00     0.197 HD
ENDROOT
BRANCH   2   5
HETATM    5  C2  UNL     1      29.348  -4.039  -8.991  1.00  0.00     0.008 C 
HETATM    6  C3  UNL     1      30.554  -3.539  -9.171  1.00  0.00    -0.014 C 
HETATM    7  C4  UNL     1      31.362  -4.445 -10.010  1.00  0.00     0.028 C 
HETATM    8  C5  UNL     1      30.261  -5.134 -10.828  1.00  0.00     0.009 C 
HETATM    9  C6  UNL     1      29.253  -5.360  -9.717  1.00  0.00     0.044 C 
ENDBRANCH   2   5
BRANCH   3  10
HETATM   10  O2  UNL     1      27.374  -2.826  -6.115  1.00  0.00    -0.287 OA
ATOM     11  H2  UNL     1      26.919  -3.348  -5.465  1.00  0.00     0.244 HD
ENDBRANCH   3  10
TORSDOF 2
ENDMDL
