MODEL 6
REMARK VINA RESULT: -5.552181957      1.502      2.309
REMARK  2 active torsions:
REMARK  status: ('A' for Active; 'I' for Inactive)
REMARK       I    between atoms: C1_2  and  N1_3 
REMARK    1  A    between atoms: C1_2  and  C2_7 
REMARK    2  A    between atoms: N1_3  and  O2_5 
ROOT
HETATM    1  O1  UNL     1      29.671  -3.099  -6.934  1.00  0.00    -0.266 OA
HETATM    2  C1  UNL     1      29.138  -3.501  -7.988  1.00  0.00     0.270 C 
HETATM    3  N1  UNL     1      27.730  -3.381  -8.215  1.00  0.00    -0.234 N 
ATOM      4  H1  UNL     1      27.301  -3.712  -9.080  1.00  0.00     0.197 HD
ENDROOT
BRANCH   2   5
HETATM    5  C2  UNL     1      29.973  -4.103  -9.007  1.00  0.00     0.008 C 
HETATM    6  C3  UNL     1      31.213  -3.749  -9.276  1.00  0.00    -0.014 C 
HETATM    7  C4  UNL     1      31.754  -4.578 -10.371  1.00  0.00     0.028 C 
HETATM    8  C5  UNL     1      30.463  -4.936 -11.121  1.00  0.00     0.009 C 
HETATM    9  C6  UNL     1      29.575  -5.232  -9.928  1.00  0.00     0.044 C 
ENDBRANCH   2   5
BRANCH   3  10
HETATM   10  O2  UNL     1      26.995  -2.815  -7.241  1.00  0.00    -0.287 OA
ATOM     11  H2  UNL     1      26.051  -2.906  -7.299  1.00  0.00     0.244 HD
ENDBRANCH   3  10
TORSDOF 2
ENDMDL
