MODEL 7
REMARK VINA RESULT: -5.335342222      4.202      4.870
REMARK  2 active torsions:
REMARK  status: ('A' for Active; 'I' for Inactive)
REMARK       I    between atoms: C1_2  and  N1_3 
REMARK    1  A    between atoms: C1_2  and  C2_7 
REMARK    2  A    between atoms: N1_3  and  O2_5 
ROOT
HETATM    1  O1  UNL     1      31.274  -4.163 -11.933  1.00  0.00    -0.266 OA
HETATM    2  C1  UNL     1      31.122  -4.967 -10.991  1.00  0.00     0.270 C 
HETATM    3  N1  UNL     1      31.889  -6.171 -10.895  1.00  0.00    -0.234 N 
ATOM      4  H1  UNL     1      31.760  -6.823 -10.121  1.00  0.00     0.197 HD
ENDROOT
BRANCH   2   5
HETATM    5  C2  UNL     1      30.141  -4.667  -9.969  1.00  0.00     0.008 C 
HETATM    6  C3  UNL     1      29.089  -5.410  -9.687  1.00  0.00    -0.014 C 
HETATM    7  C4  UNL     1      28.312  -4.799  -8.591  1.00  0.00     0.028 C 
HETATM    8  C5  UNL     1      28.666  -3.317  -8.783  1.00  0.00     0.009 C 
HETATM    9  C6  UNL     1      30.150  -3.465  -9.055  1.00  0.00     0.044 C 
ENDBRANCH   2   5
BRANCH   3  10
HETATM   10  O2  UNL     1      32.789  -6.407 -11.867  1.00  0.00    -0.287 OA
ATOM     11  H2  UNL     1      32.517  -6.238 -12.762  1.00  0.00     0.244 HD
ENDBRANCH   3  10
TORSDOF 2
ENDMDL
