MODEL 9
REMARK VINA RESULT: -5.172592797      4.361      5.133
REMARK  2 active torsions:
REMARK  status: ('A' for Active; 'I' for Inactive)
REMARK       I    between atoms: C1_2  and  N1_3 
REMARK    1  A    between atoms: C1_2  and  C2_7 
REMARK    2  A    between atoms: N1_3  and  O2_5 
ROOT
HETATM    1  O1  UNL     1      31.398  -5.512 -11.832  1.00  0.00    -0.266 OA
HETATM    2  C1  UNL     1      31.105  -4.418 -11.307  1.00  0.00     0.270 C 
HETATM    3  N1  UNL     1      31.662  -3.185 -11.771  1.00  0.00    -0.234 N 
ATOM      4  H1  UNL     1      31.417  -2.295 -11.337  1.00  0.00     0.197 HD
ENDROOT
BRANCH   2   5
HETATM    5  C2  UNL     1      30.174  -4.404 -10.198  1.00  0.00     0.008 C 
HETATM    6  C3  UNL     1      29.271  -5.333  -9.955  1.00  0.00    -0.014 C 
HETATM    7  C4  UNL     1      28.501  -4.991  -8.743  1.00  0.00     0.028 C 
HETATM    8  C5  UNL     1      28.611  -3.460  -8.759  1.00  0.00     0.009 C 
HETATM    9  C6  UNL     1      30.075  -3.336  -9.135  1.00  0.00     0.044 C 
ENDBRANCH   2   5
BRANCH   3  10
HETATM   10  O2  UNL     1      32.522  -3.248 -12.804  1.00  0.00    -0.287 OA
ATOM     11  H2  UNL     1      32.181  -3.042 -13.667  1.00  0.00     0.244 HD
ENDBRANCH   3  10
TORSDOF 2
ENDMDL
