MODEL 1
REMARK VINA RESULT: -7.929563859      0.000      0.000
REMARK  9 active torsions:
REMARK  status: ('A' for Active; 'I' for Inactive)
REMARK    1  A    between atoms: N1_1  and  C1_5 
REMARK    2  A    between atoms: N2_8  and  C4_9 
REMARK    3  A    between atoms: C5_11  and  C6_12 
REMARK    4  A    between atoms: C6_12  and  O2_13 
REMARK    5  A    between atoms: O2_13  and  P1_14 
REMARK    6  A    between atoms: P1_14  and  O5_17 
REMARK    7  A    between atoms: O5_17  and  P2_18 
REMARK    8  A    between atoms: C7_22  and  O9_23 
REMARK    9  A    between atoms: C8_25  and  O10_26 
ROOT
HETATM    1  C4  UNL     1      -3.795 -37.757  21.006  1.00  0.00     0.259 C 
HETATM    2  O1  UNL     1      -4.596 -36.687  20.626  1.00  0.00    -0.354 OA
HETATM    3  C5  UNL     1      -5.848 -36.909  21.201  1.00  0.00     0.180 C 
HETATM    4  C7  UNL     1      -5.421 -37.271  22.629  1.00  0.00     0.182 C 
HETATM    5  C8  UNL     1      -4.322 -38.267  22.329  1.00  0.00     0.198 C 
ENDROOT
BRANCH   1   6
HETATM    6  N2  UNL     1      -2.426 -37.383  21.208  1.00  0.00    -0.305 N 
HETATM    7  C3  UNL     1      -1.797 -37.312  22.513  1.00  0.00     0.134 C 
HETATM    8  C2  UNL     1      -0.886 -36.104  22.513  1.00  0.00     0.074 C 
HETATM    9  C1  UNL     1       0.268 -36.288  21.551  1.00  0.00     0.286 C 
HETATM   10  N3  UNL     1      -0.215 -36.843  20.289  1.00  0.00    -0.315 N 
HETATM   11  C9  UNL     1      -1.621 -37.059  20.086  1.00  0.00     0.322 C 
ATOM     12  H3  UNL     1       0.448 -37.079  19.550  1.00  0.00     0.166 HD
HETATM   13  O11 UNL     1      -2.061 -36.947  18.917  1.00  0.00    -0.247 OA
BRANCH   9  14
HETATM   14  N1  UNL     1       0.811 -34.974  21.243  1.00  0.00    -0.058 N 
ATOM     15  H13 UNL     1       0.962 -34.833  20.244  1.00  0.00     0.276 HD
ATOM     16  H12 UNL     1       0.134 -34.224  21.386  1.00  0.00     0.276 HD
ATOM     17  H11 UNL     1       1.662 -34.847  21.792  1.00  0.00     0.276 HD
ENDBRANCH   9  14
ENDBRANCH   1   6
BRANCH   5  18
HETATM   18  O10 UNL     1      -4.865 -39.531  22.117  1.00  0.00    -0.388 OA
ATOM     19  H10 UNL     1      -4.598 -40.089  22.838  1.00  0.00     0.210 HD
ENDBRANCH   5  18
BRANCH   3  20
HETATM   20  C6  UNL     1      -6.652 -35.625  21.215  1.00  0.00     0.216 C 
BRANCH  20  21
HETATM   21  O2  UNL     1      -6.134 -34.813  22.174  1.00  0.00    -0.287 OA
BRANCH  21  22
HETATM   22  P1  UNL     1      -5.775 -33.288  21.845  1.00  0.00     0.418 P 
HETATM   23  O3  UNL     1      -6.684 -32.020  22.578  1.00  0.00    -0.624 OA
HETATM   24  O4  UNL     1      -6.668 -33.142  20.621  1.00  0.00    -0.624 OA
BRANCH  22  25
HETATM   25  O5  UNL     1      -4.422 -32.843  21.040  1.00  0.00    -0.173 OA
BRANCH  25  26
HETATM   26  P2  UNL     1      -3.087 -33.357  21.569  1.00  0.00     0.431 P 
HETATM   27  O6  UNL     1      -3.708 -34.220  22.760  1.00  0.00    -0.616 OA
HETATM   28  O7  UNL     1      -2.590 -31.790  21.859  1.00  0.00    -0.616 OA
HETATM   29  O8  UNL     1      -2.779 -34.036  20.062  1.00  0.00    -0.616 OA
ENDBRANCH  25  26
ENDBRANCH  22  25
ENDBRANCH  21  22
ENDBRANCH  20  21
ENDBRANCH   3  20
BRANCH   4  30
HETATM   30  O9  UNL     1      -6.474 -37.839  23.339  1.00  0.00    -0.390 OA
ATOM     31  H9  UNL     1      -6.513 -37.500  24.225  1.00  0.00     0.210 HD
ENDBRANCH   4  30
TORSDOF 9
ENDMDL
