MODEL 2
REMARK VINA RESULT: -7.576898780      3.432      6.161
REMARK  9 active torsions:
REMARK  status: ('A' for Active; 'I' for Inactive)
REMARK    1  A    between atoms: N1_1  and  C1_5 
REMARK    2  A    between atoms: N2_8  and  C4_9 
REMARK    3  A    between atoms: C5_11  and  C6_12 
REMARK    4  A    between atoms: C6_12  and  O2_13 
REMARK    5  A    between atoms: O2_13  and  P1_14 
REMARK    6  A    between atoms: P1_14  and  O5_17 
REMARK    7  A    between atoms: O5_17  and  P2_18 
REMARK    8  A    between atoms: C7_22  and  O9_23 
REMARK    9  A    between atoms: C8_25  and  O10_26 
ROOT
HETATM    1  C4  UNL     1      -6.593 -35.447  21.334  1.00  0.00     0.259 C 
HETATM    2  O1  UNL     1      -5.324 -35.978  21.543  1.00  0.00    -0.354 OA
HETATM    3  C5  UNL     1      -4.427 -34.919  21.404  1.00  0.00     0.180 C 
HETATM    4  C7  UNL     1      -5.131 -33.863  22.265  1.00  0.00     0.182 C 
HETATM    5  C8  UNL     1      -6.542 -33.989  21.733  1.00  0.00     0.198 C 
ENDROOT
BRANCH   1   6
HETATM    6  N2  UNL     1      -7.599 -36.076  22.138  1.00  0.00    -0.305 N 
HETATM    7  C3  UNL     1      -7.313 -37.093  23.131  1.00  0.00     0.134 C 
HETATM    8  C2  UNL     1      -8.418 -38.125  23.056  1.00  0.00     0.074 C 
HETATM    9  C1  UNL     1      -9.744 -37.539  23.492  1.00  0.00     0.286 C 
HETATM   10  N3  UNL     1      -9.929 -36.219  22.895  1.00  0.00    -0.315 N 
HETATM   11  C9  UNL     1      -8.956 -35.700  21.974  1.00  0.00     0.322 C 
ATOM     12  H3  UNL     1     -10.752 -35.664  23.132  1.00  0.00     0.166 HD
HETATM   13  O11 UNL     1      -9.367 -34.936  21.067  1.00  0.00    -0.247 OA
BRANCH   9  14
HETATM   14  N1  UNL     1     -10.804 -38.384  22.964  1.00  0.00    -0.058 N 
ATOM     15  H13 UNL     1     -10.619 -39.379  23.096  1.00  0.00     0.276 HD
ATOM     16  H12 UNL     1     -11.662 -38.331  23.514  1.00  0.00     0.276 HD
ATOM     17  H11 UNL     1     -10.947 -38.137  21.985  1.00  0.00     0.276 HD
ENDBRANCH   9  14
ENDBRANCH   1   6
BRANCH   5  18
HETATM   18  O10 UNL     1      -6.691 -33.223  20.581  1.00  0.00    -0.388 OA
ATOM     19  H10 UNL     1      -6.858 -32.326  20.845  1.00  0.00     0.210 HD
ENDBRANCH   5  18
BRANCH   3  20
HETATM   20  C6  UNL     1      -3.093 -35.280  22.024  1.00  0.00     0.216 C 
BRANCH  20  21
HETATM   21  O2  UNL     1      -2.342 -34.149  22.100  1.00  0.00    -0.287 OA
BRANCH  21  22
HETATM   22  P1  UNL     1      -1.319 -33.770  20.928  1.00  0.00     0.418 P 
HETATM   23  O3  UNL     1      -0.015 -32.690  21.251  1.00  0.00    -0.624 OA
HETATM   24  O4  UNL     1      -2.092 -32.579  20.379  1.00  0.00    -0.624 OA
BRANCH  22  25
HETATM   25  O5  UNL     1      -1.284 -34.544  19.488  1.00  0.00    -0.173 OA
BRANCH  25  26
HETATM   26  P2  UNL     1      -0.417 -35.794  19.381  1.00  0.00     0.431 P 
HETATM   27  O6  UNL     1       0.247 -35.652  20.827  1.00  0.00    -0.616 OA
HETATM   28  O7  UNL     1       0.359 -35.152  18.051  1.00  0.00    -0.616 OA
HETATM   29  O8  UNL     1      -1.807 -36.709  19.142  1.00  0.00    -0.616 OA
ENDBRANCH  25  26
ENDBRANCH  22  25
ENDBRANCH  21  22
ENDBRANCH  20  21
ENDBRANCH   3  20
BRANCH   4  30
HETATM   30  O9  UNL     1      -4.593 -32.598  22.048  1.00  0.00    -0.390 OA
ATOM     31  H9  UNL     1      -4.819 -32.004  22.754  1.00  0.00     0.210 HD
ENDBRANCH   4  30
TORSDOF 9
ENDMDL
