MODEL 3
REMARK VINA RESULT: -7.525583423      3.120      5.886
REMARK  9 active torsions:
REMARK  status: ('A' for Active; 'I' for Inactive)
REMARK    1  A    between atoms: N1_1  and  C1_5 
REMARK    2  A    between atoms: N2_8  and  C4_9 
REMARK    3  A    between atoms: C5_11  and  C6_12 
REMARK    4  A    between atoms: C6_12  and  O2_13 
REMARK    5  A    between atoms: O2_13  and  P1_14 
REMARK    6  A    between atoms: P1_14  and  O5_17 
REMARK    7  A    between atoms: O5_17  and  P2_18 
REMARK    8  A    between atoms: C7_22  and  O9_23 
REMARK    9  A    between atoms: C8_25  and  O10_26 
ROOT
HETATM    1  C4  UNL     1      -4.945 -35.063  21.757  1.00  0.00     0.259 C 
HETATM    2  O1  UNL     1      -4.508 -35.826  20.680  1.00  0.00    -0.354 OA
HETATM    3  C5  UNL     1      -3.115 -35.848  20.754  1.00  0.00     0.180 C 
HETATM    4  C7  UNL     1      -2.935 -36.177  22.241  1.00  0.00     0.182 C 
HETATM    5  C8  UNL     1      -3.903 -35.183  22.847  1.00  0.00     0.198 C 
ENDROOT
BRANCH   1   6
HETATM    6  N2  UNL     1      -6.187 -35.527  22.300  1.00  0.00    -0.305 N 
HETATM    7  C3  UNL     1      -6.302 -36.683  23.169  1.00  0.00     0.134 C 
HETATM    8  C2  UNL     1      -7.565 -37.420  22.778  1.00  0.00     0.074 C 
HETATM    9  C1  UNL     1      -8.797 -36.597  23.087  1.00  0.00     0.286 C 
HETATM   10  N3  UNL     1      -8.595 -35.214  22.664  1.00  0.00    -0.315 N 
HETATM   11  C9  UNL     1      -7.385 -34.835  21.987  1.00  0.00     0.322 C 
ATOM     12  H3  UNL     1      -9.313 -34.515  22.851  1.00  0.00     0.166 HD
HETATM   13  O11 UNL     1      -7.459 -33.906  21.147  1.00  0.00    -0.247 OA
BRANCH   9  14
HETATM   14  N1  UNL     1      -9.897 -37.117  22.288  1.00  0.00    -0.058 N 
ATOM     15  H13 UNL     1     -10.784 -36.657  22.492  1.00  0.00     0.276 HD
ATOM     16  H12 UNL     1      -9.829 -36.853  21.305  1.00  0.00     0.276 HD
ATOM     17  H11 UNL     1      -9.936 -38.127  22.424  1.00  0.00     0.276 HD
ENDBRANCH   9  14
ENDBRANCH   1   6
BRANCH   5  18
HETATM   18  O10 UNL     1      -3.289 -33.943  22.994  1.00  0.00    -0.388 OA
ATOM     19  H10 UNL     1      -2.687 -33.999  23.726  1.00  0.00     0.210 HD
ENDBRANCH   5  18
BRANCH   3  20
HETATM   20  C6  UNL     1      -2.565 -36.980  19.909  1.00  0.00     0.216 C 
BRANCH  20  21
HETATM   21  O2  UNL     1      -1.920 -36.437  18.843  1.00  0.00    -0.287 OA
BRANCH  21  22
HETATM   22  P1  UNL     1      -0.623 -35.523  19.054  1.00  0.00     0.418 P 
HETATM   23  O3  UNL     1       0.392 -35.161  17.708  1.00  0.00    -0.624 OA
HETATM   24  O4  UNL     1       0.344 -36.644  19.408  1.00  0.00    -0.624 OA
BRANCH  22  25
HETATM   25  O5  UNL     1      -0.330 -34.693  20.432  1.00  0.00    -0.173 OA
BRANCH  25  26
HETATM   26  P2  UNL     1      -0.428 -33.172  20.373  1.00  0.00     0.431 P 
HETATM   27  O6  UNL     1      -1.543 -33.128  19.230  1.00  0.00    -0.616 OA
HETATM   28  O7  UNL     1       1.185 -33.076  19.955  1.00  0.00    -0.616 OA
HETATM   29  O8  UNL     1      -0.842 -33.159  22.002  1.00  0.00    -0.616 OA
ENDBRANCH  25  26
ENDBRANCH  22  25
ENDBRANCH  21  22
ENDBRANCH  20  21
ENDBRANCH   3  20
BRANCH   4  30
HETATM   30  O9  UNL     1      -1.623 -35.956  22.649  1.00  0.00    -0.390 OA
ATOM     31  H9  UNL     1      -1.006 -36.239  21.986  1.00  0.00     0.210 HD
ENDBRANCH   4  30
TORSDOF 9
ENDMDL
