MODEL 4
REMARK VINA RESULT: -5.485844402      2.190      6.400
REMARK  4 active torsions:
REMARK  status: ('A' for Active; 'I' for Inactive)
REMARK    1  A    between atoms: O1_2  and  C2_3 
REMARK    2  A    between atoms: C5_8  and  C7_10 
REMARK    3  A    between atoms: C9_15  and  O7_16 
REMARK    4  A    between atoms: C10_18  and  N1_19 
REMARK       I    between atoms: N1_19  and  C11_21 
ROOT
HETATM    1  C2  UNL     1      11.075 -44.179  30.271  1.00  0.00     0.284 C 
HETATM    2  O2  UNL     1      12.164 -45.026  30.121  1.00  0.00    -0.349 OA
HETATM    3  C3  UNL     1      12.739 -45.182  31.378  1.00  0.00     0.180 C 
HETATM    4  C4  UNL     1      14.163 -45.621  31.342  1.00  0.00     0.206 C 
HETATM    5  O3  UNL     1      14.240 -46.926  31.779  1.00  0.00    -0.344 OA
HETATM    6  C5  UNL     1      13.723 -47.152  33.025  1.00  0.00     0.252 C 
HETATM    7  C6  UNL     1      14.609 -46.412  34.037  1.00  0.00     0.092 C 
HETATM    8  O6  UNL     1      12.440 -46.684  33.217  1.00  0.00    -0.336 OA
HETATM    9  C8  UNL     1      11.847 -46.227  32.062  1.00  0.00     0.187 C 
HETATM   10  C9  UNL     1      10.575 -45.485  32.369  1.00  0.00     0.177 C 
HETATM   11  C10 UNL     1      10.052 -44.665  31.248  1.00  0.00     0.170 C 
ENDROOT
BRANCH  11  12
HETATM   12  N1  UNL     1       8.957 -45.370  30.602  1.00  0.00    -0.349 N 
HETATM   13  C11 UNL     1       7.621 -44.929  30.609  1.00  0.00     0.214 C 
HETATM   14  C12 UNL     1       6.490 -45.611  29.969  1.00  0.00     0.117 C 
HETATM   15  O8  UNL     1       7.371 -43.842  31.225  1.00  0.00    -0.274 OA
ATOM     16  H1  UNL     1       9.171 -46.240  30.113  1.00  0.00     0.163 HD
ENDBRANCH  11  12
BRANCH   1  17
HETATM   17  O1  UNL     1      10.522 -44.015  29.008  1.00  0.00    -0.364 OA
HETATM   18  C1  UNL     1      11.511 -43.647  28.124  1.00  0.00     0.204 C 
ENDBRANCH   1  17
BRANCH  10  19
HETATM   19  O7  UNL     1       9.619 -46.410  32.848  1.00  0.00    -0.391 OA
ATOM     20  H7  UNL     1       9.980 -46.850  33.609  1.00  0.00     0.210 HD
ENDBRANCH  10  19
BRANCH   6  21
HETATM   21  C7  UNL     1      13.791 -48.613  33.293  1.00  0.00     0.238 C 
HETATM   22  O4  UNL     1      13.127 -49.446  32.624  1.00  0.00    -0.644 OA
HETATM   23  O5  UNL     1      14.599 -49.134  34.309  1.00  0.00    -0.644 OA
ENDBRANCH   6  21
TORSDOF 4
ENDMDL
