MODEL 1
REMARK VINA RESULT: -7.361852457      0.000      0.000
REMARK  4 active torsions:
REMARK  status: ('A' for Active; 'I' for Inactive)
REMARK    1  A    between atoms: O1_2  and  C2_3 
REMARK    2  A    between atoms: C5_8  and  C7_10 
REMARK    3  A    between atoms: C9_15  and  O7_16 
REMARK    4  A    between atoms: C10_18  and  N1_19 
REMARK       I    between atoms: N1_19  and  C11_21 
ROOT
HETATM    1  C2  UNL     1      11.073 -45.732  31.523  1.00  0.00     0.284 C 
HETATM    2  O2  UNL     1      10.047 -44.826  31.753  1.00  0.00    -0.349 OA
HETATM    3  C3  UNL     1       8.972 -45.212  30.959  1.00  0.00     0.180 C 
HETATM    4  C4  UNL     1       7.997 -44.118  30.686  1.00  0.00     0.206 C 
HETATM    5  O3  UNL     1       6.834 -44.372  31.380  1.00  0.00    -0.344 OA
HETATM    6  C5  UNL     1       6.252 -45.581  31.113  1.00  0.00     0.252 C 
HETATM    7  C6  UNL     1       5.768 -45.552  29.656  1.00  0.00     0.092 C 
HETATM    8  O6  UNL     1       7.092 -46.669  31.221  1.00  0.00    -0.336 OA
HETATM    9  C8  UNL     1       8.324 -46.357  31.749  1.00  0.00     0.187 C 
HETATM   10  C9  UNL     1       9.282 -47.506  31.591  1.00  0.00     0.177 C 
HETATM   11  C10 UNL     1      10.708 -47.155  31.805  1.00  0.00     0.170 C 
ENDROOT
BRANCH  11  12
HETATM   12  N1  UNL     1      11.117 -47.580  33.134  1.00  0.00    -0.349 N 
HETATM   13  C11 UNL     1      12.170 -48.481  33.385  1.00  0.00     0.214 C 
HETATM   14  C12 UNL     1      12.613 -48.933  34.708  1.00  0.00     0.117 C 
HETATM   15  O8  UNL     1      12.792 -48.944  32.374  1.00  0.00    -0.274 OA
ATOM     16  H1  UNL     1      10.610 -47.202  33.934  1.00  0.00     0.163 HD
ENDBRANCH  11  12
BRANCH   1  17
HETATM   17  O1  UNL     1      12.146 -45.325  32.305  1.00  0.00    -0.364 OA
HETATM   18  C1  UNL     1      12.477 -44.029  31.983  1.00  0.00     0.204 C 
ENDBRANCH   1  17
BRANCH  10  19
HETATM   19  O7  UNL     1       8.859 -48.563  32.428  1.00  0.00    -0.391 OA
ATOM     20  H7  UNL     1       8.126 -49.001  32.014  1.00  0.00     0.210 HD
ENDBRANCH  10  19
BRANCH   6  21
HETATM   21  C7  UNL     1       5.079 -45.736  32.013  1.00  0.00     0.238 C 
HETATM   22  O4  UNL     1       4.705 -46.862  32.434  1.00  0.00    -0.644 OA
HETATM   23  O5  UNL     1       4.331 -44.634  32.439  1.00  0.00    -0.644 OA
ENDBRANCH   6  21
TORSDOF 4
ENDMDL
