MODEL 5
REMARK VINA RESULT: -5.449284019      3.040      5.600
REMARK  4 active torsions:
REMARK  status: ('A' for Active; 'I' for Inactive)
REMARK    1  A    between atoms: O1_2  and  C2_3 
REMARK    2  A    between atoms: C5_8  and  C7_10 
REMARK    3  A    between atoms: C9_15  and  O7_16 
REMARK    4  A    between atoms: C10_18  and  N1_19 
REMARK       I    between atoms: N1_19  and  C11_21 
ROOT
HETATM    1  C2  UNL     1      13.229 -43.957  30.469  1.00  0.00     0.284 C 
HETATM    2  O2  UNL     1      13.172 -45.337  30.609  1.00  0.00    -0.349 OA
HETATM    3  C3  UNL     1      12.315 -45.607  31.670  1.00  0.00     0.180 C 
HETATM    4  C4  UNL     1      12.516 -46.951  32.284  1.00  0.00     0.206 C 
HETATM    5  O3  UNL     1      11.442 -47.754  31.963  1.00  0.00    -0.344 OA
HETATM    6  C5  UNL     1      10.220 -47.261  32.331  1.00  0.00     0.252 C 
HETATM    7  C6  UNL     1      10.171 -47.239  33.865  1.00  0.00     0.092 C 
HETATM    8  O6  UNL     1       9.963 -45.971  31.915  1.00  0.00    -0.336 OA
HETATM    9  C8  UNL     1      10.916 -45.474  31.056  1.00  0.00     0.187 C 
HETATM   10  C9  UNL     1      10.738 -43.994  30.855  1.00  0.00     0.177 C 
HETATM   11  C10 UNL     1      11.901 -43.310  30.236  1.00  0.00     0.170 C 
ENDROOT
BRANCH  11  12
HETATM   12  N1  UNL     1      11.634 -43.081  28.826  1.00  0.00    -0.349 N 
HETATM   13  C11 UNL     1      11.690 -41.817  28.208  1.00  0.00     0.214 C 
HETATM   14  C12 UNL     1      11.428 -41.545  26.790  1.00  0.00     0.117 C 
HETATM   15  O8  UNL     1      11.993 -40.823  28.945  1.00  0.00    -0.274 OA
ATOM     16  H1  UNL     1      11.391 -43.886  28.249  1.00  0.00     0.163 HD
ENDBRANCH  11  12
BRANCH   1  17
HETATM   17  O1  UNL     1      14.102 -43.699  29.421  1.00  0.00    -0.364 OA
HETATM   18  C1  UNL     1      14.816 -44.840  29.133  1.00  0.00     0.204 C 
ENDBRANCH   1  17
BRANCH  10  19
HETATM   19  O7  UNL     1       9.543 -43.779  30.131  1.00  0.00    -0.391 OA
ATOM     20  H7  UNL     1       9.356 -42.847  30.128  1.00  0.00     0.210 HD
ENDBRANCH  10  19
BRANCH   6  21
HETATM   21  C7  UNL     1       9.177 -48.190  31.822  1.00  0.00     0.238 C 
HETATM   22  O4  UNL     1       8.080 -47.776  31.364  1.00  0.00    -0.644 OA
HETATM   23  O5  UNL     1       9.365 -49.576  31.828  1.00  0.00    -0.644 OA
ENDBRANCH   6  21
TORSDOF 4
ENDMDL
