MODEL 2
REMARK VINA RESULT: -5.793544971      1.822      6.038
REMARK  4 active torsions:
REMARK  status: ('A' for Active; 'I' for Inactive)
REMARK    1  A    between atoms: O1_2  and  C2_3 
REMARK    2  A    between atoms: C5_8  and  C7_10 
REMARK    3  A    between atoms: C9_15  and  O7_16 
REMARK    4  A    between atoms: C10_18  and  N1_19 
REMARK       I    between atoms: N1_19  and  C11_21 
ROOT
HETATM    1  C2  UNL     1      10.394 -44.876  31.039  1.00  0.00     0.284 C 
HETATM    2  O2  UNL     1      11.462 -45.735  30.818  1.00  0.00    -0.349 OA
HETATM    3  C3  UNL     1      11.844 -46.243  32.055  1.00  0.00     0.180 C 
HETATM    4  C4  UNL     1      13.241 -46.760  32.093  1.00  0.00     0.206 C 
HETATM    5  O3  UNL     1      13.207 -48.135  32.183  1.00  0.00    -0.344 OA
HETATM    6  C5  UNL     1      12.508 -48.628  33.251  1.00  0.00     0.252 C 
HETATM    7  C6  UNL     1      13.266 -48.231  34.526  1.00  0.00     0.092 C 
HETATM    8  O6  UNL     1      11.228 -48.131  33.390  1.00  0.00    -0.336 OA
HETATM    9  C8  UNL     1      10.825 -47.358  32.325  1.00  0.00     0.187 C 
HETATM   10  C9  UNL     1       9.551 -46.626  32.646  1.00  0.00     0.177 C 
HETATM   11  C10 UNL     1       9.224 -45.516  31.717  1.00  0.00     0.170 C 
ENDROOT
BRANCH  11  12
HETATM   12  N1  UNL     1       8.209 -45.956  30.775  1.00  0.00    -0.349 N 
HETATM   13  C11 UNL     1       6.949 -45.345  30.630  1.00  0.00     0.214 C 
HETATM   14  C12 UNL     1       5.899 -45.758  29.692  1.00  0.00     0.117 C 
HETATM   15  O8  UNL     1       6.699 -44.345  31.380  1.00  0.00    -0.274 OA
ATOM     16  H1  UNL     1       8.422 -46.758  30.181  1.00  0.00     0.163 HD
ENDBRANCH  11  12
BRANCH   1  17
HETATM   17  O1  UNL     1      10.035 -44.361  29.800  1.00  0.00    -0.364 OA
HETATM   18  C1  UNL     1      11.145 -43.817  29.195  1.00  0.00     0.204 C 
ENDBRANCH   1  17
BRANCH  10  19
HETATM   19  O7  UNL     1       8.502 -47.569  32.742  1.00  0.00    -0.391 OA
ATOM     20  H7  UNL     1       7.786 -47.282  32.188  1.00  0.00     0.210 HD
ENDBRANCH  10  19
BRANCH   6  21
HETATM   21  C7  UNL     1      12.482 -50.110  33.140  1.00  0.00     0.238 C 
HETATM   22  O4  UNL     1      13.533 -50.788  32.999  1.00  0.00    -0.644 OA
HETATM   23  O5  UNL     1      11.282 -50.827  33.187  1.00  0.00    -0.644 OA
ENDBRANCH   6  21
TORSDOF 4
ENDMDL
