MODEL 5
REMARK VINA RESULT: -5.669854376      3.148      6.024
REMARK  4 active torsions:
REMARK  status: ('A' for Active; 'I' for Inactive)
REMARK    1  A    between atoms: O1_2  and  C2_3 
REMARK    2  A    between atoms: C5_8  and  C7_10 
REMARK    3  A    between atoms: C9_15  and  O7_16 
REMARK    4  A    between atoms: C10_18  and  N1_19 
REMARK       I    between atoms: N1_19  and  C11_21 
ROOT
HETATM    1  C2  UNL     1     -18.549 -12.025  14.293  1.00  0.00     0.284 C 
HETATM    2  O2  UNL     1     -18.585 -13.351  14.703  1.00  0.00    -0.349 OA
HETATM    3  C3  UNL     1     -17.724 -14.061  13.874  1.00  0.00     0.180 C 
HETATM    4  C4  UNL     1     -18.003 -15.524  13.821  1.00  0.00     0.206 C 
HETATM    5  O3  UNL     1     -16.996 -16.196  14.480  1.00  0.00    -0.344 OA
HETATM    6  C5  UNL     1     -15.734 -15.954  14.010  1.00  0.00     0.252 C 
HETATM    7  C6  UNL     1     -15.646 -16.535  12.593  1.00  0.00     0.092 C 
HETATM    8  O6  UNL     1     -15.397 -14.620  13.905  1.00  0.00    -0.336 OA
HETATM    9  C8  UNL     1     -16.333 -13.775  14.457  1.00  0.00     0.187 C 
HETATM   10  C9  UNL     1     -16.058 -12.347  14.076  1.00  0.00     0.177 C 
HETATM   11  C10 UNL     1     -17.184 -11.413  14.322  1.00  0.00     0.170 C 
ENDROOT
BRANCH  11  12
HETATM   12  N1  UNL     1     -16.936 -10.666  15.544  1.00  0.00    -0.349 N 
HETATM   13  C11 UNL     1     -16.695  -9.280  15.587  1.00  0.00     0.214 C 
HETATM   14  C12 UNL     1     -16.441  -8.491  16.798  1.00  0.00     0.117 C 
HETATM   15  O8  UNL     1     -16.697  -8.656  14.476  1.00  0.00    -0.274 OA
ATOM     16  H1  UNL     1     -16.936 -11.179  16.426  1.00  0.00     0.163 HD
ENDBRANCH  11  12
BRANCH   1  17
HETATM   17  O1  UNL     1     -19.426 -11.331  15.116  1.00  0.00    -0.364 OA
HETATM   18  C1  UNL     1     -20.520 -12.122  15.383  1.00  0.00     0.204 C 
ENDBRANCH   1  17
BRANCH  10  19
HETATM   19  O7  UNL     1     -14.868 -11.932  14.717  1.00  0.00    -0.391 OA
ATOM     20  H7  UNL     1     -15.070 -11.194  15.280  1.00  0.00     0.210 HD
ENDBRANCH  10  19
BRANCH   6  21
HETATM   21  C7  UNL     1     -14.771 -16.666  14.891  1.00  0.00     0.238 C 
HETATM   22  O4  UNL     1     -13.526 -16.576  14.730  1.00  0.00    -0.644 OA
HETATM   23  O5  UNL     1     -15.204 -17.476  15.946  1.00  0.00    -0.644 OA
ENDBRANCH   6  21
TORSDOF 4
ENDMDL
