MODEL 4
REMARK VINA RESULT: -5.824596787      1.793      5.968
REMARK  4 active torsions:
REMARK  status: ('A' for Active; 'I' for Inactive)
REMARK    1  A    between atoms: O1_2  and  C2_3 
REMARK    2  A    between atoms: C5_8  and  C7_10 
REMARK    3  A    between atoms: C9_15  and  O7_16 
REMARK    4  A    between atoms: C10_18  and  N1_19 
REMARK       I    between atoms: N1_19  and  C11_21 
ROOT
HETATM    1  C2  UNL     1     -17.506 -12.785  14.694  1.00  0.00     0.284 C 
HETATM    2  O2  UNL     1     -18.255 -13.472  13.749  1.00  0.00    -0.349 OA
HETATM    3  C3  UNL     1     -19.582 -13.424  14.164  1.00  0.00     0.180 C 
HETATM    4  C4  UNL     1     -20.438 -14.497  13.582  1.00  0.00     0.206 C 
HETATM    5  O3  UNL     1     -21.303 -13.933  12.669  1.00  0.00    -0.344 OA
HETATM    6  C5  UNL     1     -22.096 -12.934  13.163  1.00  0.00     0.252 C 
HETATM    7  C6  UNL     1     -23.055 -13.562  14.183  1.00  0.00     0.092 C 
HETATM    8  O6  UNL     1     -21.422 -11.931  13.829  1.00  0.00    -0.336 OA
HETATM    9  C8  UNL     1     -20.053 -12.031  13.726  1.00  0.00     0.187 C 
HETATM   10  C9  UNL     1     -19.373 -11.091  14.683  1.00  0.00     0.177 C 
HETATM   11  C10 UNL     1     -17.930 -11.366  14.898  1.00  0.00     0.170 C 
ENDROOT
BRANCH  11  12
HETATM   12  N1  UNL     1     -17.138 -10.431  14.117  1.00  0.00    -0.349 N 
HETATM   13  C11 UNL     1     -16.673  -9.194  14.601  1.00  0.00     0.214 C 
HETATM   14  C12 UNL     1     -15.871  -8.224  13.846  1.00  0.00     0.117 C 
HETATM   15  O8  UNL     1     -16.976  -8.889  15.801  1.00  0.00    -0.274 OA
ATOM     16  H1  UNL     1     -16.903 -10.688  13.158  1.00  0.00     0.163 HD
ENDBRANCH  11  12
BRANCH   1  17
HETATM   17  O1  UNL     1     -16.182 -12.857  14.281  1.00  0.00    -0.364 OA
HETATM   18  C1  UNL     1     -15.851 -14.172  14.042  1.00  0.00     0.204 C 
ENDBRANCH   1  17
BRANCH  10  19
HETATM   19  O7  UNL     1     -19.607  -9.765  14.255  1.00  0.00    -0.391 OA
ATOM     20  H7  UNL     1     -19.844  -9.241  15.011  1.00  0.00     0.210 HD
ENDBRANCH  10  19
BRANCH   6  21
HETATM   21  C7  UNL     1     -22.884 -12.371  12.034  1.00  0.00     0.238 C 
HETATM   22  O4  UNL     1     -24.065 -12.733  11.799  1.00  0.00    -0.644 OA
HETATM   23  O5  UNL     1     -22.346 -11.407  11.175  1.00  0.00    -0.644 OA
ENDBRANCH   6  21
TORSDOF 4
ENDMDL
