MODEL 3
REMARK VINA RESULT: -5.873291532      1.942      6.188
REMARK  4 active torsions:
REMARK  status: ('A' for Active; 'I' for Inactive)
REMARK    1  A    between atoms: O1_2  and  C2_3 
REMARK    2  A    between atoms: C5_8  and  C7_10 
REMARK    3  A    between atoms: C9_15  and  O7_16 
REMARK    4  A    between atoms: C10_18  and  N1_19 
REMARK       I    between atoms: N1_19  and  C11_21 
ROOT
HETATM    1  C2  UNL     1     -19.218 -12.552  14.307  1.00  0.00     0.284 C 
HETATM    2  O2  UNL     1     -19.975 -12.979  13.224  1.00  0.00    -0.349 OA
HETATM    3  C3  UNL     1     -21.275 -12.532  13.430  1.00  0.00     0.180 C 
HETATM    4  C4  UNL     1     -22.306 -13.295  12.670  1.00  0.00     0.206 C 
HETATM    5  O3  UNL     1     -22.802 -12.495  11.663  1.00  0.00    -0.344 OA
HETATM    6  C5  UNL     1     -23.329 -11.303  12.077  1.00  0.00     0.252 C 
HETATM    7  C6  UNL     1     -24.585 -11.611  12.904  1.00  0.00     0.092 C 
HETATM    8  O6  UNL     1     -22.504 -10.551  12.889  1.00  0.00    -0.336 OA
HETATM    9  C8  UNL     1     -21.231 -11.061  12.994  1.00  0.00     0.187 C 
HETATM   10  C9  UNL     1     -20.466 -10.372  14.091  1.00  0.00     0.177 C 
HETATM   11  C10 UNL     1     -19.226 -11.071  14.513  1.00  0.00     0.170 C 
ENDROOT
BRANCH  11  12
HETATM   12  N1  UNL     1     -18.075 -10.420  13.912  1.00  0.00    -0.349 N 
HETATM   13  C11 UNL     1     -17.286  -9.452  14.562  1.00  0.00     0.214 C 
HETATM   14  C12 UNL     1     -16.117  -8.773  13.990  1.00  0.00     0.117 C 
HETATM   15  O8  UNL     1     -17.617  -9.137  15.751  1.00  0.00    -0.274 OA
ATOM     16  H1  UNL     1     -17.822 -10.681  12.958  1.00  0.00     0.163 HD
ENDBRANCH  11  12
BRANCH   1  17
HETATM   17  O1  UNL     1     -17.928 -13.022  14.100  1.00  0.00    -0.364 OA
HETATM   18  C1  UNL     1     -17.958 -14.391  13.967  1.00  0.00     0.204 C 
ENDBRANCH   1  17
BRANCH  10  19
HETATM   19  O7  UNL     1     -20.220  -9.037  13.697  1.00  0.00    -0.391 OA
ATOM     20  H7  UNL     1     -21.040  -8.650  13.415  1.00  0.00     0.210 HD
ENDBRANCH  10  19
BRANCH   6  21
HETATM   21  C7  UNL     1     -23.718 -10.527  10.870  1.00  0.00     0.238 C 
HETATM   22  O4  UNL     1     -23.414 -10.902   9.708  1.00  0.00    -0.644 OA
HETATM   23  O5  UNL     1     -24.445  -9.336  10.967  1.00  0.00    -0.644 OA
ENDBRANCH   6  21
TORSDOF 4
ENDMDL
