MODEL 2
REMARK VINA RESULT: -8.597541367      0.913      1.511
REMARK  10 active torsions:
REMARK  status: ('A' for Active; 'I' for Inactive)
REMARK    1  A    between atoms: N1_5  and  C4_6 
REMARK    2  A    between atoms: C5_8  and  C6_9 
REMARK    3  A    between atoms: C6_9  and  O3_10 
REMARK    4  A    between atoms: O3_10  and  P1_11 
REMARK    5  A    between atoms: P1_11  and  O6_14 
REMARK    6  A    between atoms: O6_14  and  P2_15 
REMARK    7  A    between atoms: P2_15  and  O9_18 
REMARK    8  A    between atoms: O9_18  and  P3_19 
REMARK    9  A    between atoms: C7_23  and  O13_24 
REMARK   10  A    between atoms: C8_26  and  O14_27 
ROOT
HETATM    1  C4  UNL     1      -1.711 -35.635  20.098  1.00  0.00     0.263 C 
HETATM    2  O2  UNL     1      -2.825 -35.249  20.806  1.00  0.00    -0.353 OA
HETATM    3  C5  UNL     1      -3.837 -36.150  20.552  1.00  0.00     0.180 C 
HETATM    4  C7  UNL     1      -3.117 -37.468  20.530  1.00  0.00     0.182 C 
HETATM    5  C8  UNL     1      -1.829 -37.107  19.808  1.00  0.00     0.198 C 
ENDROOT
BRANCH   3   6
HETATM    6  C6  UNL     1      -4.894 -36.138  21.630  1.00  0.00     0.216 C 
BRANCH   6   7
HETATM    7  O3  UNL     1      -5.281 -34.858  21.856  1.00  0.00    -0.287 OA
BRANCH   7   8
HETATM    8  P1  UNL     1      -6.930 -34.615  21.896  1.00  0.00     0.417 P 
HETATM    9  O4  UNL     1      -7.702 -34.326  20.471  1.00  0.00    -0.624 OA
HETATM   10  O5  UNL     1      -6.724 -33.143  22.220  1.00  0.00    -0.624 OA
BRANCH   8  11
HETATM   11  O6  UNL     1      -7.819 -34.838  23.256  1.00  0.00    -0.180 OA
BRANCH  11  12
HETATM   12  P2  UNL     1      -8.677 -36.072  23.563  1.00  0.00     0.428 P 
HETATM   13  O7  UNL     1      -7.247 -36.805  24.063  1.00  0.00    -0.624 OA
HETATM   14  O8  UNL     1      -9.643 -35.382  24.660  1.00  0.00    -0.624 OA
BRANCH  12  15
HETATM   15  O9  UNL     1      -9.333 -37.475  23.752  1.00  0.00    -0.173 OA
BRANCH  15  16
HETATM   16  P3  UNL     1      -9.985 -38.397  22.731  1.00  0.00     0.431 P 
HETATM   17  O10 UNL     1     -11.483 -37.977  23.325  1.00  0.00    -0.616 OA
HETATM   18  O11 UNL     1      -9.282 -39.777  23.177  1.00  0.00    -0.616 OA
HETATM   19  O12 UNL     1      -9.347 -37.441  21.518  1.00  0.00    -0.616 OA
ENDBRANCH  15  16
ENDBRANCH  12  15
ENDBRANCH  11  12
ENDBRANCH   8  11
ENDBRANCH   7   8
ENDBRANCH   6   7
ENDBRANCH   3   6
BRANCH   4  20
HETATM   20  O13 UNL     1      -3.790 -38.432  19.785  1.00  0.00    -0.390 OA
ATOM     21  H13 UNL     1      -3.200 -39.063  19.388  1.00  0.00     0.210 HD
ENDBRANCH   4  20
BRANCH   1  22
HETATM   22  N1  UNL     1      -0.497 -35.406  20.855  1.00  0.00    -0.280 N 
HETATM   23  C3  UNL     1      -0.095 -36.290  21.779  1.00  0.00     0.104 A 
HETATM   24  C2  UNL     1       1.066 -36.099  22.522  1.00  0.00     0.092 A 
HETATM   25  C1  UNL     1       1.776 -34.940  22.245  1.00  0.00     0.250 A 
HETATM   26  O1  UNL     1       2.827 -34.738  22.896  1.00  0.00    -0.268 OA
HETATM   27  N2  UNL     1       1.335 -34.087  21.313  1.00  0.00    -0.275 N 
HETATM   28  C9  UNL     1       0.217 -34.294  20.613  1.00  0.00     0.331 A 
ATOM     29  H2  UNL     1       1.878 -33.243  21.130  1.00  0.00     0.173 HD
HETATM   30  O15 UNL     1      -0.209 -33.504  19.736  1.00  0.00    -0.246 OA
ENDBRANCH   1  22
BRANCH   5  31
HETATM   31  O14 UNL     1      -2.081 -37.319  18.435  1.00  0.00    -0.388 OA
ATOM     32  H14 UNL     1      -1.386 -37.840  18.049  1.00  0.00     0.210 HD
ENDBRANCH   5  31
TORSDOF 10
ENDMDL
