MODEL 3
REMARK VINA RESULT: -8.515085771      0.886      1.567
REMARK  10 active torsions:
REMARK  status: ('A' for Active; 'I' for Inactive)
REMARK    1  A    between atoms: N1_5  and  C4_6 
REMARK    2  A    between atoms: C5_8  and  C6_9 
REMARK    3  A    between atoms: C6_9  and  O3_10 
REMARK    4  A    between atoms: O3_10  and  P1_11 
REMARK    5  A    between atoms: P1_11  and  O6_14 
REMARK    6  A    between atoms: O6_14  and  P2_15 
REMARK    7  A    between atoms: P2_15  and  O9_18 
REMARK    8  A    between atoms: O9_18  and  P3_19 
REMARK    9  A    between atoms: C7_23  and  O13_24 
REMARK   10  A    between atoms: C8_26  and  O14_27 
ROOT
HETATM    1  C4  UNL     1      -1.714 -35.642  20.129  1.00  0.00     0.263 C 
HETATM    2  O2  UNL     1      -2.826 -35.242  20.831  1.00  0.00    -0.353 OA
HETATM    3  C5  UNL     1      -3.844 -36.139  20.584  1.00  0.00     0.180 C 
HETATM    4  C7  UNL     1      -3.132 -37.462  20.577  1.00  0.00     0.182 C 
HETATM    5  C8  UNL     1      -1.841 -37.116  19.853  1.00  0.00     0.198 C 
ENDROOT
BRANCH   3   6
HETATM    6  C6  UNL     1      -4.902 -36.110  21.660  1.00  0.00     0.216 C 
BRANCH   6   7
HETATM    7  O3  UNL     1      -5.121 -34.823  22.030  1.00  0.00    -0.287 OA
BRANCH   7   8
HETATM    8  P1  UNL     1      -6.614 -34.211  21.609  1.00  0.00     0.417 P 
HETATM    9  O4  UNL     1      -6.922 -32.629  21.945  1.00  0.00    -0.624 OA
HETATM   10  O5  UNL     1      -7.213 -34.728  22.908  1.00  0.00    -0.624 OA
BRANCH   8  11
HETATM   11  O6  UNL     1      -7.694 -35.064  20.716  1.00  0.00    -0.180 OA
BRANCH  11  12
HETATM   12  P2  UNL     1      -8.550 -36.226  21.232  1.00  0.00     0.428 P 
HETATM   13  O7  UNL     1      -9.878 -35.334  20.711  1.00  0.00    -0.624 OA
HETATM   14  O8  UNL     1      -7.938 -37.375  20.274  1.00  0.00    -0.624 OA
BRANCH  12  15
HETATM   15  O9  UNL     1      -9.593 -37.200  21.864  1.00  0.00    -0.173 OA
BRANCH  15  16
HETATM   16  P3  UNL     1      -9.833 -37.566  23.323  1.00  0.00     0.431 P 
HETATM   17  O10 UNL     1     -10.717 -38.889  22.834  1.00  0.00    -0.616 OA
HETATM   18  O11 UNL     1     -10.572 -36.210  23.786  1.00  0.00    -0.616 OA
HETATM   19  O12 UNL     1      -8.184 -37.769  23.503  1.00  0.00    -0.616 OA
ENDBRANCH  15  16
ENDBRANCH  12  15
ENDBRANCH  11  12
ENDBRANCH   8  11
ENDBRANCH   7   8
ENDBRANCH   6   7
ENDBRANCH   3   6
BRANCH   4  20
HETATM   20  O13 UNL     1      -3.809 -38.429  19.839  1.00  0.00    -0.390 OA
ATOM     21  H13 UNL     1      -3.313 -38.727  19.086  1.00  0.00     0.210 HD
ENDBRANCH   4  20
BRANCH   1  22
HETATM   22  N1  UNL     1      -0.499 -35.414  20.886  1.00  0.00    -0.280 N 
HETATM   23  C3  UNL     1      -0.094 -36.301  21.805  1.00  0.00     0.104 A 
HETATM   24  C2  UNL     1       1.067 -36.111  22.549  1.00  0.00     0.092 A 
HETATM   25  C1  UNL     1       1.773 -34.948  22.276  1.00  0.00     0.250 A 
HETATM   26  O1  UNL     1       2.824 -34.746  22.928  1.00  0.00    -0.268 OA
HETATM   27  N2  UNL     1       1.329 -34.092  21.350  1.00  0.00    -0.275 N 
HETATM   28  C9  UNL     1       0.210 -34.298  20.649  1.00  0.00     0.331 A 
ATOM     29  H2  UNL     1       1.868 -33.245  21.171  1.00  0.00     0.173 HD
HETATM   30  O15 UNL     1      -0.218 -33.504  19.777  1.00  0.00    -0.246 OA
ENDBRANCH   1  22
BRANCH   5  31
HETATM   31  O14 UNL     1      -2.091 -37.340  18.482  1.00  0.00    -0.388 OA
ATOM     32  H14 UNL     1      -2.089 -38.271  18.294  1.00  0.00     0.210 HD
ENDBRANCH   5  31
TORSDOF 10
ENDMDL
