MODEL 1
REMARK VINA RESULT: -8.711272286      0.000      0.000
REMARK  10 active torsions:
REMARK  status: ('A' for Active; 'I' for Inactive)
REMARK    1  A    between atoms: N1_5  and  C4_6 
REMARK    2  A    between atoms: C5_8  and  C6_9 
REMARK    3  A    between atoms: C6_9  and  O3_10 
REMARK    4  A    between atoms: O3_10  and  P1_11 
REMARK    5  A    between atoms: P1_11  and  O6_14 
REMARK    6  A    between atoms: O6_14  and  P2_15 
REMARK    7  A    between atoms: P2_15  and  O9_18 
REMARK    8  A    between atoms: O9_18  and  P3_19 
REMARK    9  A    between atoms: C7_23  and  O13_24 
REMARK   10  A    between atoms: C8_26  and  O14_27 
ROOT
HETATM    1  C4  UNL     1      -1.595 -35.632  20.250  1.00  0.00     0.263 C 
HETATM    2  O2  UNL     1      -2.651 -35.164  20.996  1.00  0.00    -0.353 OA
HETATM    3  C5  UNL     1      -3.754 -35.949  20.732  1.00  0.00     0.180 C 
HETATM    4  C7  UNL     1      -3.169 -37.331  20.648  1.00  0.00     0.182 C 
HETATM    5  C8  UNL     1      -1.865 -37.073  19.911  1.00  0.00     0.198 C 
ENDROOT
BRANCH   3   6
HETATM    6  C6  UNL     1      -4.784 -35.873  21.833  1.00  0.00     0.216 C 
BRANCH   6   7
HETATM    7  O3  UNL     1      -5.169 -34.582  21.990  1.00  0.00    -0.287 OA
BRANCH   7   8
HETATM    8  P1  UNL     1      -6.750 -34.260  21.568  1.00  0.00     0.417 P 
HETATM    9  O4  UNL     1      -7.028 -33.527  20.120  1.00  0.00    -0.624 OA
HETATM   10  O5  UNL     1      -6.714 -32.959  22.355  1.00  0.00    -0.624 OA
BRANCH   8  11
HETATM   11  O6  UNL     1      -8.023 -34.810  22.444  1.00  0.00    -0.180 OA
BRANCH  11  12
HETATM   12  P2  UNL     1      -8.863 -36.047  22.107  1.00  0.00     0.428 P 
HETATM   13  O7  UNL     1      -9.572 -35.841  23.619  1.00  0.00    -0.624 OA
HETATM   14  O8  UNL     1      -9.595 -35.447  20.796  1.00  0.00    -0.624 OA
BRANCH  12  15
HETATM   15  O9  UNL     1      -9.664 -37.385  22.038  1.00  0.00    -0.173 OA
BRANCH  15  16
HETATM   16  P3  UNL     1      -9.192 -38.791  21.693  1.00  0.00     0.431 P 
HETATM   17  O10 UNL     1      -7.613 -38.293  21.871  1.00  0.00    -0.616 OA
HETATM   18  O11 UNL     1      -9.856 -38.909  20.229  1.00  0.00    -0.616 OA
HETATM   19  O12 UNL     1      -9.979 -39.348  23.058  1.00  0.00    -0.616 OA
ENDBRANCH  15  16
ENDBRANCH  12  15
ENDBRANCH  11  12
ENDBRANCH   8  11
ENDBRANCH   7   8
ENDBRANCH   6   7
ENDBRANCH   3   6
BRANCH   4  20
HETATM   20  O13 UNL     1      -3.949 -38.195  19.883  1.00  0.00    -0.390 OA
ATOM     21  H13 UNL     1      -3.456 -38.940  19.558  1.00  0.00     0.210 HD
ENDBRANCH   4  20
BRANCH   1  22
HETATM   22  N1  UNL     1      -0.350 -35.554  20.989  1.00  0.00    -0.280 N 
HETATM   23  C3  UNL     1       0.046 -36.574  21.763  1.00  0.00     0.104 A 
HETATM   24  C2  UNL     1       1.236 -36.529  22.484  1.00  0.00     0.092 A 
HETATM   25  C1  UNL     1       1.979 -35.366  22.349  1.00  0.00     0.250 A 
HETATM   26  O1  UNL     1       3.056 -35.293  22.985  1.00  0.00    -0.268 OA
HETATM   27  N2  UNL     1       1.543 -34.374  21.565  1.00  0.00    -0.275 N 
HETATM   28  C9  UNL     1       0.396 -34.442  20.882  1.00  0.00     0.331 A 
ATOM     29  H2  UNL     1       2.110 -33.531  21.485  1.00  0.00     0.173 HD
HETATM   30  O15 UNL     1      -0.026 -33.521  20.143  1.00  0.00    -0.246 OA
ENDBRANCH   1  22
BRANCH   5  31
HETATM   31  O14 UNL     1      -2.161 -37.207  18.538  1.00  0.00    -0.388 OA
ATOM     32  H14 UNL     1      -2.834 -37.864  18.407  1.00  0.00     0.210 HD
ENDBRANCH   5  31
TORSDOF 10
ENDMDL
