MODEL 3
REMARK VINA RESULT: -9.172333777      1.362      2.486
REMARK  9 active torsions:
REMARK  status: ('A' for Active; 'I' for Inactive)
REMARK    1  A    between atoms: N1_4  and  C4_5 
REMARK    2  A    between atoms: C6_7  and  O1_8 
REMARK    3  A    between atoms: C7_10  and  C8_11 
REMARK    4  A    between atoms: C8_11  and  O2_12 
REMARK    5  A    between atoms: O2_12  and  P1_13 
REMARK    6  A    between atoms: P1_13  and  O5_16 
REMARK    7  A    between atoms: O5_16  and  P2_17 
REMARK    8  A    between atoms: P2_17  and  O8_20 
REMARK    9  A    between atoms: O8_20  and  P3_21 
ROOT
HETATM    1  C4  UNL     1       1.870 -35.168  21.743  1.00  0.00     0.235 C 
HETATM    2  C5  UNL     1       2.755 -36.217  22.355  1.00  0.00     0.088 C 
HETATM    3  C6  UNL     1       1.876 -37.467  22.203  1.00  0.00     0.153 C 
HETATM    4  C7  UNL     1       0.518 -36.840  21.908  1.00  0.00     0.177 C 
HETATM    5  O12 UNL     1       0.621 -35.502  22.277  1.00  0.00    -0.356 OA
ENDROOT
BRANCH   4   6
HETATM    6  C8  UNL     1      -0.560 -37.566  22.654  1.00  0.00     0.216 C 
BRANCH   6   7
HETATM    7  O2  UNL     1      -1.790 -37.264  22.150  1.00  0.00    -0.287 OA
BRANCH   7   8
HETATM    8  P1  UNL     1      -2.811 -36.987  23.448  1.00  0.00     0.417 P 
HETATM    9  O3  UNL     1      -2.425 -35.740  24.494  1.00  0.00    -0.624 OA
HETATM   10  O4  UNL     1      -4.013 -37.986  23.813  1.00  0.00    -0.624 OA
BRANCH   8  11
HETATM   11  O5  UNL     1      -3.602 -36.008  22.588  1.00  0.00    -0.180 OA
BRANCH  11  12
HETATM   12  P2  UNL     1      -3.185 -35.405  21.223  1.00  0.00     0.428 P 
HETATM   13  O6  UNL     1      -4.355 -36.223  20.435  1.00  0.00    -0.624 OA
HETATM   14  O7  UNL     1      -3.542 -33.921  21.865  1.00  0.00    -0.624 OA
BRANCH  12  15
HETATM   15  O8  UNL     1      -2.711 -34.707  19.944  1.00  0.00    -0.173 OA
BRANCH  15  16
HETATM   16  P3  UNL     1      -1.367 -33.850  19.720  1.00  0.00     0.431 P 
HETATM   17  O9  UNL     1      -0.397 -34.051  18.365  1.00  0.00    -0.616 OA
HETATM   18  O10 UNL     1      -2.056 -32.631  19.138  1.00  0.00    -0.616 OA
HETATM   19  O11 UNL     1      -0.702 -32.917  20.940  1.00  0.00    -0.616 OA
ENDBRANCH  15  16
ENDBRANCH  12  15
ENDBRANCH  11  12
ENDBRANCH   8  11
ENDBRANCH   7   8
ENDBRANCH   6   7
ENDBRANCH   4   6
BRANCH   3  20
HETATM   20  O1  UNL     1       2.247 -38.164  21.055  1.00  0.00    -0.393 OA
ATOM     21  H1  UNL     1       3.046 -38.649  21.219  1.00  0.00     0.210 HD
ENDBRANCH   3  20
BRANCH   1  22
HETATM   22  N1  UNL     1       2.256 -33.826  22.055  1.00  0.00    -0.282 N 
HETATM   23  C3  UNL     1       2.169 -33.266  23.275  1.00  0.00     0.110 A 
HETATM   24  C2  UNL     1       2.556 -31.965  23.522  1.00  0.00     0.022 A 
HETATM   25  C1  UNL     1       2.454 -31.361  24.876  1.00  0.00     0.056 C 
HETATM   26  C10 UNL     1       3.051 -31.204  22.480  1.00  0.00     0.256 A 
HETATM   27  N2  UNL     1       3.130 -31.778  21.272  1.00  0.00    -0.275 N 
HETATM   28  O14 UNL     1       3.413 -29.998  22.691  1.00  0.00    -0.267 OA
HETATM   29  C9  UNL     1       2.742 -33.059  21.062  1.00  0.00     0.331 A 
ATOM     30  H2  UNL     1       3.492 -31.235  20.488  1.00  0.00     0.173 HD
HETATM   31  O13 UNL     1       2.868 -33.477  19.878  1.00  0.00    -0.246 OA
ENDBRANCH   1  22
TORSDOF 9
ENDMDL
