MODEL 1
REMARK VINA RESULT: -9.384647053      0.000      0.000
REMARK  9 active torsions:
REMARK  status: ('A' for Active; 'I' for Inactive)
REMARK    1  A    between atoms: N1_4  and  C4_5 
REMARK    2  A    between atoms: C6_7  and  O1_8 
REMARK    3  A    between atoms: C7_10  and  C8_11 
REMARK    4  A    between atoms: C8_11  and  O2_12 
REMARK    5  A    between atoms: O2_12  and  P1_13 
REMARK    6  A    between atoms: P1_13  and  O5_16 
REMARK    7  A    between atoms: O5_16  and  P2_17 
REMARK    8  A    between atoms: P2_17  and  O8_20 
REMARK    9  A    between atoms: O8_20  and  P3_21 
ROOT
HETATM    1  C4  UNL     1       1.824 -35.151  21.854  1.00  0.00     0.235 C 
HETATM    2  C5  UNL     1       2.899 -36.136  22.217  1.00  0.00     0.088 C 
HETATM    3  C6  UNL     1       2.094 -37.441  22.272  1.00  0.00     0.153 C 
HETATM    4  C7  UNL     1       0.667 -36.908  22.328  1.00  0.00     0.177 C 
HETATM    5  O12 UNL     1       0.769 -35.564  22.676  1.00  0.00    -0.356 OA
ENDROOT
BRANCH   4   6
HETATM    6  C8  UNL     1      -0.144 -37.700  23.308  1.00  0.00     0.216 C 
BRANCH   6   7
HETATM    7  O2  UNL     1      -1.386 -37.966  22.813  1.00  0.00    -0.287 OA
BRANCH   7   8
HETATM    8  P1  UNL     1      -2.481 -37.047  23.683  1.00  0.00     0.417 P 
HETATM    9  O3  UNL     1      -1.876 -35.863  24.699  1.00  0.00    -0.624 OA
HETATM   10  O4  UNL     1      -4.048 -37.393  23.712  1.00  0.00    -0.624 OA
BRANCH   8  11
HETATM   11  O5  UNL     1      -2.508 -36.038  22.540  1.00  0.00    -0.180 OA
BRANCH  11  12
HETATM   12  P2  UNL     1      -3.742 -35.565  21.731  1.00  0.00     0.428 P 
HETATM   13  O6  UNL     1      -3.289 -34.002  21.839  1.00  0.00    -0.624 OA
HETATM   14  O7  UNL     1      -3.163 -36.479  20.476  1.00  0.00    -0.624 OA
BRANCH  12  15
HETATM   15  O8  UNL     1      -4.971 -35.226  20.882  1.00  0.00    -0.173 OA
BRANCH  15  16
HETATM   16  P3  UNL     1      -6.264 -34.365  21.305  1.00  0.00     0.431 P 
HETATM   17  O9  UNL     1      -6.142 -32.966  22.224  1.00  0.00    -0.616 OA
HETATM   18  O10 UNL     1      -6.368 -33.592  20.006  1.00  0.00    -0.616 OA
HETATM   19  O11 UNL     1      -7.819 -34.952  21.104  1.00  0.00    -0.616 OA
ENDBRANCH  15  16
ENDBRANCH  12  15
ENDBRANCH  11  12
ENDBRANCH   8  11
ENDBRANCH   7   8
ENDBRANCH   6   7
ENDBRANCH   4   6
BRANCH   3  20
HETATM   20  O1  UNL     1       2.214 -38.118  21.060  1.00  0.00    -0.393 OA
ATOM     21  H1  UNL     1       2.116 -39.052  21.203  1.00  0.00     0.210 HD
ENDBRANCH   3  20
BRANCH   1  22
HETATM   22  N1  UNL     1       2.186 -33.785  22.077  1.00  0.00    -0.282 N 
HETATM   23  C3  UNL     1       2.196 -33.178  23.278  1.00  0.00     0.110 A 
HETATM   24  C2  UNL     1       2.554 -31.856  23.437  1.00  0.00     0.022 A 
HETATM   25  C1  UNL     1       2.561 -31.202  24.772  1.00  0.00     0.056 C 
HETATM   26  C10 UNL     1       2.916 -31.121  22.324  1.00  0.00     0.256 A 
HETATM   27  N2  UNL     1       2.899 -31.740  21.137  1.00  0.00    -0.275 N 
HETATM   28  O14 UNL     1       3.249 -29.895  22.454  1.00  0.00    -0.267 OA
HETATM   29  C9  UNL     1       2.543 -33.042  21.013  1.00  0.00     0.331 A 
ATOM     30  H2  UNL     1       3.162 -31.217  20.301  1.00  0.00     0.173 HD
HETATM   31  O13 UNL     1       2.569 -33.503  19.838  1.00  0.00    -0.246 OA
ENDBRANCH   1  22
TORSDOF 9
ENDMDL
