MODEL 2
REMARK VINA RESULT: -9.219009833      5.077      8.584
REMARK  9 active torsions:
REMARK  status: ('A' for Active; 'I' for Inactive)
REMARK    1  A    between atoms: N1_4  and  C4_5 
REMARK    2  A    between atoms: C6_7  and  O1_8 
REMARK    3  A    between atoms: C7_10  and  C8_11 
REMARK    4  A    between atoms: C8_11  and  O2_12 
REMARK    5  A    between atoms: O2_12  and  P1_13 
REMARK    6  A    between atoms: P1_13  and  O5_16 
REMARK    7  A    between atoms: O5_16  and  P2_17 
REMARK    8  A    between atoms: P2_17  and  O8_20 
REMARK    9  A    between atoms: O8_20  and  P3_21 
ROOT
HETATM    1  C4  UNL     1      -4.465 -36.029  21.245  1.00  0.00     0.235 C 
HETATM    2  C5  UNL     1      -3.689 -36.911  22.184  1.00  0.00     0.088 C 
HETATM    3  C6  UNL     1      -2.261 -36.715  21.657  1.00  0.00     0.153 C 
HETATM    4  C7  UNL     1      -2.531 -36.092  20.292  1.00  0.00     0.177 C 
HETATM    5  O12 UNL     1      -3.873 -36.335  20.014  1.00  0.00    -0.356 OA
ENDROOT
BRANCH   4   6
HETATM    6  C8  UNL     1      -1.612 -36.678  19.264  1.00  0.00     0.216 C 
BRANCH   6   7
HETATM    7  O2  UNL     1      -0.308 -36.425  19.575  1.00  0.00    -0.287 OA
BRANCH   7   8
HETATM    8  P1  UNL     1       0.164 -35.075  18.704  1.00  0.00     0.417 P 
HETATM    9  O3  UNL     1      -0.543 -33.609  19.091  1.00  0.00    -0.624 OA
HETATM   10  O4  UNL     1       1.109 -35.185  17.412  1.00  0.00    -0.624 OA
BRANCH   8  11
HETATM   11  O5  UNL     1       1.251 -34.815  19.741  1.00  0.00    -0.180 OA
BRANCH  11  12
HETATM   12  P2  UNL     1       1.359 -33.609  20.707  1.00  0.00     0.428 P 
HETATM   13  O6  UNL     1       1.035 -34.542  22.004  1.00  0.00    -0.624 OA
HETATM   14  O7  UNL     1       2.931 -33.457  20.206  1.00  0.00    -0.624 OA
BRANCH  12  15
HETATM   15  O8  UNL     1       1.540 -32.353  21.565  1.00  0.00    -0.173 OA
BRANCH  15  16
HETATM   16  P3  UNL     1       2.857 -31.872  22.358  1.00  0.00     0.431 P 
HETATM   17  O9  UNL     1       3.523 -30.347  22.137  1.00  0.00    -0.616 OA
HETATM   18  O10 UNL     1       2.133 -31.455  23.623  1.00  0.00    -0.616 OA
HETATM   19  O11 UNL     1       3.803 -32.944  23.228  1.00  0.00    -0.616 OA
ENDBRANCH  15  16
ENDBRANCH  12  15
ENDBRANCH  11  12
ENDBRANCH   8  11
ENDBRANCH   7   8
ENDBRANCH   6   7
ENDBRANCH   4   6
BRANCH   3  20
HETATM   20  O1  UNL     1      -1.611 -35.742  22.413  1.00  0.00    -0.393 OA
ATOM     21  H1  UNL     1      -0.695 -35.701  22.164  1.00  0.00     0.210 HD
ENDBRANCH   3  20
BRANCH   1  22
HETATM   22  N1  UNL     1      -5.875 -36.273  21.249  1.00  0.00    -0.282 N 
HETATM   23  C3  UNL     1      -6.447 -37.471  21.463  1.00  0.00     0.110 A 
HETATM   24  C2  UNL     1      -7.815 -37.651  21.456  1.00  0.00     0.022 A 
HETATM   25  C1  UNL     1      -8.431 -38.982  21.695  1.00  0.00     0.056 C 
HETATM   26  C10 UNL     1      -8.632 -36.562  21.218  1.00  0.00     0.256 A 
HETATM   27  N2  UNL     1      -8.045 -35.377  21.006  1.00  0.00    -0.275 N 
HETATM   28  O14 UNL     1      -9.900 -36.712  21.206  1.00  0.00    -0.267 OA
HETATM   29  C9  UNL     1      -6.698 -35.233  21.020  1.00  0.00     0.331 A 
ATOM     30  H2  UNL     1      -8.629 -34.560  20.828  1.00  0.00     0.173 HD
HETATM   31  O13 UNL     1      -6.275 -34.063  20.805  1.00  0.00    -0.246 OA
ENDBRANCH   1  22
TORSDOF 9
ENDMDL
