MODEL 1
REMARK VINA RESULT: -9.376259461      0.000      0.000
REMARK  10 active torsions:
REMARK  status: ('A' for Active; 'I' for Inactive)
REMARK    1  A    between atoms: N4_13  and  C6_14 
REMARK    2  A    between atoms: C7_16  and  C8_17 
REMARK    3  A    between atoms: C8_17  and  O3_18 
REMARK    4  A    between atoms: O3_18  and  P1_19 
REMARK    5  A    between atoms: P1_19  and  O6_22 
REMARK    6  A    between atoms: O6_22  and  P2_23 
REMARK    7  A    between atoms: P2_23  and  O9_26 
REMARK    8  A    between atoms: O9_26  and  P3_27 
REMARK    9  A    between atoms: C9_31  and  O13_32 
REMARK   10  A    between atoms: C10_34  and  O14_35 
ROOT
HETATM    1  C6  UNL     1      -2.529 -36.757  20.960  1.00  0.00     0.262 C 
HETATM    2  O2  UNL     1      -1.479 -36.338  21.771  1.00  0.00    -0.353 OA
HETATM    3  C7  UNL     1      -0.306 -36.632  21.069  1.00  0.00     0.180 C 
HETATM    4  C9  UNL     1      -0.657 -36.113  19.683  1.00  0.00     0.182 C 
HETATM    5  C10 UNL     1      -2.088 -36.588  19.541  1.00  0.00     0.198 C 
ENDROOT
BRANCH   3   6
HETATM    6  C8  UNL     1       0.854 -35.864  21.666  1.00  0.00     0.216 C 
BRANCH   6   7
HETATM    7  O3  UNL     1       1.214 -34.866  20.799  1.00  0.00    -0.287 OA
BRANCH   7   8
HETATM    8  P1  UNL     1       0.896 -33.340  21.173  1.00  0.00     0.417 P 
HETATM    9  O4  UNL     1       0.265 -32.964  19.839  1.00  0.00    -0.624 OA
HETATM   10  O5  UNL     1      -0.479 -32.905  22.013  1.00  0.00    -0.624 OA
BRANCH   8  11
HETATM   11  O6  UNL     1       2.044 -32.124  20.942  1.00  0.00    -0.180 OA
BRANCH  11  12
HETATM   12  P2  UNL     1       2.445 -31.474  22.292  1.00  0.00     0.428 P 
HETATM   13  O7  UNL     1       3.276 -30.266  21.575  1.00  0.00    -0.624 OA
HETATM   14  O8  UNL     1       3.271 -32.890  22.620  1.00  0.00    -0.624 OA
BRANCH  12  15
HETATM   15  O9  UNL     1       2.843 -31.022  23.701  1.00  0.00    -0.173 OA
BRANCH  15  16
HETATM   16  P3  UNL     1       3.310 -29.621  24.136  1.00  0.00     0.431 P 
HETATM   17  O10 UNL     1       4.281 -30.408  25.248  1.00  0.00    -0.616 OA
HETATM   18  O11 UNL     1       1.791 -29.208  24.601  1.00  0.00    -0.616 OA
HETATM   19  O12 UNL     1       3.886 -28.277  24.606  1.00  0.00    -0.616 OA
ENDBRANCH  15  16
ENDBRANCH  12  15
ENDBRANCH  11  12
ENDBRANCH   8  11
ENDBRANCH   7   8
ENDBRANCH   6   7
ENDBRANCH   3   6
BRANCH   4  20
HETATM   20  O13 UNL     1       0.177 -36.622  18.702  1.00  0.00    -0.390 OA
ATOM     21  H13 UNL     1       0.911 -36.049  18.516  1.00  0.00     0.210 HD
ENDBRANCH   4  20
BRANCH   1  22
HETATM   22  N4  UNL     1      -3.719 -35.955  21.171  1.00  0.00    -0.297 N 
HETATM   23  C3  UNL     1      -4.974 -36.341  20.914  1.00  0.00     0.144 A 
HETATM   24  N2  UNL     1      -5.446 -37.501  20.420  1.00  0.00    -0.336 N 
HETATM   25  C4  UNL     1      -5.824 -35.323  21.238  1.00  0.00     0.146 A 
HETATM   26  C2  UNL     1      -6.767 -37.676  20.239  1.00  0.00     0.185 A 
ATOM     27  H2  UNL     1      -4.798 -38.253  20.183  1.00  0.00     0.168 HD
HETATM   28  N1  UNL     1      -7.619 -36.685  20.553  1.00  0.00    -0.318 N 
HETATM   29  C1  UNL     1      -7.182 -35.505  21.051  1.00  0.00     0.277 A 
ATOM     30  H1  UNL     1      -8.620 -36.827  20.414  1.00  0.00     0.169 HD
HETATM   31  O1  UNL     1      -7.978 -34.566  21.350  1.00  0.00    -0.266 OA
HETATM   32  N3  UNL     1      -5.085 -34.292  21.703  1.00  0.00    -0.345 N 
HETATM   33  C5  UNL     1      -3.799 -34.703  21.654  1.00  0.00     0.188 A 
ATOM     34  H3  UNL     1      -5.428 -33.387  22.027  1.00  0.00     0.167 HD
ENDBRANCH   1  22
BRANCH   5  35
HETATM   35  O14 UNL     1      -2.131 -37.795  18.826  1.00  0.00    -0.388 OA
ATOM     36  H14 UNL     1      -2.287 -37.658  17.899  1.00  0.00     0.210 HD
ENDBRANCH   5  35
TORSDOF 10
ENDMDL
