MODEL 3
REMARK VINA RESULT: -9.143682759      4.721      7.441
REMARK  10 active torsions:
REMARK  status: ('A' for Active; 'I' for Inactive)
REMARK    1  A    between atoms: N4_13  and  C6_14 
REMARK    2  A    between atoms: C7_16  and  C8_17 
REMARK    3  A    between atoms: C8_17  and  O3_18 
REMARK    4  A    between atoms: O3_18  and  P1_19 
REMARK    5  A    between atoms: P1_19  and  O6_22 
REMARK    6  A    between atoms: O6_22  and  P2_23 
REMARK    7  A    between atoms: P2_23  and  O9_26 
REMARK    8  A    between atoms: O9_26  and  P3_27 
REMARK    9  A    between atoms: C9_31  and  O13_32 
REMARK   10  A    between atoms: C10_34  and  O14_35 
ROOT
HETATM    1  C6  UNL     1      -9.014 -38.571  23.489  1.00  0.00     0.262 C 
HETATM    2  O2  UNL     1      -8.289 -37.471  23.937  1.00  0.00    -0.353 OA
HETATM    3  C7  UNL     1      -7.473 -37.085  22.869  1.00  0.00     0.180 C 
HETATM    4  C9  UNL     1      -8.464 -37.122  21.715  1.00  0.00     0.182 C 
HETATM    5  C10 UNL     1      -9.226 -38.395  22.019  1.00  0.00     0.198 C 
ENDROOT
BRANCH   3   6
HETATM    6  C8  UNL     1      -6.955 -35.682  23.102  1.00  0.00     0.216 C 
BRANCH   6   7
HETATM    7  O3  UNL     1      -6.040 -35.382  22.127  1.00  0.00    -0.287 OA
BRANCH   7   8
HETATM    8  P1  UNL     1      -5.901 -33.871  21.611  1.00  0.00     0.417 P 
HETATM    9  O4  UNL     1      -6.913 -33.982  20.478  1.00  0.00    -0.624 OA
HETATM   10  O5  UNL     1      -6.742 -32.616  22.318  1.00  0.00    -0.624 OA
BRANCH   8  11
HETATM   11  O6  UNL     1      -4.724 -33.438  20.480  1.00  0.00    -0.180 OA
BRANCH  11  12
HETATM   12  P2  UNL     1      -3.308 -33.836  20.971  1.00  0.00     0.428 P 
HETATM   13  O7  UNL     1      -3.296 -32.714  22.156  1.00  0.00    -0.624 OA
HETATM   14  O8  UNL     1      -2.758 -33.370  19.462  1.00  0.00    -0.624 OA
BRANCH  12  15
HETATM   15  O9  UNL     1      -1.868 -34.276  21.260  1.00  0.00    -0.173 OA
BRANCH  15  16
HETATM   16  P3  UNL     1      -0.607 -33.942  20.442  1.00  0.00     0.431 P 
HETATM   17  O10 UNL     1      -0.159 -35.535  20.686  1.00  0.00    -0.616 OA
HETATM   18  O11 UNL     1      -0.126 -32.832  21.551  1.00  0.00    -0.616 OA
HETATM   19  O12 UNL     1       0.654 -33.732  19.592  1.00  0.00    -0.616 OA
ENDBRANCH  15  16
ENDBRANCH  12  15
ENDBRANCH  11  12
ENDBRANCH   8  11
ENDBRANCH   7   8
ENDBRANCH   6   7
ENDBRANCH   3   6
BRANCH   4  20
HETATM   20  O13 UNL     1      -7.837 -37.156  20.481  1.00  0.00    -0.390 OA
ATOM     21  H13 UNL     1      -8.141 -37.874  19.939  1.00  0.00     0.210 HD
ENDBRANCH   4  20
BRANCH   1  22
HETATM   22  N4  UNL     1     -10.310 -38.656  24.135  1.00  0.00    -0.297 N 
HETATM   23  C3  UNL     1     -11.073 -37.616  24.491  1.00  0.00     0.144 A 
HETATM   24  N2  UNL     1     -10.861 -36.293  24.360  1.00  0.00    -0.336 N 
HETATM   25  C4  UNL     1     -12.217 -38.086  25.069  1.00  0.00     0.146 A 
HETATM   26  C2  UNL     1     -11.777 -35.411  24.797  1.00  0.00     0.185 A 
ATOM     27  H2  UNL     1     -10.001 -35.958  23.926  1.00  0.00     0.168 HD
HETATM   28  N1  UNL     1     -12.910 -35.855  25.368  1.00  0.00    -0.318 N 
HETATM   29  C1  UNL     1     -13.157 -37.177  25.518  1.00  0.00     0.277 A 
ATOM     30  H1  UNL     1     -13.600 -35.179  25.695  1.00  0.00     0.169 HD
HETATM   31  O1  UNL     1     -14.222 -37.605  26.055  1.00  0.00    -0.266 OA
HETATM   32  N3  UNL     1     -12.162 -39.436  25.070  1.00  0.00    -0.345 N 
HETATM   33  C5  UNL     1     -10.986 -39.762  24.492  1.00  0.00     0.188 A 
ATOM     34  H3  UNL     1     -12.867 -40.079  25.433  1.00  0.00     0.167 HD
ENDBRANCH   1  22
BRANCH   5  35
HETATM   35  O14 UNL     1      -8.705 -39.465  21.277  1.00  0.00    -0.388 OA
ATOM     36  H14 UNL     1      -8.067 -39.179  20.634  1.00  0.00     0.210 HD
ENDBRANCH   5  35
TORSDOF 10
ENDMDL
