MODEL 2
REMARK VINA RESULT: -9.321070295      3.721      5.974
REMARK  10 active torsions:
REMARK  status: ('A' for Active; 'I' for Inactive)
REMARK    1  A    between atoms: N4_13  and  C6_14 
REMARK    2  A    between atoms: C7_16  and  C8_17 
REMARK    3  A    between atoms: C8_17  and  O3_18 
REMARK    4  A    between atoms: O3_18  and  P1_19 
REMARK    5  A    between atoms: P1_19  and  O6_22 
REMARK    6  A    between atoms: O6_22  and  P2_23 
REMARK    7  A    between atoms: P2_23  and  O9_26 
REMARK    8  A    between atoms: O9_26  and  P3_27 
REMARK    9  A    between atoms: C9_31  and  O13_32 
REMARK   10  A    between atoms: C10_34  and  O14_35 
ROOT
HETATM    1  C6  UNL     1      -6.592 -36.432  20.545  1.00  0.00     0.262 C 
HETATM    2  O2  UNL     1      -5.270 -36.029  20.705  1.00  0.00    -0.353 OA
HETATM    3  C7  UNL     1      -5.316 -34.674  21.045  1.00  0.00     0.180 C 
HETATM    4  C9  UNL     1      -6.409 -34.674  22.102  1.00  0.00     0.182 C 
HETATM    5  C10 UNL     1      -7.422 -35.615  21.483  1.00  0.00     0.198 C 
ENDROOT
BRANCH   3   6
HETATM    6  C8  UNL     1      -3.987 -34.246  21.629  1.00  0.00     0.216 C 
BRANCH   6   7
HETATM    7  O3  UNL     1      -3.422 -33.312  20.802  1.00  0.00    -0.287 OA
BRANCH   7   8
HETATM    8  P1  UNL     1      -1.946 -33.556  20.225  1.00  0.00     0.417 P 
HETATM    9  O4  UNL     1      -1.981 -32.444  19.185  1.00  0.00    -0.624 OA
HETATM   10  O5  UNL     1      -0.594 -32.908  20.957  1.00  0.00    -0.624 OA
BRANCH   8  11
HETATM   11  O6  UNL     1      -1.662 -34.668  18.987  1.00  0.00    -0.180 OA
BRANCH  11  12
HETATM   12  P2  UNL     1      -0.797 -35.852  19.489  1.00  0.00     0.428 P 
HETATM   13  O7  UNL     1       0.198 -35.802  18.196  1.00  0.00    -0.624 OA
HETATM   14  O8  UNL     1      -2.175 -36.789  19.366  1.00  0.00    -0.624 OA
BRANCH  12  15
HETATM   15  O9  UNL     1      -0.113 -37.095  20.070  1.00  0.00    -0.173 OA
BRANCH  15  16
HETATM   16  P3  UNL     1       0.696 -37.193  21.376  1.00  0.00     0.431 P 
HETATM   17  O10 UNL     1      -0.758 -37.545  22.124  1.00  0.00    -0.616 OA
HETATM   18  O11 UNL     1       1.142 -35.616  21.271  1.00  0.00    -0.616 OA
HETATM   19  O12 UNL     1       1.416 -37.371  22.721  1.00  0.00    -0.616 OA
ENDBRANCH  15  16
ENDBRANCH  12  15
ENDBRANCH  11  12
ENDBRANCH   8  11
ENDBRANCH   7   8
ENDBRANCH   6   7
ENDBRANCH   3   6
BRANCH   4  20
HETATM   20  O13 UNL     1      -6.924 -33.409  22.330  1.00  0.00    -0.390 OA
ATOM     21  H13 UNL     1      -7.839 -33.339  22.084  1.00  0.00     0.210 HD
ENDBRANCH   4  20
BRANCH   1  22
HETATM   22  N4  UNL     1      -6.768 -37.833  20.876  1.00  0.00    -0.297 N 
HETATM   23  C3  UNL     1      -5.901 -38.814  20.599  1.00  0.00     0.144 A 
HETATM   24  N2  UNL     1      -4.707 -38.774  19.979  1.00  0.00    -0.336 N 
HETATM   25  C4  UNL     1      -6.408 -39.994  21.062  1.00  0.00     0.146 A 
HETATM   26  C2  UNL     1      -3.993 -39.900  19.804  1.00  0.00     0.185 A 
ATOM     27  H2  UNL     1      -4.342 -37.884  19.638  1.00  0.00     0.168 HD
HETATM   28  N1  UNL     1      -4.476 -41.071  20.254  1.00  0.00    -0.318 N 
HETATM   29  C1  UNL     1      -5.672 -41.151  20.882  1.00  0.00     0.277 A 
ATOM     30  H1  UNL     1      -3.927 -41.921  20.119  1.00  0.00     0.169 HD
HETATM   31  O1  UNL     1      -6.135 -42.250  21.309  1.00  0.00    -0.266 OA
HETATM   32  N3  UNL     1      -7.606 -39.740  21.634  1.00  0.00    -0.345 N 
HETATM   33  C5  UNL     1      -7.805 -38.410  21.509  1.00  0.00     0.188 A 
ATOM     34  H3  UNL     1      -8.233 -40.416  22.072  1.00  0.00     0.167 HD
ENDBRANCH   1  22
BRANCH   5  35
HETATM   35  O14 UNL     1      -8.417 -34.887  20.814  1.00  0.00    -0.388 OA
ATOM     36  H14 UNL     1      -8.821 -34.233  21.372  1.00  0.00     0.210 HD
ENDBRANCH   5  35
TORSDOF 10
ENDMDL
