MODEL 17
REMARK VINA RESULT: -5.405946420      3.625      5.372
REMARK  2 active torsions:
REMARK  status: ('A' for Active; 'I' for Inactive)
REMARK    1  A    between atoms: C4_6  and  C5_7 
REMARK    2  A    between atoms: C8_11  and  O1_12 
ROOT
HETATM    1  C5  UNL     1      -5.799  13.646  -6.950  1.00  0.00    -0.028 A 
HETATM    2  C6  UNL     1      -6.380  14.831  -7.367  1.00  0.00     0.057 A 
HETATM    3  C7  UNL     1      -5.752  16.039  -7.108  1.00  0.00     0.153 A 
HETATM    4  F1  UNL     1      -6.289  17.215  -7.502  1.00  0.00    -0.203 F 
HETATM    5  C8  UNL     1      -4.545  16.095  -6.436  1.00  0.00     0.143 A 
HETATM    6  C9  UNL     1      -3.970  14.923  -6.022  1.00  0.00     0.153 A 
HETATM    7  F2  UNL     1      -2.786  14.970  -5.360  1.00  0.00    -0.203 F 
HETATM    8  C10 UNL     1      -4.606  13.713  -6.285  1.00  0.00     0.057 A 
ENDROOT
BRANCH   1   9
HETATM    9  C4  UNL     1      -6.427  12.408  -7.244  1.00  0.00     0.046 C 
HETATM   10  C3  UNL     1      -7.690  12.159  -7.501  1.00  0.00     0.103 A 
HETATM   11  N1  UNL     1      -8.233  10.850  -7.788  1.00  0.00    -0.342 N 
HETATM   12  C11 UNL     1      -8.838  13.038  -7.609  1.00  0.00     0.275 A 
HETATM   13  C2  UNL     1      -9.476  10.910  -8.024  1.00  0.00     0.082 A 
ATOM     14  H1  UNL     1      -7.686   9.990  -7.798  1.00  0.00     0.167 HD
HETATM   15  C1  UNL     1     -10.350   9.727  -8.359  1.00  0.00     0.089 C 
HETATM   16  N2  UNL     1      -9.978  12.226  -7.945  1.00  0.00    -0.307 N 
HETATM   17  C12 UNL     1     -11.336  12.709  -8.148  1.00  0.00     0.161 C 
HETATM   18  O2  UNL     1      -8.859  14.267  -7.446  1.00  0.00    -0.265 OA
ENDBRANCH   1   9
BRANCH   5  19
HETATM   19  O1  UNL     1      -3.940  17.348  -6.193  1.00  0.00    -0.355 OA
ATOM     20  H1  UNL     1      -3.274  17.424  -5.521  1.00  0.00     0.218 HD
ENDBRANCH   5  19
TORSDOF 2
ENDMDL
