MODEL 18
REMARK VINA RESULT: -5.400296167      3.647      5.240
REMARK  2 active torsions:
REMARK  status: ('A' for Active; 'I' for Inactive)
REMARK    1  A    between atoms: C4_6  and  C5_7 
REMARK    2  A    between atoms: C8_11  and  O1_12 
ROOT
HETATM    1  C5  UNL     1      -5.790  13.654  -6.995  1.00  0.00    -0.028 A 
HETATM    2  C6  UNL     1      -4.598  13.682  -6.293  1.00  0.00     0.057 A 
HETATM    3  C7  UNL     1      -3.998  14.896  -5.995  1.00  0.00     0.153 A 
HETATM    4  F1  UNL     1      -2.836  14.963  -5.309  1.00  0.00    -0.203 F 
HETATM    5  C8  UNL     1      -4.565  16.096  -6.385  1.00  0.00     0.143 A 
HETATM    6  C9  UNL     1      -5.744  16.069  -7.081  1.00  0.00     0.153 A 
HETATM    7  F2  UNL     1      -6.306  17.242  -7.468  1.00  0.00    -0.203 F 
HETATM    8  C10 UNL     1      -6.341  14.845  -7.377  1.00  0.00     0.057 A 
ENDROOT
BRANCH   1   9
HETATM    9  C4  UNL     1      -6.419  12.412  -7.272  1.00  0.00     0.046 C 
HETATM   10  C3  UNL     1      -7.684  12.158  -7.513  1.00  0.00     0.103 A 
HETATM   11  N1  UNL     1      -8.227  10.846  -7.781  1.00  0.00    -0.342 N 
HETATM   12  C11 UNL     1      -8.835  13.035  -7.615  1.00  0.00     0.275 A 
HETATM   13  C2  UNL     1      -9.473  10.902  -8.004  1.00  0.00     0.082 A 
ATOM     14  H1  UNL     1      -7.679   9.987  -7.790  1.00  0.00     0.167 HD
HETATM   15  C1  UNL     1     -10.348   9.714  -8.319  1.00  0.00     0.089 C 
HETATM   16  N2  UNL     1      -9.977  12.218  -7.931  1.00  0.00    -0.307 N 
HETATM   17  C12 UNL     1     -11.338  12.696  -8.123  1.00  0.00     0.161 C 
HETATM   18  O2  UNL     1      -8.856  14.265  -7.463  1.00  0.00    -0.265 OA
ENDBRANCH   1   9
BRANCH   5  19
HETATM   19  O1  UNL     1      -3.920  17.309  -6.060  1.00  0.00    -0.355 OA
ATOM     20  H1  UNL     1      -2.972  17.334  -6.000  1.00  0.00     0.218 HD
ENDBRANCH   5  19
TORSDOF 2
ENDMDL
