MODEL 2
REMARK VINA RESULT: -7.028500058      0.081      1.918
REMARK  2 active torsions:
REMARK  status: ('A' for Active; 'I' for Inactive)
REMARK    1  A    between atoms: C4_6  and  C5_7 
REMARK    2  A    between atoms: C8_11  and  O1_12 
ROOT
HETATM    1  C5  UNL     1      -1.805  15.910  -6.328  1.00  0.00    -0.028 A 
HETATM    2  C6  UNL     1      -1.171  16.385  -7.463  1.00  0.00     0.057 A 
HETATM    3  C7  UNL     1      -0.115  17.277  -7.345  1.00  0.00     0.153 A 
HETATM    4  F1  UNL     1       0.528  17.759  -8.430  1.00  0.00    -0.203 F 
HETATM    5  C8  UNL     1       0.327  17.710  -6.108  1.00  0.00     0.143 A 
HETATM    6  C9  UNL     1      -0.301  17.242  -4.985  1.00  0.00     0.153 A 
HETATM    7  F2  UNL     1       0.127  17.664  -3.768  1.00  0.00    -0.203 F 
HETATM    8  C10 UNL     1      -1.360  16.346  -5.111  1.00  0.00     0.057 A 
ENDROOT
BRANCH   1   9
HETATM    9  C4  UNL     1      -2.863  14.972  -6.449  1.00  0.00     0.046 C 
HETATM   10  C3  UNL     1      -4.131  15.182  -6.715  1.00  0.00     0.103 A 
HETATM   11  N1  UNL     1      -5.138  14.149  -6.814  1.00  0.00    -0.342 N 
HETATM   12  C11 UNL     1      -4.861  16.402  -7.005  1.00  0.00     0.275 A 
HETATM   13  C2  UNL     1      -6.269  14.637  -7.107  1.00  0.00     0.082 A 
ATOM     14  H1  UNL     1      -4.959  13.156  -6.666  1.00  0.00     0.167 HD
HETATM   15  C1  UNL     1      -7.535  13.836  -7.287  1.00  0.00     0.089 C 
HETATM   16  N2  UNL     1      -6.231  16.040  -7.255  1.00  0.00    -0.307 N 
HETATM   17  C12 UNL     1      -7.308  16.962  -7.586  1.00  0.00     0.161 C 
HETATM   18  O2  UNL     1      -4.409  17.555  -7.038  1.00  0.00    -0.265 OA
ENDBRANCH   1   9
BRANCH   5  19
HETATM   19  O1  UNL     1       1.405  18.620  -6.035  1.00  0.00    -0.355 OA
ATOM     20  H1  UNL     1       1.916  18.804  -6.813  1.00  0.00     0.218 HD
ENDBRANCH   5  19
TORSDOF 2
ENDMDL
