MODEL 1
REMARK VINA RESULT: -7.061920381      0.000      0.000
REMARK  2 active torsions:
REMARK  status: ('A' for Active; 'I' for Inactive)
REMARK    1  A    between atoms: C4_6  and  C5_7 
REMARK    2  A    between atoms: C8_11  and  O1_12 
ROOT
HETATM    1  C5  UNL     1      -1.727  15.879  -6.356  1.00  0.00    -0.028 A 
HETATM    2  C6  UNL     1      -1.317  16.335  -5.115  1.00  0.00     0.057 A 
HETATM    3  C7  UNL     1      -0.282  17.254  -5.022  1.00  0.00     0.153 A 
HETATM    4  F1  UNL     1       0.142  17.723  -3.828  1.00  0.00    -0.203 F 
HETATM    5  C8  UNL     1       0.360  17.733  -6.149  1.00  0.00     0.143 A 
HETATM    6  C9  UNL     1      -0.044  17.281  -7.377  1.00  0.00     0.153 A 
HETATM    7  F2  UNL     1       0.583  17.746  -8.487  1.00  0.00    -0.203 F 
HETATM    8  C10 UNL     1      -1.084  16.358  -7.463  1.00  0.00     0.057 A 
ENDROOT
BRANCH   1   9
HETATM    9  C4  UNL     1      -2.807  14.964  -6.452  1.00  0.00     0.046 C 
HETATM   10  C3  UNL     1      -4.073  15.198  -6.710  1.00  0.00     0.103 A 
HETATM   11  N1  UNL     1      -5.103  14.187  -6.782  1.00  0.00    -0.342 N 
HETATM   12  C11 UNL     1      -4.777  16.429  -7.015  1.00  0.00     0.275 A 
HETATM   13  C2  UNL     1      -6.226  14.695  -7.074  1.00  0.00     0.082 A 
ATOM     14  H1  UNL     1      -4.946  13.193  -6.620  1.00  0.00     0.167 HD
HETATM   15  C1  UNL     1      -7.511  13.921  -7.229  1.00  0.00     0.089 C 
HETATM   16  N2  UNL     1      -6.157  16.094  -7.247  1.00  0.00    -0.307 N 
HETATM   17  C12 UNL     1      -7.216  17.035  -7.584  1.00  0.00     0.161 C 
HETATM   18  O2  UNL     1      -4.300  17.572  -7.072  1.00  0.00    -0.265 OA
ENDBRANCH   1   9
BRANCH   5  19
HETATM   19  O1  UNL     1       1.409  18.667  -6.007  1.00  0.00    -0.355 OA
ATOM     20  H1  UNL     1       2.239  18.388  -5.640  1.00  0.00     0.218 HD
ENDBRANCH   5  19
TORSDOF 2
ENDMDL
