MODEL 3
REMARK VINA RESULT: -6.615726703      1.447      1.455
REMARK  2 active torsions:
REMARK  status: ('A' for Active; 'I' for Inactive)
REMARK    1  A    between atoms: C4_6  and  C5_7 
REMARK    2  A    between atoms: C8_11  and  O1_12 
ROOT
HETATM    1  C5  UNL     1      -2.313  16.310  -6.385  1.00  0.00    -0.028 A 
HETATM    2  C6  UNL     1      -2.651  17.326  -5.508  1.00  0.00     0.057 A 
HETATM    3  C7  UNL     1      -1.977  18.537  -5.559  1.00  0.00     0.153 A 
HETATM    4  F1  UNL     1      -2.280  19.551  -4.720  1.00  0.00    -0.203 F 
HETATM    5  C8  UNL     1      -0.963  18.761  -6.473  1.00  0.00     0.143 A 
HETATM    6  C9  UNL     1      -0.628  17.755  -7.340  1.00  0.00     0.153 A 
HETATM    7  F2  UNL     1       0.366  17.967  -8.239  1.00  0.00    -0.203 F 
HETATM    8  C10 UNL     1      -1.309  16.541  -7.284  1.00  0.00     0.057 A 
ENDROOT
BRANCH   1   9
HETATM    9  C4  UNL     1      -3.025  15.083  -6.354  1.00  0.00     0.046 C 
HETATM   10  C3  UNL     1      -4.302  14.859  -6.564  1.00  0.00     0.103 A 
HETATM   11  N1  UNL     1      -4.934  13.560  -6.504  1.00  0.00    -0.342 N 
HETATM   12  C11 UNL     1      -5.385  15.753  -6.926  1.00  0.00     0.275 A 
HETATM   13  C2  UNL     1      -6.169  13.638  -6.775  1.00  0.00     0.082 A 
ATOM     14  H1  UNL     1      -4.448  12.694  -6.274  1.00  0.00     0.167 HD
HETATM   15  C1  UNL     1      -7.122  12.470  -6.803  1.00  0.00     0.089 C 
HETATM   16  N2  UNL     1      -6.578  14.958  -7.059  1.00  0.00    -0.307 N 
HETATM   17  C12 UNL     1      -7.898  15.459  -7.412  1.00  0.00     0.161 C 
HETATM   18  O2  UNL     1      -5.320  16.979  -7.095  1.00  0.00    -0.265 OA
ENDBRANCH   1   9
BRANCH   5  19
HETATM   19  O1  UNL     1      -0.303  20.009  -6.489  1.00  0.00    -0.355 OA
ATOM     20  H1  UNL     1       0.491  20.112  -6.998  1.00  0.00     0.218 HD
ENDBRANCH   5  19
TORSDOF 2
ENDMDL
