MODEL 1
REMARK VINA RESULT: -2.750324566      0.000      0.000
REMARK  0 active torsions:
REMARK  status: ('A' for Active; 'I' for Inactive)
ROOT
HETATM    1  C1  UNL     1     -32.815   7.882  -8.372  1.00  0.00     0.069 C 
HETATM    2  C2  UNL     1     -33.251   6.466  -8.521  1.00  0.00     0.021 A 
HETATM    3  C3  UNL     1     -33.940   5.680  -7.622  1.00  0.00     0.113 A 
HETATM    4  N1  UNL     1     -34.119   4.467  -8.175  1.00  0.00    -0.360 N 
ATOM      5  H1  UNL     1     -34.598   3.681  -7.735  1.00  0.00     0.166 HD
HETATM    6  C4  UNL     1     -33.565   4.455  -9.400  1.00  0.00     0.180 A 
HETATM    7  N2  UNL     1     -33.041   5.682  -9.590  1.00  0.00    -0.355 N 
ATOM      8  H2  UNL     1     -32.551   5.976 -10.435  1.00  0.00     0.166 HD
ENDROOT
TORSDOF 0
ENDMDL
