MODEL 4
REMARK VINA RESULT: -2.462591635      9.540     10.551
REMARK  0 active torsions:
REMARK  status: ('A' for Active; 'I' for Inactive)
ROOT
HETATM    1  C1  UNL     1     -28.408  12.060 -11.360  1.00  0.00     0.069 C 
HETATM    2  C2  UNL     1     -28.211  12.835 -12.617  1.00  0.00     0.021 A 
HETATM    3  C3  UNL     1     -28.657  12.538 -13.887  1.00  0.00     0.113 A 
HETATM    4  N1  UNL     1     -28.247  13.516 -14.715  1.00  0.00    -0.360 N 
ATOM      5  H1  UNL     1     -28.432  13.558 -15.717  1.00  0.00     0.166 HD
HETATM    6  C4  UNL     1     -27.555  14.428 -14.011  1.00  0.00     0.180 A 
HETATM    7  N2  UNL     1     -27.544  13.993 -12.736  1.00  0.00    -0.355 N 
ATOM      8  H2  UNL     1     -27.090  14.480 -11.963  1.00  0.00     0.166 HD
ENDROOT
TORSDOF 0
ENDMDL
