MODEL 5
REMARK VINA RESULT: -6.720459285      1.086      2.514
REMARK  3 active torsions:
REMARK  status: ('A' for Active; 'I' for Inactive)
REMARK    1  A    between atoms: C2_3  and  P1_4 
REMARK    2  A    between atoms: C4_9  and  O5_10 
REMARK    3  A    between atoms: N1_12  and  O6_13 
ROOT
HETATM    1  O1  UNL     1     -24.995  65.424  39.462  1.00  0.00    -0.270 OA
HETATM    2  C1  UNL     1     -24.209  64.469  39.389  1.00  0.00     0.263 C 
HETATM    3  C2  UNL     1     -24.409  63.148  40.042  1.00  0.00     0.214 C 
HETATM    4  C3  UNL     1     -23.787  62.208  39.052  1.00  0.00     0.084 C 
HETATM    5  C4  UNL     1     -22.556  62.983  38.621  1.00  0.00     0.251 C 
HETATM    6  N1  UNL     1     -22.958  64.377  38.694  1.00  0.00    -0.198 N 
ENDROOT
BRANCH   3   7
HETATM    7  P1  UNL     1     -26.126  62.878  40.369  1.00  0.00     0.273 P 
HETATM    8  O2  UNL     1     -26.504  61.502  39.820  1.00  0.00    -0.639 OA
HETATM    9  O3  UNL     1     -27.050  63.999  39.469  1.00  0.00    -0.639 OA
HETATM   10  O4  UNL     1     -26.544  62.939  41.984  1.00  0.00    -0.639 OA
ENDBRANCH   3   7
BRANCH   6  11
HETATM   11  O6  UNL     1     -22.261  65.410  38.186  1.00  0.00    -0.282 OA
ATOM     12  H6  UNL     1     -22.115  65.583  37.263  1.00  0.00     0.245 HD
ENDBRANCH   6  11
BRANCH   5  13
HETATM   13  O5  UNL     1     -21.552  62.789  39.558  1.00  0.00    -0.374 OA
ATOM     14  H5  UNL     1     -20.847  63.401  39.385  1.00  0.00     0.212 HD
ENDBRANCH   5  13
TORSDOF 3
ENDMDL
