MODEL 4
REMARK VINA RESULT: -6.779500730      1.060      2.508
REMARK  3 active torsions:
REMARK  status: ('A' for Active; 'I' for Inactive)
REMARK    1  A    between atoms: C2_3  and  P1_4 
REMARK    2  A    between atoms: C4_9  and  O5_10 
REMARK    3  A    between atoms: N1_12  and  O6_13 
ROOT
HETATM    1  O1  UNL     1     -24.983  65.501  39.401  1.00  0.00    -0.270 OA
HETATM    2  C1  UNL     1     -24.216  64.528  39.371  1.00  0.00     0.263 C 
HETATM    3  C2  UNL     1     -24.475  63.217  40.021  1.00  0.00     0.214 C 
HETATM    4  C3  UNL     1     -23.829  62.256  39.067  1.00  0.00     0.084 C 
HETATM    5  C4  UNL     1     -22.562  63.002  38.689  1.00  0.00     0.251 C 
HETATM    6  N1  UNL     1     -22.936  64.405  38.735  1.00  0.00    -0.198 N 
ENDROOT
BRANCH   3   7
HETATM    7  P1  UNL     1     -26.211  62.986  40.269  1.00  0.00     0.273 P 
HETATM    8  O2  UNL     1     -26.486  63.028  41.773  1.00  0.00    -0.639 OA
HETATM    9  O3  UNL     1     -26.643  61.411  39.769  1.00  0.00    -0.639 OA
HETATM   10  O4  UNL     1     -27.177  64.123  39.520  1.00  0.00    -0.639 OA
ENDBRANCH   3   7
BRANCH   6  11
HETATM   11  O6  UNL     1     -22.194  65.419  38.254  1.00  0.00    -0.282 OA
ATOM     12  H6  UNL     1     -22.498  66.101  37.667  1.00  0.00     0.245 HD
ENDBRANCH   6  11
BRANCH   5  13
HETATM   13  O5  UNL     1     -21.607  62.792  39.673  1.00  0.00    -0.374 OA
ATOM     14  H5  UNL     1     -20.958  63.484  39.624  1.00  0.00     0.212 HD
ENDBRANCH   5  13
TORSDOF 3
ENDMDL
