MODEL 6
REMARK VINA RESULT: -6.568957144      1.078      2.136
REMARK  3 active torsions:
REMARK  status: ('A' for Active; 'I' for Inactive)
REMARK    1  A    between atoms: C2_3  and  P1_4 
REMARK    2  A    between atoms: C4_9  and  O5_10 
REMARK    3  A    between atoms: N1_12  and  O6_13 
ROOT
HETATM    1  O1  UNL     1     -25.009  65.413  39.447  1.00  0.00    -0.270 OA
HETATM    2  C1  UNL     1     -24.210  64.467  39.397  1.00  0.00     0.263 C 
HETATM    3  C2  UNL     1     -24.402  63.151  40.060  1.00  0.00     0.214 C 
HETATM    4  C3  UNL     1     -23.755  62.208  39.089  1.00  0.00     0.084 C 
HETATM    5  C4  UNL     1     -22.527  62.995  38.668  1.00  0.00     0.251 C 
HETATM    6  N1  UNL     1     -22.948  64.384  38.720  1.00  0.00    -0.198 N 
ENDROOT
BRANCH   3   7
HETATM    7  P1  UNL     1     -26.121  62.862  40.366  1.00  0.00     0.273 P 
HETATM    8  O2  UNL     1     -26.918  63.980  39.693  1.00  0.00    -0.639 OA
HETATM    9  O3  UNL     1     -26.427  63.025  42.038  1.00  0.00    -0.639 OA
HETATM   10  O4  UNL     1     -26.688  61.394  39.808  1.00  0.00    -0.639 OA
ENDBRANCH   3   7
BRANCH   6  11
HETATM   11  O6  UNL     1     -22.257  65.420  38.211  1.00  0.00    -0.282 OA
ATOM     12  H6  UNL     1     -22.632  66.213  37.845  1.00  0.00     0.245 HD
ENDBRANCH   6  11
BRANCH   5  13
HETATM   13  O5  UNL     1     -21.535  62.823  39.621  1.00  0.00    -0.374 OA
ATOM     14  H5  UNL     1     -20.709  62.662  39.180  1.00  0.00     0.212 HD
ENDBRANCH   5  13
TORSDOF 3
ENDMDL
