MODEL 13
REMARK VINA RESULT: -3.249255748      5.457      5.972
REMARK  3 active torsions:
REMARK  status: ('A' for Active; 'I' for Inactive)
REMARK    1  A    between atoms: C2_3  and  P1_4 
REMARK    2  A    between atoms: C4_9  and  O5_10 
REMARK    3  A    between atoms: N1_12  and  O6_13 
ROOT
HETATM    1  O1  UNL     1     -23.662  60.543  44.845  1.00  0.00    -0.270 OA
HETATM    2  C1  UNL     1     -23.099  61.561  45.272  1.00  0.00     0.263 C 
HETATM    3  C2  UNL     1     -23.548  62.954  45.018  1.00  0.00     0.214 C 
HETATM    4  C3  UNL     1     -23.176  63.645  46.297  1.00  0.00     0.084 C 
HETATM    5  C4  UNL     1     -21.826  63.023  46.602  1.00  0.00     0.251 C 
HETATM    6  N1  UNL     1     -21.921  61.669  46.085  1.00  0.00    -0.198 N 
ENDROOT
BRANCH   3   7
HETATM    7  P1  UNL     1     -25.270  62.981  44.615  1.00  0.00     0.273 P 
HETATM    8  O2  UNL     1     -25.402  63.156  43.102  1.00  0.00    -0.639 OA
HETATM    9  O3  UNL     1     -25.983  64.375  45.301  1.00  0.00    -0.639 OA
HETATM   10  O4  UNL     1     -26.111  61.612  45.069  1.00  0.00    -0.639 OA
ENDBRANCH   3   7
BRANCH   6  11
HETATM   11  O6  UNL     1     -21.042  60.682  46.334  1.00  0.00    -0.282 OA
ATOM     12  H6  UNL     1     -21.197  59.925  46.886  1.00  0.00     0.245 HD
ENDBRANCH   6  11
BRANCH   5  13
HETATM   13  O5  UNL     1     -20.851  63.683  45.867  1.00  0.00    -0.374 OA
ATOM     14  H5  UNL     1     -20.736  64.556  46.223  1.00  0.00     0.212 HD
ENDBRANCH   5  13
TORSDOF 3
ENDMDL
