MODEL 12
REMARK VINA RESULT: -3.381763399      5.417      6.041
REMARK  3 active torsions:
REMARK  status: ('A' for Active; 'I' for Inactive)
REMARK    1  A    between atoms: C2_3  and  P1_4 
REMARK    2  A    between atoms: C4_9  and  O5_10 
REMARK    3  A    between atoms: N1_12  and  O6_13 
ROOT
HETATM    1  O1  UNL     1     -23.480  60.684  44.727  1.00  0.00    -0.270 OA
HETATM    2  C1  UNL     1     -22.965  61.708  45.196  1.00  0.00     0.263 C 
HETATM    3  C2  UNL     1     -23.450  63.093  44.959  1.00  0.00     0.214 C 
HETATM    4  C3  UNL     1     -23.145  63.764  46.266  1.00  0.00     0.084 C 
HETATM    5  C4  UNL     1     -21.787  63.178  46.604  1.00  0.00     0.251 C 
HETATM    6  N1  UNL     1     -21.821  61.834  46.053  1.00  0.00    -0.198 N 
ENDROOT
BRANCH   3   7
HETATM    7  P1  UNL     1     -25.157  63.075  44.496  1.00  0.00     0.273 P 
HETATM    8  O2  UNL     1     -25.743  61.720  44.893  1.00  0.00    -0.639 OA
HETATM    9  O3  UNL     1     -25.276  63.144  42.793  1.00  0.00    -0.639 OA
HETATM   10  O4  UNL     1     -26.079  64.279  45.195  1.00  0.00    -0.639 OA
ENDBRANCH   3   7
BRANCH   6  11
HETATM   11  O6  UNL     1     -20.919  60.870  46.311  1.00  0.00    -0.282 OA
ATOM     12  H6  UNL     1     -19.978  60.989  46.369  1.00  0.00     0.245 HD
ENDBRANCH   6  11
BRANCH   5  13
HETATM   13  O5  UNL     1     -20.809  63.885  45.921  1.00  0.00    -0.374 OA
ATOM     14  H5  UNL     1     -20.579  64.657  46.424  1.00  0.00     0.212 HD
ENDBRANCH   5  13
TORSDOF 3
ENDMDL
