MODEL 7
REMARK VINA RESULT: -5.825595148      2.427      4.362
REMARK  4 active torsions:
REMARK  status: ('A' for Active; 'I' for Inactive)
REMARK    1  A    between atoms: C1_2  and  C2_4 
REMARK    2  A    between atoms: C4_8  and  O5_9 
REMARK    3  A    between atoms: C5_11  and  O6_12 
REMARK    4  A    between atoms: C6_14  and  O7_15 
ROOT
HETATM    1  C2  UNL     1      17.117  -7.335 -24.151  1.00  0.00     0.263 C 
HETATM    2  O3  UNL     1      18.050  -6.969 -25.122  1.00  0.00    -0.300 OA
HETATM    3  C3  UNL     1      19.229  -7.691 -25.237  1.00  0.00     0.291 C 
HETATM    4  O4  UNL     1      20.287  -7.131 -25.661  1.00  0.00    -0.262 OA
HETATM    5  C4  UNL     1      19.173  -9.117 -24.843  1.00  0.00     0.248 C 
HETATM    6  C5  UNL     1      18.544  -9.302 -23.510  1.00  0.00     0.188 C 
HETATM    7  C6  UNL     1      17.699  -8.171 -23.042  1.00  0.00     0.190 C 
ENDROOT
BRANCH   1   8
HETATM    8  C1  UNL     1      16.564  -6.112 -23.545  1.00  0.00     0.206 C 
HETATM    9  O1  UNL     1      17.031  -4.999 -23.855  1.00  0.00    -0.646 OA
HETATM   10  O2  UNL     1      15.530  -6.161 -22.631  1.00  0.00    -0.646 OA
ENDBRANCH   1   8
BRANCH   7  11
HETATM   11  O7  UNL     1      16.631  -8.677 -22.300  1.00  0.00    -0.390 OA
ATOM     12  H7  UNL     1      16.224  -9.359 -22.821  1.00  0.00     0.210 HD
ENDBRANCH   7  11
BRANCH   6  13
HETATM   13  O6  UNL     1      19.564  -9.488 -22.549  1.00  0.00    -0.390 OA
ATOM     14  H6  UNL     1      20.178 -10.135 -22.878  1.00  0.00     0.210 HD
ENDBRANCH   6  13
BRANCH   5  15
HETATM   15  O5  UNL     1      18.528  -9.900 -25.786  1.00  0.00    -0.383 OA
ATOM     16  H5  UNL     1      19.035 -10.666 -26.029  1.00  0.00     0.210 HD
ENDBRANCH   5  15
TORSDOF 4
ENDMDL
