MODEL 8
REMARK VINA RESULT: -5.825049518      1.847      3.496
REMARK  4 active torsions:
REMARK  status: ('A' for Active; 'I' for Inactive)
REMARK    1  A    between atoms: C1_2  and  C2_4 
REMARK    2  A    between atoms: C4_8  and  O5_9 
REMARK    3  A    between atoms: C5_11  and  O6_12 
REMARK    4  A    between atoms: C6_14  and  O7_15 
ROOT
HETATM    1  C2  UNL     1      18.580 -10.956 -24.918  1.00  0.00     0.263 C 
HETATM    2  O3  UNL     1      19.958 -10.763 -24.816  1.00  0.00    -0.300 OA
HETATM    3  C3  UNL     1      20.440  -9.564 -24.311  1.00  0.00     0.291 C 
HETATM    4  O4  UNL     1      21.569  -9.117 -24.684  1.00  0.00    -0.262 OA
HETATM    5  C4  UNL     1      19.576  -8.861 -23.336  1.00  0.00     0.248 C 
HETATM    6  C5  UNL     1      18.179  -8.729 -23.826  1.00  0.00     0.188 C 
HETATM    7  C6  UNL     1      17.790  -9.675 -24.905  1.00  0.00     0.190 C 
ENDROOT
BRANCH   1   8
HETATM    8  C1  UNL     1      18.294 -11.645 -26.188  1.00  0.00     0.206 C 
HETATM    9  O1  UNL     1      17.593 -12.676 -26.191  1.00  0.00    -0.646 OA
HETATM   10  O2  UNL     1      18.783 -11.177 -27.392  1.00  0.00    -0.646 OA
ENDBRANCH   1   8
BRANCH   7  11
HETATM   11  O7  UNL     1      16.447 -10.018 -24.749  1.00  0.00    -0.390 OA
ATOM     12  H7  UNL     1      16.021  -9.878 -25.586  1.00  0.00     0.210 HD
ENDBRANCH   7  11
BRANCH   6  13
HETATM   13  O6  UNL     1      17.997  -7.421 -24.329  1.00  0.00    -0.390 OA
ATOM     14  H6  UNL     1      17.714  -6.857 -23.618  1.00  0.00     0.210 HD
ENDBRANCH   6  13
BRANCH   5  15
HETATM   15  O5  UNL     1      19.588  -9.464 -22.089  1.00  0.00    -0.383 OA
ATOM     16  H5  UNL     1      19.728  -8.840 -21.387  1.00  0.00     0.210 HD
ENDBRANCH   5  15
TORSDOF 4
ENDMDL
