MODEL 6
REMARK VINA RESULT: -9.175590810      3.251      6.902
REMARK  4 active torsions:
REMARK  status: ('A' for Active; 'I' for Inactive)
REMARK    1  A    between atoms: C4_4  and  C5_5 
REMARK    2  A    between atoms: C5_5  and  N1_6 
REMARK    3  A    between atoms: C6_7  and  N2_8 
REMARK    4  A    between atoms: C13_20  and  N5_21 
ROOT
HETATM    1  N1  UNL     1      34.530  28.637  22.004  1.00  0.00    -0.177 N 
HETATM    2  C6  UNL     1      34.068  28.582  20.755  1.00  0.00     0.684 A 
HETATM    3  N4  UNL     1      34.959  27.851  20.026  1.00  0.00    -0.187 N 
ATOM      4  H4  UNL     1      34.856  27.646  19.032  1.00  0.00     0.184 HD
HETATM    5  C12 UNL     1      35.971  27.443  20.766  1.00  0.00     0.103 A 
HETATM    6  C13 UNL     1      37.103  26.689  20.481  1.00  0.00     0.061 A 
HETATM    7  C19 UNL     1      37.976  26.446  21.524  1.00  0.00     0.055 A 
HETATM    8  C20 UNL     1      37.720  26.942  22.803  1.00  0.00     0.038 A 
HETATM    9 CL1  UNL     1      38.860  26.606  24.094  1.00  0.00    -0.084 Cl
HETATM   10  C21 UNL     1      36.590  27.688  23.062  1.00  0.00     0.056 A 
HETATM   11  C22 UNL     1      35.710  27.939  22.036  1.00  0.00     0.083 A 
ENDROOT
BRANCH   1  12
HETATM   12  C5  UNL     1      33.874  29.268  23.112  1.00  0.00     0.186 C 
BRANCH  12  13
HETATM   13  C4  UNL     1      34.720  30.097  23.959  1.00  0.00    -0.038 A 
HETATM   14  C3  UNL     1      34.774  30.042  25.323  1.00  0.00     0.018 A 
HETATM   15  C2  UNL     1      35.614  30.894  26.055  1.00  0.00    -0.022 A 
HETATM   16  C1  UNL     1      35.637  30.797  27.538  1.00  0.00     0.051 C 
HETATM   17  C26 UNL     1      36.409  31.812  25.405  1.00  0.00     0.128 A 
HETATM   18  C24 UNL     1      36.370  31.880  24.050  1.00  0.00    -0.022 A 
HETATM   19  F1  UNL     1      37.215  32.630  26.115  1.00  0.00    -0.205 F 
HETATM   20  C23 UNL     1      35.540  31.039  23.350  1.00  0.00     0.018 A 
HETATM   21  C25 UNL     1      37.213  32.858  23.283  1.00  0.00     0.051 C 
ENDBRANCH  12  13
ENDBRANCH   1  12
BRANCH   2  22
HETATM   22  N2  UNL     1      32.917  29.181  20.163  1.00  0.00    -0.216 N 
HETATM   23  C7  UNL     1      31.661  29.806  20.517  1.00  0.00     0.155 C 
HETATM   24  C8  UNL     1      31.686  30.465  19.164  1.00  0.00     0.041 C 
HETATM   25  C9  UNL     1      30.419  30.749  18.494  1.00  0.00     0.246 C 
HETATM   26  C10 UNL     1      32.068  31.879  19.070  1.00  0.00     0.246 C 
HETATM   27  C11 UNL     1      32.568  29.386  18.733  1.00  0.00     0.155 C 
HETATM   28  N3  UNL     1      30.664  32.181  18.743  1.00  0.00    -0.073 N 
ATOM     29  H32 UNL     1      30.443  32.870  18.024  1.00  0.00     0.277 HD
ATOM     30  H31 UNL     1      30.082  32.691  19.408  1.00  0.00     0.277 HD
ENDBRANCH   2  22
BRANCH   6  31
HETATM   31  N5  UNL     1      37.330  26.204  19.172  1.00  0.00    -0.376 N 
HETATM   32  C14 UNL     1      37.968  26.965  18.119  1.00  0.00     0.153 C 
HETATM   33  C15 UNL     1      38.161  26.032  16.951  1.00  0.00     0.291 C 
HETATM   34  N6  UNL     1      38.790  24.785  17.317  1.00  0.00     0.087 N 
HETATM   35  C16 UNL     1      38.785  23.907  16.159  1.00  0.00     0.310 C 
HETATM   36  C17 UNL     1      38.159  24.104  18.410  1.00  0.00     0.291 C 
HETATM   37  C18 UNL     1      36.907  24.845  18.805  1.00  0.00     0.153 C 
ENDBRANCH   6  31
TORSDOF 4
ENDMDL
