MODEL 2
REMARK VINA RESULT: -10.579252910      0.249      1.469
REMARK  4 active torsions:
REMARK  status: ('A' for Active; 'I' for Inactive)
REMARK    1  A    between atoms: C4_4  and  C5_5 
REMARK    2  A    between atoms: C5_5  and  N1_6 
REMARK    3  A    between atoms: C6_7  and  N2_8 
REMARK    4  A    between atoms: C13_20  and  N5_21 
ROOT
HETATM    1  N1  UNL     1      33.950  28.690  22.878  1.00  0.00    -0.177 N 
HETATM    2  C6  UNL     1      35.198  28.315  22.598  1.00  0.00     0.684 A 
HETATM    3  N4  UNL     1      35.919  28.419  23.750  1.00  0.00    -0.187 N 
ATOM      4  H4  UNL     1      36.911  28.192  23.828  1.00  0.00     0.184 HD
HETATM    5  C12 UNL     1      35.176  28.848  24.751  1.00  0.00     0.103 A 
HETATM    6  C13 UNL     1      35.453  29.108  26.088  1.00  0.00     0.061 A 
HETATM    7  C19 UNL     1      34.409  29.559  26.871  1.00  0.00     0.055 A 
HETATM    8  C20 UNL     1      33.135  29.741  26.331  1.00  0.00     0.038 A 
HETATM    9 CL1  UNL     1      31.841  30.317  27.367  1.00  0.00    -0.084 Cl
HETATM   10  C21 UNL     1      32.883  29.476  25.001  1.00  0.00     0.056 A 
HETATM   11  C22 UNL     1      33.911  29.026  24.207  1.00  0.00     0.083 A 
ENDROOT
BRANCH   1  12
HETATM   12  C5  UNL     1      32.848  28.684  21.960  1.00  0.00     0.186 C 
BRANCH  12  13
HETATM   13  C4  UNL     1      32.687  29.889  21.159  1.00  0.00    -0.038 A 
HETATM   14  C3  UNL     1      31.936  29.992  20.023  1.00  0.00     0.018 A 
HETATM   15  C2  UNL     1      31.852  31.197  19.309  1.00  0.00    -0.022 A 
HETATM   16  C1  UNL     1      31.022  31.259  18.078  1.00  0.00     0.051 C 
HETATM   17  C26 UNL     1      32.532  32.312  19.747  1.00  0.00     0.128 A 
HETATM   18  C24 UNL     1      33.284  32.229  20.875  1.00  0.00    -0.022 A 
HETATM   19  F1  UNL     1      32.449  33.469  19.056  1.00  0.00    -0.205 F 
HETATM   20  C23 UNL     1      33.355  31.041  21.559  1.00  0.00     0.018 A 
HETATM   21  C25 UNL     1      34.047  33.409  21.404  1.00  0.00     0.051 C 
ENDBRANCH  12  13
ENDBRANCH   1  12
BRANCH   2  22
HETATM   22  N2  UNL     1      35.795  27.924  21.363  1.00  0.00    -0.216 N 
HETATM   23  C7  UNL     1      37.067  27.524  20.802  1.00  0.00     0.155 C 
HETATM   24  C8  UNL     1      36.293  26.872  19.688  1.00  0.00     0.041 C 
HETATM   25  C9  UNL     1      36.890  26.811  18.355  1.00  0.00     0.246 C 
HETATM   26  C10 UNL     1      36.130  25.414  19.695  1.00  0.00     0.246 C 
HETATM   27  C11 UNL     1      35.201  27.784  20.009  1.00  0.00     0.155 C 
HETATM   28  N3  UNL     1      37.049  25.359  18.545  1.00  0.00    -0.073 N 
ATOM     29  H32 UNL     1      36.863  24.718  17.773  1.00  0.00     0.277 HD
ATOM     30  H31 UNL     1      37.979  24.956  18.653  1.00  0.00     0.277 HD
ENDBRANCH   2  22
BRANCH   6  31
HETATM   31  N5  UNL     1      36.758  28.912  26.599  1.00  0.00    -0.376 N 
HETATM   32  C14 UNL     1      37.109  27.900  27.573  1.00  0.00     0.153 C 
HETATM   33  C15 UNL     1      38.610  27.923  27.716  1.00  0.00     0.291 C 
HETATM   34  N6  UNL     1      39.302  27.869  26.451  1.00  0.00     0.087 N 
HETATM   35  C16 UNL     1      40.723  28.054  26.693  1.00  0.00     0.310 C 
HETATM   36  C17 UNL     1      38.869  28.849  25.498  1.00  0.00     0.291 C 
HETATM   37  C18 UNL     1      37.864  29.766  26.145  1.00  0.00     0.153 C 
ENDBRANCH   6  31
TORSDOF 4
ENDMDL
