MODEL 5
REMARK VINA RESULT: -9.457932776      0.934      1.130
REMARK  4 active torsions:
REMARK  status: ('A' for Active; 'I' for Inactive)
REMARK    1  A    between atoms: C4_4  and  C5_5 
REMARK    2  A    between atoms: C5_5  and  N1_6 
REMARK    3  A    between atoms: C6_7  and  N2_8 
REMARK    4  A    between atoms: C13_20  and  N5_21 
ROOT
HETATM    1  N1  UNL     1      34.251  28.501  22.598  1.00  0.00    -0.177 N 
HETATM    2  C6  UNL     1      35.416  27.972  22.226  1.00  0.00     0.684 A 
HETATM    3  N4  UNL     1      36.255  28.046  23.299  1.00  0.00    -0.187 N 
ATOM      4  H4  UNL     1      37.218  27.711  23.297  1.00  0.00     0.184 HD
HETATM    5  C12 UNL     1      35.666  28.606  24.337  1.00  0.00     0.103 A 
HETATM    6  C13 UNL     1      36.101  28.896  25.625  1.00  0.00     0.061 A 
HETATM    7  C19 UNL     1      35.195  29.501  26.473  1.00  0.00     0.055 A 
HETATM    8  C20 UNL     1      33.901  29.803  26.044  1.00  0.00     0.038 A 
HETATM    9 CL1  UNL     1      32.788  30.573  27.160  1.00  0.00    -0.084 Cl
HETATM   10  C21 UNL     1      33.492  29.506  24.761  1.00  0.00     0.056 A 
HETATM   11  C22 UNL     1      34.381  28.902  23.903  1.00  0.00     0.083 A 
ENDROOT
BRANCH   1  12
HETATM   12  C5  UNL     1      33.070  28.579  21.788  1.00  0.00     0.186 C 
BRANCH  12  13
HETATM   13  C4  UNL     1      32.870  29.836  21.082  1.00  0.00    -0.038 A 
HETATM   14  C3  UNL     1      33.379  31.047  21.458  1.00  0.00     0.018 A 
HETATM   15  C2  UNL     1      33.119  32.210  20.718  1.00  0.00    -0.022 A 
HETATM   16  C1  UNL     1      33.695  33.504  21.167  1.00  0.00     0.051 C 
HETATM   17  C26 UNL     1      32.338  32.152  19.584  1.00  0.00     0.128 A 
HETATM   18  C24 UNL     1      31.824  30.957  19.195  1.00  0.00    -0.022 A 
HETATM   19  F1  UNL     1      32.090  33.274  18.876  1.00  0.00    -0.205 F 
HETATM   20  C23 UNL     1      32.088  29.830  19.933  1.00  0.00     0.018 A 
HETATM   21  C25 UNL     1      30.966  30.827  17.970  1.00  0.00     0.051 C 
ENDBRANCH  12  13
ENDBRANCH   1  12
BRANCH   2  22
HETATM   22  N2  UNL     1      35.842  27.456  20.967  1.00  0.00    -0.216 N 
HETATM   23  C7  UNL     1      35.818  27.765  19.554  1.00  0.00     0.155 C 
HETATM   24  C8  UNL     1      37.004  26.851  19.403  1.00  0.00     0.041 C 
HETATM   25  C9  UNL     1      37.170  26.110  18.154  1.00  0.00     0.246 C 
HETATM   26  C10 UNL     1      38.339  27.439  19.246  1.00  0.00     0.246 C 
HETATM   27  C11 UNL     1      36.574  26.205  20.637  1.00  0.00     0.155 C 
HETATM   28  N3  UNL     1      38.318  26.980  17.846  1.00  0.00    -0.073 N 
ATOM     29  H32 UNL     1      39.160  26.587  17.425  1.00  0.00     0.277 HD
ATOM     30  H31 UNL     1      38.257  27.658  17.087  1.00  0.00     0.277 HD
ENDBRANCH   2  22
BRANCH   6  31
HETATM   31  N5  UNL     1      37.420  28.575  26.024  1.00  0.00    -0.376 N 
HETATM   32  C14 UNL     1      37.762  27.475  26.900  1.00  0.00     0.153 C 
HETATM   33  C15 UNL     1      39.267  27.386  26.932  1.00  0.00     0.291 C 
HETATM   34  N6  UNL     1      39.864  27.373  25.618  1.00  0.00     0.087 N 
HETATM   35  C16 UNL     1      41.308  27.443  25.766  1.00  0.00     0.310 C 
HETATM   36  C17 UNL     1      39.439  28.446  24.766  1.00  0.00     0.291 C 
HETATM   37  C18 UNL     1      38.551  29.382  25.545  1.00  0.00     0.153 C 
ENDBRANCH   6  31
TORSDOF 4
ENDMDL
