MODEL 7
REMARK VINA RESULT: -9.081626726      1.474      1.943
REMARK  4 active torsions:
REMARK  status: ('A' for Active; 'I' for Inactive)
REMARK    1  A    between atoms: C4_4  and  C5_5 
REMARK    2  A    between atoms: C5_5  and  N1_6 
REMARK    3  A    between atoms: C6_7  and  N2_8 
REMARK    4  A    between atoms: C13_20  and  N5_21 
ROOT
HETATM    1  N1  UNL     1      35.038  28.614  22.843  1.00  0.00    -0.177 N 
HETATM    2  C6  UNL     1      36.085  27.997  22.296  1.00  0.00     0.684 A 
HETATM    3  N4  UNL     1      37.137  28.151  23.150  1.00  0.00    -0.187 N 
ATOM      4  H4  UNL     1      38.071  27.776  22.984  1.00  0.00     0.184 HD
HETATM    5  C12 UNL     1      36.796  28.846  24.218  1.00  0.00     0.103 A 
HETATM    6  C13 UNL     1      37.504  29.255  25.342  1.00  0.00     0.061 A 
HETATM    7  C19 UNL     1      36.814  29.988  26.288  1.00  0.00     0.055 A 
HETATM    8  C20 UNL     1      35.465  30.298  26.110  1.00  0.00     0.038 A 
HETATM    9 CL1  UNL     1      34.633  31.232  27.341  1.00  0.00    -0.084 Cl
HETATM   10  C21 UNL     1      34.783  29.880  24.987  1.00  0.00     0.056 A 
HETATM   11  C22 UNL     1      35.454  29.149  24.035  1.00  0.00     0.083 A 
ENDROOT
BRANCH   1  12
HETATM   12  C5  UNL     1      33.712  28.655  22.298  1.00  0.00     0.186 C 
BRANCH  12  13
HETATM   13  C4  UNL     1      33.383  29.844  21.525  1.00  0.00    -0.038 A 
HETATM   14  C3  UNL     1      33.752  31.122  21.838  1.00  0.00     0.018 A 
HETATM   15  C2  UNL     1      33.374  32.208  21.035  1.00  0.00    -0.022 A 
HETATM   16  C1  UNL     1      33.801  33.579  21.417  1.00  0.00     0.051 C 
HETATM   17  C26 UNL     1      32.616  32.005  19.903  1.00  0.00     0.128 A 
HETATM   18  C24 UNL     1      32.240  30.741  19.576  1.00  0.00    -0.022 A 
HETATM   19  F1  UNL     1      32.255  33.054  19.135  1.00  0.00    -0.205 F 
HETATM   20  C23 UNL     1      32.618  29.691  20.375  1.00  0.00     0.018 A 
HETATM   21  C25 UNL     1      31.414  30.455  18.355  1.00  0.00     0.051 C 
ENDBRANCH  12  13
ENDBRANCH   1  12
BRANCH   2  22
HETATM   22  N2  UNL     1      36.220  27.329  21.043  1.00  0.00    -0.216 N 
HETATM   23  C7  UNL     1      35.762  27.397  19.673  1.00  0.00     0.155 C 
HETATM   24  C8  UNL     1      36.983  26.602  19.296  1.00  0.00     0.041 C 
HETATM   25  C9  UNL     1      36.907  25.688  18.159  1.00  0.00     0.246 C 
HETATM   26  C10 UNL     1      38.119  27.296  18.680  1.00  0.00     0.246 C 
HETATM   27  C11 UNL     1      37.011  26.126  20.675  1.00  0.00     0.155 C 
HETATM   28  N3  UNL     1      37.783  26.613  17.418  1.00  0.00    -0.073 N 
ATOM     29  H32 UNL     1      38.525  26.248  16.821  1.00  0.00     0.277 HD
ATOM     30  H31 UNL     1      37.414  27.146  16.631  1.00  0.00     0.277 HD
ENDBRANCH   2  22
BRANCH   6  31
HETATM   31  N5  UNL     1      38.871  28.923  25.487  1.00  0.00    -0.376 N 
HETATM   32  C14 UNL     1      39.355  27.720  26.131  1.00  0.00     0.153 C 
HETATM   33  C15 UNL     1      40.848  27.674  25.923  1.00  0.00     0.291 C 
HETATM   34  N6  UNL     1      41.235  27.869  24.546  1.00  0.00     0.087 N 
HETATM   35  C16 UNL     1      42.685  27.962  24.484  1.00  0.00     0.310 C 
HETATM   36  C17 UNL     1      40.675  29.038  23.935  1.00  0.00     0.291 C 
HETATM   37  C18 UNL     1      39.909  29.824  24.966  1.00  0.00     0.153 C 
ENDBRANCH   6  31
TORSDOF 4
ENDMDL
