MODEL 4
REMARK VINA RESULT: -9.653875705      2.690      5.477
REMARK  4 active torsions:
REMARK  status: ('A' for Active; 'I' for Inactive)
REMARK    1  A    between atoms: C4_4  and  C5_5 
REMARK    2  A    between atoms: C5_5  and  N1_6 
REMARK    3  A    between atoms: C6_7  and  N2_8 
REMARK    4  A    between atoms: C13_20  and  N5_21 
ROOT
HETATM    1  N1  UNL     1      34.917  28.498  22.584  1.00  0.00    -0.177 N 
HETATM    2  C6  UNL     1      35.520  28.879  23.710  1.00  0.00     0.684 A 
HETATM    3  N4  UNL     1      36.850  28.612  23.567  1.00  0.00    -0.187 N 
ATOM      4  H4  UNL     1      37.553  28.805  24.281  1.00  0.00     0.184 HD
HETATM    5  C12 UNL     1      37.113  28.072  22.393  1.00  0.00     0.103 A 
HETATM    6  C13 UNL     1      38.291  27.635  21.799  1.00  0.00     0.061 A 
HETATM    7  C19 UNL     1      38.194  27.108  20.526  1.00  0.00     0.055 A 
HETATM    8  C20 UNL     1      36.963  27.025  19.875  1.00  0.00     0.038 A 
HETATM    9 CL1  UNL     1      36.894  26.348  18.258  1.00  0.00    -0.084 Cl
HETATM   10  C21 UNL     1      35.807  27.466  20.485  1.00  0.00     0.056 A 
HETATM   11  C22 UNL     1      35.884  27.994  21.752  1.00  0.00     0.083 A 
ENDROOT
BRANCH   1  12
HETATM   12  C5  UNL     1      33.522  28.647  22.290  1.00  0.00     0.186 C 
BRANCH  12  13
HETATM   13  C4  UNL     1      33.173  29.765  21.427  1.00  0.00    -0.038 A 
HETATM   14  C3  UNL     1      32.425  29.685  20.286  1.00  0.00     0.018 A 
HETATM   15  C2  UNL     1      32.152  30.821  19.509  1.00  0.00    -0.022 A 
HETATM   16  C1  UNL     1      31.334  30.681  18.277  1.00  0.00     0.051 C 
HETATM   17  C26 UNL     1      32.638  32.053  19.887  1.00  0.00     0.128 A 
HETATM   18  C24 UNL     1      33.383  32.153  21.018  1.00  0.00    -0.022 A 
HETATM   19  F1  UNL     1      32.373  33.143  19.136  1.00  0.00    -0.205 F 
HETATM   20  C23 UNL     1      33.641  31.030  21.765  1.00  0.00     0.018 A 
HETATM   21  C25 UNL     1      33.940  33.467  21.483  1.00  0.00     0.051 C 
ENDBRANCH  12  13
ENDBRANCH   1  12
BRANCH   2  22
HETATM   22  N2  UNL     1      34.982  29.414  24.917  1.00  0.00    -0.216 N 
HETATM   23  C7  UNL     1      34.532  30.661  25.498  1.00  0.00     0.155 C 
HETATM   24  C8  UNL     1      33.728  29.839  26.470  1.00  0.00     0.041 C 
HETATM   25  C9  UNL     1      33.504  30.360  27.817  1.00  0.00     0.246 C 
HETATM   26  C10 UNL     1      32.281  29.711  26.265  1.00  0.00     0.246 C 
HETATM   27  C11 UNL     1      34.657  28.747  26.204  1.00  0.00     0.155 C 
HETATM   28  N3  UNL     1      32.091  30.563  27.451  1.00  0.00    -0.073 N 
ATOM     29  H32 UNL     1      31.353  30.348  28.122  1.00  0.00     0.277 HD
ATOM     30  H31 UNL     1      31.721  31.507  27.348  1.00  0.00     0.277 HD
ENDBRANCH   2  22
BRANCH   6  31
HETATM   31  N5  UNL     1      39.521  27.734  22.490  1.00  0.00    -0.376 N 
HETATM   32  C14 UNL     1      40.415  28.869  22.404  1.00  0.00     0.153 C 
HETATM   33  C15 UNL     1      41.513  28.646  23.413  1.00  0.00     0.291 C 
HETATM   34  N6  UNL     1      41.018  28.313  24.728  1.00  0.00     0.087 N 
HETATM   35  C16 UNL     1      42.149  27.968  25.573  1.00  0.00     0.310 C 
HETATM   36  C17 UNL     1      40.084  27.226  24.749  1.00  0.00     0.291 C 
HETATM   37  C18 UNL     1      39.966  26.641  23.365  1.00  0.00     0.153 C 
ENDBRANCH   6  31
TORSDOF 4
ENDMDL
