MODEL 1
REMARK VINA RESULT: -10.973289960      0.000      0.000
REMARK  4 active torsions:
REMARK  status: ('A' for Active; 'I' for Inactive)
REMARK    1  A    between atoms: C4_4  and  C5_5 
REMARK    2  A    between atoms: C5_5  and  N1_6 
REMARK    3  A    between atoms: C6_7  and  N2_8 
REMARK    4  A    between atoms: C13_20  and  N5_21 
ROOT
HETATM    1  N1  UNL     1      33.930  28.780  23.003  1.00  0.00    -0.177 N 
HETATM    2  C6  UNL     1      35.166  28.362  22.731  1.00  0.00     0.684 A 
HETATM    3  N4  UNL     1      35.875  28.407  23.895  1.00  0.00    -0.187 N 
ATOM      4  H4  UNL     1      36.855  28.139  23.981  1.00  0.00     0.184 HD
HETATM    5  C12 UNL     1      35.135  28.841  24.896  1.00  0.00     0.103 A 
HETATM    6  C13 UNL     1      35.403  29.056  26.243  1.00  0.00     0.061 A 
HETATM    7  C19 UNL     1      34.366  29.530  27.023  1.00  0.00     0.055 A 
HETATM    8  C20 UNL     1      33.108  29.777  26.471  1.00  0.00     0.038 A 
HETATM    9 CL1  UNL     1      31.824  30.378  27.504  1.00  0.00    -0.084 Cl
HETATM   10  C21 UNL     1      32.866  29.556  25.132  1.00  0.00     0.056 A 
HETATM   11  C22 UNL     1      33.886  29.084  24.340  1.00  0.00     0.083 A 
ENDROOT
BRANCH   1  12
HETATM   12  C5  UNL     1      32.843  28.842  22.071  1.00  0.00     0.186 C 
BRANCH  12  13
HETATM   13  C4  UNL     1      32.756  30.063  21.283  1.00  0.00    -0.038 A 
HETATM   14  C3  UNL     1      33.342  31.256  21.599  1.00  0.00     0.018 A 
HETATM   15  C2  UNL     1      33.189  32.385  20.780  1.00  0.00    -0.022 A 
HETATM   16  C1  UNL     1      33.847  33.659  21.166  1.00  0.00     0.051 C 
HETATM   17  C26 UNL     1      32.437  32.310  19.628  1.00  0.00     0.128 A 
HETATM   18  C24 UNL     1      31.847  31.132  19.297  1.00  0.00    -0.022 A 
HETATM   19  F1  UNL     1      32.293  33.399  18.844  1.00  0.00    -0.205 F 
HETATM   20  C23 UNL     1      32.007  30.039  20.112  1.00  0.00     0.018 A 
HETATM   21  C25 UNL     1      31.016  30.987  18.056  1.00  0.00     0.051 C 
ENDBRANCH  12  13
ENDBRANCH   1  12
BRANCH   2  22
HETATM   22  N2  UNL     1      35.766  27.978  21.495  1.00  0.00    -0.216 N 
HETATM   23  C7  UNL     1      37.022  27.520  20.944  1.00  0.00     0.155 C 
HETATM   24  C8  UNL     1      36.234  26.957  19.792  1.00  0.00     0.041 C 
HETATM   25  C9  UNL     1      36.855  26.906  18.470  1.00  0.00     0.246 C 
HETATM   26  C10 UNL     1      35.982  25.513  19.744  1.00  0.00     0.246 C 
HETATM   27  C11 UNL     1      35.193  27.923  20.124  1.00  0.00     0.155 C 
HETATM   28  N3  UNL     1      36.920  25.440  18.610  1.00  0.00    -0.073 N 
ATOM     29  H32 UNL     1      36.712  24.840  17.812  1.00  0.00     0.277 HD
ATOM     30  H31 UNL     1      37.822  24.977  18.722  1.00  0.00     0.277 HD
ENDBRANCH   2  22
BRANCH   6  31
HETATM   31  N5  UNL     1      36.691  28.795  26.767  1.00  0.00    -0.376 N 
HETATM   32  C14 UNL     1      36.959  27.872  27.849  1.00  0.00     0.153 C 
HETATM   33  C15 UNL     1      38.458  27.767  27.981  1.00  0.00     0.291 C 
HETATM   34  N6  UNL     1      39.121  27.500  26.727  1.00  0.00     0.087 N 
HETATM   35  C16 UNL     1      40.557  27.573  26.939  1.00  0.00     0.310 C 
HETATM   36  C17 UNL     1      38.768  28.401  25.669  1.00  0.00     0.291 C 
HETATM   37  C18 UNL     1      37.866  29.480  26.211  1.00  0.00     0.153 C 
ENDBRANCH   6  31
TORSDOF 4
ENDMDL
