MODEL 3
REMARK VINA RESULT: -9.730608882      2.614      5.244
REMARK  4 active torsions:
REMARK  status: ('A' for Active; 'I' for Inactive)
REMARK    1  A    between atoms: C4_4  and  C5_5 
REMARK    2  A    between atoms: C5_5  and  N1_6 
REMARK    3  A    between atoms: C6_7  and  N2_8 
REMARK    4  A    between atoms: C13_20  and  N5_21 
ROOT
HETATM    1  N1  UNL     1      34.693  28.587  22.621  1.00  0.00    -0.177 N 
HETATM    2  C6  UNL     1      35.302  28.861  23.774  1.00  0.00     0.684 A 
HETATM    3  N4  UNL     1      36.607  28.489  23.641  1.00  0.00    -0.187 N 
ATOM      4  H4  UNL     1      37.309  28.587  24.375  1.00  0.00     0.184 HD
HETATM    5  C12 UNL     1      36.848  27.986  22.446  1.00  0.00     0.103 A 
HETATM    6  C13 UNL     1      37.997  27.480  21.851  1.00  0.00     0.061 A 
HETATM    7  C19 UNL     1      37.884  27.025  20.551  1.00  0.00     0.055 A 
HETATM    8  C20 UNL     1      36.663  27.077  19.877  1.00  0.00     0.038 A 
HETATM    9 CL1  UNL     1      36.572  26.487  18.227  1.00  0.00    -0.084 Cl
HETATM   10  C21 UNL     1      35.537  27.585  20.489  1.00  0.00     0.056 A 
HETATM   11  C22 UNL     1      35.631  28.042  21.782  1.00  0.00     0.083 A 
ENDROOT
BRANCH   1  12
HETATM   12  C5  UNL     1      33.321  28.866  22.312  1.00  0.00     0.186 C 
BRANCH  12  13
HETATM   13  C4  UNL     1      33.087  30.031  21.471  1.00  0.00    -0.038 A 
HETATM   14  C3  UNL     1      33.503  31.304  21.744  1.00  0.00     0.018 A 
HETATM   15  C2  UNL     1      33.218  32.368  20.876  1.00  0.00    -0.022 A 
HETATM   16  C1  UNL     1      33.692  33.734  21.217  1.00  0.00     0.051 C 
HETATM   17  C26 UNL     1      32.505  32.146  19.718  1.00  0.00     0.128 A 
HETATM   18  C24 UNL     1      32.083  30.888  19.429  1.00  0.00    -0.022 A 
HETATM   19  F1  UNL     1      32.232  33.174  18.886  1.00  0.00    -0.205 F 
HETATM   20  C23 UNL     1      32.372  29.860  20.292  1.00  0.00     0.018 A 
HETATM   21  C25 UNL     1      31.304  30.583  18.183  1.00  0.00     0.051 C 
ENDBRANCH  12  13
ENDBRANCH   1  12
BRANCH   2  22
HETATM   22  N2  UNL     1      34.785  29.381  24.998  1.00  0.00    -0.216 N 
HETATM   23  C7  UNL     1      34.426  30.631  25.631  1.00  0.00     0.155 C 
HETATM   24  C8  UNL     1      33.540  29.833  26.550  1.00  0.00     0.041 C 
HETATM   25  C9  UNL     1      33.333  30.307  27.917  1.00  0.00     0.246 C 
HETATM   26  C10 UNL     1      32.092  29.833  26.316  1.00  0.00     0.246 C 
HETATM   27  C11 UNL     1      34.382  28.682  26.246  1.00  0.00     0.155 C 
HETATM   28  N3  UNL     1      31.948  30.641  27.539  1.00  0.00    -0.073 N 
ATOM     29  H32 UNL     1      31.182  30.456  28.187  1.00  0.00     0.277 HD
ATOM     30  H31 UNL     1      31.657  31.616  27.476  1.00  0.00     0.277 HD
ENDBRANCH   2  22
BRANCH   6  31
HETATM   31  N5  UNL     1      39.217  27.441  22.566  1.00  0.00    -0.376 N 
HETATM   32  C14 UNL     1      40.206  28.498  22.549  1.00  0.00     0.153 C 
HETATM   33  C15 UNL     1      41.261  28.136  23.564  1.00  0.00     0.291 C 
HETATM   34  N6  UNL     1      40.712  27.787  24.853  1.00  0.00     0.087 N 
HETATM   35  C16 UNL     1      41.792  27.309  25.700  1.00  0.00     0.310 C 
HETATM   36  C17 UNL     1      39.688  26.785  24.807  1.00  0.00     0.291 C 
HETATM   37  C18 UNL     1      39.549  26.275  23.396  1.00  0.00     0.153 C 
ENDBRANCH   6  31
TORSDOF 4
ENDMDL
