MODEL 4
REMARK VINA RESULT: -11.287095510      0.109      2.009
REMARK  4 active torsions:
REMARK  status: ('A' for Active; 'I' for Inactive)
REMARK    1  A    between atoms: C4_4  and  C5_5 
REMARK    2  A    between atoms: C5_5  and  N1_6 
REMARK    3  A    between atoms: C6_7  and  N2_8 
REMARK    4  A    between atoms: C13_20  and  C14_21 
ROOT
HETATM    1  N1  UNL     1      34.255  29.068  22.640  1.00  0.00    -0.177 N 
HETATM    2  C6  UNL     1      35.549  28.782  22.461  1.00  0.00     0.683 A 
HETATM    3  N4  UNL     1      36.187  29.032  23.635  1.00  0.00    -0.188 N 
ATOM      4  H4  UNL     1      37.187  28.901  23.791  1.00  0.00     0.184 HD
HETATM    5  C12 UNL     1      35.325  29.474  24.560  1.00  0.00     0.088 A 
HETATM    6  C13 UNL     1      35.472  29.866  25.896  1.00  0.00     0.009 A 
HETATM    7  C19 UNL     1      34.377  30.283  26.592  1.00  0.00     0.038 A 
HETATM    8  C20 UNL     1      33.142  30.322  26.002  1.00  0.00     0.037 A 
HETATM    9 CL1  UNL     1      31.721  30.858  26.890  1.00  0.00    -0.084 Cl
HETATM   10  C21 UNL     1      33.035  29.926  24.681  1.00  0.00     0.056 A 
HETATM   11  C22 UNL     1      34.105  29.493  23.919  1.00  0.00     0.082 A 
ENDROOT
BRANCH   1  12
HETATM   12  C5  UNL     1      33.133  28.944  21.751  1.00  0.00     0.186 C 
BRANCH  12  13
HETATM   13  C4  UNL     1      32.843  30.153  20.957  1.00  0.00    -0.038 A 
HETATM   14  C3  UNL     1      33.435  31.347  21.285  1.00  0.00     0.018 A 
HETATM   15  C2  UNL     1      33.186  32.523  20.574  1.00  0.00    -0.022 A 
HETATM   16  C1  UNL     1      33.864  33.786  20.985  1.00  0.00     0.051 C 
HETATM   17  C26 UNL     1      32.323  32.478  19.518  1.00  0.00     0.128 A 
HETATM   18  C24 UNL     1      31.707  31.310  19.152  1.00  0.00    -0.022 A 
HETATM   19  F1  UNL     1      32.085  33.627  18.831  1.00  0.00    -0.205 F 
HETATM   20  C23 UNL     1      31.987  30.153  19.894  1.00  0.00     0.018 A 
HETATM   21  C25 UNL     1      30.774  31.283  18.000  1.00  0.00     0.051 C 
ENDBRANCH  12  13
ENDBRANCH   1  12
BRANCH   2  22
HETATM   22  N2  UNL     1      36.150  28.354  21.245  1.00  0.00    -0.216 N 
HETATM   23  C7  UNL     1      37.435  28.034  20.669  1.00  0.00     0.155 C 
HETATM   24  C8  UNL     1      36.676  27.257  19.623  1.00  0.00     0.041 A 
HETATM   25  C9  UNL     1      37.214  27.241  18.254  1.00  0.00     0.246 A 
HETATM   26  C10 UNL     1      36.665  25.792  19.683  1.00  0.00     0.246 A 
HETATM   27  C11 UNL     1      35.478  28.050  19.952  1.00  0.00     0.155 C 
HETATM   28  N3  UNL     1      37.324  25.776  18.364  1.00  0.00    -0.073 N 
ATOM     29  H32 UNL     1      36.946  25.187  17.622  1.00  0.00     0.277 HD
ATOM     30  H31 UNL     1      38.237  25.333  18.266  1.00  0.00     0.277 HD
ENDBRANCH   2  22
BRANCH   6  31
HETATM   31  C14 UNL     1      36.807  29.814  26.496  1.00  0.00     0.024 A 
HETATM   32  C15 UNL     1      37.767  30.801  26.397  1.00  0.00     0.035 A 
HETATM   33  C16 UNL     1      37.649  32.095  25.675  1.00  0.00     0.070 C 
HETATM   34  N5  UNL     1      38.824  30.320  27.101  1.00  0.00    -0.304 N 
HETATM   35  N6  UNL     1      38.539  29.131  27.596  1.00  0.00    -0.304 N 
ATOM     36  H5  UNL     1      39.710  30.808  27.228  1.00  0.00     0.186 HD
HETATM   37  C17 UNL     1      37.296  28.753  27.257  1.00  0.00     0.035 A 
ATOM     38  H6  UNL     1      39.179  28.573  28.161  1.00  0.00     0.186 HD
HETATM   39  C18 UNL     1      36.545  27.527  27.570  1.00  0.00     0.070 C 
ENDBRANCH   6  31
TORSDOF 4
ENDMDL
