MODEL 2
REMARK VINA RESULT: -11.383246232      0.033      1.384
REMARK  4 active torsions:
REMARK  status: ('A' for Active; 'I' for Inactive)
REMARK    1  A    between atoms: C4_4  and  C5_5 
REMARK    2  A    between atoms: C5_5  and  N1_6 
REMARK    3  A    between atoms: C6_7  and  N2_8 
REMARK    4  A    between atoms: C13_20  and  C14_21 
ROOT
HETATM    1  N1  UNL     1      34.262  29.074  22.642  1.00  0.00    -0.177 N 
HETATM    2  C6  UNL     1      35.550  28.759  22.470  1.00  0.00     0.683 A 
HETATM    3  N4  UNL     1      36.182  28.968  23.656  1.00  0.00    -0.188 N 
ATOM      4  H4  UNL     1      37.177  28.808  23.819  1.00  0.00     0.184 HD
HETATM    5  C12 UNL     1      35.322  29.413  24.581  1.00  0.00     0.088 A 
HETATM    6  C13 UNL     1      35.464  29.773  25.926  1.00  0.00     0.009 A 
HETATM    7  C19 UNL     1      34.373  30.203  26.620  1.00  0.00     0.038 A 
HETATM    8  C20 UNL     1      33.145  30.287  26.018  1.00  0.00     0.037 A 
HETATM    9 CL1  UNL     1      31.730  30.841  26.903  1.00  0.00    -0.084 Cl
HETATM   10  C21 UNL     1      33.043  29.921  24.687  1.00  0.00     0.056 A 
HETATM   11  C22 UNL     1      34.110  29.477  23.928  1.00  0.00     0.082 A 
ENDROOT
BRANCH   1  12
HETATM   12  C5  UNL     1      33.147  28.998  21.739  1.00  0.00     0.186 C 
BRANCH  12  13
HETATM   13  C4  UNL     1      32.879  30.239  20.988  1.00  0.00    -0.038 A 
HETATM   14  C3  UNL     1      32.023  30.218  19.914  1.00  0.00     0.018 A 
HETATM   15  C2  UNL     1      31.744  31.362  19.162  1.00  0.00    -0.022 A 
HETATM   16  C1  UNL     1      30.804  31.269  18.009  1.00  0.00     0.051 C 
HETATM   17  C26 UNL     1      32.347  32.537  19.510  1.00  0.00     0.128 A 
HETATM   18  C24 UNL     1      33.208  32.607  20.572  1.00  0.00    -0.022 A 
HETATM   19  F1  UNL     1      32.070  33.645  18.772  1.00  0.00    -0.205 F 
HETATM   20  C23 UNL     1      33.459  31.434  21.300  1.00  0.00     0.018 A 
HETATM   21  C25 UNL     1      33.850  33.893  20.934  1.00  0.00     0.051 C 
ENDBRANCH  12  13
ENDBRANCH   1  12
BRANCH   2  22
HETATM   22  N2  UNL     1      36.154  28.341  21.252  1.00  0.00    -0.216 N 
HETATM   23  C7  UNL     1      37.440  28.031  20.673  1.00  0.00     0.155 C 
HETATM   24  C8  UNL     1      36.685  27.255  19.624  1.00  0.00     0.041 A 
HETATM   25  C9  UNL     1      37.223  27.250  18.254  1.00  0.00     0.246 A 
HETATM   26  C10 UNL     1      36.682  25.790  19.676  1.00  0.00     0.246 A 
HETATM   27  C11 UNL     1      35.483  28.040  19.957  1.00  0.00     0.155 C 
HETATM   28  N3  UNL     1      37.341  25.784  18.357  1.00  0.00    -0.073 N 
ATOM     29  H32 UNL     1      36.965  25.198  17.611  1.00  0.00     0.277 HD
ATOM     30  H31 UNL     1      38.256  25.347  18.256  1.00  0.00     0.277 HD
ENDBRANCH   2  22
BRANCH   6  31
HETATM   31  C14 UNL     1      36.791  29.674  26.539  1.00  0.00     0.024 A 
HETATM   32  C15 UNL     1      37.777  30.638  26.471  1.00  0.00     0.035 A 
HETATM   33  C16 UNL     1      37.699  31.950  25.775  1.00  0.00     0.070 C 
HETATM   34  N5  UNL     1      38.814  30.116  27.175  1.00  0.00    -0.304 N 
HETATM   35  N6  UNL     1      38.494  28.925  27.641  1.00  0.00    -0.304 N 
ATOM     36  H5  UNL     1      39.710  30.578  27.322  1.00  0.00     0.186 HD
HETATM   37  C17 UNL     1      37.245  28.586  27.282  1.00  0.00     0.035 A 
ATOM     38  H6  UNL     1      39.113  28.338  28.201  1.00  0.00     0.186 HD
HETATM   39  C18 UNL     1      36.459  27.372  27.561  1.00  0.00     0.070 C 
ENDBRANCH   6  31
TORSDOF 4
ENDMDL
