MODEL 7
REMARK VINA RESULT: -8.984362438      2.829      5.690
REMARK  4 active torsions:
REMARK  status: ('A' for Active; 'I' for Inactive)
REMARK    1  A    between atoms: C4_4  and  C5_5 
REMARK    2  A    between atoms: C5_5  and  N1_6 
REMARK    3  A    between atoms: C6_7  and  N2_8 
REMARK    4  A    between atoms: C13_20  and  C14_21 
ROOT
HETATM    1  N1  UNL     1      34.581  28.894  22.606  1.00  0.00    -0.177 N 
HETATM    2  C6  UNL     1      35.043  29.128  23.839  1.00  0.00     0.683 A 
HETATM    3  N4  UNL     1      36.387  28.926  23.815  1.00  0.00    -0.188 N 
ATOM      4  H4  UNL     1      37.004  29.035  24.620  1.00  0.00     0.184 HD
HETATM    5  C12 UNL     1      36.791  28.564  22.591  1.00  0.00     0.088 A 
HETATM    6  C13 UNL     1      38.043  28.244  22.052  1.00  0.00     0.009 A 
HETATM    7  C19 UNL     1      38.134  27.901  20.736  1.00  0.00     0.038 A 
HETATM    8  C20 UNL     1      37.020  27.867  19.940  1.00  0.00     0.037 A 
HETATM    9 CL1  UNL     1      37.124  27.426  18.240  1.00  0.00    -0.084 Cl
HETATM   10  C21 UNL     1      35.800  28.190  20.508  1.00  0.00     0.056 A 
HETATM   11  C22 UNL     1      35.640  28.546  21.834  1.00  0.00     0.082 A 
ENDROOT
BRANCH   1  12
HETATM   12  C5  UNL     1      33.255  29.001  22.063  1.00  0.00     0.186 C 
BRANCH  12  13
HETATM   13  C4  UNL     1      33.025  30.203  21.239  1.00  0.00    -0.038 A 
HETATM   14  C3  UNL     1      33.623  31.391  21.578  1.00  0.00     0.018 A 
HETATM   15  C2  UNL     1      33.429  32.561  20.839  1.00  0.00    -0.022 A 
HETATM   16  C1  UNL     1      34.111  33.817  21.264  1.00  0.00     0.051 C 
HETATM   17  C26 UNL     1      32.616  32.515  19.744  1.00  0.00     0.128 A 
HETATM   18  C24 UNL     1      31.997  31.353  19.366  1.00  0.00    -0.022 A 
HETATM   19  F1  UNL     1      32.431  33.658  19.031  1.00  0.00    -0.205 F 
HETATM   20  C23 UNL     1      32.219  30.203  20.137  1.00  0.00     0.018 A 
HETATM   21  C25 UNL     1      31.118  31.325  18.173  1.00  0.00     0.051 C 
ENDBRANCH  12  13
ENDBRANCH   1  12
BRANCH   2  22
HETATM   22  N2  UNL     1      34.258  29.468  24.976  1.00  0.00    -0.216 N 
HETATM   23  C7  UNL     1      34.085  29.140  26.371  1.00  0.00     0.155 C 
HETATM   24  C8  UNL     1      33.411  30.482  26.515  1.00  0.00     0.041 A 
HETATM   25  C9  UNL     1      32.295  30.591  27.466  1.00  0.00     0.246 A 
HETATM   26  C10 UNL     1      34.130  31.582  27.163  1.00  0.00     0.246 A 
HETATM   27  C11 UNL     1      33.164  30.474  25.061  1.00  0.00     0.155 C 
HETATM   28  N3  UNL     1      33.076  31.607  28.194  1.00  0.00    -0.073 N 
ATOM     29  H32 UNL     1      32.638  32.494  28.441  1.00  0.00     0.277 HD
ATOM     30  H31 UNL     1      33.325  31.444  29.169  1.00  0.00     0.277 HD
ENDBRANCH   2  22
BRANCH   6  31
HETATM   31  C14 UNL     1      39.214  28.289  22.930  1.00  0.00     0.024 A 
HETATM   32  C15 UNL     1      39.886  29.434  23.310  1.00  0.00     0.035 A 
HETATM   33  C16 UNL     1      39.566  30.831  22.913  1.00  0.00     0.070 C 
HETATM   34  N5  UNL     1      40.886  28.993  24.114  1.00  0.00    -0.304 N 
HETATM   35  N6  UNL     1      40.837  27.679  24.223  1.00  0.00    -0.304 N 
ATOM     36  H5  UNL     1      41.576  29.590  24.567  1.00  0.00     0.186 HD
HETATM   37  C17 UNL     1      39.818  27.174  23.510  1.00  0.00     0.035 A 
ATOM     38  H6  UNL     1      41.488  27.121  24.776  1.00  0.00     0.186 HD
HETATM   39  C18 UNL     1      39.368  25.784  23.325  1.00  0.00     0.070 C 
ENDBRANCH   6  31
TORSDOF 4
ENDMDL
