MODEL 5
REMARK VINA RESULT: -9.148412760      2.829      5.497
REMARK  4 active torsions:
REMARK  status: ('A' for Active; 'I' for Inactive)
REMARK    1  A    between atoms: C4_4  and  C5_5 
REMARK    2  A    between atoms: C5_5  and  N1_6 
REMARK    3  A    between atoms: C6_7  and  N2_8 
REMARK    4  A    between atoms: C13_20  and  C14_21 
ROOT
HETATM    1  N1  UNL     1      34.579  28.906  22.569  1.00  0.00    -0.177 N 
HETATM    2  C6  UNL     1      35.031  29.124  23.808  1.00  0.00     0.683 A 
HETATM    3  N4  UNL     1      36.373  28.905  23.797  1.00  0.00    -0.188 N 
ATOM      4  H4  UNL     1      36.983  28.998  24.609  1.00  0.00     0.184 HD
HETATM    5  C12 UNL     1      36.786  28.549  22.573  1.00  0.00     0.088 A 
HETATM    6  C13 UNL     1      38.039  28.219  22.044  1.00  0.00     0.009 A 
HETATM    7  C19 UNL     1      38.140  27.888  20.726  1.00  0.00     0.038 A 
HETATM    8  C20 UNL     1      37.034  27.874  19.918  1.00  0.00     0.037 A 
HETATM    9 CL1  UNL     1      37.151  27.448  18.215  1.00  0.00    -0.084 Cl
HETATM   10  C21 UNL     1      35.812  28.207  20.476  1.00  0.00     0.056 A 
HETATM   11  C22 UNL     1      35.642  28.553  21.804  1.00  0.00     0.082 A 
ENDROOT
BRANCH   1  12
HETATM   12  C5  UNL     1      33.260  29.035  22.012  1.00  0.00     0.186 C 
BRANCH  12  13
HETATM   13  C4  UNL     1      33.038  30.272  21.240  1.00  0.00    -0.038 A 
HETATM   14  C3  UNL     1      32.236  30.248  20.125  1.00  0.00     0.018 A 
HETATM   15  C2  UNL     1      32.002  31.387  19.352  1.00  0.00    -0.022 A 
HETATM   16  C1  UNL     1      31.119  31.291  18.154  1.00  0.00     0.051 C 
HETATM   17  C26 UNL     1      32.594  32.561  19.721  1.00  0.00     0.128 A 
HETATM   18  C24 UNL     1      33.402  32.634  20.824  1.00  0.00    -0.022 A 
HETATM   19  F1  UNL     1      32.361  33.665  18.962  1.00  0.00    -0.205 F 
HETATM   20  C23 UNL     1      33.609  31.466  21.572  1.00  0.00     0.018 A 
HETATM   21  C25 UNL     1      34.034  33.919  21.208  1.00  0.00     0.051 C 
ENDBRANCH  12  13
ENDBRANCH   1  12
BRANCH   2  22
HETATM   22  N2  UNL     1      34.238  29.462  24.940  1.00  0.00    -0.216 N 
HETATM   23  C7  UNL     1      34.047  29.123  26.331  1.00  0.00     0.155 C 
HETATM   24  C8  UNL     1      33.387  30.472  26.479  1.00  0.00     0.041 A 
HETATM   25  C9  UNL     1      32.262  30.586  27.420  1.00  0.00     0.246 A 
HETATM   26  C10 UNL     1      34.112  31.557  27.145  1.00  0.00     0.246 A 
HETATM   27  C11 UNL     1      33.155  30.480  25.023  1.00  0.00     0.155 C 
HETATM   28  N3  UNL     1      33.048  31.585  28.165  1.00  0.00    -0.073 N 
ATOM     29  H32 UNL     1      32.617  32.476  28.416  1.00  0.00     0.277 HD
ATOM     30  H31 UNL     1      33.284  31.411  29.141  1.00  0.00     0.277 HD
ENDBRANCH   2  22
BRANCH   6  31
HETATM   31  C14 UNL     1      39.201  28.241  22.935  1.00  0.00     0.024 A 
HETATM   32  C15 UNL     1      39.882  29.375  23.333  1.00  0.00     0.035 A 
HETATM   33  C16 UNL     1      39.583  30.779  22.947  1.00  0.00     0.070 C 
HETATM   34  N5  UNL     1      40.869  28.914  24.143  1.00  0.00    -0.304 N 
HETATM   35  N6  UNL     1      40.803  27.600  24.239  1.00  0.00    -0.304 N 
ATOM     36  H5  UNL     1      41.561  29.499  24.610  1.00  0.00     0.186 HD
HETATM   37  C17 UNL     1      39.785  27.114  23.510  1.00  0.00     0.035 A 
ATOM     38  H6  UNL     1      41.441  27.028  24.793  1.00  0.00     0.186 HD
HETATM   39  C18 UNL     1      39.322  25.732  23.307  1.00  0.00     0.070 C 
ENDBRANCH   6  31
TORSDOF 4
ENDMDL
