MODEL 1
REMARK VINA RESULT: -11.387418775      0.000      0.000
REMARK  4 active torsions:
REMARK  status: ('A' for Active; 'I' for Inactive)
REMARK    1  A    between atoms: C4_4  and  C5_5 
REMARK    2  A    between atoms: C5_5  and  N1_6 
REMARK    3  A    between atoms: C6_7  and  N2_8 
REMARK    4  A    between atoms: C13_20  and  C14_21 
ROOT
HETATM    1  N1  UNL     1      34.275  29.062  22.662  1.00  0.00    -0.177 N 
HETATM    2  C6  UNL     1      35.563  28.746  22.490  1.00  0.00     0.683 A 
HETATM    3  N4  UNL     1      36.195  28.952  23.677  1.00  0.00    -0.188 N 
ATOM      4  H4  UNL     1      37.189  28.791  23.841  1.00  0.00     0.184 HD
HETATM    5  C12 UNL     1      35.334  29.397  24.602  1.00  0.00     0.088 A 
HETATM    6  C13 UNL     1      35.476  29.755  25.947  1.00  0.00     0.009 A 
HETATM    7  C19 UNL     1      34.384  30.186  26.641  1.00  0.00     0.038 A 
HETATM    8  C20 UNL     1      33.157  30.271  26.038  1.00  0.00     0.037 A 
HETATM    9 CL1  UNL     1      31.741  30.825  26.922  1.00  0.00    -0.084 Cl
HETATM   10  C21 UNL     1      33.056  29.908  24.707  1.00  0.00     0.056 A 
HETATM   11  C22 UNL     1      34.122  29.463  23.948  1.00  0.00     0.082 A 
ENDROOT
BRANCH   1  12
HETATM   12  C5  UNL     1      33.161  28.988  21.757  1.00  0.00     0.186 C 
BRANCH  12  13
HETATM   13  C4  UNL     1      32.895  30.230  21.008  1.00  0.00    -0.038 A 
HETATM   14  C3  UNL     1      32.039  30.212  19.933  1.00  0.00     0.018 A 
HETATM   15  C2  UNL     1      31.762  31.356  19.182  1.00  0.00    -0.022 A 
HETATM   16  C1  UNL     1      30.823  31.266  18.028  1.00  0.00     0.051 C 
HETATM   17  C26 UNL     1      32.365  32.530  19.533  1.00  0.00     0.128 A 
HETATM   18  C24 UNL     1      33.226  32.598  20.596  1.00  0.00    -0.022 A 
HETATM   19  F1  UNL     1      32.091  33.639  18.796  1.00  0.00    -0.205 F 
HETATM   20  C23 UNL     1      33.475  31.424  21.322  1.00  0.00     0.018 A 
HETATM   21  C25 UNL     1      33.869  33.883  20.960  1.00  0.00     0.051 C 
ENDBRANCH  12  13
ENDBRANCH   1  12
BRANCH   2  22
HETATM   22  N2  UNL     1      36.168  28.328  21.272  1.00  0.00    -0.216 N 
HETATM   23  C7  UNL     1      37.453  28.006  20.697  1.00  0.00     0.155 C 
HETATM   24  C8  UNL     1      36.693  27.247  19.639  1.00  0.00     0.041 A 
HETATM   25  C9  UNL     1      37.236  27.245  18.272  1.00  0.00     0.246 A 
HETATM   26  C10 UNL     1      36.671  25.783  19.680  1.00  0.00     0.246 A 
HETATM   27  C11 UNL     1      35.499  28.046  19.972  1.00  0.00     0.155 C 
HETATM   28  N3  UNL     1      37.336  25.777  18.364  1.00  0.00    -0.073 N 
ATOM     29  H32 UNL     1      36.957  25.201  17.613  1.00  0.00     0.277 HD
ATOM     30  H31 UNL     1      38.246  25.329  18.264  1.00  0.00     0.277 HD
ENDBRANCH   2  22
BRANCH   6  31
HETATM   31  C14 UNL     1      36.801  29.654  26.561  1.00  0.00     0.024 A 
HETATM   32  C15 UNL     1      37.265  28.576  27.289  1.00  0.00     0.035 A 
HETATM   33  C16 UNL     1      36.530  27.320  27.594  1.00  0.00     0.070 C 
HETATM   34  N5  UNL     1      38.525  28.926  27.653  1.00  0.00    -0.304 N 
HETATM   35  N6  UNL     1      38.817  30.125  27.187  1.00  0.00    -0.304 N 
ATOM     36  H5  UNL     1      39.155  28.346  28.206  1.00  0.00     0.186 HD
HETATM   37  C17 UNL     1      37.786  30.638  26.496  1.00  0.00     0.035 A 
ATOM     38  H6  UNL     1      39.708  30.600  27.332  1.00  0.00     0.186 HD
HETATM   39  C18 UNL     1      37.640  31.927  25.801  1.00  0.00     0.070 C 
ENDBRANCH   6  31
TORSDOF 4
ENDMDL
