MODEL 6
REMARK VINA RESULT: -9.021766198      3.107      6.731
REMARK  4 active torsions:
REMARK  status: ('A' for Active; 'I' for Inactive)
REMARK    1  A    between atoms: C4_4  and  C5_5 
REMARK    2  A    between atoms: C5_5  and  N1_6 
REMARK    3  A    between atoms: C6_7  and  N2_8 
REMARK    4  A    between atoms: C13_20  and  C14_21 
ROOT
HETATM    1  N1  UNL     1      34.624  28.706  21.953  1.00  0.00    -0.177 N 
HETATM    2  C6  UNL     1      34.234  28.647  20.675  1.00  0.00     0.683 A 
HETATM    3  N4  UNL     1      35.158  27.909  20.002  1.00  0.00    -0.188 N 
ATOM      4  H4  UNL     1      35.116  27.698  19.005  1.00  0.00     0.184 HD
HETATM    5  C12 UNL     1      36.131  27.499  20.826  1.00  0.00     0.088 A 
HETATM    6  C13 UNL     1      37.288  26.736  20.635  1.00  0.00     0.009 A 
HETATM    7  C19 UNL     1      38.104  26.485  21.698  1.00  0.00     0.038 A 
HETATM    8  C20 UNL     1      37.805  26.970  22.944  1.00  0.00     0.037 A 
HETATM    9 CL1  UNL     1      38.850  26.653  24.323  1.00  0.00    -0.084 Cl
HETATM   10  C21 UNL     1      36.652  27.720  23.094  1.00  0.00     0.056 A 
HETATM   11  C22 UNL     1      35.783  28.009  22.058  1.00  0.00     0.082 A 
ENDROOT
BRANCH   1  12
HETATM   12  C5  UNL     1      34.002  29.312  23.098  1.00  0.00     0.186 C 
BRANCH  12  13
HETATM   13  C4  UNL     1      34.816  30.347  23.763  1.00  0.00    -0.038 A 
HETATM   14  C3  UNL     1      35.247  31.441  23.052  1.00  0.00     0.018 A 
HETATM   15  C2  UNL     1      36.030  32.443  23.630  1.00  0.00    -0.022 A 
HETATM   16  C1  UNL     1      36.463  33.603  22.801  1.00  0.00     0.051 C 
HETATM   17  C26 UNL     1      36.374  32.327  24.946  1.00  0.00     0.128 A 
HETATM   18  C24 UNL     1      35.968  31.255  25.696  1.00  0.00    -0.022 A 
HETATM   19  F1  UNL     1      37.137  33.306  25.500  1.00  0.00    -0.205 F 
HETATM   20  C23 UNL     1      35.184  30.271  25.075  1.00  0.00     0.018 A 
HETATM   21  C25 UNL     1      36.353  31.149  27.123  1.00  0.00     0.051 C 
ENDBRANCH  12  13
ENDBRANCH   1  12
BRANCH   2  22
HETATM   22  N2  UNL     1      33.095  29.289  20.117  1.00  0.00    -0.216 N 
HETATM   23  C7  UNL     1      31.821  29.859  20.488  1.00  0.00     0.155 C 
HETATM   24  C8  UNL     1      31.881  30.622  19.189  1.00  0.00     0.041 A 
HETATM   25  C9  UNL     1      30.617  30.867  18.477  1.00  0.00     0.246 A 
HETATM   26  C10 UNL     1      32.197  32.053  19.210  1.00  0.00     0.246 A 
HETATM   27  C11 UNL     1      32.846  29.627  18.689  1.00  0.00     0.155 C 
HETATM   28  N3  UNL     1      30.874  32.312  18.614  1.00  0.00    -0.073 N 
ATOM     29  H32 UNL     1      30.802  32.914  17.794  1.00  0.00     0.277 HD
ATOM     30  H31 UNL     1      30.203  32.894  19.115  1.00  0.00     0.277 HD
ENDBRANCH   2  22
BRANCH   6  31
HETATM   31  C14 UNL     1      37.580  26.234  19.291  1.00  0.00     0.024 A 
HETATM   32  C15 UNL     1      36.978  25.142  18.697  1.00  0.00     0.035 A 
HETATM   33  C16 UNL     1      35.930  24.267  19.287  1.00  0.00     0.070 C 
HETATM   34  N5  UNL     1      37.557  25.057  17.472  1.00  0.00    -0.304 N 
HETATM   35  N6  UNL     1      38.445  26.020  17.321  1.00  0.00    -0.304 N 
ATOM     36  H5  UNL     1      37.336  24.351  16.770  1.00  0.00     0.186 HD
HETATM   37  C17 UNL     1      38.512  26.792  18.418  1.00  0.00     0.035 A 
ATOM     38  H6  UNL     1      39.008  26.160  16.481  1.00  0.00     0.186 HD
HETATM   39  C18 UNL     1      39.343  27.969  18.717  1.00  0.00     0.070 C 
ENDBRANCH   6  31
TORSDOF 4
ENDMDL
