MODEL 3
REMARK VINA RESULT: -11.313200987      0.107      1.456
REMARK  4 active torsions:
REMARK  status: ('A' for Active; 'I' for Inactive)
REMARK    1  A    between atoms: C4_4  and  C5_5 
REMARK    2  A    between atoms: C5_5  and  N1_6 
REMARK    3  A    between atoms: C6_7  and  N2_8 
REMARK    4  A    between atoms: C13_20  and  C14_21 
ROOT
HETATM    1  N1  UNL     1      34.252  29.067  22.646  1.00  0.00    -0.177 N 
HETATM    2  C6  UNL     1      35.546  28.780  22.468  1.00  0.00     0.683 A 
HETATM    3  N4  UNL     1      36.183  29.027  23.644  1.00  0.00    -0.188 N 
ATOM      4  H4  UNL     1      37.182  28.895  23.801  1.00  0.00     0.184 HD
HETATM    5  C12 UNL     1      35.319  29.469  24.568  1.00  0.00     0.088 A 
HETATM    6  C13 UNL     1      35.465  29.859  25.904  1.00  0.00     0.009 A 
HETATM    7  C19 UNL     1      34.369  30.276  26.599  1.00  0.00     0.038 A 
HETATM    8  C20 UNL     1      33.135  30.318  26.007  1.00  0.00     0.037 A 
HETATM    9 CL1  UNL     1      31.713  30.854  26.893  1.00  0.00    -0.084 Cl
HETATM   10  C21 UNL     1      33.030  29.924  24.685  1.00  0.00     0.056 A 
HETATM   11  C22 UNL     1      34.101  29.490  23.925  1.00  0.00     0.082 A 
ENDROOT
BRANCH   1  12
HETATM   12  C5  UNL     1      33.132  28.945  21.754  1.00  0.00     0.186 C 
BRANCH  12  13
HETATM   13  C4  UNL     1      32.844  30.155  20.960  1.00  0.00    -0.038 A 
HETATM   14  C3  UNL     1      33.439  31.348  21.291  1.00  0.00     0.018 A 
HETATM   15  C2  UNL     1      33.192  32.525  20.580  1.00  0.00    -0.022 A 
HETATM   16  C1  UNL     1      33.872  33.786  20.993  1.00  0.00     0.051 C 
HETATM   17  C26 UNL     1      32.330  32.482  19.522  1.00  0.00     0.128 A 
HETATM   18  C24 UNL     1      31.713  31.316  19.155  1.00  0.00    -0.022 A 
HETATM   19  F1  UNL     1      32.095  33.632  18.837  1.00  0.00    -0.205 F 
HETATM   20  C23 UNL     1      31.990  30.157  19.897  1.00  0.00     0.018 A 
HETATM   21  C25 UNL     1      30.781  31.291  18.002  1.00  0.00     0.051 C 
ENDBRANCH  12  13
ENDBRANCH   1  12
BRANCH   2  22
HETATM   22  N2  UNL     1      36.149  28.352  21.253  1.00  0.00    -0.216 N 
HETATM   23  C7  UNL     1      37.434  28.029  20.679  1.00  0.00     0.155 C 
HETATM   24  C8  UNL     1      36.675  27.257  19.629  1.00  0.00     0.041 A 
HETATM   25  C9  UNL     1      37.216  27.243  18.262  1.00  0.00     0.246 A 
HETATM   26  C10 UNL     1      36.658  25.793  19.686  1.00  0.00     0.246 A 
HETATM   27  C11 UNL     1      35.479  28.055  19.957  1.00  0.00     0.155 C 
HETATM   28  N3  UNL     1      37.321  25.777  18.368  1.00  0.00    -0.073 N 
ATOM     29  H32 UNL     1      36.942  25.191  17.624  1.00  0.00     0.277 HD
ATOM     30  H31 UNL     1      38.232  25.331  18.271  1.00  0.00     0.277 HD
ENDBRANCH   2  22
BRANCH   6  31
HETATM   31  C14 UNL     1      36.798  29.805  26.507  1.00  0.00     0.024 A 
HETATM   32  C15 UNL     1      37.296  28.755  27.253  1.00  0.00     0.035 A 
HETATM   33  C16 UNL     1      36.597  27.488  27.592  1.00  0.00     0.070 C 
HETATM   34  N5  UNL     1      38.550  29.145  27.596  1.00  0.00    -0.304 N 
HETATM   35  N6  UNL     1      38.807  30.341  27.102  1.00  0.00    -0.304 N 
ATOM     36  H5  UNL     1      39.200  28.593  28.156  1.00  0.00     0.186 HD
HETATM   37  C17 UNL     1      37.757  30.812  26.411  1.00  0.00     0.035 A 
ATOM     38  H6  UNL     1      39.687  30.841  27.228  1.00  0.00     0.186 HD
HETATM   39  C18 UNL     1      37.572  32.082  25.689  1.00  0.00     0.070 C 
ENDBRANCH   6  31
TORSDOF 4
ENDMDL
