MODEL 3
REMARK VINA RESULT: -10.208389198      0.763      1.533
REMARK  6 active torsions:
REMARK  status: ('A' for Active; 'I' for Inactive)
REMARK    1  A    between atoms: C4_4  and  C5_5 
REMARK    2  A    between atoms: C5_5  and  N1_6 
REMARK    3  A    between atoms: C6_7  and  N2_8 
REMARK    4  A    between atoms: C12_19  and  N5_20 
REMARK    5  A    between atoms: C16_24  and  C17_25 
REMARK    6  A    between atoms: C17_25  and  N6_26 
ROOT
HETATM    1  N1  UNL     1      33.909  28.832  22.925  1.00  0.00    -0.177 N 
HETATM    2  C6  UNL     1      35.145  28.420  22.617  1.00  0.00     0.684 A 
HETATM    3  N4  UNL     1      35.897  28.524  23.755  1.00  0.00    -0.187 N 
ATOM      4  H4  UNL     1      36.885  28.279  23.822  1.00  0.00     0.184 HD
HETATM    5  C11 UNL     1      35.169  28.984  24.756  1.00  0.00     0.103 A 
HETATM    6  C12 UNL     1      35.480  29.252  26.075  1.00  0.00     0.062 A 
HETATM    7  C18 UNL     1      34.456  29.736  26.863  1.00  0.00     0.055 A 
HETATM    8  C19 UNL     1      33.188  29.943  26.357  1.00  0.00     0.038 A 
HETATM    9 CL1  UNL     1      31.922  30.563  27.399  1.00  0.00    -0.084 Cl
HETATM   10  C20 UNL     1      32.884  29.673  25.041  1.00  0.00     0.056 A 
HETATM   11  C21 UNL     1      33.887  29.186  24.228  1.00  0.00     0.083 A 
ENDROOT
BRANCH   1  12
HETATM   12  C5  UNL     1      32.787  28.889  22.032  1.00  0.00     0.186 C 
BRANCH  12  13
HETATM   13  C4  UNL     1      32.675  30.148  21.260  1.00  0.00    -0.038 A 
HETATM   14  C3  UNL     1      31.927  30.165  20.105  1.00  0.00     0.018 A 
HETATM   15  C2  UNL     1      31.802  31.335  19.339  1.00  0.00    -0.022 A 
HETATM   16  C1  UNL     1      30.978  31.308  18.094  1.00  0.00     0.051 C 
HETATM   17  C25 UNL     1      32.460  32.444  19.800  1.00  0.00     0.128 A 
HETATM   18  C23 UNL     1      33.215  32.436  20.961  1.00  0.00    -0.022 A 
HETATM   19  F1  UNL     1      32.344  33.577  19.065  1.00  0.00    -0.205 F 
HETATM   20  C22 UNL     1      33.321  31.279  21.695  1.00  0.00     0.018 A 
HETATM   21  C24 UNL     1      33.912  33.703  21.392  1.00  0.00     0.051 C 
ENDBRANCH  12  13
ENDBRANCH   1  12
BRANCH   2  22
HETATM   22  N2  UNL     1      35.719  27.939  21.415  1.00  0.00    -0.214 N 
HETATM   23  C7  UNL     1      36.725  26.892  21.398  1.00  0.00     0.168 C 
HETATM   24  C8  UNL     1      37.879  27.420  20.542  1.00  0.00     0.252 C 
HETATM   25  N3  UNL     1      37.433  27.673  19.186  1.00  0.00    -0.072 N 
HETATM   26  C9  UNL     1      35.990  27.618  19.060  1.00  0.00     0.252 C 
ATOM     27  H32 UNL     1      37.800  28.558  18.838  1.00  0.00     0.277 HD
ATOM     28  H31 UNL     1      37.884  27.039  18.526  1.00  0.00     0.277 HD
HETATM   29  C10 UNL     1      35.342  28.478  20.109  1.00  0.00     0.168 C 
ENDBRANCH   2  22
BRANCH   6  30
HETATM   30  N5  UNL     1      36.794  29.011  26.539  1.00  0.00    -0.372 N 
HETATM   31  C13 UNL     1      37.659  30.100  27.022  1.00  0.00     0.123 C 
HETATM   32  C14 UNL     1      39.032  29.539  27.159  1.00  0.00     0.022 C 
HETATM   33  C15 UNL     1      38.959  28.265  26.345  1.00  0.00     0.028 C 
HETATM   34  C16 UNL     1      37.531  27.807  26.647  1.00  0.00     0.110 C 
BRANCH  34  35
HETATM   35  C17 UNL     1      37.526  27.152  27.997  1.00  0.00     0.254 C 
BRANCH  35  36
HETATM   36  N6  UNL     1      36.689  26.003  28.119  1.00  0.00    -0.077 N 
ATOM     37  H63 UNL     1      37.213  25.162  27.878  1.00  0.00     0.274 HD
ATOM     38  H62 UNL     1      36.492  25.818  29.103  1.00  0.00     0.274 HD
ATOM     39  H61 UNL     1      35.818  26.036  27.589  1.00  0.00     0.274 HD
ENDBRANCH  35  36
ENDBRANCH  34  35
ENDBRANCH   6  30
TORSDOF 6
ENDMDL
