MODEL 4
REMARK VINA RESULT: -10.203675428      0.967      2.206
REMARK  6 active torsions:
REMARK  status: ('A' for Active; 'I' for Inactive)
REMARK    1  A    between atoms: C4_4  and  C5_5 
REMARK    2  A    between atoms: C5_5  and  N1_6 
REMARK    3  A    between atoms: C6_7  and  N2_8 
REMARK    4  A    between atoms: C12_19  and  N5_20 
REMARK    5  A    between atoms: C16_24  and  C17_25 
REMARK    6  A    between atoms: C17_25  and  N6_26 
ROOT
HETATM    1  N1  UNL     1      34.097  28.918  22.936  1.00  0.00    -0.177 N 
HETATM    2  C6  UNL     1      35.334  28.562  22.571  1.00  0.00     0.684 A 
HETATM    3  N4  UNL     1      36.140  28.742  23.661  1.00  0.00    -0.187 N 
ATOM      4  H4  UNL     1      37.143  28.551  23.679  1.00  0.00     0.184 HD
HETATM    5  C11 UNL     1      35.445  29.195  24.688  1.00  0.00     0.103 A 
HETATM    6  C12 UNL     1      35.813  29.521  25.979  1.00  0.00     0.062 A 
HETATM    7  C18 UNL     1      34.810  29.976  26.809  1.00  0.00     0.055 A 
HETATM    8  C19 UNL     1      33.507  30.100  26.370  1.00  0.00     0.038 A 
HETATM    9 CL1  UNL     1      32.269  30.687  27.463  1.00  0.00    -0.084 Cl
HETATM   10  C20 UNL     1      33.146  29.773  25.081  1.00  0.00     0.056 A 
HETATM   11  C21 UNL     1      34.127  29.313  24.228  1.00  0.00     0.083 A 
ENDROOT
BRANCH   1  12
HETATM   12  C5  UNL     1      32.926  28.889  22.107  1.00  0.00     0.186 C 
BRANCH  12  13
HETATM   13  C4  UNL     1      32.737  30.089  21.261  1.00  0.00    -0.038 A 
HETATM   14  C3  UNL     1      33.327  31.276  21.635  1.00  0.00     0.018 A 
HETATM   15  C2  UNL     1      33.166  32.439  20.866  1.00  0.00    -0.022 A 
HETATM   16  C1  UNL     1      33.826  33.704  21.309  1.00  0.00     0.051 C 
HETATM   17  C25 UNL     1      32.399  32.329  19.738  1.00  0.00     0.128 A 
HETATM   18  C23 UNL     1      31.802  31.140  19.353  1.00  0.00    -0.022 A 
HETATM   19  F1  UNL     1      32.239  33.449  18.990  1.00  0.00    -0.205 F 
HETATM   20  C22 UNL     1      31.974  30.013  20.122  1.00  0.00     0.018 A 
HETATM   21  C24 UNL     1      30.967  31.109  18.098  1.00  0.00     0.051 C 
ENDBRANCH  12  13
ENDBRANCH   1  12
BRANCH   2  22
HETATM   22  N2  UNL     1      35.867  28.073  21.353  1.00  0.00    -0.214 N 
HETATM   23  C7  UNL     1      35.070  27.320  20.402  1.00  0.00     0.168 C 
HETATM   24  C8  UNL     1      35.869  26.055  20.080  1.00  0.00     0.252 C 
HETATM   25  N3  UNL     1      37.139  26.396  19.470  1.00  0.00    -0.072 N 
HETATM   26  C9  UNL     1      37.435  27.812  19.565  1.00  0.00     0.252 C 
ATOM     27  H32 UNL     1      37.896  25.835  19.861  1.00  0.00     0.277 HD
ATOM     28  H31 UNL     1      37.181  26.076  18.503  1.00  0.00     0.277 HD
HETATM   29  C10 UNL     1      37.265  28.286  20.981  1.00  0.00     0.168 C 
ENDBRANCH   2  22
BRANCH   6  30
HETATM   30  N5  UNL     1      37.162  29.364  26.375  1.00  0.00    -0.372 N 
HETATM   31  C13 UNL     1      38.184  30.380  26.072  1.00  0.00     0.123 C 
HETATM   32  C14 UNL     1      39.508  29.771  26.377  1.00  0.00     0.022 C 
HETATM   33  C15 UNL     1      39.194  28.292  26.442  1.00  0.00     0.028 C 
HETATM   34  C16 UNL     1      37.804  28.317  27.080  1.00  0.00     0.110 C 
BRANCH  34  35
HETATM   35  C17 UNL     1      37.971  28.525  28.556  1.00  0.00     0.254 C 
BRANCH  35  36
HETATM   36  N6  UNL     1      38.793  27.569  29.222  1.00  0.00    -0.077 N 
ATOM     37  H63 UNL     1      38.225  26.988  29.839  1.00  0.00     0.274 HD
ATOM     38  H62 UNL     1      39.117  26.865  28.559  1.00  0.00     0.274 HD
ATOM     39  H61 UNL     1      39.585  27.954  29.738  1.00  0.00     0.274 HD
ENDBRANCH  35  36
ENDBRANCH  34  35
ENDBRANCH   6  30
TORSDOF 6
ENDMDL
