MODEL 1
REMARK VINA RESULT: -10.499661766      0.000      0.000
REMARK  6 active torsions:
REMARK  status: ('A' for Active; 'I' for Inactive)
REMARK    1  A    between atoms: C4_4  and  C5_5 
REMARK    2  A    between atoms: C5_5  and  N1_6 
REMARK    3  A    between atoms: C6_7  and  N2_8 
REMARK    4  A    between atoms: C12_19  and  N5_20 
REMARK    5  A    between atoms: C16_24  and  C17_25 
REMARK    6  A    between atoms: C17_25  and  N6_26 
ROOT
HETATM    1  N1  UNL     1      33.969  28.858  23.033  1.00  0.00    -0.177 N 
HETATM    2  C6  UNL     1      35.227  28.472  22.789  1.00  0.00     0.684 A 
HETATM    3  N4  UNL     1      35.923  28.613  23.959  1.00  0.00    -0.187 N 
ATOM      4  H4  UNL     1      36.913  28.394  24.075  1.00  0.00     0.184 HD
HETATM    5  C11 UNL     1      35.139  29.072  24.917  1.00  0.00     0.103 A 
HETATM    6  C12 UNL     1      35.382  29.368  26.244  1.00  0.00     0.062 A 
HETATM    7  C18 UNL     1      34.311  29.840  26.975  1.00  0.00     0.055 A 
HETATM    8  C19 UNL     1      33.064  30.007  26.409  1.00  0.00     0.038 A 
HETATM    9 CL1  UNL     1      31.737  30.612  27.381  1.00  0.00    -0.084 Cl
HETATM   10  C20 UNL     1      32.827  29.708  25.085  1.00  0.00     0.056 A 
HETATM   11  C21 UNL     1      33.878  29.233  24.328  1.00  0.00     0.083 A 
ENDROOT
BRANCH   1  12
HETATM   12  C5  UNL     1      32.888  28.872  22.089  1.00  0.00     0.186 C 
BRANCH  12  13
HETATM   13  C4  UNL     1      32.760  30.130  21.317  1.00  0.00    -0.038 A 
HETATM   14  C3  UNL     1      31.996  30.140  20.171  1.00  0.00     0.018 A 
HETATM   15  C2  UNL     1      31.856  31.308  19.405  1.00  0.00    -0.022 A 
HETATM   16  C1  UNL     1      31.015  31.275  18.170  1.00  0.00     0.051 C 
HETATM   17  C25 UNL     1      32.512  32.422  19.855  1.00  0.00     0.128 A 
HETATM   18  C23 UNL     1      33.282  32.420  21.006  1.00  0.00    -0.022 A 
HETATM   19  F1  UNL     1      32.381  33.553  19.120  1.00  0.00    -0.205 F 
HETATM   20  C22 UNL     1      33.405  31.265  21.741  1.00  0.00     0.018 A 
HETATM   21  C24 UNL     1      33.978  33.691  21.427  1.00  0.00     0.051 C 
ENDBRANCH  12  13
ENDBRANCH   1  12
BRANCH   2  22
HETATM   22  N2  UNL     1      35.868  27.985  21.624  1.00  0.00    -0.214 N 
HETATM   23  C7  UNL     1      36.888  26.953  21.670  1.00  0.00     0.168 C 
HETATM   24  C8  UNL     1      38.075  27.488  20.866  1.00  0.00     0.252 C 
HETATM   25  N3  UNL     1      37.695  27.719  19.486  1.00  0.00    -0.072 N 
HETATM   26  C9  UNL     1      36.261  27.642  19.289  1.00  0.00     0.252 C 
ATOM     27  H32 UNL     1      38.066  28.606  19.147  1.00  0.00     0.277 HD
ATOM     28  H31 UNL     1      38.187  27.084  18.858  1.00  0.00     0.277 HD
HETATM   29  C10 UNL     1      35.550  28.504  20.294  1.00  0.00     0.168 C 
ENDBRANCH   2  22
BRANCH   6  30
HETATM   30  N5  UNL     1      36.679  29.169  26.772  1.00  0.00    -0.372 N 
HETATM   31  C13 UNL     1      37.171  27.831  27.139  1.00  0.00     0.123 C 
HETATM   32  C14 UNL     1      38.433  28.026  27.905  1.00  0.00     0.022 C 
HETATM   33  C15 UNL     1      38.372  29.487  28.294  1.00  0.00     0.028 C 
HETATM   34  C16 UNL     1      37.717  30.092  27.051  1.00  0.00     0.110 C 
BRANCH  34  35
HETATM   35  C17 UNL     1      38.769  30.237  25.991  1.00  0.00     0.254 C 
BRANCH  35  36
HETATM   36  N6  UNL     1      38.656  31.397  25.169  1.00  0.00    -0.077 N 
ATOM     37  H63 UNL     1      38.135  31.174  24.320  1.00  0.00     0.274 HD
ATOM     38  H62 UNL     1      38.022  32.070  25.599  1.00  0.00     0.274 HD
ATOM     39  H61 UNL     1      39.537  31.852  24.927  1.00  0.00     0.274 HD
ENDBRANCH  35  36
ENDBRANCH  34  35
ENDBRANCH   6  30
TORSDOF 6
ENDMDL
