MODEL 7
REMARK VINA RESULT: -9.820641467      2.714      4.827
REMARK  6 active torsions:
REMARK  status: ('A' for Active; 'I' for Inactive)
REMARK    1  A    between atoms: C4_4  and  C5_5 
REMARK    2  A    between atoms: C5_5  and  N1_6 
REMARK    3  A    between atoms: C6_7  and  N2_8 
REMARK    4  A    between atoms: C12_19  and  N5_20 
REMARK    5  A    between atoms: C16_24  and  C17_25 
REMARK    6  A    between atoms: C17_25  and  N6_26 
ROOT
HETATM    1  N1  UNL     1      34.629  28.913  22.283  1.00  0.00    -0.177 N 
HETATM    2  C6  UNL     1      35.046  29.193  23.524  1.00  0.00     0.684 A 
HETATM    3  N4  UNL     1      36.402  29.015  23.540  1.00  0.00    -0.187 N 
ATOM      4  H4  UNL     1      36.996  29.156  24.358  1.00  0.00     0.184 HD
HETATM    5  C11 UNL     1      36.838  28.634  22.353  1.00  0.00     0.103 A 
HETATM    6  C12 UNL     1      38.105  28.338  21.888  1.00  0.00     0.062 A 
HETATM    7  C18 UNL     1      38.203  27.964  20.564  1.00  0.00     0.055 A 
HETATM    8  C19 UNL     1      37.091  27.889  19.749  1.00  0.00     0.038 A 
HETATM    9 CL1  UNL     1      37.269  27.405  18.073  1.00  0.00    -0.084 Cl
HETATM   10  C20 UNL     1      35.831  28.186  20.218  1.00  0.00     0.056 A 
HETATM   11  C21 UNL     1      35.701  28.565  21.538  1.00  0.00     0.083 A 
ENDROOT
BRANCH   1  12
HETATM   12  C5  UNL     1      33.276  28.971  21.810  1.00  0.00     0.186 C 
BRANCH  12  13
HETATM   13  C4  UNL     1      32.935  30.202  21.061  1.00  0.00    -0.038 A 
HETATM   14  C3  UNL     1      32.107  30.116  19.964  1.00  0.00     0.018 A 
HETATM   15  C2  UNL     1      31.767  31.257  19.222  1.00  0.00    -0.022 A 
HETATM   16  C1  UNL     1      30.863  31.117  18.040  1.00  0.00     0.051 C 
HETATM   17  C25 UNL     1      32.298  32.447  19.643  1.00  0.00     0.128 A 
HETATM   18  C23 UNL     1      33.131  32.543  20.745  1.00  0.00    -0.022 A 
HETATM   19  F1  UNL     1      31.974  33.553  18.931  1.00  0.00    -0.205 F 
HETATM   20  C22 UNL     1      33.450  31.412  21.458  1.00  0.00     0.018 A 
HETATM   21  C24 UNL     1      33.679  33.893  21.137  1.00  0.00     0.051 C 
ENDBRANCH  12  13
ENDBRANCH   1  12
BRANCH   2  22
HETATM   22  N2  UNL     1      34.360  29.611  24.690  1.00  0.00    -0.214 N 
HETATM   23  C7  UNL     1      35.012  30.353  25.754  1.00  0.00     0.168 C 
HETATM   24  C8  UNL     1      34.682  29.617  27.054  1.00  0.00     0.252 C 
HETATM   25  N3  UNL     1      33.251  29.611  27.288  1.00  0.00    -0.072 N 
HETATM   26  C9  UNL     1      32.501  30.055  26.130  1.00  0.00     0.252 C 
ATOM     27  H32 UNL     1      32.934  28.695  27.603  1.00  0.00     0.277 HD
ATOM     28  H31 UNL     1      33.011  30.160  28.114  1.00  0.00     0.277 HD
HETATM   29  C10 UNL     1      32.945  29.307  24.904  1.00  0.00     0.168 C 
ENDBRANCH   2  22
BRANCH   6  30
HETATM   30  N5  UNL     1      39.208  28.442  22.768  1.00  0.00    -0.372 N 
HETATM   31  C13 UNL     1      39.575  27.351  23.686  1.00  0.00     0.123 C 
HETATM   32  C14 UNL     1      40.580  27.901  24.637  1.00  0.00     0.022 C 
HETATM   33  C15 UNL     1      40.422  29.397  24.471  1.00  0.00     0.028 C 
HETATM   34  C16 UNL     1      40.134  29.495  22.971  1.00  0.00     0.110 C 
BRANCH  34  35
HETATM   35  C17 UNL     1      41.436  29.375  22.236  1.00  0.00     0.254 C 
BRANCH  35  36
HETATM   36  N6  UNL     1      41.380  29.655  20.839  1.00  0.00    -0.077 N 
ATOM     37  H63 UNL     1      40.422  29.870  20.563  1.00  0.00     0.274 HD
ATOM     38  H62 UNL     1      41.830  30.551  20.644  1.00  0.00     0.274 HD
ATOM     39  H61 UNL     1      41.764  28.932  20.230  1.00  0.00     0.274 HD
ENDBRANCH  35  36
ENDBRANCH  34  35
ENDBRANCH   6  30
TORSDOF 6
ENDMDL
