MODEL 2
REMARK VINA RESULT: -10.404574253      0.039      1.493
REMARK  6 active torsions:
REMARK  status: ('A' for Active; 'I' for Inactive)
REMARK    1  A    between atoms: C4_4  and  C5_5 
REMARK    2  A    between atoms: C5_5  and  N1_6 
REMARK    3  A    between atoms: C6_7  and  N2_8 
REMARK    4  A    between atoms: C12_19  and  N5_20 
REMARK    5  A    between atoms: C16_24  and  C17_25 
REMARK    6  A    between atoms: C17_25  and  N6_26 
ROOT
HETATM    1  N1  UNL     1      33.960  28.853  23.030  1.00  0.00    -0.177 N 
HETATM    2  C6  UNL     1      35.220  28.478  22.779  1.00  0.00     0.684 A 
HETATM    3  N4  UNL     1      35.921  28.625  23.945  1.00  0.00    -0.187 N 
ATOM      4  H4  UNL     1      36.913  28.413  24.055  1.00  0.00     0.184 HD
HETATM    5  C11 UNL     1      35.138  29.077  24.907  1.00  0.00     0.103 A 
HETATM    6  C12 UNL     1      35.387  29.375  26.233  1.00  0.00     0.062 A 
HETATM    7  C18 UNL     1      34.317  29.838  26.971  1.00  0.00     0.055 A 
HETATM    8  C19 UNL     1      33.065  29.995  26.411  1.00  0.00     0.038 A 
HETATM    9 CL1  UNL     1      31.738  30.590  27.390  1.00  0.00    -0.084 Cl
HETATM   10  C20 UNL     1      32.823  29.695  25.088  1.00  0.00     0.056 A 
HETATM   11  C21 UNL     1      33.873  29.228  24.325  1.00  0.00     0.083 A 
ENDROOT
BRANCH   1  12
HETATM   12  C5  UNL     1      32.874  28.860  22.092  1.00  0.00     0.186 C 
BRANCH  12  13
HETATM   13  C4  UNL     1      32.753  30.103  21.296  1.00  0.00    -0.038 A 
HETATM   14  C3  UNL     1      33.395  31.242  21.725  1.00  0.00     0.018 A 
HETATM   15  C2  UNL     1      33.299  32.443  21.005  1.00  0.00    -0.022 A 
HETATM   16  C1  UNL     1      34.014  33.655  21.506  1.00  0.00     0.051 C 
HETATM   17  C25 UNL     1      32.539  32.418  19.866  1.00  0.00     0.128 A 
HETATM   18  C23 UNL     1      31.890  31.277  19.426  1.00  0.00    -0.022 A 
HETATM   19  F1  UNL     1      32.441  33.575  19.165  1.00  0.00    -0.205 F 
HETATM   20  C22 UNL     1      31.999  30.112  20.148  1.00  0.00     0.018 A 
HETATM   21  C24 UNL     1      31.068  31.339  18.163  1.00  0.00     0.051 C 
ENDBRANCH  12  13
ENDBRANCH   1  12
BRANCH   2  22
HETATM   22  N2  UNL     1      35.858  27.997  21.610  1.00  0.00    -0.214 N 
HETATM   23  C7  UNL     1      36.879  26.964  21.649  1.00  0.00     0.168 C 
HETATM   24  C8  UNL     1      38.064  27.503  20.845  1.00  0.00     0.252 C 
HETATM   25  N3  UNL     1      37.680  27.740  19.467  1.00  0.00    -0.072 N 
HETATM   26  C9  UNL     1      36.246  27.664  19.273  1.00  0.00     0.252 C 
ATOM     27  H32 UNL     1      38.051  28.629  19.130  1.00  0.00     0.277 HD
ATOM     28  H31 UNL     1      38.171  27.108  18.834  1.00  0.00     0.277 HD
HETATM   29  C10 UNL     1      35.537  28.521  20.283  1.00  0.00     0.168 C 
ENDBRANCH   2  22
BRANCH   6  30
HETATM   30  N5  UNL     1      36.688  29.185  26.754  1.00  0.00    -0.372 N 
HETATM   31  C13 UNL     1      37.189  27.853  27.129  1.00  0.00     0.123 C 
HETATM   32  C14 UNL     1      38.455  28.060  27.885  1.00  0.00     0.022 C 
HETATM   33  C15 UNL     1      38.390  29.525  28.261  1.00  0.00     0.028 C 
HETATM   34  C16 UNL     1      37.724  30.115  27.017  1.00  0.00     0.110 C 
BRANCH  34  35
HETATM   35  C17 UNL     1      38.768  30.255  25.949  1.00  0.00     0.254 C 
BRANCH  35  36
HETATM   36  N6  UNL     1      38.650  31.412  25.122  1.00  0.00    -0.077 N 
ATOM     37  H63 UNL     1      37.995  32.073  25.539  1.00  0.00     0.274 HD
ATOM     38  H62 UNL     1      39.510  31.959  25.163  1.00  0.00     0.274 HD
ATOM     39  H61 UNL     1      38.396  31.233  24.150  1.00  0.00     0.274 HD
ENDBRANCH  35  36
ENDBRANCH  34  35
ENDBRANCH   6  30
TORSDOF 6
ENDMDL
