MODEL 10
REMARK VINA RESULT: -8.969646865      1.429      2.633
REMARK  6 active torsions:
REMARK  status: ('A' for Active; 'I' for Inactive)
REMARK    1  A    between atoms: C4_4  and  C5_5 
REMARK    2  A    between atoms: C5_5  and  N1_6 
REMARK    3  A    between atoms: C6_7  and  N2_8 
REMARK    4  A    between atoms: C12_19  and  N5_20 
REMARK    5  A    between atoms: C16_24  and  C17_25 
REMARK    6  A    between atoms: C17_25  and  N6_26 
ROOT
HETATM    1  N1  UNL     1      34.458  28.868  23.118  1.00  0.00    -0.177 N 
HETATM    2  C6  UNL     1      35.611  28.259  22.817  1.00  0.00     0.684 A 
HETATM    3  N4  UNL     1      36.279  28.062  23.994  1.00  0.00    -0.187 N 
ATOM      4  H4  UNL     1      37.194  27.615  24.074  1.00  0.00     0.184 HD
HETATM    5  C11 UNL     1      35.580  28.527  25.012  1.00  0.00     0.103 A 
HETATM    6  C12 UNL     1      35.835  28.555  26.370  1.00  0.00     0.062 A 
HETATM    7  C18 UNL     1      34.868  29.131  27.166  1.00  0.00     0.055 A 
HETATM    8  C19 UNL     1      33.706  29.653  26.633  1.00  0.00     0.038 A 
HETATM    9 CL1  UNL     1      32.509  30.378  27.688  1.00  0.00    -0.084 Cl
HETATM   10  C20 UNL     1      33.457  29.622  25.279  1.00  0.00     0.056 A 
HETATM   11  C21 UNL     1      34.405  29.050  24.456  1.00  0.00     0.083 A 
ENDROOT
BRANCH   1  12
HETATM   12  C5  UNL     1      33.440  29.265  22.188  1.00  0.00     0.186 C 
BRANCH  12  13
HETATM   13  C4  UNL     1      33.529  30.674  21.739  1.00  0.00    -0.038 A 
HETATM   14  C3  UNL     1      34.386  31.534  22.387  1.00  0.00     0.018 A 
HETATM   15  C2  UNL     1      34.494  32.879  21.999  1.00  0.00    -0.022 A 
HETATM   16  C1  UNL     1      35.439  33.776  22.729  1.00  0.00     0.051 C 
HETATM   17  C25 UNL     1      33.709  33.282  20.952  1.00  0.00     0.128 A 
HETATM   18  C23 UNL     1      32.844  32.423  20.294  1.00  0.00    -0.022 A 
HETATM   19  F1  UNL     1      33.808  34.579  20.572  1.00  0.00    -0.205 F 
HETATM   20  C22 UNL     1      32.756  31.110  20.692  1.00  0.00     0.018 A 
HETATM   21  C24 UNL     1      32.009  32.952  19.154  1.00  0.00     0.051 C 
ENDBRANCH  12  13
ENDBRANCH   1  12
BRANCH   2  22
HETATM   22  N2  UNL     1      36.171  27.829  21.589  1.00  0.00    -0.214 N 
HETATM   23  C7  UNL     1      35.560  26.794  20.774  1.00  0.00     0.168 C 
HETATM   24  C8  UNL     1      36.667  25.785  20.463  1.00  0.00     0.252 C 
HETATM   25  N3  UNL     1      37.734  26.414  19.709  1.00  0.00    -0.072 N 
HETATM   26  C9  UNL     1      37.610  27.858  19.678  1.00  0.00     0.252 C 
ATOM     27  H32 UNL     1      38.649  26.131  20.061  1.00  0.00     0.277 HD
ATOM     28  H31 UNL     1      37.796  26.030  18.767  1.00  0.00     0.277 HD
HETATM   29  C10 UNL     1      37.416  28.395  21.068  1.00  0.00     0.168 C 
ENDBRANCH   2  22
BRANCH   6  30
HETATM   30  N5  UNL     1      37.039  27.996  26.860  1.00  0.00    -0.372 N 
HETATM   31  C13 UNL     1      38.109  28.832  27.428  1.00  0.00     0.123 C 
HETATM   32  C14 UNL     1      39.310  27.963  27.575  1.00  0.00     0.022 C 
HETATM   33  C15 UNL     1      38.982  26.780  26.691  1.00  0.00     0.028 C 
HETATM   34  C16 UNL     1      37.476  26.650  26.924  1.00  0.00     0.110 C 
BRANCH  34  35
HETATM   35  C17 UNL     1      37.264  25.952  28.235  1.00  0.00     0.254 C 
BRANCH  35  36
HETATM   36  N6  UNL     1      36.931  24.568  28.146  1.00  0.00    -0.077 N 
ATOM     37  H63 UNL     1      36.470  24.264  29.005  1.00  0.00     0.274 HD
ATOM     38  H62 UNL     1      36.173  24.433  27.477  1.00  0.00     0.274 HD
ATOM     39  H61 UNL     1      37.707  23.943  27.926  1.00  0.00     0.274 HD
ENDBRANCH  35  36
ENDBRANCH  34  35
ENDBRANCH   6  30
TORSDOF 6
ENDMDL
