MODEL 5
REMARK VINA RESULT: -9.923941874      2.690      4.887
REMARK  6 active torsions:
REMARK  status: ('A' for Active; 'I' for Inactive)
REMARK    1  A    between atoms: C4_4  and  C5_5 
REMARK    2  A    between atoms: C5_5  and  N1_6 
REMARK    3  A    between atoms: C6_7  and  N2_8 
REMARK    4  A    between atoms: C12_19  and  N5_20 
REMARK    5  A    between atoms: C16_24  and  C17_25 
REMARK    6  A    between atoms: C17_25  and  N6_26 
ROOT
HETATM    1  N1  UNL     1      34.605  28.918  22.295  1.00  0.00    -0.177 N 
HETATM    2  C6  UNL     1      35.026  29.196  23.534  1.00  0.00     0.684 A 
HETATM    3  N4  UNL     1      36.382  29.018  23.547  1.00  0.00    -0.187 N 
ATOM      4  H4  UNL     1      36.978  29.157  24.363  1.00  0.00     0.184 HD
HETATM    5  C11 UNL     1      36.815  28.639  22.358  1.00  0.00     0.103 A 
HETATM    6  C12 UNL     1      38.080  28.345  21.889  1.00  0.00     0.062 A 
HETATM    7  C18 UNL     1      38.174  27.973  20.564  1.00  0.00     0.055 A 
HETATM    8  C19 UNL     1      37.060  27.899  19.752  1.00  0.00     0.038 A 
HETATM    9 CL1  UNL     1      37.233  27.418  18.075  1.00  0.00    -0.084 Cl
HETATM   10  C20 UNL     1      35.801  28.195  20.225  1.00  0.00     0.056 A 
HETATM   11  C21 UNL     1      35.675  28.571  21.546  1.00  0.00     0.083 A 
ENDROOT
BRANCH   1  12
HETATM   12  C5  UNL     1      33.251  28.976  21.825  1.00  0.00     0.186 C 
BRANCH  12  13
HETATM   13  C4  UNL     1      32.911  30.203  21.068  1.00  0.00    -0.038 A 
HETATM   14  C3  UNL     1      32.081  30.111  19.974  1.00  0.00     0.018 A 
HETATM   15  C2  UNL     1      31.742  31.248  19.224  1.00  0.00    -0.022 A 
HETATM   16  C1  UNL     1      30.835  31.101  18.046  1.00  0.00     0.051 C 
HETATM   17  C25 UNL     1      32.277  32.439  19.636  1.00  0.00     0.128 A 
HETATM   18  C23 UNL     1      33.113  32.541  20.735  1.00  0.00    -0.022 A 
HETATM   19  F1  UNL     1      31.953  33.541  18.916  1.00  0.00    -0.205 F 
HETATM   20  C22 UNL     1      33.430  31.414  21.455  1.00  0.00     0.018 A 
HETATM   21  C24 UNL     1      33.664  33.893  21.116  1.00  0.00     0.051 C 
ENDBRANCH  12  13
ENDBRANCH   1  12
BRANCH   2  22
HETATM   22  N2  UNL     1      34.343  29.612  24.704  1.00  0.00    -0.214 N 
HETATM   23  C7  UNL     1      34.996  30.358  25.764  1.00  0.00     0.168 C 
HETATM   24  C8  UNL     1      34.676  29.622  27.067  1.00  0.00     0.252 C 
HETATM   25  N3  UNL     1      33.246  29.609  27.307  1.00  0.00    -0.072 N 
HETATM   26  C9  UNL     1      32.489  30.049  26.151  1.00  0.00     0.252 C 
ATOM     27  H32 UNL     1      32.935  28.692  27.624  1.00  0.00     0.277 HD
ATOM     28  H31 UNL     1      33.007  30.157  28.133  1.00  0.00     0.277 HD
HETATM   29  C10 UNL     1      32.930  29.302  24.924  1.00  0.00     0.168 C 
ENDBRANCH   2  22
BRANCH   6  30
HETATM   30  N5  UNL     1      39.185  28.447  22.766  1.00  0.00    -0.372 N 
HETATM   31  C13 UNL     1      39.844  29.734  23.040  1.00  0.00     0.123 C 
HETATM   32  C14 UNL     1      41.110  29.431  23.763  1.00  0.00     0.022 C 
HETATM   33  C15 UNL     1      41.309  27.955  23.494  1.00  0.00     0.028 C 
HETATM   34  C16 UNL     1      39.863  27.457  23.519  1.00  0.00     0.110 C 
BRANCH  34  35
HETATM   35  C17 UNL     1      39.442  27.318  24.952  1.00  0.00     0.254 C 
BRANCH  35  36
HETATM   36  N6  UNL     1      38.267  26.539  25.174  1.00  0.00    -0.077 N 
ATOM     37  H63 UNL     1      37.485  26.930  24.649  1.00  0.00     0.274 HD
ATOM     38  H62 UNL     1      38.358  25.632  24.715  1.00  0.00     0.274 HD
ATOM     39  H61 UNL     1      38.003  26.411  26.151  1.00  0.00     0.274 HD
ENDBRANCH  35  36
ENDBRANCH  34  35
ENDBRANCH   6  30
TORSDOF 6
ENDMDL
