MODEL 6
REMARK VINA RESULT: -9.898005382      2.703      5.113
REMARK  6 active torsions:
REMARK  status: ('A' for Active; 'I' for Inactive)
REMARK    1  A    between atoms: C4_4  and  C5_5 
REMARK    2  A    between atoms: C5_5  and  N1_6 
REMARK    3  A    between atoms: C6_7  and  N2_8 
REMARK    4  A    between atoms: C12_19  and  N5_20 
REMARK    5  A    between atoms: C16_24  and  C17_25 
REMARK    6  A    between atoms: C17_25  and  N6_26 
ROOT
HETATM    1  N1  UNL     1      34.636  28.904  22.257  1.00  0.00    -0.177 N 
HETATM    2  C6  UNL     1      35.053  29.199  23.494  1.00  0.00     0.684 A 
HETATM    3  N4  UNL     1      36.411  29.035  23.508  1.00  0.00    -0.187 N 
ATOM      4  H4  UNL     1      37.006  29.190  24.323  1.00  0.00     0.184 HD
HETATM    5  C11 UNL     1      36.848  28.649  22.323  1.00  0.00     0.103 A 
HETATM    6  C12 UNL     1      38.116  28.364  21.856  1.00  0.00     0.062 A 
HETATM    7  C18 UNL     1      38.214  27.979  20.535  1.00  0.00     0.055 A 
HETATM    8  C19 UNL     1      37.101  27.885  19.724  1.00  0.00     0.038 A 
HETATM    9 CL1  UNL     1      37.279  27.389  18.052  1.00  0.00    -0.084 Cl
HETATM   10  C20 UNL     1      35.839  28.172  20.195  1.00  0.00     0.056 A 
HETATM   11  C21 UNL     1      35.709  28.561  21.512  1.00  0.00     0.083 A 
ENDROOT
BRANCH   1  12
HETATM   12  C5  UNL     1      33.280  28.942  21.787  1.00  0.00     0.186 C 
BRANCH  12  13
HETATM   13  C4  UNL     1      32.928  30.158  21.017  1.00  0.00    -0.038 A 
HETATM   14  C3  UNL     1      33.428  31.376  21.417  1.00  0.00     0.018 A 
HETATM   15  C2  UNL     1      33.112  32.553  20.720  1.00  0.00    -0.022 A 
HETATM   16  C1  UNL     1      33.679  33.854  21.188  1.00  0.00     0.051 C 
HETATM   17  C25 UNL     1      32.288  32.423  19.635  1.00  0.00     0.128 A 
HETATM   18  C23 UNL     1      31.780  31.201  19.225  1.00  0.00    -0.022 A 
HETATM   19  F1  UNL     1      31.978  33.555  18.957  1.00  0.00    -0.205 F 
HETATM   20  C22 UNL     1      32.105  30.062  19.922  1.00  0.00     0.018 A 
HETATM   21  C24 UNL     1      30.873  31.149  18.021  1.00  0.00     0.051 C 
ENDBRANCH  12  13
ENDBRANCH   1  12
BRANCH   2  22
HETATM   22  N2  UNL     1      34.366  29.619  24.659  1.00  0.00    -0.214 N 
HETATM   23  C7  UNL     1      35.011  30.385  25.710  1.00  0.00     0.168 C 
HETATM   24  C8  UNL     1      34.700  29.660  27.021  1.00  0.00     0.252 C 
HETATM   25  N3  UNL     1      33.271  29.632  27.262  1.00  0.00    -0.072 N 
HETATM   26  C9  UNL     1      32.507  30.048  26.103  1.00  0.00     0.252 C 
ATOM     27  H32 UNL     1      32.972  28.714  27.590  1.00  0.00     0.277 HD
ATOM     28  H31 UNL     1      33.025  30.186  28.083  1.00  0.00     0.277 HD
HETATM   29  C10 UNL     1      32.957  29.293  24.884  1.00  0.00     0.168 C 
ENDBRANCH   2  22
BRANCH   6  30
HETATM   30  N5  UNL     1      39.220  28.487  22.732  1.00  0.00    -0.372 N 
HETATM   31  C13 UNL     1      39.932  29.762  22.911  1.00  0.00     0.123 C 
HETATM   32  C14 UNL     1      41.181  29.463  23.666  1.00  0.00     0.022 C 
HETATM   33  C15 UNL     1      41.318  27.964  23.513  1.00  0.00     0.028 C 
HETATM   34  C16 UNL     1      39.852  27.530  23.565  1.00  0.00     0.110 C 
BRANCH  34  35
HETATM   35  C17 UNL     1      39.417  27.521  25.001  1.00  0.00     0.254 C 
BRANCH  35  36
HETATM   36  N6  UNL     1      38.338  26.641  25.310  1.00  0.00    -0.077 N 
ATOM     37  H63 UNL     1      37.468  27.169  25.390  1.00  0.00     0.274 HD
ATOM     38  H62 UNL     1      38.121  26.057  24.502  1.00  0.00     0.274 HD
ATOM     39  H61 UNL     1      38.469  26.058  26.137  1.00  0.00     0.274 HD
ENDBRANCH  35  36
ENDBRANCH  34  35
ENDBRANCH   6  30
TORSDOF 6
ENDMDL
