MODEL 5
REMARK VINA RESULT: -9.972877200      2.768      5.161
REMARK  4 active torsions:
REMARK  status: ('A' for Active; 'I' for Inactive)
REMARK    1  A    between atoms: C4_4  and  C5_5 
REMARK    2  A    between atoms: C5_5  and  N1_6 
REMARK    3  A    between atoms: C6_7  and  N2_8 
REMARK    4  A    between atoms: C12_19  and  C13_20 
ROOT
HETATM    1  N1  UNL     1      33.821  28.855  22.766  1.00  0.00    -0.177 N 
HETATM    2  C6  UNL     1      35.059  28.475  22.425  1.00  0.00     0.683 A 
HETATM    3  N4  UNL     1      35.808  28.494  23.576  1.00  0.00    -0.188 N 
ATOM      4  H4  UNL     1      36.796  28.247  23.621  1.00  0.00     0.184 HD
HETATM    5  C11 UNL     1      35.085  28.873  24.619  1.00  0.00     0.087 A 
HETATM    6  C12 UNL     1      35.411  29.036  25.952  1.00  0.00     0.001 A 
HETATM    7  C18 UNL     1      34.418  29.454  26.816  1.00  0.00     0.038 A 
HETATM    8  C19 UNL     1      33.150  29.695  26.343  1.00  0.00     0.037 A 
HETATM    9 CL1  UNL     1      31.927  30.224  27.486  1.00  0.00    -0.084 Cl
HETATM   10  C20 UNL     1      32.862  29.522  25.010  1.00  0.00     0.056 A 
HETATM   11  C21 UNL     1      33.808  29.109  24.109  1.00  0.00     0.082 A 
ENDROOT
BRANCH   1  12
HETATM   12  C5  UNL     1      32.627  28.941  21.952  1.00  0.00     0.186 C 
BRANCH  12  13
HETATM   13  C4  UNL     1      32.517  30.172  21.139  1.00  0.00    -0.038 A 
HETATM   14  C3  UNL     1      31.787  30.256  19.980  1.00  0.00     0.018 A 
HETATM   15  C2  UNL     1      31.699  31.443  19.230  1.00  0.00    -0.022 A 
HETATM   16  C1  UNL     1      30.893  31.491  17.978  1.00  0.00     0.051 C 
HETATM   17  C25 UNL     1      32.361  32.571  19.653  1.00  0.00     0.128 A 
HETATM   18  C23 UNL     1      33.091  32.460  20.824  1.00  0.00    -0.022 A 
HETATM   19  F1  UNL     1      32.297  33.738  18.955  1.00  0.00    -0.205 F 
HETATM   20  C22 UNL     1      33.188  31.307  21.570  1.00  0.00     0.018 A 
HETATM   21  C24 UNL     1      33.828  33.676  21.323  1.00  0.00     0.051 C 
ENDBRANCH  12  13
ENDBRANCH   1  12
BRANCH   2  22
HETATM   22  N2  UNL     1      35.621  28.173  21.157  1.00  0.00    -0.214 N 
HETATM   23  C7  UNL     1      36.897  27.433  21.082  1.00  0.00     0.168 C 
HETATM   24  C8  UNL     1      37.474  27.705  19.715  1.00  0.00     0.252 C 
HETATM   25  N3  UNL     1      36.608  27.067  18.731  1.00  0.00    -0.072 N 
HETATM   26  C9  UNL     1      35.252  27.502  18.810  1.00  0.00     0.252 C 
ATOM     27  H32 UNL     1      36.975  27.193  17.789  1.00  0.00     0.277 HD
ATOM     28  H31 UNL     1      36.668  26.051  18.800  1.00  0.00     0.277 HD
HETATM   29  C10 UNL     1      35.036  28.528  19.914  1.00  0.00     0.168 C 
ENDBRANCH   2  22
BRANCH   6  30
HETATM   30  C13 UNL     1      36.747  28.828  26.478  1.00  0.00    -0.046 C 
HETATM   31  C14 UNL     1      37.827  28.666  25.784  1.00  0.00     0.000 C 
HETATM   32  C15 UNL     1      39.204  28.454  26.312  1.00  0.00     0.142 C 
HETATM   33  N5  UNL     1      39.273  28.155  27.699  1.00  0.00    -0.418 N 
HETATM   34  C16 UNL     1      38.040  27.838  28.325  1.00  0.00     0.118 C 
ATOM     35  H5  UNL     1      40.154  28.168  28.213  1.00  0.00     0.153 HD
HETATM   36  C17 UNL     1      36.898  28.753  27.975  1.00  0.00     0.058 C 
ENDBRANCH   6  30
TORSDOF 4
ENDMDL
