MODEL 4
REMARK VINA RESULT: -10.176980064      3.159      5.556
REMARK  4 active torsions:
REMARK  status: ('A' for Active; 'I' for Inactive)
REMARK    1  A    between atoms: C4_4  and  C5_5 
REMARK    2  A    between atoms: C5_5  and  N1_6 
REMARK    3  A    between atoms: C6_7  and  N2_8 
REMARK    4  A    between atoms: C12_19  and  C13_20 
ROOT
HETATM    1  N1  UNL     1      34.007  28.916  23.046  1.00  0.00    -0.177 N 
HETATM    2  C6  UNL     1      35.145  28.217  22.950  1.00  0.00     0.683 A 
HETATM    3  N4  UNL     1      35.593  28.017  24.232  1.00  0.00    -0.188 N 
ATOM      4  H4  UNL     1      36.445  27.509  24.470  1.00  0.00     0.184 HD
HETATM    5  C11 UNL     1      34.780  28.565  25.122  1.00  0.00     0.087 A 
HETATM    6  C12 UNL     1      34.828  28.617  26.503  1.00  0.00     0.001 A 
HETATM    7  C18 UNL     1      33.811  29.280  27.163  1.00  0.00     0.038 A 
HETATM    8  C19 UNL     1      32.792  29.863  26.449  1.00  0.00     0.037 A 
HETATM    9 CL1  UNL     1      31.527  30.691  27.339  1.00  0.00    -0.084 Cl
HETATM   10  C20 UNL     1      32.777  29.792  25.075  1.00  0.00     0.056 A 
HETATM   11  C21 UNL     1      33.759  29.147  24.370  1.00  0.00     0.082 A 
ENDROOT
BRANCH   1  12
HETATM   12  C5  UNL     1      33.094  29.334  22.004  1.00  0.00     0.186 C 
BRANCH  12  13
HETATM   13  C4  UNL     1      33.249  30.740  21.570  1.00  0.00    -0.038 A 
HETATM   14  C3  UNL     1      32.547  31.298  20.530  1.00  0.00     0.018 A 
HETATM   15  C2  UNL     1      32.714  32.640  20.144  1.00  0.00    -0.022 A 
HETATM   16  C1  UNL     1      31.930  33.206  19.011  1.00  0.00     0.051 C 
HETATM   17  C25 UNL     1      33.608  33.440  20.815  1.00  0.00     0.128 A 
HETATM   18  C23 UNL     1      34.305  32.854  21.859  1.00  0.00    -0.022 A 
HETATM   19  F1  UNL     1      33.795  34.744  20.470  1.00  0.00    -0.205 F 
HETATM   20  C22 UNL     1      34.153  31.543  22.250  1.00  0.00     0.018 A 
HETATM   21  C24 UNL     1      35.292  33.699  22.622  1.00  0.00     0.051 C 
ENDBRANCH  12  13
ENDBRANCH   1  12
BRANCH   2  22
HETATM   22  N2  UNL     1      35.880  27.789  21.813  1.00  0.00    -0.214 N 
HETATM   23  C7  UNL     1      37.311  28.134  21.696  1.00  0.00     0.168 C 
HETATM   24  C8  UNL     1      37.666  28.009  20.236  1.00  0.00     0.252 C 
HETATM   25  N3  UNL     1      37.588  26.598  19.878  1.00  0.00    -0.072 N 
HETATM   26  C9  UNL     1      36.311  26.021  20.144  1.00  0.00     0.252 C 
ATOM     27  H32 UNL     1      37.855  26.455  18.905  1.00  0.00     0.277 HD
ATOM     28  H31 UNL     1      38.329  26.066  20.335  1.00  0.00     0.277 HD
HETATM   29  C10 UNL     1      35.337  27.024  20.749  1.00  0.00     0.168 C 
ENDBRANCH   2  22
BRANCH   6  30
HETATM   30  C13 UNL     1      35.908  28.046  27.285  1.00  0.00    -0.046 C 
HETATM   31  C14 UNL     1      36.970  28.664  27.693  1.00  0.00     0.000 C 
HETATM   32  C15 UNL     1      38.083  28.089  28.498  1.00  0.00     0.142 C 
HETATM   33  N5  UNL     1      38.077  26.672  28.600  1.00  0.00    -0.418 N 
HETATM   34  C16 UNL     1      37.194  25.992  27.721  1.00  0.00     0.118 C 
ATOM     35  H5  UNL     1      38.671  26.173  29.264  1.00  0.00     0.153 HD
HETATM   36  C17 UNL     1      35.814  26.582  27.630  1.00  0.00     0.058 C 
ENDBRANCH   6  30
TORSDOF 4
ENDMDL
