MODEL 2
REMARK VINA RESULT: -10.337904023      2.788      4.940
REMARK  4 active torsions:
REMARK  status: ('A' for Active; 'I' for Inactive)
REMARK    1  A    between atoms: C4_4  and  C5_5 
REMARK    2  A    between atoms: C5_5  and  N1_6 
REMARK    3  A    between atoms: C6_7  and  N2_8 
REMARK    4  A    between atoms: C12_19  and  C13_20 
ROOT
HETATM    1  N1  UNL     1      33.849  28.705  22.696  1.00  0.00    -0.177 N 
HETATM    2  C6  UNL     1      35.047  28.185  22.399  1.00  0.00     0.683 A 
HETATM    3  N4  UNL     1      35.802  28.257  23.544  1.00  0.00    -0.188 N 
ATOM      4  H4  UNL     1      36.765  27.931  23.617  1.00  0.00     0.184 HD
HETATM    5  C11 UNL     1      35.122  28.805  24.540  1.00  0.00     0.087 A 
HETATM    6  C12 UNL     1      35.469  29.077  25.850  1.00  0.00     0.001 A 
HETATM    7  C18 UNL     1      34.522  29.668  26.663  1.00  0.00     0.038 A 
HETATM    8  C19 UNL     1      33.278  29.968  26.164  1.00  0.00     0.037 A 
HETATM    9 CL1  UNL     1      32.113  30.718  27.243  1.00  0.00    -0.084 Cl
HETATM   10  C20 UNL     1      32.966  29.684  24.855  1.00  0.00     0.056 A 
HETATM   11  C21 UNL     1      33.867  29.098  24.005  1.00  0.00     0.082 A 
ENDROOT
BRANCH   1  12
HETATM   12  C5  UNL     1      32.663  28.812  21.874  1.00  0.00     0.186 C 
BRANCH  12  13
HETATM   13  C4  UNL     1      32.546  30.073  21.109  1.00  0.00    -0.038 A 
HETATM   14  C3  UNL     1      33.154  31.247  21.480  1.00  0.00     0.018 A 
HETATM   15  C2  UNL     1      33.027  32.429  20.729  1.00  0.00    -0.022 A 
HETATM   16  C1  UNL     1      33.705  33.681  21.166  1.00  0.00     0.051 C 
HETATM   17  C25 UNL     1      32.271  32.433  19.581  1.00  0.00     0.128 A 
HETATM   18  C23 UNL     1      31.668  31.238  19.229  1.00  0.00    -0.022 A 
HETATM   19  F1  UNL     1      32.128  33.559  18.827  1.00  0.00    -0.205 F 
HETATM   20  C22 UNL     1      31.782  30.072  19.952  1.00  0.00     0.018 A 
HETATM   21  C24 UNL     1      30.835  31.201  17.974  1.00  0.00     0.051 C 
ENDBRANCH  12  13
ENDBRANCH   1  12
BRANCH   2  22
HETATM   22  N2  UNL     1      35.573  27.705  21.171  1.00  0.00    -0.214 N 
HETATM   23  C7  UNL     1      36.871  28.213  20.685  1.00  0.00     0.168 C 
HETATM   24  C8  UNL     1      36.914  27.938  19.202  1.00  0.00     0.252 C 
HETATM   25  N3  UNL     1      36.982  26.493  19.020  1.00  0.00    -0.072 N 
HETATM   26  C9  UNL     1      35.900  25.798  19.637  1.00  0.00     0.252 C 
ATOM     27  H32 UNL     1      37.048  26.255  18.031  1.00  0.00     0.277 HD
ATOM     28  H31 UNL     1      37.879  26.129  19.341  1.00  0.00     0.277 HD
HETATM   29  C10 UNL     1      34.937  26.739  20.348  1.00  0.00     0.168 C 
ENDBRANCH   2  22
BRANCH   6  30
HETATM   30  C13 UNL     1      36.785  28.807  26.398  1.00  0.00    -0.046 C 
HETATM   31  C14 UNL     1      37.879  28.651  25.724  1.00  0.00     0.000 C 
HETATM   32  C15 UNL     1      39.236  28.377  26.275  1.00  0.00     0.142 C 
HETATM   33  N5  UNL     1      39.260  28.008  27.648  1.00  0.00    -0.418 N 
HETATM   34  C16 UNL     1      38.003  27.693  28.225  1.00  0.00     0.118 C 
ATOM     35  H5  UNL     1      40.127  27.972  28.184  1.00  0.00     0.153 HD
HETATM   36  C17 UNL     1      36.895  28.654  27.893  1.00  0.00     0.058 C 
ENDBRANCH   6  30
TORSDOF 4
ENDMDL
