MODEL 3
REMARK VINA RESULT: -10.258606437      0.130      1.498
REMARK  4 active torsions:
REMARK  status: ('A' for Active; 'I' for Inactive)
REMARK    1  A    between atoms: C4_4  and  C5_5 
REMARK    2  A    between atoms: C5_5  and  N1_6 
REMARK    3  A    between atoms: C6_7  and  N2_8 
REMARK    4  A    between atoms: C12_19  and  C13_20 
ROOT
HETATM    1  N1  UNL     1      34.635  28.949  22.276  1.00  0.00    -0.177 N 
HETATM    2  C6  UNL     1      35.092  29.354  23.468  1.00  0.00     0.683 A 
HETATM    3  N4  UNL     1      36.459  29.242  23.424  1.00  0.00    -0.188 N 
ATOM      4  H4  UNL     1      37.080  29.483  24.196  1.00  0.00     0.184 HD
HETATM    5  C11 UNL     1      36.871  28.782  22.252  1.00  0.00     0.087 A 
HETATM    6  C12 UNL     1      38.136  28.513  21.763  1.00  0.00     0.001 A 
HETATM    7  C18 UNL     1      38.244  28.029  20.474  1.00  0.00     0.038 A 
HETATM    8  C19 UNL     1      37.115  27.828  19.717  1.00  0.00     0.037 A 
HETATM    9 CL1  UNL     1      37.311  27.212  18.086  1.00  0.00    -0.084 Cl
HETATM   10  C20 UNL     1      35.872  28.107  20.236  1.00  0.00     0.056 A 
HETATM   11  C21 UNL     1      35.707  28.589  21.508  1.00  0.00     0.082 A 
ENDROOT
BRANCH   1  12
HETATM   12  C5  UNL     1      33.280  28.930  21.768  1.00  0.00     0.186 C 
BRANCH  12  13
HETATM   13  C4  UNL     1      32.894  30.122  20.981  1.00  0.00    -0.038 A 
HETATM   14  C3  UNL     1      32.085  30.073  19.872  1.00  0.00     0.018 A 
HETATM   15  C2  UNL     1      31.733  31.226  19.148  1.00  0.00    -0.022 A 
HETATM   16  C1  UNL     1      30.851  31.129  17.952  1.00  0.00     0.051 C 
HETATM   17  C25 UNL     1      32.205  32.455  19.544  1.00  0.00     0.128 A 
HETATM   18  C23 UNL     1      33.019  32.477  20.663  1.00  0.00    -0.022 A 
HETATM   19  F1  UNL     1      31.883  33.593  18.867  1.00  0.00    -0.205 F 
HETATM   20  C22 UNL     1      33.373  31.359  21.384  1.00  0.00     0.018 A 
HETATM   21  C24 UNL     1      33.553  33.806  21.131  1.00  0.00     0.051 C 
ENDBRANCH  12  13
ENDBRANCH   1  12
BRANCH   2  22
HETATM   22  N2  UNL     1      34.400  29.754  24.641  1.00  0.00    -0.214 N 
HETATM   23  C7  UNL     1      33.138  29.081  25.009  1.00  0.00     0.168 C 
HETATM   24  C8  UNL     1      32.410  30.014  25.945  1.00  0.00     0.252 C 
HETATM   25  N3  UNL     1      33.175  30.087  27.184  1.00  0.00    -0.072 N 
HETATM   26  C9  UNL     1      34.523  30.511  26.988  1.00  0.00     0.252 C 
ATOM     27  H32 UNL     1      32.704  30.681  27.867  1.00  0.00     0.277 HD
ATOM     28  H31 UNL     1      33.142  29.199  27.684  1.00  0.00     0.277 HD
HETATM   29  C10 UNL     1      34.838  30.776  25.522  1.00  0.00     0.168 C 
ENDBRANCH   2  22
BRANCH   6  30
HETATM   30  C13 UNL     1      39.346  28.677  22.548  1.00  0.00    -0.046 C 
HETATM   31  C14 UNL     1      40.008  27.736  23.142  1.00  0.00     0.000 C 
HETATM   32  C15 UNL     1      41.251  27.892  23.947  1.00  0.00     0.142 C 
HETATM   33  N5  UNL     1      41.578  29.232  24.289  1.00  0.00    -0.418 N 
HETATM   34  C16 UNL     1      40.562  30.195  24.057  1.00  0.00     0.118 C 
ATOM     35  H5  UNL     1      42.487  29.486  24.676  1.00  0.00     0.153 HD
HETATM   36  C17 UNL     1      39.870  30.078  22.727  1.00  0.00     0.058 C 
ENDBRANCH   6  30
TORSDOF 4
ENDMDL
