MODEL 6
REMARK VINA RESULT: -8.872104782      4.171      5.671
REMARK  4 active torsions:
REMARK  status: ('A' for Active; 'I' for Inactive)
REMARK    1  A    between atoms: C4_4  and  C5_5 
REMARK    2  A    between atoms: C5_5  and  N1_6 
REMARK    3  A    between atoms: C6_7  and  N2_8 
REMARK    4  A    between atoms: C12_19  and  C13_20 
ROOT
HETATM    1  N1  UNL     1      36.469  27.970  24.709  1.00  0.00    -0.177 N 
HETATM    2  C6  UNL     1      35.463  28.028  25.591  1.00  0.00     0.683 A 
HETATM    3  N4  UNL     1      35.550  26.897  26.363  1.00  0.00    -0.188 N 
ATOM      4  H4  UNL     1      34.910  26.671  27.124  1.00  0.00     0.184 HD
HETATM    5  C11 UNL     1      36.570  26.136  25.995  1.00  0.00     0.087 A 
HETATM    6  C12 UNL     1      37.034  24.925  26.477  1.00  0.00     0.001 A 
HETATM    7  C18 UNL     1      38.142  24.368  25.870  1.00  0.00     0.038 A 
HETATM    8  C19 UNL     1      38.750  25.014  24.820  1.00  0.00     0.037 A 
HETATM    9 CL1  UNL     1      40.156  24.260  24.087  1.00  0.00    -0.084 Cl
HETATM   10  C20 UNL     1      38.261  26.217  24.367  1.00  0.00     0.056 A 
HETATM   11  C21 UNL     1      37.165  26.815  24.932  1.00  0.00     0.082 A 
ENDROOT
BRANCH   1  12
HETATM   12  C5  UNL     1      36.876  28.936  23.711  1.00  0.00     0.186 C 
BRANCH  12  13
HETATM   13  C4  UNL     1      36.249  28.759  22.383  1.00  0.00    -0.038 A 
HETATM   14  C3  UNL     1      34.953  29.114  22.099  1.00  0.00     0.018 A 
HETATM   15  C2  UNL     1      34.387  28.936  20.824  1.00  0.00    -0.022 A 
HETATM   16  C1  UNL     1      32.977  29.336  20.559  1.00  0.00     0.051 C 
HETATM   17  C25 UNL     1      35.138  28.389  19.811  1.00  0.00     0.128 A 
HETATM   18  C23 UNL     1      36.441  28.039  20.122  1.00  0.00    -0.022 A 
HETATM   19  F1  UNL     1      34.624  28.204  18.564  1.00  0.00    -0.205 F 
HETATM   20  C22 UNL     1      37.011  28.206  21.364  1.00  0.00     0.018 A 
HETATM   21  C24 UNL     1      37.298  27.440  19.037  1.00  0.00     0.051 C 
ENDBRANCH  12  13
ENDBRANCH   1  12
BRANCH   2  22
HETATM   22  N2  UNL     1      34.411  28.970  25.738  1.00  0.00    -0.214 N 
HETATM   23  C7  UNL     1      33.181  28.821  24.935  1.00  0.00     0.168 C 
HETATM   24  C8  UNL     1      32.510  30.172  24.919  1.00  0.00     0.252 C 
HETATM   25  N3  UNL     1      32.046  30.454  26.272  1.00  0.00    -0.072 N 
HETATM   26  C9  UNL     1      33.089  30.413  27.244  1.00  0.00     0.252 C 
ATOM     27  H32 UNL     1      31.552  31.345  26.308  1.00  0.00     0.277 HD
ATOM     28  H31 UNL     1      31.283  29.829  26.531  1.00  0.00     0.277 HD
HETATM   29  C10 UNL     1      34.440  30.074  26.629  1.00  0.00     0.168 C 
ENDBRANCH   2  22
BRANCH   6  30
HETATM   30  C13 UNL     1      36.394  24.198  27.557  1.00  0.00    -0.046 C 
HETATM   31  C14 UNL     1      35.716  24.714  28.532  1.00  0.00     0.000 C 
HETATM   32  C15 UNL     1      35.053  23.979  29.645  1.00  0.00     0.142 C 
HETATM   33  N5  UNL     1      35.424  22.612  29.763  1.00  0.00    -0.418 N 
HETATM   34  C16 UNL     1      36.549  22.209  28.999  1.00  0.00     0.118 C 
ATOM     35  H5  UNL     1      34.913  21.961  30.360  1.00  0.00     0.153 HD
HETATM   36  C17 UNL     1      36.559  22.701  27.577  1.00  0.00     0.058 C 
ENDBRANCH   6  30
TORSDOF 4
ENDMDL
