MODEL 1
REMARK VINA RESULT: -10.368055005      0.000      0.000
REMARK  4 active torsions:
REMARK  status: ('A' for Active; 'I' for Inactive)
REMARK    1  A    between atoms: C4_4  and  C5_5 
REMARK    2  A    between atoms: C5_5  and  N1_6 
REMARK    3  A    between atoms: C6_7  and  N2_8 
REMARK    4  A    between atoms: C12_19  and  C13_20 
ROOT
HETATM    1  N1  UNL     1      34.590  28.986  22.238  1.00  0.00    -0.177 N 
HETATM    2  C6  UNL     1      35.057  29.352  23.439  1.00  0.00     0.683 A 
HETATM    3  N4  UNL     1      36.421  29.201  23.394  1.00  0.00    -0.188 N 
ATOM      4  H4  UNL     1      37.046  29.408  24.172  1.00  0.00     0.184 HD
HETATM    5  C11 UNL     1      36.821  28.752  22.214  1.00  0.00     0.087 A 
HETATM    6  C12 UNL     1      38.078  28.455  21.722  1.00  0.00     0.001 A 
HETATM    7  C18 UNL     1      38.174  27.993  20.423  1.00  0.00     0.038 A 
HETATM    8  C19 UNL     1      37.041  27.841  19.661  1.00  0.00     0.037 A 
HETATM    9 CL1  UNL     1      37.222  27.252  18.018  1.00  0.00    -0.084 Cl
HETATM   10  C20 UNL     1      35.806  28.147  20.184  1.00  0.00     0.056 A 
HETATM   11  C21 UNL     1      35.652  28.609  21.465  1.00  0.00     0.082 A 
ENDROOT
BRANCH   1  12
HETATM   12  C5  UNL     1      33.236  29.017  21.728  1.00  0.00     0.186 C 
BRANCH  12  13
HETATM   13  C4  UNL     1      32.884  30.240  20.975  1.00  0.00    -0.038 A 
HETATM   14  C3  UNL     1      33.326  31.496  21.311  1.00  0.00     0.018 A 
HETATM   15  C2  UNL     1      32.975  32.640  20.572  1.00  0.00    -0.022 A 
HETATM   16  C1  UNL     1      33.479  33.983  20.970  1.00  0.00     0.051 C 
HETATM   17  C25 UNL     1      32.160  32.521  19.471  1.00  0.00     0.128 A 
HETATM   18  C23 UNL     1      31.727  31.245  19.153  1.00  0.00    -0.022 A 
HETATM   19  F1  UNL     1      31.802  33.606  18.730  1.00  0.00    -0.205 F 
HETATM   20  C22 UNL     1      32.060  30.115  19.865  1.00  0.00     0.018 A 
HETATM   21  C24 UNL     1      30.835  31.073  17.951  1.00  0.00     0.051 C 
ENDBRANCH  12  13
ENDBRANCH   1  12
BRANCH   2  22
HETATM   22  N2  UNL     1      34.375  29.750  24.618  1.00  0.00    -0.214 N 
HETATM   23  C7  UNL     1      33.103  29.094  24.983  1.00  0.00     0.168 C 
HETATM   24  C8  UNL     1      32.393  30.027  25.932  1.00  0.00     0.252 C 
HETATM   25  N3  UNL     1      33.162  30.073  27.169  1.00  0.00    -0.072 N 
HETATM   26  C9  UNL     1      34.517  30.476  26.974  1.00  0.00     0.252 C 
ATOM     27  H32 UNL     1      32.704  30.666  27.860  1.00  0.00     0.277 HD
ATOM     28  H31 UNL     1      33.116  29.179  27.658  1.00  0.00     0.277 HD
HETATM   29  C10 UNL     1      34.833  30.754  25.511  1.00  0.00     0.168 C 
ENDBRANCH   2  22
BRANCH   6  30
HETATM   30  C13 UNL     1      39.291  28.567  22.511  1.00  0.00    -0.046 C 
HETATM   31  C14 UNL     1      39.973  27.587  23.011  1.00  0.00     0.000 C 
HETATM   32  C15 UNL     1      41.220  27.690  23.820  1.00  0.00     0.142 C 
HETATM   33  N5  UNL     1      41.526  28.998  24.283  1.00  0.00    -0.418 N 
HETATM   34  C16 UNL     1      40.491  29.960  24.148  1.00  0.00     0.118 C 
ATOM     35  H5  UNL     1      42.434  29.232  24.686  1.00  0.00     0.153 HD
HETATM   36  C17 UNL     1      39.791  29.954  22.816  1.00  0.00     0.058 C 
ENDBRANCH   6  30
TORSDOF 4
ENDMDL
