MODEL 3
REMARK VINA RESULT: -9.737081728      2.645      4.930
REMARK  3 active torsions:
REMARK  status: ('A' for Active; 'I' for Inactive)
REMARK    1  A    between atoms: C4_4  and  C5_5 
REMARK    2  A    between atoms: C5_5  and  N1_6 
REMARK    3  A    between atoms: C6_7  and  N2_8 
ROOT
HETATM    1  N1  UNL     1      35.127  29.578  22.330  1.00  0.00    -0.177 N 
HETATM    2  C6  UNL     1      35.469  30.005  23.542  1.00  0.00     0.683 A 
HETATM    3  N4  UNL     1      36.832  29.871  23.663  1.00  0.00    -0.188 N 
ATOM      4  H4  UNL     1      37.370  30.125  24.491  1.00  0.00     0.184 HD
HETATM    5  C11 UNL     1      37.346  29.366  22.554  1.00  0.00     0.087 A 
HETATM    6  C12 UNL     1      38.604  29.008  22.116  1.00  0.00     0.007 A 
HETATM    7  C13 UNL     1      39.695  29.269  23.028  1.00  0.00    -0.002 A 
HETATM    8  C14 UNL     1      40.391  30.460  23.035  1.00  0.00     0.014 A 
HETATM    9  C15 UNL     1      41.462  30.689  23.907  1.00  0.00     0.001 A 
HETATM   10  C16 UNL     1      41.858  29.713  24.798  1.00  0.00     0.002 A 
HETATM   11  C17 UNL     1      41.163  28.519  24.792  1.00  0.00     0.024 A 
HETATM   12  C18 UNL     1      40.116  28.309  23.934  1.00  0.00     0.045 A 
HETATM   13 CL1  UNL     1      39.229  26.798  23.946  1.00  0.00    -0.083 Cl
HETATM   14  C19 UNL     1      38.759  28.477  20.848  1.00  0.00     0.038 A 
HETATM   15  C20 UNL     1      37.681  28.292  19.998  1.00  0.00     0.037 A 
HETATM   16 CL2  UNL     1      37.990  27.625  18.400  1.00  0.00    -0.084 Cl
HETATM   17  C21 UNL     1      36.422  28.651  20.441  1.00  0.00     0.056 A 
HETATM   18  C22 UNL     1      36.277  29.178  21.706  1.00  0.00     0.082 A 
ENDROOT
BRANCH   1  19
HETATM   19  C5  UNL     1      33.843  29.546  21.735  1.00  0.00     0.186 C 
BRANCH  19  20
HETATM   20  C4  UNL     1      33.393  30.716  20.996  1.00  0.00    -0.038 A 
HETATM   21  C3  UNL     1      33.759  32.003  21.279  1.00  0.00     0.018 A 
HETATM   22  C2  UNL     1      33.248  33.060  20.510  1.00  0.00    -0.022 A 
HETATM   23  C1  UNL     1      33.644  34.469  20.783  1.00  0.00     0.051 C 
HETATM   24  C26 UNL     1      32.381  32.804  19.473  1.00  0.00     0.128 A 
HETATM   25  C24 UNL     1      32.011  31.520  19.183  1.00  0.00    -0.022 A 
HETATM   26  F1  UNL     1      31.861  33.801  18.701  1.00  0.00    -0.205 F 
HETATM   27  C23 UNL     1      32.506  30.500  19.927  1.00  0.00     0.018 A 
HETATM   28  C25 UNL     1      31.051  31.205  18.067  1.00  0.00     0.051 C 
ENDBRANCH  19  20
ENDBRANCH   1  19
BRANCH   2  29
HETATM   29  N2  UNL     1      34.613  30.469  24.593  1.00  0.00    -0.214 N 
HETATM   30  C7  UNL     1      33.188  30.400  24.583  1.00  0.00     0.168 C 
HETATM   31  C8  UNL     1      32.549  30.298  25.942  1.00  0.00     0.252 C 
HETATM   32  N3  UNL     1      33.219  31.071  26.969  1.00  0.00    -0.072 N 
HETATM   33  C9  UNL     1      34.594  30.607  27.018  1.00  0.00     0.252 C 
ATOM     34  H32 UNL     1      33.140  32.078  26.828  1.00  0.00     0.277 HD
ATOM     35  H31 UNL     1      32.749  31.029  27.874  1.00  0.00     0.277 HD
HETATM   36  C10 UNL     1      35.272  31.082  25.758  1.00  0.00     0.168 C 
ENDBRANCH   2  29
TORSDOF 3
ENDMDL
