MODEL 2
REMARK VINA RESULT: -11.518531493      0.302      1.508
REMARK  3 active torsions:
REMARK  status: ('A' for Active; 'I' for Inactive)
REMARK    1  A    between atoms: C4_4  and  C5_5 
REMARK    2  A    between atoms: C5_5  and  N1_6 
REMARK    3  A    between atoms: C6_7  and  N2_8 
ROOT
HETATM    1  N1  UNL     1      34.198  29.158  22.884  1.00  0.00    -0.177 N 
HETATM    2  C6  UNL     1      35.433  28.762  22.589  1.00  0.00     0.683 A 
HETATM    3  N4  UNL     1      36.213  28.959  23.704  1.00  0.00    -0.188 N 
ATOM      4  H4  UNL     1      37.207  28.740  23.765  1.00  0.00     0.184 HD
HETATM    5  C11 UNL     1      35.491  29.472  24.687  1.00  0.00     0.087 A 
HETATM    6  C12 UNL     1      35.726  29.880  25.983  1.00  0.00     0.007 A 
HETATM    7  C13 UNL     1      37.069  29.681  26.480  1.00  0.00    -0.002 A 
HETATM    8  C14 UNL     1      37.462  28.522  27.118  1.00  0.00     0.014 A 
HETATM    9  C15 UNL     1      38.759  28.353  27.617  1.00  0.00     0.001 A 
HETATM   10  C16 UNL     1      39.695  29.357  27.483  1.00  0.00     0.002 A 
HETATM   11  C17 UNL     1      39.304  30.519  26.845  1.00  0.00     0.024 A 
HETATM   12  C18 UNL     1      38.031  30.670  26.361  1.00  0.00     0.045 A 
HETATM   13 CL1  UNL     1      37.548  32.140  25.538  1.00  0.00    -0.083 Cl
HETATM   14  C19 UNL     1      34.687  30.401  26.733  1.00  0.00     0.038 A 
HETATM   15  C20 UNL     1      33.407  30.526  26.218  1.00  0.00     0.037 A 
HETATM   16 CL2  UNL     1      32.155  31.186  27.262  1.00  0.00    -0.084 Cl
HETATM   17  C21 UNL     1      33.175  30.117  24.918  1.00  0.00     0.056 A 
HETATM   18  C22 UNL     1      34.217  29.601  24.178  1.00  0.00     0.082 A 
ENDROOT
BRANCH   1  19
HETATM   19  C5  UNL     1      33.042  29.123  22.068  1.00  0.00     0.186 C 
BRANCH  19  20
HETATM   20  C4  UNL     1      32.787  30.248  21.180  1.00  0.00    -0.038 A 
HETATM   21  C3  UNL     1      31.990  30.197  20.070  1.00  0.00     0.018 A 
HETATM   22  C2  UNL     1      31.831  31.341  19.272  1.00  0.00    -0.022 A 
HETATM   23  C1  UNL     1      30.953  31.320  18.069  1.00  0.00     0.051 C 
HETATM   24  C26 UNL     1      32.474  32.511  19.604  1.00  0.00     0.128 A 
HETATM   25  C24 UNL     1      33.272  32.569  20.712  1.00  0.00    -0.022 A 
HETATM   26  F1  UNL     1      32.347  33.645  18.856  1.00  0.00    -0.205 F 
HETATM   27  C23 UNL     1      33.425  31.464  21.483  1.00  0.00     0.018 A 
HETATM   28  C25 UNL     1      34.004  33.827  21.095  1.00  0.00     0.051 C 
ENDBRANCH  19  20
ENDBRANCH   1  19
BRANCH   2  29
HETATM   29  N2  UNL     1      35.932  28.274  21.338  1.00  0.00    -0.214 N 
HETATM   30  C7  UNL     1      37.034  28.829  20.620  1.00  0.00     0.168 C 
HETATM   31  C8  UNL     1      37.790  27.850  19.763  1.00  0.00     0.252 C 
HETATM   32  N3  UNL     1      36.952  26.854  19.125  1.00  0.00    -0.072 N 
HETATM   33  C9  UNL     1      36.241  26.159  20.183  1.00  0.00     0.252 C 
ATOM     34  H32 UNL     1      36.332  27.246  18.416  1.00  0.00     0.277 HD
ATOM     35  H31 UNL     1      37.471  26.226  18.512  1.00  0.00     0.277 HD
HETATM   36  C10 UNL     1      35.229  27.122  20.750  1.00  0.00     0.168 C 
ENDBRANCH   2  29
TORSDOF 3
ENDMDL
