MODEL 5
REMARK VINA RESULT: -9.501071859      3.025      5.537
REMARK  3 active torsions:
REMARK  status: ('A' for Active; 'I' for Inactive)
REMARK    1  A    between atoms: C4_4  and  C5_5 
REMARK    2  A    between atoms: C5_5  and  N1_6 
REMARK    3  A    between atoms: C6_7  and  N2_8 
ROOT
HETATM    1  N1  UNL     1      35.372  29.392  22.185  1.00  0.00    -0.177 N 
HETATM    2  C6  UNL     1      36.395  30.045  22.729  1.00  0.00     0.683 A 
HETATM    3  N4  UNL     1      37.550  29.400  22.353  1.00  0.00    -0.188 N 
ATOM      4  H4  UNL     1      38.490  29.686  22.624  1.00  0.00     0.184 HD
HETATM    5  C11 UNL     1      37.268  28.358  21.588  1.00  0.00     0.087 A 
HETATM    6  C12 UNL     1      37.989  27.369  20.954  1.00  0.00     0.007 A 
HETATM    7  C13 UNL     1      39.428  27.456  21.066  1.00  0.00    -0.002 A 
HETATM    8  C14 UNL     1      40.204  28.151  20.161  1.00  0.00     0.014 A 
HETATM    9  C15 UNL     1      41.599  28.206  20.269  1.00  0.00     0.001 A 
HETATM   10  C16 UNL     1      42.246  27.556  21.298  1.00  0.00     0.002 A 
HETATM   11  C17 UNL     1      41.471  26.859  22.205  1.00  0.00     0.024 A 
HETATM   12  C18 UNL     1      40.106  26.814  22.089  1.00  0.00     0.045 A 
HETATM   13 CL1  UNL     1      39.130  25.942  23.254  1.00  0.00    -0.083 Cl
HETATM   14  C19 UNL     1      37.322  26.399  20.227  1.00  0.00     0.038 A 
HETATM   15  C20 UNL     1      35.941  26.391  20.116  1.00  0.00     0.037 A 
HETATM   16 CL2  UNL     1      35.194  25.122  19.153  1.00  0.00    -0.084 Cl
HETATM   17  C21 UNL     1      35.222  27.384  20.754  1.00  0.00     0.056 A 
HETATM   18  C22 UNL     1      35.895  28.345  21.477  1.00  0.00     0.082 A 
ENDROOT
BRANCH   1  19
HETATM   19  C5  UNL     1      33.991  29.693  22.265  1.00  0.00     0.186 C 
BRANCH  19  20
HETATM   20  C4  UNL     1      33.433  30.644  21.316  1.00  0.00    -0.038 A 
HETATM   21  C3  UNL     1      32.649  30.308  20.248  1.00  0.00     0.018 A 
HETATM   22  C2  UNL     1      32.180  31.309  19.382  1.00  0.00    -0.022 A 
HETATM   23  C1  UNL     1      31.308  30.974  18.223  1.00  0.00     0.051 C 
HETATM   24  C26 UNL     1      32.509  32.626  19.607  1.00  0.00     0.128 A 
HETATM   25  C24 UNL     1      33.293  32.970  20.672  1.00  0.00    -0.022 A 
HETATM   26  F1  UNL     1      32.076  33.630  18.790  1.00  0.00    -0.205 F 
HETATM   27  C23 UNL     1      33.744  32.002  21.508  1.00  0.00     0.018 A 
HETATM   28  C25 UNL     1      33.686  34.398  20.938  1.00  0.00     0.051 C 
ENDBRANCH  19  20
ENDBRANCH   1  19
BRANCH   2  29
HETATM   29  N2  UNL     1      36.359  31.176  23.607  1.00  0.00    -0.214 N 
HETATM   30  C7  UNL     1      35.737  31.201  24.892  1.00  0.00     0.168 C 
HETATM   31  C8  UNL     1      36.350  32.162  25.875  1.00  0.00     0.252 C 
HETATM   32  N3  UNL     1      36.810  33.401  25.280  1.00  0.00    -0.072 N 
HETATM   33  C9  UNL     1      37.770  33.047  24.250  1.00  0.00     0.252 C 
ATOM     34  H32 UNL     1      36.049  33.986  24.934  1.00  0.00     0.277 HD
ATOM     35  H31 UNL     1      37.181  34.061  25.964  1.00  0.00     0.277 HD
HETATM   36  C10 UNL     1      37.000  32.409  23.121  1.00  0.00     0.168 C 
ENDBRANCH   2  29
TORSDOF 3
ENDMDL
