MODEL 4
REMARK VINA RESULT: -9.656327375      2.648      5.161
REMARK  3 active torsions:
REMARK  status: ('A' for Active; 'I' for Inactive)
REMARK    1  A    between atoms: C4_4  and  C5_5 
REMARK    2  A    between atoms: C5_5  and  N1_6 
REMARK    3  A    between atoms: C6_7  and  N2_8 
ROOT
HETATM    1  N1  UNL     1      35.099  29.514  22.335  1.00  0.00    -0.177 N 
HETATM    2  C6  UNL     1      35.444  30.016  23.518  1.00  0.00     0.683 A 
HETATM    3  N4  UNL     1      36.815  29.964  23.610  1.00  0.00    -0.188 N 
ATOM      4  H4  UNL     1      37.356  30.287  24.412  1.00  0.00     0.184 HD
HETATM    5  C11 UNL     1      37.331  29.438  22.512  1.00  0.00     0.087 A 
HETATM    6  C12 UNL     1      38.597  29.132  22.059  1.00  0.00     0.007 A 
HETATM    7  C13 UNL     1      39.692  29.496  22.930  1.00  0.00    -0.002 A 
HETATM    8  C14 UNL     1      40.319  30.724  22.865  1.00  0.00     0.014 A 
HETATM    9  C15 UNL     1      41.394  31.053  23.699  1.00  0.00     0.001 A 
HETATM   10  C16 UNL     1      41.866  30.144  24.622  1.00  0.00     0.002 A 
HETATM   11  C17 UNL     1      41.240  28.914  24.689  1.00  0.00     0.024 A 
HETATM   12  C18 UNL     1      40.188  28.605  23.868  1.00  0.00     0.045 A 
HETATM   13 CL1  UNL     1      39.390  27.049  23.972  1.00  0.00    -0.083 Cl
HETATM   14  C19 UNL     1      38.753  28.551  20.813  1.00  0.00     0.038 A 
HETATM   15  C20 UNL     1      37.669  28.266  20.000  1.00  0.00     0.037 A 
HETATM   16 CL2  UNL     1      37.979  27.543  18.427  1.00  0.00    -0.084 Cl
HETATM   17  C21 UNL     1      36.401  28.574  20.458  1.00  0.00     0.056 A 
HETATM   18  C22 UNL     1      36.256  29.150  21.702  1.00  0.00     0.082 A 
ENDROOT
BRANCH   1  19
HETATM   19  C5  UNL     1      33.805  29.382  21.776  1.00  0.00     0.186 C 
BRANCH  19  20
HETATM   20  C4  UNL     1      33.288  30.473  20.964  1.00  0.00    -0.038 A 
HETATM   21  C3  UNL     1      32.418  30.320  19.921  1.00  0.00     0.018 A 
HETATM   22  C2  UNL     1      31.998  31.444  19.191  1.00  0.00    -0.022 A 
HETATM   23  C1  UNL     1      31.035  31.309  18.063  1.00  0.00     0.051 C 
HETATM   24  C26 UNL     1      32.460  32.696  19.523  1.00  0.00     0.128 A 
HETATM   25  C24 UNL     1      33.330  32.857  20.565  1.00  0.00    -0.022 A 
HETATM   26  F1  UNL     1      32.078  33.814  18.841  1.00  0.00    -0.205 F 
HETATM   27  C23 UNL     1      33.734  31.771  21.270  1.00  0.00     0.018 A 
HETATM   28  C25 UNL     1      33.869  34.210  20.946  1.00  0.00     0.051 C 
ENDBRANCH  19  20
ENDBRANCH   1  19
BRANCH   2  29
HETATM   29  N2  UNL     1      34.587  30.480  24.568  1.00  0.00    -0.214 N 
HETATM   30  C7  UNL     1      33.160  30.434  24.546  1.00  0.00     0.168 C 
HETATM   31  C8  UNL     1      32.509  30.324  25.898  1.00  0.00     0.252 C 
HETATM   32  N3  UNL     1      33.183  31.073  26.940  1.00  0.00    -0.072 N 
HETATM   33  C9  UNL     1      34.550  30.586  26.995  1.00  0.00     0.252 C 
ATOM     34  H32 UNL     1      33.122  32.083  26.812  1.00  0.00     0.277 HD
ATOM     35  H31 UNL     1      32.705  31.027  27.841  1.00  0.00     0.277 HD
HETATM   36  C10 UNL     1      35.246  31.066  25.747  1.00  0.00     0.168 C 
ENDBRANCH   2  29
TORSDOF 3
ENDMDL
