MODEL 1
REMARK VINA RESULT: -11.722798558      0.000      0.000
REMARK  3 active torsions:
REMARK  status: ('A' for Active; 'I' for Inactive)
REMARK    1  A    between atoms: C4_4  and  C5_5 
REMARK    2  A    between atoms: C5_5  and  N1_6 
REMARK    3  A    between atoms: C6_7  and  N2_8 
ROOT
HETATM    1  N1  UNL     1      34.243  29.145  22.834  1.00  0.00    -0.177 N 
HETATM    2  C6  UNL     1      35.450  28.662  22.555  1.00  0.00     0.683 A 
HETATM    3  N4  UNL     1      36.207  28.742  23.701  1.00  0.00    -0.188 N 
ATOM      4  H4  UNL     1      37.177  28.438  23.780  1.00  0.00     0.184 HD
HETATM    5  C11 UNL     1      35.497  29.267  24.686  1.00  0.00     0.087 A 
HETATM    6  C12 UNL     1      35.723  29.594  26.007  1.00  0.00     0.007 A 
HETATM    7  C13 UNL     1      37.027  29.260  26.533  1.00  0.00    -0.002 A 
HETATM    8  C14 UNL     1      37.304  28.045  27.124  1.00  0.00     0.014 A 
HETATM    9  C15 UNL     1      38.565  27.746  27.651  1.00  0.00     0.001 A 
HETATM   10  C16 UNL     1      39.584  28.673  27.594  1.00  0.00     0.002 A 
HETATM   11  C17 UNL     1      39.310  29.892  27.002  1.00  0.00     0.024 A 
HETATM   12  C18 UNL     1      38.071  30.171  26.489  1.00  0.00     0.045 A 
HETATM   13 CL1  UNL     1      37.737  31.712  25.725  1.00  0.00    -0.083 Cl
HETATM   14  C19 UNL     1      34.706  30.165  26.751  1.00  0.00     0.038 A 
HETATM   15  C20 UNL     1      33.458  30.420  26.206  1.00  0.00     0.037 A 
HETATM   16 CL2  UNL     1      32.230  31.132  27.244  1.00  0.00    -0.084 Cl
HETATM   17  C21 UNL     1      33.236  30.091  24.882  1.00  0.00     0.056 A 
HETATM   18  C22 UNL     1      34.256  29.525  24.148  1.00  0.00     0.082 A 
ENDROOT
BRANCH   1  19
HETATM   19  C5  UNL     1      33.115  29.245  21.984  1.00  0.00     0.186 C 
BRANCH  19  20
HETATM   20  C4  UNL     1      32.949  30.455  21.193  1.00  0.00    -0.038 A 
HETATM   21  C3  UNL     1      33.532  31.658  21.481  1.00  0.00     0.018 A 
HETATM   22  C2  UNL     1      33.286  32.768  20.658  1.00  0.00    -0.022 A 
HETATM   23  C1  UNL     1      33.924  34.085  20.936  1.00  0.00     0.051 C 
HETATM   24  C26 UNL     1      32.461  32.648  19.563  1.00  0.00     0.128 A 
HETATM   25  C24 UNL     1      31.875  31.449  19.269  1.00  0.00    -0.022 A 
HETATM   26  F1  UNL     1      32.195  33.701  18.738  1.00  0.00    -0.205 F 
HETATM   27  C23 UNL     1      32.114  30.377  20.065  1.00  0.00     0.018 A 
HETATM   28  C25 UNL     1      30.953  31.286  18.090  1.00  0.00     0.051 C 
ENDBRANCH  19  20
ENDBRANCH   1  19
BRANCH   2  29
HETATM   29  N2  UNL     1      35.949  28.192  21.297  1.00  0.00    -0.214 N 
HETATM   30  C7  UNL     1      37.016  28.789  20.562  1.00  0.00     0.168 C 
HETATM   31  C8  UNL     1      37.797  27.839  19.693  1.00  0.00     0.252 C 
HETATM   32  N3  UNL     1      36.988  26.810  19.070  1.00  0.00    -0.072 N 
HETATM   33  C9  UNL     1      36.322  26.088  20.140  1.00  0.00     0.252 C 
ATOM     34  H32 UNL     1      36.342  27.176  18.370  1.00  0.00     0.277 HD
ATOM     35  H31 UNL     1      37.522  26.201  18.449  1.00  0.00     0.277 HD
HETATM   36  C10 UNL     1      35.282  27.012  20.722  1.00  0.00     0.168 C 
ENDBRANCH   2  29
TORSDOF 3
ENDMDL
