MODEL 5
REMARK VINA RESULT: -9.534601507      2.546      5.166
REMARK  3 active torsions:
REMARK  status: ('A' for Active; 'I' for Inactive)
REMARK    1  A    between atoms: C4_4  and  C5_5 
REMARK    2  A    between atoms: C5_5  and  N1_6 
REMARK    3  A    between atoms: C6_7  and  N2_8 
ROOT
HETATM    1  N1  UNL     1      34.964  29.347  22.418  1.00  0.00    -0.177 N 
HETATM    2  C6  UNL     1      35.344  29.848  23.603  1.00  0.00     0.683 A 
HETATM    3  N4  UNL     1      36.711  29.784  23.712  1.00  0.00    -0.189 N 
ATOM      4  H4  UNL     1      37.263  30.098  24.510  1.00  0.00     0.184 HD
HETATM    5  C11 UNL     1      37.188  29.244  22.603  1.00  0.00     0.076 A 
HETATM    6  C12 UNL     1      38.497  28.945  22.219  1.00  0.00     0.034 A 
HETATM    7  C13 UNL     1      38.622  28.354  20.963  1.00  0.00     0.026 A 
HETATM    8  C14 UNL     1      37.565  28.075  20.148  1.00  0.00     0.036 A 
HETATM    9 CL1  UNL     1      37.770  27.319  18.564  1.00  0.00    -0.084 Cl
HETATM   10  C15 UNL     1      36.263  28.383  20.550  1.00  0.00     0.056 A 
HETATM   11  C16 UNL     1      36.107  28.971  21.796  1.00  0.00     0.081 A 
ENDROOT
BRANCH   1  12
HETATM   12  C5  UNL     1      33.616  29.216  21.959  1.00  0.00     0.186 C 
BRANCH  12  13
HETATM   13  C4  UNL     1      33.160  30.336  21.104  1.00  0.00    -0.038 A 
HETATM   14  C3  UNL     1      32.316  30.220  20.030  1.00  0.00     0.018 A 
HETATM   15  C2  UNL     1      31.896  31.307  19.281  1.00  0.00    -0.022 A 
HETATM   16  C1  UNL     1      30.981  31.135  18.109  1.00  0.00     0.051 C 
HETATM   17  C20 UNL     1      32.354  32.554  19.641  1.00  0.00     0.128 A 
HETATM   18  C18 UNL     1      33.208  32.732  20.714  1.00  0.00    -0.022 A 
HETATM   19  F1  UNL     1      31.966  33.667  18.923  1.00  0.00    -0.205 F 
HETATM   20  C17 UNL     1      33.585  31.611  21.414  1.00  0.00     0.018 A 
HETATM   21  C19 UNL     1      33.707  34.080  21.116  1.00  0.00     0.051 C 
ENDBRANCH  12  13
ENDBRANCH   1  12
BRANCH   2  22
HETATM   22  N2  UNL     1      34.612  30.401  24.680  1.00  0.00    -0.214 N 
HETATM   23  C7  UNL     1      35.332  31.127  25.693  1.00  0.00     0.168 C 
HETATM   24  C8  UNL     1      34.610  31.103  27.025  1.00  0.00     0.252 C 
HETATM   25  N3  UNL     1      33.797  29.907  27.050  1.00  0.00    -0.072 N 
HETATM   26  C9  UNL     1      32.668  30.155  26.147  1.00  0.00     0.252 C 
ATOM     27  H32 UNL     1      34.318  29.059  26.824  1.00  0.00     0.277 HD
ATOM     28  H31 UNL     1      33.510  29.631  27.990  1.00  0.00     0.277 HD
HETATM   29  C10 UNL     1      33.189  30.167  24.722  1.00  0.00     0.168 C 
ENDBRANCH   2  22
TORSDOF 3
ENDMDL
