MODEL 2
REMARK VINA RESULT: -9.913342894      0.141      1.679
REMARK  3 active torsions:
REMARK  status: ('A' for Active; 'I' for Inactive)
REMARK    1  A    between atoms: C4_4  and  C5_5 
REMARK    2  A    between atoms: C5_5  and  N1_6 
REMARK    3  A    between atoms: C6_7  and  N2_8 
ROOT
HETATM    1  N1  UNL     1      33.948  29.053  23.092  1.00  0.00    -0.177 N 
HETATM    2  C6  UNL     1      35.228  28.757  22.816  1.00  0.00     0.683 A 
HETATM    3  N4  UNL     1      36.007  29.024  23.914  1.00  0.00    -0.189 N 
ATOM      4  H4  UNL     1      37.016  28.888  23.977  1.00  0.00     0.184 HD
HETATM    5  C11 UNL     1      35.224  29.486  24.874  1.00  0.00     0.076 A 
HETATM    6  C12 UNL     1      35.519  29.915  26.169  1.00  0.00     0.034 A 
HETATM    7  C13 UNL     1      34.423  30.362  26.906  1.00  0.00     0.026 A 
HETATM    8  C14 UNL     1      33.147  30.390  26.425  1.00  0.00     0.036 A 
HETATM    9 CL1  UNL     1      31.787  30.970  27.393  1.00  0.00    -0.084 Cl
HETATM   10  C15 UNL     1      32.873  29.955  25.125  1.00  0.00     0.056 A 
HETATM   11  C16 UNL     1      33.944  29.506  24.368  1.00  0.00     0.081 A 
ENDROOT
BRANCH   1  12
HETATM   12  C5  UNL     1      32.849  28.939  22.185  1.00  0.00     0.186 C 
BRANCH  12  13
HETATM   13  C4  UNL     1      32.684  30.107  21.289  1.00  0.00    -0.038 A 
HETATM   14  C3  UNL     1      31.928  30.127  20.145  1.00  0.00     0.018 A 
HETATM   15  C2  UNL     1      31.783  31.258  19.358  1.00  0.00    -0.022 A 
HETATM   16  C1  UNL     1      30.956  31.234  18.110  1.00  0.00     0.051 C 
HETATM   17  C20 UNL     1      32.431  32.406  19.753  1.00  0.00     0.128 A 
HETATM   18  C18 UNL     1      33.208  32.445  20.897  1.00  0.00    -0.022 A 
HETATM   19  F1  UNL     1      32.319  33.558  19.000  1.00  0.00    -0.205 F 
HETATM   20  C17 UNL     1      33.309  31.287  21.631  1.00  0.00     0.018 A 
HETATM   21  C19 UNL     1      33.911  33.685  21.337  1.00  0.00     0.051 C 
ENDBRANCH  12  13
ENDBRANCH   1  12
BRANCH   2  22
HETATM   22  N2  UNL     1      35.855  28.242  21.658  1.00  0.00    -0.214 N 
HETATM   23  C7  UNL     1      35.149  27.255  20.882  1.00  0.00     0.168 C 
HETATM   24  C8  UNL     1      36.098  26.360  20.110  1.00  0.00     0.252 C 
HETATM   25  N3  UNL     1      37.353  26.345  20.829  1.00  0.00    -0.072 N 
HETATM   26  C9  UNL     1      37.979  27.650  20.595  1.00  0.00     0.252 C 
ATOM     27  H32 UNL     1      37.249  26.117  21.818  1.00  0.00     0.277 HD
ATOM     28  H31 UNL     1      37.953  25.558  20.581  1.00  0.00     0.277 HD
HETATM   29  C10 UNL     1      37.185  28.704  21.345  1.00  0.00     0.168 C 
ENDBRANCH   2  22
TORSDOF 3
ENDMDL
