MODEL 4
REMARK VINA RESULT: -9.693261404      2.558      5.000
REMARK  3 active torsions:
REMARK  status: ('A' for Active; 'I' for Inactive)
REMARK    1  A    between atoms: C4_4  and  C5_5 
REMARK    2  A    between atoms: C5_5  and  N1_6 
REMARK    3  A    between atoms: C6_7  and  N2_8 
ROOT
HETATM    1  N1  UNL     1      34.733  29.082  22.382  1.00  0.00    -0.177 N 
HETATM    2  C6  UNL     1      35.640  29.706  23.150  1.00  0.00     0.683 A 
HETATM    3  N4  UNL     1      36.872  29.133  22.963  1.00  0.00    -0.189 N 
ATOM      4  H4  UNL     1      37.738  29.415  23.423  1.00  0.00     0.184 HD
HETATM    5  C11 UNL     1      36.744  28.153  22.085  1.00  0.00     0.076 A 
HETATM    6  C12 UNL     1      37.681  27.258  21.567  1.00  0.00     0.034 A 
HETATM    7  C13 UNL     1      37.173  26.332  20.657  1.00  0.00     0.026 A 
HETATM    8  C14 UNL     1      35.863  26.279  20.282  1.00  0.00     0.036 A 
HETATM    9 CL1  UNL     1      35.259  25.084  19.129  1.00  0.00    -0.084 Cl
HETATM   10  C15 UNL     1      34.940  27.185  20.812  1.00  0.00     0.056 A 
HETATM   11  C16 UNL     1      35.417  28.117  21.720  1.00  0.00     0.081 A 
ENDROOT
BRANCH   1  12
HETATM   12  C5  UNL     1      33.335  29.377  22.330  1.00  0.00     0.186 C 
BRANCH  12  13
HETATM   13  C4  UNL     1      32.975  30.411  21.333  1.00  0.00    -0.038 A 
HETATM   14  C3  UNL     1      32.213  30.200  20.213  1.00  0.00     0.018 A 
HETATM   15  C2  UNL     1      31.880  31.211  19.327  1.00  0.00    -0.022 A 
HETATM   16  C1  UNL     1      31.053  30.935  18.109  1.00  0.00     0.051 C 
HETATM   17  C20 UNL     1      32.340  32.481  19.594  1.00  0.00     0.128 A 
HETATM   18  C18 UNL     1      33.113  32.753  20.708  1.00  0.00    -0.022 A 
HETATM   19  F1  UNL     1      32.036  33.521  18.739  1.00  0.00    -0.205 F 
HETATM   20  C17 UNL     1      33.407  31.703  21.545  1.00  0.00     0.018 A 
HETATM   21  C19 UNL     1      33.613  34.126  21.010  1.00  0.00     0.051 C 
ENDBRANCH  12  13
ENDBRANCH   1  12
BRANCH   2  22
HETATM   22  N2  UNL     1      35.534  30.791  24.052  1.00  0.00    -0.214 N 
HETATM   23  C7  UNL     1      36.097  32.058  23.664  1.00  0.00     0.168 C 
HETATM   24  C8  UNL     1      36.487  32.893  24.866  1.00  0.00     0.252 C 
HETATM   25  N3  UNL     1      36.758  31.979  25.954  1.00  0.00    -0.072 N 
HETATM   26  C9  UNL     1      35.456  31.473  26.401  1.00  0.00     0.252 C 
ATOM     27  H32 UNL     1      37.416  31.240  25.707  1.00  0.00     0.277 HD
ATOM     28  H31 UNL     1      37.310  32.394  26.704  1.00  0.00     0.277 HD
HETATM   29  C10 UNL     1      34.906  30.551  25.329  1.00  0.00     0.168 C 
ENDBRANCH   2  22
TORSDOF 3
ENDMDL
