MODEL 1
REMARK VINA RESULT: -10.286840409      0.000      0.000
REMARK  3 active torsions:
REMARK  status: ('A' for Active; 'I' for Inactive)
REMARK    1  A    between atoms: C4_4  and  C5_5 
REMARK    2  A    between atoms: C5_5  and  N1_6 
REMARK    3  A    between atoms: C6_7  and  N2_8 
ROOT
HETATM    1  N1  UNL     1      33.951  29.039  23.022  1.00  0.00    -0.177 N 
HETATM    2  C6  UNL     1      35.215  28.673  22.755  1.00  0.00     0.683 A 
HETATM    3  N4  UNL     1      35.991  28.856  23.872  1.00  0.00    -0.189 N 
ATOM      4  H4  UNL     1      36.989  28.656  23.946  1.00  0.00     0.184 HD
HETATM    5  C11 UNL     1      35.222  29.334  24.836  1.00  0.00     0.076 A 
HETATM    6  C12 UNL     1      35.521  29.701  26.149  1.00  0.00     0.034 A 
HETATM    7  C13 UNL     1      34.442  30.189  26.885  1.00  0.00     0.026 A 
HETATM    8  C14 UNL     1      33.178  30.312  26.387  1.00  0.00     0.036 A 
HETATM    9 CL1  UNL     1      31.840  30.941  27.354  1.00  0.00    -0.084 Cl
HETATM   10  C15 UNL     1      32.899  29.937  25.069  1.00  0.00     0.056 A 
HETATM   11  C16 UNL     1      33.953  29.449  24.313  1.00  0.00     0.081 A 
ENDROOT
BRANCH   1  12
HETATM   12  C5  UNL     1      32.862  29.021  22.096  1.00  0.00     0.186 C 
BRANCH  12  13
HETATM   13  C4  UNL     1      32.720  30.270  21.310  1.00  0.00    -0.038 A 
HETATM   14  C3  UNL     1      33.315  31.467  21.613  1.00  0.00     0.018 A 
HETATM   15  C2  UNL     1      33.173  32.598  20.826  1.00  0.00    -0.022 A 
HETATM   16  C1  UNL     1      33.832  33.890  21.198  1.00  0.00     0.051 C 
HETATM   17  C20 UNL     1      32.398  32.503  19.692  1.00  0.00     0.128 A 
HETATM   18  C18 UNL     1      31.773  31.321  19.338  1.00  0.00    -0.022 A 
HETATM   19  F1  UNL     1      32.225  33.604  18.878  1.00  0.00    -0.205 F 
HETATM   20  C17 UNL     1      31.956  30.238  20.164  1.00  0.00     0.018 A 
HETATM   21  C19 UNL     1      30.934  31.205  18.109  1.00  0.00     0.051 C 
ENDBRANCH  12  13
ENDBRANCH   1  12
BRANCH   2  22
HETATM   22  N2  UNL     1      35.829  28.160  21.589  1.00  0.00    -0.214 N 
HETATM   23  C7  UNL     1      35.165  27.096  20.882  1.00  0.00     0.168 C 
HETATM   24  C8  UNL     1      36.143  26.241  20.101  1.00  0.00     0.252 C 
HETATM   25  N3  UNL     1      37.425  26.344  20.764  1.00  0.00    -0.072 N 
HETATM   26  C9  UNL     1      37.944  27.680  20.455  1.00  0.00     0.252 C 
ATOM     27  H32 UNL     1      37.379  26.148  21.764  1.00  0.00     0.277 HD
ATOM     28  H31 UNL     1      38.069  25.592  20.517  1.00  0.00     0.277 HD
HETATM   29  C10 UNL     1      37.108  28.703  21.201  1.00  0.00     0.168 C 
ENDBRANCH   2  22
TORSDOF 3
ENDMDL
