MODEL 3
REMARK VINA RESULT: -9.756211233      2.501      4.717
REMARK  3 active torsions:
REMARK  status: ('A' for Active; 'I' for Inactive)
REMARK    1  A    between atoms: C4_4  and  C5_5 
REMARK    2  A    between atoms: C5_5  and  N1_6 
REMARK    3  A    between atoms: C6_7  and  N2_8 
ROOT
HETATM    1  N1  UNL     1      34.612  28.976  22.473  1.00  0.00    -0.177 N 
HETATM    2  C6  UNL     1      35.476  29.552  23.323  1.00  0.00     0.683 A 
HETATM    3  N4  UNL     1      36.709  28.963  23.193  1.00  0.00    -0.189 N 
ATOM      4  H4  UNL     1      37.547  29.209  23.720  1.00  0.00     0.184 HD
HETATM    5  C11 UNL     1      36.622  28.022  22.268  1.00  0.00     0.076 A 
HETATM    6  C12 UNL     1      37.577  27.132  21.775  1.00  0.00     0.034 A 
HETATM    7  C13 UNL     1      37.114  26.254  20.796  1.00  0.00     0.026 A 
HETATM    8  C14 UNL     1      35.831  26.241  20.335  1.00  0.00     0.036 A 
HETATM    9 CL1  UNL     1      35.285  25.106  19.095  1.00  0.00    -0.084 Cl
HETATM   10  C15 UNL     1      34.890  27.142  20.841  1.00  0.00     0.056 A 
HETATM   11  C16 UNL     1      35.321  28.027  21.816  1.00  0.00     0.081 A 
ENDROOT
BRANCH   1  12
HETATM   12  C5  UNL     1      33.225  29.300  22.343  1.00  0.00     0.186 C 
BRANCH  12  13
HETATM   13  C4  UNL     1      32.957  30.454  21.453  1.00  0.00    -0.038 A 
HETATM   14  C3  UNL     1      33.422  31.729  21.649  1.00  0.00     0.018 A 
HETATM   15  C2  UNL     1      33.166  32.767  20.768  1.00  0.00    -0.022 A 
HETATM   16  C1  UNL     1      33.684  34.148  21.024  1.00  0.00     0.051 C 
HETATM   17  C20 UNL     1      32.410  32.493  19.650  1.00  0.00     0.128 A 
HETATM   18  C18 UNL     1      31.914  31.226  19.402  1.00  0.00    -0.022 A 
HETATM   19  F1  UNL     1      32.126  33.495  18.745  1.00  0.00    -0.205 F 
HETATM   20  C17 UNL     1      32.205  30.243  20.317  1.00  0.00     0.018 A 
HETATM   21  C19 UNL     1      31.097  30.917  18.192  1.00  0.00     0.051 C 
ENDBRANCH  12  13
ENDBRANCH   1  12
BRANCH   2  22
HETATM   22  N2  UNL     1      35.329  30.600  24.262  1.00  0.00    -0.214 N 
HETATM   23  C7  UNL     1      36.061  31.820  24.041  1.00  0.00     0.168 C 
HETATM   24  C8  UNL     1      36.331  32.558  25.337  1.00  0.00     0.252 C 
HETATM   25  N3  UNL     1      36.340  31.574  26.396  1.00  0.00    -0.072 N 
HETATM   26  C9  UNL     1      34.943  31.181  26.608  1.00  0.00     0.252 C 
ATOM     27  H32 UNL     1      36.959  30.784  26.210  1.00  0.00     0.277 HD
ATOM     28  H31 UNL     1      36.802  31.897  27.246  1.00  0.00     0.277 HD
HETATM   29  C10 UNL     1      34.487  30.368  25.410  1.00  0.00     0.168 C 
ENDBRANCH   2  22
TORSDOF 3
ENDMDL
