MODEL 1
REMARK VINA RESULT: -7.436037311      0.000      0.000
REMARK  1 active torsions:
REMARK  status: ('A' for Active; 'I' for Inactive)
REMARK    1  A    between atoms: C4_4  and  C5_5 
ROOT
HETATM    1  C5  UNL     1     -11.628  25.335  -1.447  1.00  0.00     0.060 A 
HETATM    2  C6  UNL     1     -10.716  24.529  -0.820  1.00  0.00     0.128 A 
HETATM    3  N1  UNL     1      -9.919  25.285  -0.043  1.00  0.00    -0.317 N 
HETATM    4  C7  UNL     1      -8.877  25.315   0.824  1.00  0.00     0.098 A 
HETATM    5  C8  UNL     1      -8.615  26.589   1.240  1.00  0.00     0.021 A 
HETATM    6  C9  UNL     1      -9.551  27.402   0.593  1.00  0.00     0.050 A 
HETATM    7  C10 UNL     1     -10.314  26.546  -0.171  1.00  0.00     0.111 A 
HETATM    8  N2  UNL     1     -11.352  26.582  -1.024  1.00  0.00    -0.340 N 
ATOM      9  H2  UNL     1     -11.854  27.424  -1.306  1.00  0.00     0.167 HD
ENDROOT
BRANCH   1  10
HETATM   10  C4  UNL     1     -12.690  24.967  -2.383  1.00  0.00    -0.008 A 
HETATM   11  C3  UNL     1     -13.110  23.663  -2.521  1.00  0.00     0.014 A 
HETATM   12  C2  UNL     1     -14.117  23.301  -3.406  1.00  0.00     0.001 A 
HETATM   13  C1  UNL     1     -14.738  24.250  -4.190  1.00  0.00     0.000 A 
HETATM   14  C12 UNL     1     -14.319  25.557  -4.055  1.00  0.00     0.001 A 
HETATM   15  C11 UNL     1     -13.311  25.914  -3.167  1.00  0.00     0.014 A 
ENDBRANCH   1  10
TORSDOF 1
ENDMDL
