MODEL 11
REMARK VINA RESULT: -6.403474885      1.371      5.861
REMARK  1 active torsions:
REMARK  status: ('A' for Active; 'I' for Inactive)
REMARK    1  A    between atoms: C4_4  and  C5_5 
ROOT
HETATM    1  C5  UNL     1     -10.914  25.072  -0.487  1.00  0.00     0.060 A 
HETATM    2  C6  UNL     1     -11.338  26.133  -1.243  1.00  0.00     0.128 A 
HETATM    3  N1  UNL     1     -12.300  25.717  -2.085  1.00  0.00    -0.317 N 
HETATM    4  C7  UNL     1     -13.172  26.055  -3.068  1.00  0.00     0.098 A 
HETATM    5  C8  UNL     1     -13.905  24.976  -3.473  1.00  0.00     0.021 A 
HETATM    6  C9  UNL     1     -13.464  23.901  -2.695  1.00  0.00     0.050 A 
HETATM    7  C10 UNL     1     -12.488  24.420  -1.873  1.00  0.00     0.111 A 
HETATM    8  N2  UNL     1     -11.647  24.023  -0.902  1.00  0.00    -0.340 N 
ATOM      9  H2  UNL     1     -11.576  23.073  -0.536  1.00  0.00     0.167 HD
ENDROOT
BRANCH   1  10
HETATM   10  C4  UNL     1      -9.889  25.037   0.556  1.00  0.00    -0.008 A 
HETATM   11  C3  UNL     1      -8.656  25.624   0.375  1.00  0.00     0.014 A 
HETATM   12  C2  UNL     1      -7.675  25.597   1.357  1.00  0.00     0.001 A 
HETATM   13  C1  UNL     1      -7.905  24.973   2.565  1.00  0.00     0.000 A 
HETATM   14  C12 UNL     1      -9.139  24.385   2.749  1.00  0.00     0.001 A 
HETATM   15  C11 UNL     1     -10.118  24.415   1.762  1.00  0.00     0.014 A 
ENDBRANCH   1  10
TORSDOF 1
ENDMDL
