MODEL 8
REMARK VINA RESULT: -6.800239254      1.053      5.698
REMARK  1 active torsions:
REMARK  status: ('A' for Active; 'I' for Inactive)
REMARK    1  A    between atoms: C4_4  and  C5_5 
ROOT
HETATM    1  C5  UNL     1     -11.137  25.530  -0.998  1.00  0.00     0.060 A 
HETATM    2  C6  UNL     1     -11.618  24.267  -1.222  1.00  0.00     0.128 A 
HETATM    3  N1  UNL     1     -12.617  24.329  -2.120  1.00  0.00    -0.317 N 
HETATM    4  C7  UNL     1     -13.544  23.643  -2.834  1.00  0.00     0.098 A 
HETATM    5  C8  UNL     1     -14.280  24.481  -3.623  1.00  0.00     0.021 A 
HETATM    6  C9  UNL     1     -13.781  25.766  -3.386  1.00  0.00     0.050 A 
HETATM    7  C10 UNL     1     -12.772  25.602  -2.462  1.00  0.00     0.111 A 
HETATM    8  N2  UNL     1     -11.874  26.337  -1.783  1.00  0.00    -0.340 N 
ATOM      9  H2  UNL     1     -11.768  27.349  -1.851  1.00  0.00     0.167 HD
ENDROOT
BRANCH   1  10
HETATM   10  C4  UNL     1     -10.059  25.959  -0.107  1.00  0.00    -0.008 A 
HETATM   11  C3  UNL     1     -10.080  27.191   0.510  1.00  0.00     0.014 A 
HETATM   12  C2  UNL     1      -9.062  27.610   1.356  1.00  0.00     0.001 A 
HETATM   13  C1  UNL     1      -7.980  26.794   1.612  1.00  0.00     0.000 A 
HETATM   14  C12 UNL     1      -7.957  25.560   0.996  1.00  0.00     0.001 A 
HETATM   15  C11 UNL     1      -8.978  25.146   0.149  1.00  0.00     0.014 A 
ENDBRANCH   1  10
TORSDOF 1
ENDMDL
