MODEL 5
REMARK VINA RESULT: -7.171402834      1.507      5.762
REMARK  1 active torsions:
REMARK  status: ('A' for Active; 'I' for Inactive)
REMARK    1  A    between atoms: C4_4  and  C5_5 
ROOT
HETATM    1  C5  UNL     1     -11.848  24.870  -1.362  1.00  0.00     0.060 A 
HETATM    2  C6  UNL     1     -12.350  25.908  -2.101  1.00  0.00     0.128 A 
HETATM    3  N1  UNL     1     -13.271  25.434  -2.959  1.00  0.00    -0.317 N 
HETATM    4  C7  UNL     1     -14.160  25.721  -3.942  1.00  0.00     0.098 A 
HETATM    5  C8  UNL     1     -14.804  24.596  -4.372  1.00  0.00     0.021 A 
HETATM    6  C9  UNL     1     -14.284  23.544  -3.611  1.00  0.00     0.050 A 
HETATM    7  C10 UNL     1     -13.358  24.122  -2.771  1.00  0.00     0.111 A 
HETATM    8  N2  UNL     1     -12.494  23.774  -1.801  1.00  0.00    -0.340 N 
ATOM      9  H2  UNL     1     -12.351  22.827  -1.452  1.00  0.00     0.167 HD
ENDROOT
BRANCH   1  10
HETATM   10  C4  UNL     1     -10.831  24.896  -0.312  1.00  0.00    -0.008 A 
HETATM   11  C3  UNL     1      -9.641  25.571  -0.477  1.00  0.00     0.014 A 
HETATM   12  C2  UNL     1      -8.667  25.602   0.512  1.00  0.00     0.001 A 
HETATM   13  C1  UNL     1      -8.860  24.950   1.711  1.00  0.00     0.000 A 
HETATM   14  C12 UNL     1     -10.051  24.274   1.880  1.00  0.00     0.001 A 
HETATM   15  C11 UNL     1     -11.023  24.245   0.886  1.00  0.00     0.014 A 
ENDBRANCH   1  10
TORSDOF 1
ENDMDL
