MODEL 3
REMARK VINA RESULT: -7.389206670      1.008      1.447
REMARK  1 active torsions:
REMARK  status: ('A' for Active; 'I' for Inactive)
REMARK    1  A    between atoms: C4_4  and  C5_5 
ROOT
HETATM    1  C5  UNL     1     -11.514  24.845  -1.112  1.00  0.00     0.060 A 
HETATM    2  C6  UNL     1     -10.369  25.597  -1.129  1.00  0.00     0.128 A 
HETATM    3  N1  UNL     1      -9.690  25.392   0.014  1.00  0.00    -0.317 N 
HETATM    4  C7  UNL     1      -8.590  25.690   0.749  1.00  0.00     0.098 A 
HETATM    5  C8  UNL     1      -8.592  25.018   1.938  1.00  0.00     0.021 A 
HETATM    6  C9  UNL     1      -9.764  24.254   1.944  1.00  0.00     0.050 A 
HETATM    7  C10 UNL     1     -10.385  24.529   0.745  1.00  0.00     0.111 A 
HETATM    8  N2  UNL     1     -11.495  24.193   0.064  1.00  0.00    -0.340 N 
ATOM      9  H2  UNL     1     -12.212  23.545   0.389  1.00  0.00     0.167 HD
ENDROOT
BRANCH   1  10
HETATM   10  C4  UNL     1     -12.560  24.741  -2.129  1.00  0.00    -0.008 A 
HETATM   11  C3  UNL     1     -13.128  23.530  -2.458  1.00  0.00     0.014 A 
HETATM   12  C2  UNL     1     -14.122  23.419  -3.422  1.00  0.00     0.001 A 
HETATM   13  C1  UNL     1     -14.581  24.534  -4.091  1.00  0.00     0.000 A 
HETATM   14  C12 UNL     1     -14.014  25.748  -3.763  1.00  0.00     0.001 A 
HETATM   15  C11 UNL     1     -13.019  25.854  -2.798  1.00  0.00     0.014 A 
ENDBRANCH   1  10
TORSDOF 1
ENDMDL
