MODEL 2
REMARK VINA RESULT: -7.411166887      0.010      1.258
REMARK  1 active torsions:
REMARK  status: ('A' for Active; 'I' for Inactive)
REMARK    1  A    between atoms: C4_4  and  C5_5 
ROOT
HETATM    1  C5  UNL     1     -11.632  25.335  -1.451  1.00  0.00     0.060 A 
HETATM    2  C6  UNL     1     -10.716  24.531  -0.826  1.00  0.00     0.128 A 
HETATM    3  N1  UNL     1      -9.922  25.289  -0.049  1.00  0.00    -0.317 N 
HETATM    4  C7  UNL     1      -8.878  25.321   0.817  1.00  0.00     0.098 A 
HETATM    5  C8  UNL     1      -8.621  26.595   1.236  1.00  0.00     0.021 A 
HETATM    6  C9  UNL     1      -9.562  27.406   0.592  1.00  0.00     0.050 A 
HETATM    7  C10 UNL     1     -10.321  26.549  -0.174  1.00  0.00     0.111 A 
HETATM    8  N2  UNL     1     -11.361  26.582  -1.025  1.00  0.00    -0.340 N 
ATOM      9  H2  UNL     1     -11.866  27.423  -1.306  1.00  0.00     0.167 HD
ENDROOT
BRANCH   1  10
HETATM   10  C4  UNL     1     -12.693  24.965  -2.387  1.00  0.00    -0.008 A 
HETATM   11  C3  UNL     1     -13.322  25.905  -3.174  1.00  0.00     0.014 A 
HETATM   12  C2  UNL     1     -14.331  25.566  -4.065  1.00  0.00     0.001 A 
HETATM   13  C1  UNL     1     -14.744  24.257  -4.196  1.00  0.00     0.000 A 
HETATM   14  C12 UNL     1     -14.116  23.313  -3.410  1.00  0.00     0.001 A 
HETATM   15  C11 UNL     1     -13.106  23.658  -2.518  1.00  0.00     0.014 A 
ENDBRANCH   1  10
TORSDOF 1
ENDMDL
