MODEL 4
REMARK VINA RESULT: -7.208742068      1.508      5.672
REMARK  1 active torsions:
REMARK  status: ('A' for Active; 'I' for Inactive)
REMARK    1  A    between atoms: C4_4  and  C5_5 
ROOT
HETATM    1  C5  UNL     1     -11.855  24.872  -1.375  1.00  0.00     0.060 A 
HETATM    2  C6  UNL     1     -12.355  25.907  -2.120  1.00  0.00     0.128 A 
HETATM    3  N1  UNL     1     -13.278  25.430  -2.974  1.00  0.00    -0.317 N 
HETATM    4  C7  UNL     1     -14.167  25.714  -3.959  1.00  0.00     0.098 A 
HETATM    5  C8  UNL     1     -14.813  24.588  -4.382  1.00  0.00     0.021 A 
HETATM    6  C9  UNL     1     -14.295  23.539  -3.615  1.00  0.00     0.050 A 
HETATM    7  C10 UNL     1     -13.367  24.120  -2.779  1.00  0.00     0.111 A 
HETATM    8  N2  UNL     1     -12.504  23.775  -1.808  1.00  0.00    -0.340 N 
ATOM      9  H2  UNL     1     -12.362  22.829  -1.454  1.00  0.00     0.167 HD
ENDROOT
BRANCH   1  10
HETATM   10  C4  UNL     1     -10.837  24.902  -0.325  1.00  0.00    -0.008 A 
HETATM   11  C3  UNL     1     -11.016  24.245   0.873  1.00  0.00     0.014 A 
HETATM   12  C2  UNL     1     -10.057  24.267   1.876  1.00  0.00     0.001 A 
HETATM   13  C1  UNL     1      -8.875  24.957   1.706  1.00  0.00     0.000 A 
HETATM   14  C12 UNL     1      -8.693  25.615   0.507  1.00  0.00     0.001 A 
HETATM   15  C11 UNL     1      -9.657  25.590  -0.495  1.00  0.00     0.014 A 
ENDBRANCH   1  10
TORSDOF 1
ENDMDL
