MODEL 7
REMARK VINA RESULT: -6.808737391      1.055      5.584
REMARK  1 active torsions:
REMARK  status: ('A' for Active; 'I' for Inactive)
REMARK    1  A    between atoms: C4_4  and  C5_5 
ROOT
HETATM    1  C5  UNL     1     -11.113  25.528  -0.998  1.00  0.00     0.060 A 
HETATM    2  C6  UNL     1     -11.623  24.276  -1.220  1.00  0.00     0.128 A 
HETATM    3  N1  UNL     1     -12.617  24.358  -2.122  1.00  0.00    -0.317 N 
HETATM    4  C7  UNL     1     -13.557  23.693  -2.839  1.00  0.00     0.098 A 
HETATM    5  C8  UNL     1     -14.268  24.545  -3.634  1.00  0.00     0.021 A 
HETATM    6  C9  UNL     1     -13.740  25.819  -3.399  1.00  0.00     0.050 A 
HETATM    7  C10 UNL     1     -12.739  25.634  -2.470  1.00  0.00     0.111 A 
HETATM    8  N2  UNL     1     -11.827  26.349  -1.789  1.00  0.00    -0.340 N 
ATOM      9  H2  UNL     1     -11.697  27.358  -1.861  1.00  0.00     0.167 HD
ENDROOT
BRANCH   1  10
HETATM   10  C4  UNL     1     -10.029  25.934  -0.104  1.00  0.00    -0.008 A 
HETATM   11  C3  UNL     1      -8.955  25.109   0.149  1.00  0.00     0.014 A 
HETATM   12  C2  UNL     1      -7.921  25.483   0.996  1.00  0.00     0.001 A 
HETATM   13  C1  UNL     1      -7.933  26.711   1.622  1.00  0.00     0.000 A 
HETATM   14  C12 UNL     1      -9.008  27.539   1.371  1.00  0.00     0.001 A 
HETATM   15  C11 UNL     1     -10.041  27.160   0.522  1.00  0.00     0.014 A 
ENDBRANCH   1  10
TORSDOF 1
ENDMDL
