MODEL 5
REMARK VINA RESULT: -6.686770511      7.107     10.387
REMARK  1 active torsions:
REMARK  status: ('A' for Active; 'I' for Inactive)
REMARK    1  A    between atoms: C8_9  and  C9_10 
ROOT
HETATM    1  C1  UNL     1     -17.245  25.628   3.158  1.00  0.00     0.149 C 
HETATM    2  N1  UNL     1     -17.040  27.048   3.357  1.00  0.00    -0.388 N 
HETATM    3  C2  UNL     1     -17.952  28.086   2.936  1.00  0.00     0.126 C 
HETATM    4  C3  UNL     1     -17.053  29.309   2.879  1.00  0.00     0.056 C 
HETATM    5  C4  UNL     1     -15.898  28.962   3.746  1.00  0.00    -0.055 C 
HETATM    6  C5  UNL     1     -15.941  27.680   3.983  1.00  0.00     0.009 C 
HETATM    7  C6  UNL     1     -14.878  27.048   4.845  1.00  0.00     0.058 C 
HETATM    8  C7  UNL     1     -14.459  28.091   5.847  1.00  0.00     0.017 C 
HETATM    9  C8  UNL     1     -13.777  29.201   5.036  1.00  0.00     0.041 C 
HETATM   10  C15 UNL     1     -14.858  29.892   4.268  1.00  0.00     0.047 C 
ENDROOT
BRANCH   9  11
HETATM   11  C9  UNL     1     -13.131  30.089   6.021  1.00  0.00     0.031 A 
HETATM   12  C10 UNL     1     -12.309  31.170   5.813  1.00  0.00     0.123 A 
HETATM   13  N2  UNL     1     -11.943  31.696   7.006  1.00  0.00    -0.321 N 
HETATM   14  C11 UNL     1     -12.524  30.960   7.957  1.00  0.00     0.091 A 
HETATM   15  C14 UNL     1     -11.179  32.727   7.607  1.00  0.00     0.094 A 
HETATM   16  N3  UNL     1     -13.242  29.989   7.354  1.00  0.00    -0.347 N 
HETATM   17  C12 UNL     1     -12.134  31.519   9.267  1.00  0.00     0.105 A 
ATOM     18  H3  UNL     1     -13.790  29.280   7.842  1.00  0.00     0.167 HD
HETATM   19  C13 UNL     1     -11.264  32.658   8.922  1.00  0.00    -0.002 A 
ENDBRANCH   9  11
TORSDOF 1
ENDMDL
