MODEL 3
REMARK VINA RESULT: -7.080523219      1.238      1.564
REMARK  1 active torsions:
REMARK  status: ('A' for Active; 'I' for Inactive)
REMARK    1  A    between atoms: C8_9  and  C9_10 
ROOT
HETATM    1  C1  UNL     1      -6.504  28.093   4.299  1.00  0.00     0.149 C 
HETATM    2  N1  UNL     1      -7.357  26.973   3.957  1.00  0.00    -0.388 N 
HETATM    3  C2  UNL     1      -7.723  25.904   4.856  1.00  0.00     0.126 C 
HETATM    4  C3  UNL     1      -8.121  24.793   3.899  1.00  0.00     0.056 C 
HETATM    5  C4  UNL     1      -8.431  25.493   2.626  1.00  0.00    -0.055 C 
HETATM    6  C5  UNL     1      -7.979  26.714   2.715  1.00  0.00     0.009 C 
HETATM    7  C6  UNL     1      -8.158  27.658   1.553  1.00  0.00     0.058 C 
HETATM    8  C7  UNL     1      -9.443  27.268   0.874  1.00  0.00     0.017 C 
HETATM    9  C8  UNL     1      -9.199  25.872   0.284  1.00  0.00     0.041 C 
HETATM   10  C15 UNL     1      -9.133  24.926   1.441  1.00  0.00     0.047 C 
ENDROOT
BRANCH   9  11
HETATM   11  C9  UNL     1     -10.345  25.596  -0.603  1.00  0.00     0.031 A 
HETATM   12  C10 UNL     1     -11.062  26.460  -1.394  1.00  0.00     0.123 A 
HETATM   13  N2  UNL     1     -12.034  25.778  -2.044  1.00  0.00    -0.321 N 
HETATM   14  C11 UNL     1     -11.936  24.500  -1.670  1.00  0.00     0.091 A 
HETATM   15  C14 UNL     1     -13.104  25.921  -2.962  1.00  0.00     0.094 A 
HETATM   16  N3  UNL     1     -10.912  24.396  -0.797  1.00  0.00    -0.347 N 
HETATM   17  C12 UNL     1     -12.992  23.739  -2.369  1.00  0.00     0.105 A 
ATOM     18  H3  UNL     1     -10.612  23.530  -0.350  1.00  0.00     0.167 HD
HETATM   19  C13 UNL     1     -13.687  24.757  -3.177  1.00  0.00    -0.002 A 
ENDBRANCH   9  11
TORSDOF 1
ENDMDL
