MODEL 4
REMARK VINA RESULT: -6.966336051      7.071     10.414
REMARK  1 active torsions:
REMARK  status: ('A' for Active; 'I' for Inactive)
REMARK    1  A    between atoms: C8_9  and  C9_10 
ROOT
HETATM    1  C1  UNL     1     -17.233  25.724   3.238  1.00  0.00     0.149 C 
HETATM    2  N1  UNL     1     -17.009  27.144   3.411  1.00  0.00    -0.388 N 
HETATM    3  C2  UNL     1     -17.913  28.185   2.980  1.00  0.00     0.126 C 
HETATM    4  C3  UNL     1     -17.001  29.397   2.894  1.00  0.00     0.056 C 
HETATM    5  C4  UNL     1     -15.841  29.051   3.756  1.00  0.00    -0.055 C 
HETATM    6  C5  UNL     1     -15.896  27.773   4.015  1.00  0.00     0.009 C 
HETATM    7  C6  UNL     1     -14.832  27.145   4.878  1.00  0.00     0.058 C 
HETATM    8  C7  UNL     1     -14.391  28.199   5.857  1.00  0.00     0.017 C 
HETATM    9  C8  UNL     1     -13.705  29.288   5.020  1.00  0.00     0.041 C 
HETATM   10  C15 UNL     1     -14.786  29.978   4.251  1.00  0.00     0.047 C 
ENDROOT
BRANCH   9  11
HETATM   11  C9  UNL     1     -13.039  30.185   5.983  1.00  0.00     0.031 A 
HETATM   12  C10 UNL     1     -12.998  30.115   7.354  1.00  0.00     0.123 A 
HETATM   13  N2  UNL     1     -12.272  31.150   7.839  1.00  0.00    -0.321 N 
HETATM   14  C11 UNL     1     -11.858  31.866   6.790  1.00  0.00     0.091 A 
HETATM   15  C14 UNL     1     -11.796  31.743   9.034  1.00  0.00     0.094 A 
HETATM   16  N3  UNL     1     -12.326  31.277   5.670  1.00  0.00    -0.347 N 
HETATM   17  C12 UNL     1     -11.062  33.001   7.301  1.00  0.00     0.105 A 
ATOM     18  H3  UNL     1     -12.161  31.614   4.721  1.00  0.00     0.167 HD
HETATM   19  C13 UNL     1     -11.088  32.824   8.764  1.00  0.00    -0.002 A 
ENDBRANCH   9  11
TORSDOF 1
ENDMDL
