MODEL 7
REMARK VINA RESULT: -6.490661397      6.955      7.742
REMARK  1 active torsions:
REMARK  status: ('A' for Active; 'I' for Inactive)
REMARK    1  A    between atoms: C8_9  and  C9_10 
ROOT
HETATM    1  C1  UNL     1     -11.067  32.764   7.479  1.00  0.00     0.149 C 
HETATM    2  N1  UNL     1     -11.973  31.679   7.793  1.00  0.00    -0.388 N 
HETATM    3  C2  UNL     1     -12.497  31.389   9.107  1.00  0.00     0.126 C 
HETATM    4  C3  UNL     1     -12.898  29.928   8.986  1.00  0.00     0.056 C 
HETATM    5  C4  UNL     1     -13.044  29.704   7.524  1.00  0.00    -0.055 C 
HETATM    6  C5  UNL     1     -12.506  30.718   6.904  1.00  0.00     0.009 C 
HETATM    7  C6  UNL     1     -12.511  30.753   5.397  1.00  0.00     0.058 C 
HETATM    8  C7  UNL     1     -13.761  30.041   4.952  1.00  0.00     0.017 C 
HETATM    9  C8  UNL     1     -13.577  28.574   5.366  1.00  0.00     0.041 C 
HETATM   10  C15 UNL     1     -13.684  28.537   6.858  1.00  0.00     0.047 C 
ENDROOT
BRANCH   9  11
HETATM   11  C9  UNL     1     -14.663  27.825   4.706  1.00  0.00     0.031 A 
HETATM   12  C10 UNL     1     -14.845  26.468   4.600  1.00  0.00     0.123 A 
HETATM   13  N2  UNL     1     -15.980  26.216   3.906  1.00  0.00    -0.321 N 
HETATM   14  C11 UNL     1     -16.510  27.396   3.576  1.00  0.00     0.091 A 
HETATM   15  C14 UNL     1     -16.801  25.174   3.409  1.00  0.00     0.094 A 
HETATM   16  N3  UNL     1     -15.708  28.366   4.063  1.00  0.00    -0.347 N 
HETATM   17  C12 UNL     1     -17.751  27.142   2.816  1.00  0.00     0.105 A 
ATOM     18  H3  UNL     1     -15.872  29.368   3.956  1.00  0.00     0.167 HD
HETATM   19  C13 UNL     1     -17.841  25.671   2.768  1.00  0.00    -0.002 A 
ENDBRANCH   9  11
TORSDOF 1
ENDMDL
