MODEL 1
REMARK VINA RESULT: -8.198706834      0.000      0.000
REMARK  1 active torsions:
REMARK  status: ('A' for Active; 'I' for Inactive)
REMARK    1  A    between atoms: C8_9  and  C9_10 
ROOT
HETATM    1  C1  UNL     1      -7.755  27.792   3.375  1.00  0.00     0.149 C 
HETATM    2  N1  UNL     1      -8.604  26.670   3.030  1.00  0.00    -0.388 N 
HETATM    3  C2  UNL     1      -8.991  25.614   3.936  1.00  0.00     0.126 C 
HETATM    4  C3  UNL     1      -9.373  24.491   2.985  1.00  0.00     0.056 C 
HETATM    5  C4  UNL     1      -9.656  25.176   1.697  1.00  0.00    -0.055 C 
HETATM    6  C5  UNL     1      -9.203  26.396   1.779  1.00  0.00     0.009 C 
HETATM    7  C6  UNL     1      -9.356  27.325   0.602  1.00  0.00     0.058 C 
HETATM    8  C7  UNL     1     -10.629  26.930  -0.097  1.00  0.00     0.017 C 
HETATM    9  C8  UNL     1     -10.377  25.526  -0.664  1.00  0.00     0.041 C 
HETATM   10  C15 UNL     1     -10.336  24.595   0.506  1.00  0.00     0.047 C 
ENDROOT
BRANCH   9  11
HETATM   11  C9  UNL     1     -11.506  25.242  -1.569  1.00  0.00     0.031 A 
HETATM   12  C10 UNL     1     -12.217  26.100  -2.372  1.00  0.00     0.123 A 
HETATM   13  N2  UNL     1     -13.173  25.410  -3.037  1.00  0.00    -0.321 N 
HETATM   14  C11 UNL     1     -13.071  24.133  -2.662  1.00  0.00     0.091 A 
HETATM   15  C14 UNL     1     -14.229  25.546  -3.973  1.00  0.00     0.094 A 
HETATM   16  N3  UNL     1     -12.061  24.037  -1.773  1.00  0.00    -0.347 N 
HETATM   17  C12 UNL     1     -14.109  23.364  -3.379  1.00  0.00     0.105 A 
ATOM     18  H3  UNL     1     -11.761  23.173  -1.321  1.00  0.00     0.167 HD
HETATM   19  C13 UNL     1     -14.799  24.377  -4.198  1.00  0.00    -0.002 A 
ENDBRANCH   9  11
TORSDOF 1
ENDMDL
