MODEL 6
REMARK VINA RESULT: -6.606922000      1.421      2.071
REMARK  1 active torsions:
REMARK  status: ('A' for Active; 'I' for Inactive)
REMARK    1  A    between atoms: C8_9  and  C9_10 
ROOT
HETATM    1  C1  UNL     1      -5.831  26.816   2.143  1.00  0.00     0.149 C 
HETATM    2  N1  UNL     1      -7.046  27.401   1.615  1.00  0.00    -0.388 N 
HETATM    3  C2  UNL     1      -7.347  28.813   1.595  1.00  0.00     0.126 C 
HETATM    4  C3  UNL     1      -8.862  28.824   1.475  1.00  0.00     0.056 C 
HETATM    5  C4  UNL     1      -9.200  27.484   0.929  1.00  0.00    -0.055 C 
HETATM    6  C5  UNL     1      -8.143  26.726   1.033  1.00  0.00     0.009 C 
HETATM    7  C6  UNL     1      -8.204  25.298   0.552  1.00  0.00     0.058 C 
HETATM    8  C7  UNL     1      -9.165  25.274  -0.606  1.00  0.00     0.017 C 
HETATM    9  C8  UNL     1     -10.542  25.606  -0.015  1.00  0.00     0.041 C 
HETATM   10  C15 UNL     1     -10.507  27.054   0.358  1.00  0.00     0.047 C 
ENDROOT
BRANCH   9  11
HETATM   11  C9  UNL     1     -11.523  25.324  -1.080  1.00  0.00     0.031 A 
HETATM   12  C10 UNL     1     -12.146  26.192  -1.943  1.00  0.00     0.123 A 
HETATM   13  N2  UNL     1     -12.974  25.500  -2.761  1.00  0.00    -0.321 N 
HETATM   14  C11 UNL     1     -12.878  24.212  -2.422  1.00  0.00     0.091 A 
HETATM   15  C14 UNL     1     -13.893  25.640  -3.831  1.00  0.00     0.094 A 
HETATM   16  N3  UNL     1     -11.998  24.112  -1.404  1.00  0.00    -0.347 N 
HETATM   17  C12 UNL     1     -13.777  23.441  -3.305  1.00  0.00     0.105 A 
ATOM     18  H3  UNL     1     -11.733  23.240  -0.946  1.00  0.00     0.167 HD
HETATM   19  C13 UNL     1     -14.383  24.465  -4.176  1.00  0.00    -0.002 A 
ENDBRANCH   9  11
TORSDOF 1
ENDMDL
