MODEL 2
REMARK VINA RESULT: -7.936935068      0.828      1.301
REMARK  1 active torsions:
REMARK  status: ('A' for Active; 'I' for Inactive)
REMARK    1  A    between atoms: C8_9  and  C9_10 
ROOT
HETATM    1  C1  UNL     1      -7.362  28.074   3.659  1.00  0.00     0.149 C 
HETATM    2  N1  UNL     1      -8.030  26.861   3.233  1.00  0.00    -0.388 N 
HETATM    3  C2  UNL     1      -8.131  25.651   4.014  1.00  0.00     0.126 C 
HETATM    4  C3  UNL     1      -8.403  24.598   2.952  1.00  0.00     0.056 C 
HETATM    5  C4  UNL     1      -8.931  25.365   1.795  1.00  0.00    -0.055 C 
HETATM    6  C5  UNL     1      -8.694  26.631   2.006  1.00  0.00     0.009 C 
HETATM    7  C6  UNL     1      -9.128  27.648   0.982  1.00  0.00     0.058 C 
HETATM    8  C7  UNL     1     -10.375  27.106   0.336  1.00  0.00     0.017 C 
HETATM    9  C8  UNL     1      -9.937  25.852  -0.434  1.00  0.00     0.041 C 
HETATM   10  C15 UNL     1      -9.615  24.813   0.593  1.00  0.00     0.047 C 
ENDROOT
BRANCH   9  11
HETATM   11  C9  UNL     1     -11.085  25.471  -1.279  1.00  0.00     0.031 A 
HETATM   12  C10 UNL     1     -11.619  24.228  -1.513  1.00  0.00     0.123 A 
HETATM   13  N2  UNL     1     -12.671  24.339  -2.358  1.00  0.00    -0.321 N 
HETATM   14  C11 UNL     1     -12.803  25.634  -2.655  1.00  0.00     0.091 A 
HETATM   15  C14 UNL     1     -13.670  23.595  -3.033  1.00  0.00     0.094 A 
HETATM   16  N3  UNL     1     -11.839  26.314  -1.999  1.00  0.00    -0.347 N 
HETATM   17  C12 UNL     1     -13.948  25.775  -3.578  1.00  0.00     0.105 A 
ATOM     18  H3  UNL     1     -11.704  27.324  -2.045  1.00  0.00     0.167 HD
HETATM   19  C13 UNL     1     -14.433  24.394  -3.754  1.00  0.00    -0.002 A 
ENDBRANCH   9  11
TORSDOF 1
ENDMDL
