MODEL 3
REMARK VINA RESULT: -8.903176645      3.396      8.394
REMARK  4 active torsions:
REMARK  status: ('A' for Active; 'I' for Inactive)
REMARK       I    between atoms: C1_2  and  N1_3 
REMARK    1  A    between atoms: C1_2  and  C15_21 
REMARK    2  A    between atoms: N1_3  and  C2_5 
REMARK    3  A    between atoms: C2_5  and  C3_6 
REMARK    4  A    between atoms: C7_10  and  C8_11 
ROOT
HETATM    1  C3  UNL     1      -9.682  25.212   0.791  1.00  0.00    -0.040 A 
HETATM    2  C4  UNL     1     -10.634  24.343   1.288  1.00  0.00     0.009 A 
HETATM    3  C5  UNL     1     -10.603  23.856   2.589  1.00  0.00     0.002 A 
HETATM    4  C6  UNL     1      -9.593  24.241   3.432  1.00  0.00     0.014 A 
HETATM    5  C7  UNL     1      -8.634  25.103   2.968  1.00  0.00    -0.007 A 
HETATM    6  C14 UNL     1      -8.678  25.584   1.658  1.00  0.00     0.022 A 
ENDROOT
BRANCH   1   7
HETATM    7  C2  UNL     1      -9.756  25.709  -0.608  1.00  0.00     0.161 C 
BRANCH   7   8
HETATM    8  N1  UNL     1     -10.716  24.972  -1.389  1.00  0.00    -0.353 N 
HETATM    9  C1  UNL     1     -11.922  25.579  -1.806  1.00  0.00     0.251 C 
HETATM   10  O1  UNL     1     -12.147  26.792  -1.480  1.00  0.00    -0.268 OA
ATOM     11  H1  UNL     1     -10.524  24.003  -1.642  1.00  0.00     0.163 HD
BRANCH   9  12
HETATM   12  C15 UNL     1     -12.944  24.911  -2.594  1.00  0.00     0.032 A 
HETATM   13  C16 UNL     1     -13.726  25.595  -3.497  1.00  0.00     0.017 A 
HETATM   14  C17 UNL     1     -14.711  24.950  -4.255  1.00  0.00     0.001 A 
HETATM   15  C18 UNL     1     -14.911  23.596  -4.105  1.00  0.00     0.000 A 
HETATM   16  C19 UNL     1     -14.136  22.896  -3.205  1.00  0.00     0.001 A 
HETATM   17  C20 UNL     1     -13.176  23.556  -2.473  1.00  0.00     0.017 A 
ENDBRANCH   9  12
ENDBRANCH   7   8
ENDBRANCH   1   7
BRANCH   5  18
HETATM   18  C8  UNL     1      -7.564  25.509   3.865  1.00  0.00     0.060 A 
HETATM   19  C9  UNL     1      -7.047  24.799   4.903  1.00  0.00     0.128 A 
HETATM   20  N2  UNL     1      -6.077  25.573   5.451  1.00  0.00    -0.320 N 
HETATM   21  C10 UNL     1      -5.988  26.728   4.780  1.00  0.00     0.091 A 
HETATM   22  C13 UNL     1      -5.123  25.539   6.515  1.00  0.00     0.094 A 
HETATM   23  N3  UNL     1      -6.903  26.697   3.800  1.00  0.00    -0.344 N 
HETATM   24  C11 UNL     1      -4.914  27.544   5.412  1.00  0.00     0.105 A 
ATOM     25  H3  UNL     1      -7.074  27.438   3.120  1.00  0.00     0.167 HD
HETATM   26  C12 UNL     1      -4.437  26.679   6.507  1.00  0.00    -0.002 A 
ENDBRANCH   5  18
TORSDOF 4
ENDMDL
