MODEL 2
REMARK VINA RESULT: -9.023849846      3.359      8.351
REMARK  4 active torsions:
REMARK  status: ('A' for Active; 'I' for Inactive)
REMARK       I    between atoms: C1_2  and  N1_3 
REMARK    1  A    between atoms: C1_2  and  C15_21 
REMARK    2  A    between atoms: N1_3  and  C2_5 
REMARK    3  A    between atoms: C2_5  and  C3_6 
REMARK    4  A    between atoms: C7_10  and  C8_11 
ROOT
HETATM    1  C3  UNL     1      -9.677  25.217   0.799  1.00  0.00    -0.040 A 
HETATM    2  C4  UNL     1     -10.654  24.382   1.305  1.00  0.00     0.009 A 
HETATM    3  C5  UNL     1     -10.625  23.892   2.605  1.00  0.00     0.002 A 
HETATM    4  C6  UNL     1      -9.592  24.239   3.436  1.00  0.00     0.014 A 
HETATM    5  C7  UNL     1      -8.608  25.066   2.963  1.00  0.00    -0.007 A 
HETATM    6  C14 UNL     1      -8.650  25.550   1.654  1.00  0.00     0.022 A 
ENDROOT
BRANCH   1   7
HETATM    7  C2  UNL     1      -9.749  25.720  -0.599  1.00  0.00     0.161 C 
BRANCH   7   8
HETATM    8  N1  UNL     1     -10.710  24.986  -1.383  1.00  0.00    -0.353 N 
HETATM    9  C1  UNL     1     -11.914  25.597  -1.799  1.00  0.00     0.251 C 
HETATM   10  O1  UNL     1     -12.138  26.808  -1.468  1.00  0.00    -0.268 OA
ATOM     11  H1  UNL     1     -10.518  24.018  -1.640  1.00  0.00     0.163 HD
BRANCH   9  12
HETATM   12  C15 UNL     1     -12.936  24.933  -2.590  1.00  0.00     0.032 A 
HETATM   13  C16 UNL     1     -13.712  25.619  -3.496  1.00  0.00     0.017 A 
HETATM   14  C17 UNL     1     -14.697  24.979  -4.258  1.00  0.00     0.001 A 
HETATM   15  C18 UNL     1     -14.904  23.626  -4.107  1.00  0.00     0.000 A 
HETATM   16  C19 UNL     1     -14.136  22.923  -3.204  1.00  0.00     0.001 A 
HETATM   17  C20 UNL     1     -13.176  23.579  -2.469  1.00  0.00     0.017 A 
ENDBRANCH   9  12
ENDBRANCH   7   8
ENDBRANCH   1   7
BRANCH   5  18
HETATM   18  C8  UNL     1      -7.514  25.431   3.848  1.00  0.00     0.060 A 
HETATM   19  C9  UNL     1      -6.848  26.615   3.889  1.00  0.00     0.128 A 
HETATM   20  N2  UNL     1      -5.914  26.496   4.865  1.00  0.00    -0.320 N 
HETATM   21  C10 UNL     1      -5.991  25.279   5.418  1.00  0.00     0.091 A 
HETATM   22  C13 UNL     1      -4.878  27.261   5.485  1.00  0.00     0.094 A 
HETATM   23  N3  UNL     1      -6.976  24.615   4.796  1.00  0.00    -0.344 N 
HETATM   24  C11 UNL     1      -4.951  25.191   6.481  1.00  0.00     0.105 A 
ATOM     25  H3  UNL     1      -7.271  23.660   4.999  1.00  0.00     0.167 HD
HETATM   26  C12 UNL     1      -4.307  26.517   6.429  1.00  0.00    -0.002 A 
ENDBRANCH   5  18
TORSDOF 4
ENDMDL
