MODEL 1
REMARK VINA RESULT: -9.061669933      0.000      0.000
REMARK  4 active torsions:
REMARK  status: ('A' for Active; 'I' for Inactive)
REMARK       I    between atoms: C1_2  and  N1_3 
REMARK    1  A    between atoms: C1_2  and  C15_21 
REMARK    2  A    between atoms: N1_3  and  C2_5 
REMARK    3  A    between atoms: C2_5  and  C3_6 
REMARK    4  A    between atoms: C7_10  and  C8_11 
ROOT
HETATM    1  C3  UNL     1      -9.937  24.725   2.107  1.00  0.00    -0.040 A 
HETATM    2  C4  UNL     1      -8.731  25.288   1.738  1.00  0.00     0.009 A 
HETATM    3  C5  UNL     1      -8.472  25.731   0.446  1.00  0.00     0.002 A 
HETATM    4  C6  UNL     1      -9.439  25.612  -0.517  1.00  0.00     0.014 A 
HETATM    5  C7  UNL     1     -10.647  25.058  -0.180  1.00  0.00    -0.007 A 
HETATM    6  C14 UNL     1     -10.893  24.618   1.121  1.00  0.00     0.022 A 
ENDROOT
BRANCH   1   7
HETATM    7  C2  UNL     1     -10.173  24.267   3.502  1.00  0.00     0.161 C 
BRANCH   7   8
HETATM    8  N1  UNL     1     -11.410  24.779   4.032  1.00  0.00    -0.353 N 
HETATM    9  C1  UNL     1     -12.484  23.908   4.320  1.00  0.00     0.251 C 
HETATM   10  O1  UNL     1     -12.342  22.659   4.102  1.00  0.00    -0.268 OA
ATOM     11  H1  UNL     1     -11.512  25.780   4.202  1.00  0.00     0.163 HD
BRANCH   9  12
HETATM   12  C15 UNL     1     -13.765  24.338   4.855  1.00  0.00     0.032 A 
HETATM   13  C16 UNL     1     -14.021  24.343   6.208  1.00  0.00     0.017 A 
HETATM   14  C17 UNL     1     -15.256  24.757   6.723  1.00  0.00     0.001 A 
HETATM   15  C18 UNL     1     -16.248  25.175   5.864  1.00  0.00     0.000 A 
HETATM   16  C19 UNL     1     -16.008  25.177   4.507  1.00  0.00     0.001 A 
HETATM   17  C20 UNL     1     -14.786  24.764   4.029  1.00  0.00     0.017 A 
ENDBRANCH   9  12
ENDBRANCH   7   8
ENDBRANCH   1   7
BRANCH   5  18
HETATM   18  C8  UNL     1     -11.670  24.934  -1.206  1.00  0.00     0.060 A 
HETATM   19  C9  UNL     1     -12.216  25.933  -1.948  1.00  0.00     0.128 A 
HETATM   20  N2  UNL     1     -13.124  25.349  -2.769  1.00  0.00    -0.320 N 
HETATM   21  C10 UNL     1     -13.148  24.029  -2.548  1.00  0.00     0.091 A 
HETATM   22  C13 UNL     1     -14.060  25.702  -3.791  1.00  0.00     0.094 A 
HETATM   23  N3  UNL     1     -12.253  23.764  -1.585  1.00  0.00    -0.344 N 
HETATM   24  C11 UNL     1     -14.155  23.429  -3.467  1.00  0.00     0.105 A 
ATOM     25  H3  UNL     1     -12.045  22.842  -1.201  1.00  0.00     0.167 HD
HETATM   26  C12 UNL     1     -14.669  24.595  -4.209  1.00  0.00    -0.002 A 
ENDBRANCH   5  18
TORSDOF 4
ENDMDL
