MODEL 6
REMARK VINA RESULT: -8.604717697      3.487      7.706
REMARK  4 active torsions:
REMARK  status: ('A' for Active; 'I' for Inactive)
REMARK       I    between atoms: C1_2  and  N1_3 
REMARK    1  A    between atoms: C1_2  and  C15_21 
REMARK    2  A    between atoms: N1_3  and  C2_5 
REMARK    3  A    between atoms: C2_5  and  C3_6 
REMARK    4  A    between atoms: C7_10  and  C8_11 
ROOT
HETATM    1  C3  UNL     1     -10.244  25.048   1.330  1.00  0.00    -0.040 A 
HETATM    2  C4  UNL     1     -10.662  23.893   1.963  1.00  0.00     0.009 A 
HETATM    3  C5  UNL     1     -11.131  23.881   3.271  1.00  0.00     0.002 A 
HETATM    4  C6  UNL     1     -11.189  25.052   3.981  1.00  0.00     0.014 A 
HETATM    5  C7  UNL     1     -10.781  26.213   3.379  1.00  0.00    -0.007 A 
HETATM    6  C14 UNL     1     -10.311  26.211   2.065  1.00  0.00     0.022 A 
ENDROOT
BRANCH   1   7
HETATM    7  C2  UNL     1      -9.750  25.016  -0.073  1.00  0.00     0.161 C 
BRANCH   7   8
HETATM    8  N1  UNL     1     -10.741  24.490  -0.977  1.00  0.00    -0.353 N 
HETATM    9  C1  UNL     1     -11.746  25.329  -1.508  1.00  0.00     0.251 C 
HETATM   10  O1  UNL     1     -11.763  26.560  -1.173  1.00  0.00    -0.268 OA
ATOM     11  H1  UNL     1     -10.717  23.504  -1.237  1.00  0.00     0.163 HD
BRANCH   9  12
HETATM   12  C15 UNL     1     -12.783  24.884  -2.424  1.00  0.00     0.032 A 
HETATM   13  C16 UNL     1     -13.166  23.564  -2.500  1.00  0.00     0.017 A 
HETATM   14  C17 UNL     1     -14.165  23.137  -3.383  1.00  0.00     0.001 A 
HETATM   15  C18 UNL     1     -14.789  24.051  -4.203  1.00  0.00     0.000 A 
HETATM   16  C19 UNL     1     -14.417  25.376  -4.140  1.00  0.00     0.001 A 
HETATM   17  C20 UNL     1     -13.432  25.768  -3.262  1.00  0.00     0.017 A 
ENDBRANCH   9  12
ENDBRANCH   7   8
ENDBRANCH   1   7
BRANCH   5  18
HETATM   18  C8  UNL     1     -10.843  27.453   4.137  1.00  0.00     0.060 A 
HETATM   19  C9  UNL     1      -9.846  28.026   4.861  1.00  0.00     0.128 A 
HETATM   20  N2  UNL     1     -10.362  29.163   5.391  1.00  0.00    -0.320 N 
HETATM   21  C10 UNL     1     -11.639  29.299   5.013  1.00  0.00     0.091 A 
HETATM   22  C13 UNL     1      -9.969  30.257   6.224  1.00  0.00     0.094 A 
HETATM   23  N3  UNL     1     -11.944  28.247   4.238  1.00  0.00    -0.344 N 
HETATM   24  C11 UNL     1     -12.165  30.555   5.615  1.00  0.00     0.105 A 
ATOM     25  H3  UNL     1     -12.849  28.072   3.800  1.00  0.00     0.167 HD
HETATM   26  C12 UNL     1     -11.007  31.077   6.364  1.00  0.00    -0.002 A 
ENDBRANCH   5  18
TORSDOF 4
ENDMDL
