MODEL 13
REMARK VINA RESULT: -7.856056168      1.361      2.229
REMARK  9 active torsions:
REMARK  status: ('A' for Active; 'I' for Inactive)
REMARK    1  A    between atoms: O1_2  and  C2_3 
REMARK    2  A    between atoms: C6_7  and  C7_8 
REMARK    3  A    between atoms: C7_8  and  O2_9 
REMARK    4  A    between atoms: C7_8  and  N1_11 
REMARK    5  A    between atoms: N1_11  and  C8_12 
REMARK    6  A    between atoms: N1_11  and  C21_28 
REMARK    7  A    between atoms: C8_12  and  C9_13 
REMARK    8  A    between atoms: C13_17  and  C14_18 
REMARK    9  A    between atoms: C21_28  and  C22_29 
ROOT
HETATM    1  N1  UNL     1      22.241  28.520   6.732  1.00  0.00    -0.357 N 
ENDROOT
BRANCH   1   2
HETATM    2  C7  UNL     1      21.865  28.593   5.409  1.00  0.00     0.148 C 
BRANCH   2   3
HETATM    3  C6  UNL     1      22.285  29.354   4.276  1.00  0.00     0.017 A 
HETATM    4  C5  UNL     1      22.979  28.708   3.239  1.00  0.00     0.016 A 
HETATM    5  C4  UNL     1      23.424  29.361   2.101  1.00  0.00     0.004 A 
HETATM    6  C3  UNL     1      23.173  30.710   1.984  1.00  0.00     0.037 A 
HETATM    7  C2  UNL     1      22.499  31.407   2.961  1.00  0.00     0.069 A 
HETATM    8  C25 UNL     1      22.067  30.699   4.097  1.00  0.00     0.052 A 
BRANCH   7   9
HETATM    9  O1  UNL     1      22.241  32.765   2.853  1.00  0.00    -0.356 OA
HETATM   10  C1  UNL     1      21.364  33.277   1.868  1.00  0.00     0.210 C 
ENDBRANCH   7   9
ENDBRANCH   2   3
BRANCH   2  11
HETATM   11  O2  UNL     1      20.878  27.755   5.129  1.00  0.00    -0.346 OA
ATOM     12  H2  UNL     1      20.270  28.102   4.488  1.00  0.00     0.219 HD
ENDBRANCH   2  11
ENDBRANCH   1   2
BRANCH   1  13
HETATM   13  C8  UNL     1      21.421  27.634   7.614  1.00  0.00     0.163 C 
BRANCH  13  14
HETATM   14  C9  UNL     1      22.184  26.370   7.921  1.00  0.00    -0.039 A 
HETATM   15  C10 UNL     1      22.919  26.189   9.058  1.00  0.00     0.009 A 
HETATM   16  C11 UNL     1      23.589  25.007   9.255  1.00  0.00     0.002 A 
HETATM   17  C12 UNL     1      23.549  23.966   8.327  1.00  0.00     0.014 A 
HETATM   18  C13 UNL     1      22.811  24.131   7.174  1.00  0.00    -0.007 A 
HETATM   19  C20 UNL     1      22.151  25.321   6.998  1.00  0.00     0.022 A 
BRANCH  18  20
HETATM   20  C14 UNL     1      22.722  23.091   6.158  1.00  0.00     0.059 A 
HETATM   21  C15 UNL     1      23.733  22.274   5.694  1.00  0.00     0.122 A 
HETATM   22  N2  UNL     1      23.278  21.439   4.762  1.00  0.00    -0.344 N 
HETATM   23  C16 UNL     1      21.972  21.709   4.615  1.00  0.00     0.083 A 
HETATM   24  C19 UNL     1      23.703  20.372   3.881  1.00  0.00     0.130 A 
HETATM   25  N3  UNL     1      21.632  22.716   5.466  1.00  0.00    -0.344 N 
HETATM   26  C17 UNL     1      21.348  20.838   3.597  1.00  0.00     0.078 A 
ATOM     27  H3  UNL     1      20.701  23.121   5.563  1.00  0.00     0.167 HD
HETATM   28  C18 UNL     1      22.485  20.014   3.062  1.00  0.00     0.027 A 
ENDBRANCH  18  20
ENDBRANCH  13  14
ENDBRANCH   1  13
BRANCH   1  29
HETATM   29  C21 UNL     1      23.303  29.173   7.409  1.00  0.00     0.130 C 
BRANCH  29  30
HETATM   30  C22 UNL     1      22.746  30.202   8.364  1.00  0.00     0.004 A 
HETATM   31  C23 UNL     1      23.040  29.989   9.829  1.00  0.00     0.007 A 
HETATM   32  C24 UNL     1      23.535  31.218   9.054  1.00  0.00     0.007 A 
ENDBRANCH  29  30
ENDBRANCH   1  29
TORSDOF 9
ENDMDL
