MODEL 11
REMARK VINA RESULT: -8.176909316      2.826      5.316
REMARK  9 active torsions:
REMARK  status: ('A' for Active; 'I' for Inactive)
REMARK    1  A    between atoms: O1_2  and  C2_3 
REMARK    2  A    between atoms: C6_7  and  C7_8 
REMARK    3  A    between atoms: C7_8  and  O2_9 
REMARK    4  A    between atoms: C7_8  and  N1_11 
REMARK    5  A    between atoms: N1_11  and  C8_12 
REMARK    6  A    between atoms: N1_11  and  C21_28 
REMARK    7  A    between atoms: C8_12  and  C9_13 
REMARK    8  A    between atoms: C13_17  and  C14_18 
REMARK    9  A    between atoms: C21_28  and  C22_29 
ROOT
HETATM    1  N1  UNL     1      22.549  28.726   7.197  1.00  0.00    -0.357 N 
ENDROOT
BRANCH   1   2
HETATM    2  C7  UNL     1      22.573  29.674   8.196  1.00  0.00     0.148 C 
BRANCH   2   3
HETATM    3  C6  UNL     1      22.933  29.682   9.579  1.00  0.00     0.017 A 
HETATM    4  C5  UNL     1      24.257  29.381   9.940  1.00  0.00     0.016 A 
HETATM    5  C4  UNL     1      24.700  29.365  11.252  1.00  0.00     0.004 A 
HETATM    6  C3  UNL     1      23.797  29.659  12.249  1.00  0.00     0.037 A 
HETATM    7  C2  UNL     1      22.485  29.963  11.968  1.00  0.00     0.069 A 
HETATM    8  C25 UNL     1      22.083  29.967  10.620  1.00  0.00     0.052 A 
BRANCH   7   9
HETATM    9  O1  UNL     1      21.567  30.261  12.963  1.00  0.00    -0.356 OA
HETATM   10  C1  UNL     1      20.966  31.538  13.060  1.00  0.00     0.210 C 
ENDBRANCH   7   9
ENDBRANCH   2   3
BRANCH   2  11
HETATM   11  O2  UNL     1      22.159  30.857   7.765  1.00  0.00    -0.346 OA
ATOM     12  H2  UNL     1      22.876  31.439   7.542  1.00  0.00     0.219 HD
ENDBRANCH   2  11
ENDBRANCH   1   2
BRANCH   1  13
HETATM   13  C8  UNL     1      21.489  27.676   7.294  1.00  0.00     0.163 C 
BRANCH  13  14
HETATM   14  C9  UNL     1      22.105  26.365   7.711  1.00  0.00    -0.039 A 
HETATM   15  C10 UNL     1      22.669  26.151   8.937  1.00  0.00     0.009 A 
HETATM   16  C11 UNL     1      23.213  24.925   9.232  1.00  0.00     0.002 A 
HETATM   17  C12 UNL     1      23.215  23.873   8.317  1.00  0.00     0.014 A 
HETATM   18  C13 UNL     1      22.650  24.070   7.075  1.00  0.00    -0.007 A 
HETATM   19  C20 UNL     1      22.113  25.303   6.802  1.00  0.00     0.022 A 
BRANCH  18  20
HETATM   20  C14 UNL     1      22.615  23.020   6.066  1.00  0.00     0.059 A 
HETATM   21  C15 UNL     1      23.659  22.229   5.634  1.00  0.00     0.122 A 
HETATM   22  N2  UNL     1      23.251  21.374   4.698  1.00  0.00    -0.344 N 
HETATM   23  C16 UNL     1      21.941  21.605   4.518  1.00  0.00     0.083 A 
HETATM   24  C19 UNL     1      23.727  20.312   3.836  1.00  0.00     0.130 A 
HETATM   25  N3  UNL     1      21.553  22.608   5.352  1.00  0.00    -0.344 N 
HETATM   26  C17 UNL     1      21.368  20.708   3.492  1.00  0.00     0.078 A 
ATOM     27  H3  UNL     1      20.608  22.988   5.423  1.00  0.00     0.167 HD
HETATM   28  C18 UNL     1      22.540  19.913   2.992  1.00  0.00     0.027 A 
ENDBRANCH  18  20
ENDBRANCH  13  14
ENDBRANCH   1  13
BRANCH   1  29
HETATM   29  C21 UNL     1      23.396  28.580   6.068  1.00  0.00     0.130 C 
BRANCH  29  30
HETATM   30  C22 UNL     1      22.761  29.233   4.863  1.00  0.00     0.004 A 
HETATM   31  C23 UNL     1      23.562  29.208   3.585  1.00  0.00     0.007 A 
HETATM   32  C24 UNL     1      22.198  28.517   3.722  1.00  0.00     0.007 A 
ENDBRANCH  29  30
ENDBRANCH   1  29
TORSDOF 9
ENDMDL
