MODEL 8
REMARK VINA RESULT: -8.364804423      2.966      5.293
REMARK  9 active torsions:
REMARK  status: ('A' for Active; 'I' for Inactive)
REMARK    1  A    between atoms: O1_2  and  C2_3 
REMARK    2  A    between atoms: C6_7  and  C7_8 
REMARK    3  A    between atoms: C7_8  and  O2_9 
REMARK    4  A    between atoms: C7_8  and  N1_11 
REMARK    5  A    between atoms: N1_11  and  C8_12 
REMARK    6  A    between atoms: N1_11  and  C21_28 
REMARK    7  A    between atoms: C8_12  and  C9_13 
REMARK    8  A    between atoms: C13_17  and  C14_18 
REMARK    9  A    between atoms: C21_28  and  C22_29 
ROOT
HETATM    1  N1  UNL     1      22.645  28.989   7.406  1.00  0.00    -0.357 N 
ENDROOT
BRANCH   1   2
HETATM    2  C7  UNL     1      22.639  29.977   8.366  1.00  0.00     0.148 C 
BRANCH   2   3
HETATM    3  C6  UNL     1      22.859  30.022   9.777  1.00  0.00     0.017 A 
HETATM    4  C5  UNL     1      24.138  29.727  10.278  1.00  0.00     0.016 A 
HETATM    5  C4  UNL     1      24.447  29.745  11.627  1.00  0.00     0.004 A 
HETATM    6  C3  UNL     1      23.450  30.069  12.520  1.00  0.00     0.037 A 
HETATM    7  C2  UNL     1      22.175  30.369  12.101  1.00  0.00     0.069 A 
HETATM    8  C25 UNL     1      21.910  30.337  10.720  1.00  0.00     0.052 A 
BRANCH   7   9
HETATM    9  O1  UNL     1      21.163  30.697  12.990  1.00  0.00    -0.356 OA
HETATM   10  C1  UNL     1      20.311  31.804  12.770  1.00  0.00     0.210 C 
ENDBRANCH   7   9
ENDBRANCH   2   3
BRANCH   2  11
HETATM   11  O2  UNL     1      22.359  31.165   7.850  1.00  0.00    -0.346 OA
ATOM     12  H2  UNL     1      21.503  31.198   7.441  1.00  0.00     0.219 HD
ENDBRANCH   2  11
ENDBRANCH   1   2
BRANCH   1  13
HETATM   13  C8  UNL     1      21.553  27.970   7.485  1.00  0.00     0.163 C 
BRANCH  13  14
HETATM   14  C9  UNL     1      22.120  26.647   7.931  1.00  0.00    -0.039 A 
HETATM   15  C10 UNL     1      22.626  26.424   9.181  1.00  0.00     0.009 A 
HETATM   16  C11 UNL     1      23.129  25.188   9.502  1.00  0.00     0.002 A 
HETATM   17  C12 UNL     1      23.146  24.132   8.591  1.00  0.00     0.014 A 
HETATM   18  C13 UNL     1      22.639  24.338   7.324  1.00  0.00    -0.007 A 
HETATM   19  C20 UNL     1      22.143  25.582   7.026  1.00  0.00     0.022 A 
BRANCH  18  20
HETATM   20  C14 UNL     1      22.623  23.286   6.318  1.00  0.00     0.059 A 
HETATM   21  C15 UNL     1      23.681  22.512   5.887  1.00  0.00     0.122 A 
HETATM   22  N2  UNL     1      23.288  21.648   4.952  1.00  0.00    -0.344 N 
HETATM   23  C16 UNL     1      21.975  21.856   4.772  1.00  0.00     0.083 A 
HETATM   24  C19 UNL     1      23.784  20.594   4.093  1.00  0.00     0.130 A 
HETATM   25  N3  UNL     1      21.569  22.854   5.604  1.00  0.00    -0.344 N 
HETATM   26  C17 UNL     1      21.418  20.948   3.748  1.00  0.00     0.078 A 
ATOM     27  H3  UNL     1      20.618  23.217   5.673  1.00  0.00     0.167 HD
HETATM   28  C18 UNL     1      22.604  20.173   3.249  1.00  0.00     0.027 A 
ENDBRANCH  18  20
ENDBRANCH  13  14
ENDBRANCH   1  13
BRANCH   1  29
HETATM   29  C21 UNL     1      23.549  28.775   6.334  1.00  0.00     0.130 C 
BRANCH  29  30
HETATM   30  C22 UNL     1      24.969  28.942   6.820  1.00  0.00     0.004 A 
HETATM   31  C23 UNL     1      25.614  27.727   7.440  1.00  0.00     0.007 A 
HETATM   32  C24 UNL     1      26.150  28.388   6.163  1.00  0.00     0.007 A 
ENDBRANCH  29  30
ENDBRANCH   1  29
TORSDOF 9
ENDMDL
