MODEL 9
REMARK VINA RESULT: -8.284144887      3.030      5.209
REMARK  9 active torsions:
REMARK  status: ('A' for Active; 'I' for Inactive)
REMARK    1  A    between atoms: O1_2  and  C2_3 
REMARK    2  A    between atoms: C6_7  and  C7_8 
REMARK    3  A    between atoms: C7_8  and  O2_9 
REMARK    4  A    between atoms: C7_8  and  N1_11 
REMARK    5  A    between atoms: N1_11  and  C8_12 
REMARK    6  A    between atoms: N1_11  and  C21_28 
REMARK    7  A    between atoms: C8_12  and  C9_13 
REMARK    8  A    between atoms: C13_17  and  C14_18 
REMARK    9  A    between atoms: C21_28  and  C22_29 
ROOT
HETATM    1  N1  UNL     1      22.683  29.033   7.533  1.00  0.00    -0.357 N 
ENDROOT
BRANCH   1   2
HETATM    2  C7  UNL     1      22.653  30.025   8.488  1.00  0.00     0.148 C 
BRANCH   2   3
HETATM    3  C6  UNL     1      22.828  30.075   9.905  1.00  0.00     0.017 A 
HETATM    4  C5  UNL     1      21.713  30.329  10.722  1.00  0.00     0.016 A 
HETATM    5  C4  UNL     1      21.784  30.395  12.103  1.00  0.00     0.004 A 
HETATM    6  C3  UNL     1      23.008  30.202  12.704  1.00  0.00     0.037 A 
HETATM    7  C2  UNL     1      24.141  29.948  11.966  1.00  0.00     0.069 A 
HETATM    8  C25 UNL     1      24.019  29.891  10.566  1.00  0.00     0.052 A 
BRANCH   7   9
HETATM    9  O1  UNL     1      25.379  29.752  12.560  1.00  0.00    -0.356 OA
HETATM   10  C1  UNL     1      26.233  30.836  12.869  1.00  0.00     0.210 C 
ENDBRANCH   7   9
ENDBRANCH   2   3
BRANCH   2  11
HETATM   11  O2  UNL     1      22.400  31.213   7.959  1.00  0.00    -0.346 OA
ATOM     12  H2  UNL     1      21.560  31.247   7.516  1.00  0.00     0.219 HD
ENDBRANCH   2  11
ENDBRANCH   1   2
BRANCH   1  13
HETATM   13  C8  UNL     1      21.592  28.011   7.593  1.00  0.00     0.163 C 
BRANCH  13  14
HETATM   14  C9  UNL     1      22.159  26.683   8.025  1.00  0.00    -0.039 A 
HETATM   15  C10 UNL     1      22.665  26.446   9.272  1.00  0.00     0.009 A 
HETATM   16  C11 UNL     1      23.168  25.206   9.578  1.00  0.00     0.002 A 
HETATM   17  C12 UNL     1      23.185  24.161   8.656  1.00  0.00     0.014 A 
HETATM   18  C13 UNL     1      22.678  24.381   7.392  1.00  0.00    -0.007 A 
HETATM   19  C20 UNL     1      22.181  25.628   7.108  1.00  0.00     0.022 A 
BRANCH  18  20
HETATM   20  C14 UNL     1      22.660  23.340   6.374  1.00  0.00     0.059 A 
HETATM   21  C15 UNL     1      23.712  22.551   5.954  1.00  0.00     0.122 A 
HETATM   22  N2  UNL     1      23.321  21.705   5.003  1.00  0.00    -0.344 N 
HETATM   23  C16 UNL     1      22.016  21.939   4.800  1.00  0.00     0.083 A 
HETATM   24  C19 UNL     1      23.813  20.651   4.142  1.00  0.00     0.130 A 
HETATM   25  N3  UNL     1      21.612  22.936   5.635  1.00  0.00    -0.344 N 
HETATM   26  C17 UNL     1      21.461  21.052   3.756  1.00  0.00     0.078 A 
ATOM     27  H3  UNL     1      20.667  23.315   5.691  1.00  0.00     0.167 HD
HETATM   28  C18 UNL     1      22.642  20.261   3.271  1.00  0.00     0.027 A 
ENDBRANCH  18  20
ENDBRANCH  13  14
ENDBRANCH   1  13
BRANCH   1  29
HETATM   29  C21 UNL     1      23.610  28.816   6.482  1.00  0.00     0.130 C 
BRANCH  29  30
HETATM   30  C22 UNL     1      25.021  28.925   7.012  1.00  0.00     0.004 A 
HETATM   31  C23 UNL     1      25.684  27.636   7.428  1.00  0.00     0.007 A 
HETATM   32  C24 UNL     1      26.221  28.514   6.290  1.00  0.00     0.007 A 
ENDBRANCH  29  30
ENDBRANCH   1  29
TORSDOF 9
ENDMDL
