MODEL 1
REMARK VINA RESULT: -8.765748396      0.000      0.000
REMARK  9 active torsions:
REMARK  status: ('A' for Active; 'I' for Inactive)
REMARK    1  A    between atoms: O1_2  and  C2_3 
REMARK    2  A    between atoms: C6_7  and  C7_8 
REMARK    3  A    between atoms: C7_8  and  O2_9 
REMARK    4  A    between atoms: C7_8  and  N1_11 
REMARK    5  A    between atoms: N1_11  and  C8_12 
REMARK    6  A    between atoms: N1_11  and  C21_28 
REMARK    7  A    between atoms: C8_12  and  C9_13 
REMARK    8  A    between atoms: C13_17  and  C14_18 
REMARK    9  A    between atoms: C21_28  and  C22_29 
ROOT
HETATM    1  N1  UNL     1      22.446  28.503   6.459  1.00  0.00    -0.357 N 
ENDROOT
BRANCH   1   2
HETATM    2  C7  UNL     1      22.049  28.608   5.145  1.00  0.00     0.148 C 
BRANCH   2   3
HETATM    3  C6  UNL     1      22.549  29.273   3.984  1.00  0.00     0.017 A 
HETATM    4  C5  UNL     1      22.584  30.677   3.964  1.00  0.00     0.016 A 
HETATM    5  C4  UNL     1      23.052  31.410   2.886  1.00  0.00     0.004 A 
HETATM    6  C3  UNL     1      23.504  30.726   1.780  1.00  0.00     0.037 A 
HETATM    7  C2  UNL     1      23.499  29.351   1.730  1.00  0.00     0.069 A 
HETATM    8  C25 UNL     1      23.014  28.652   2.850  1.00  0.00     0.052 A 
BRANCH   7   9
HETATM    9  O1  UNL     1      23.953  28.652   0.622  1.00  0.00    -0.356 OA
HETATM   10  C1  UNL     1      24.248  27.270   0.687  1.00  0.00     0.210 C 
ENDBRANCH   7   9
ENDBRANCH   2   3
BRANCH   2  11
HETATM   11  O2  UNL     1      20.936  27.927   4.909  1.00  0.00    -0.346 OA
ATOM     12  H2  UNL     1      20.732  27.305   5.597  1.00  0.00     0.219 HD
ENDBRANCH   2  11
ENDBRANCH   1   2
BRANCH   1  13
HETATM   13  C8  UNL     1      21.532  27.756   7.378  1.00  0.00     0.163 C 
BRANCH  13  14
HETATM   14  C9  UNL     1      22.165  26.447   7.776  1.00  0.00    -0.039 A 
HETATM   15  C10 UNL     1      22.763  26.234   8.986  1.00  0.00     0.009 A 
HETATM   16  C11 UNL     1      23.321  25.010   9.264  1.00  0.00     0.002 A 
HETATM   17  C12 UNL     1      23.302  23.959   8.348  1.00  0.00     0.014 A 
HETATM   18  C13 UNL     1      22.703  24.156   7.121  1.00  0.00    -0.007 A 
HETATM   19  C20 UNL     1      22.152  25.386   6.866  1.00  0.00     0.022 A 
BRANCH  18  20
HETATM   20  C14 UNL     1      22.644  23.107   6.112  1.00  0.00     0.059 A 
HETATM   21  C15 UNL     1      23.673  22.301   5.671  1.00  0.00     0.122 A 
HETATM   22  N2  UNL     1      23.245  21.453   4.738  1.00  0.00    -0.344 N 
HETATM   23  C16 UNL     1      21.938  21.703   4.569  1.00  0.00     0.083 A 
HETATM   24  C19 UNL     1      23.699  20.385   3.872  1.00  0.00     0.130 A 
HETATM   25  N3  UNL     1      21.571  22.711   5.406  1.00  0.00    -0.344 N 
HETATM   26  C17 UNL     1      21.343  20.815   3.547  1.00  0.00     0.078 A 
ATOM     27  H3  UNL     1      20.632  23.104   5.485  1.00  0.00     0.167 HD
HETATM   28  C18 UNL     1      22.500  20.004   3.037  1.00  0.00     0.027 A 
ENDBRANCH  18  20
ENDBRANCH  13  14
ENDBRANCH   1  13
BRANCH   1  29
HETATM   29  C21 UNL     1      23.607  29.008   7.098  1.00  0.00     0.130 C 
BRANCH  29  30
HETATM   30  C22 UNL     1      24.833  28.308   6.560  1.00  0.00     0.004 A 
HETATM   31  C23 UNL     1      25.817  29.163   5.800  1.00  0.00     0.007 A 
HETATM   32  C24 UNL     1      26.181  28.442   7.105  1.00  0.00     0.007 A 
ENDBRANCH  29  30
ENDBRANCH   1  29
TORSDOF 9
ENDMDL
