MODEL 4
REMARK VINA RESULT: -8.765004802      3.360      8.187
REMARK  6 active torsions:
REMARK  status: ('A' for Active; 'I' for Inactive)
REMARK    1  A    between atoms: C2_2  and  C3_3 
REMARK    2  A    between atoms: C3_3  and  C4_4 
REMARK    3  A    between atoms: C4_4  and  N1_5 
REMARK    4  A    between atoms: C6_7  and  C7_8 
REMARK    5  A    between atoms: C10_11  and  O1_12 
REMARK    6  A    between atoms: C10_11  and  N2_14 
ROOT
HETATM    1  C7  UNL     1      11.682  10.409  74.664  1.00  0.00     0.006 A 
HETATM    2  C8  UNL     1      11.415   9.469  75.630  1.00  0.00     0.030 A 
HETATM    3  C9  UNL     1      10.115   9.014  75.911  1.00  0.00     0.018 A 
HETATM    4  C10 UNL     1       9.903   8.031  76.935  1.00  0.00     0.148 C 
HETATM    5  C15 UNL     1       9.073   9.533  75.189  1.00  0.00     0.048 A 
HETATM    6  C16 UNL     1       9.325  10.495  74.198  1.00  0.00     0.063 A 
HETATM    7  C17 UNL     1      10.610  10.899  73.969  1.00  0.00     0.071 A 
HETATM    8  N3  UNL     1      10.569  11.812  72.984  1.00  0.00    -0.350 N 
ATOM      9  H3  UNL     1      11.365  12.305  72.582  1.00  0.00     0.166 HD
HETATM   10  C18 UNL     1       9.262  11.954  72.626  1.00  0.00     0.183 A 
HETATM   11  N4  UNL     1       8.489  11.146  73.370  1.00  0.00    -0.345 N 
HETATM   12  C19 UNL     1       7.036  11.020  73.274  1.00  0.00     0.157 C 
ENDROOT
BRANCH   1  13
HETATM   13  C6  UNL     1      13.062  10.835  74.425  1.00  0.00     0.005 A 
HETATM   14  C5  UNL     1      13.873  10.192  73.502  1.00  0.00     0.107 A 
HETATM   15  N1  UNL     1      15.141  10.577  73.275  1.00  0.00    -0.322 N 
HETATM   16  C24 UNL     1      15.616  11.625  73.981  1.00  0.00     0.275 A 
HETATM   17  C23 UNL     1      14.870  12.309  74.909  1.00  0.00     0.112 A 
HETATM   18  O3  UNL     1      16.794  12.002  73.785  1.00  0.00    -0.265 OA
HETATM   19  C20 UNL     1      13.579  11.906  75.131  1.00  0.00     0.010 A 
HETATM   20  N5  UNL     1      15.080  13.356  75.731  1.00  0.00    -0.361 N 
HETATM   21  C21 UNL     1      12.997  12.710  76.092  1.00  0.00     0.032 A 
HETATM   22  C22 UNL     1      13.969  13.619  76.454  1.00  0.00     0.089 A 
ATOM     23  H5  UNL     1      15.954  13.878  75.797  1.00  0.00     0.165 HD
BRANCH  15  24
HETATM   24  C4  UNL     1      15.984   9.899  72.305  1.00  0.00     0.135 C 
BRANCH  24  25
HETATM   25  C3  UNL     1      15.617  10.284  70.886  1.00  0.00     0.046 C 
BRANCH  25  26
HETATM   26  C2  UNL     1      15.916   9.106  70.017  1.00  0.00    -0.035 C 
HETATM   27  C1  UNL     1      15.178   8.822  68.962  1.00  0.00     0.007 C 
ENDBRANCH  25  26
ENDBRANCH  24  25
ENDBRANCH  15  24
ENDBRANCH   1  13
BRANCH   4  28
HETATM   28  O1  UNL     1      11.005   7.649  77.539  1.00  0.00    -0.346 OA
ATOM     29  H1  UNL     1      11.560   8.369  77.816  1.00  0.00     0.219 HD
ENDBRANCH   4  28
BRANCH   4  30
HETATM   30  N2  UNL     1       8.747   7.423  77.389  1.00  0.00    -0.357 N 
HETATM   31  C11 UNL     1       7.441   7.296  76.823  1.00  0.00     0.151 C 
HETATM   32  C12 UNL     1       6.507   6.565  77.813  1.00  0.00     0.187 C 
HETATM   33  O2  UNL     1       6.999   5.348  78.203  1.00  0.00    -0.388 OA
HETATM   34  C13 UNL     1       8.334   5.353  78.516  1.00  0.00     0.187 C 
HETATM   35  C14 UNL     1       8.834   6.753  78.737  1.00  0.00     0.151 C 
ENDBRANCH   4  30
TORSDOF 6
ENDMDL
