MODEL 3
REMARK VINA RESULT: -8.829246526      3.611      8.320
REMARK  6 active torsions:
REMARK  status: ('A' for Active; 'I' for Inactive)
REMARK    1  A    between atoms: C2_2  and  C3_3 
REMARK    2  A    between atoms: C3_3  and  C4_4 
REMARK    3  A    between atoms: C4_4  and  N1_5 
REMARK    4  A    between atoms: C6_7  and  C7_8 
REMARK    5  A    between atoms: C10_11  and  O1_12 
REMARK    6  A    between atoms: C10_11  and  N2_14 
ROOT
HETATM    1  C7  UNL     1       5.202   7.191  76.915  1.00  0.00     0.006 A 
HETATM    2  C8  UNL     1       5.825   6.506  77.930  1.00  0.00     0.030 A 
HETATM    3  C9  UNL     1       7.224   6.458  78.070  1.00  0.00     0.018 A 
HETATM    4  C10 UNL     1       7.812   5.722  79.153  1.00  0.00     0.148 C 
HETATM    5  C15 UNL     1       7.993   7.125  77.154  1.00  0.00     0.048 A 
HETATM    6  C16 UNL     1       7.375   7.830  76.109  1.00  0.00     0.063 A 
HETATM    7  C17 UNL     1       6.012   7.842  76.023  1.00  0.00     0.071 A 
HETATM    8  N3  UNL     1       5.688   8.578  74.948  1.00  0.00    -0.350 N 
ATOM      9  H3  UNL     1       4.746   8.779  74.613  1.00  0.00     0.166 HD
HETATM   10  C18 UNL     1       6.855   9.007  74.392  1.00  0.00     0.183 A 
HETATM   11  N4  UNL     1       7.900   8.549  75.101  1.00  0.00    -0.345 N 
HETATM   12  C19 UNL     1       9.310   8.801  74.812  1.00  0.00     0.157 C 
ENDROOT
BRANCH   1  13
HETATM   13  C6  UNL     1       3.741   7.199  76.832  1.00  0.00     0.005 A 
HETATM   14  C5  UNL     1       3.025   6.068  76.471  1.00  0.00     0.107 A 
HETATM   15  N1  UNL     1       1.683   6.066  76.394  1.00  0.00    -0.322 N 
HETATM   16  C24 UNL     1       1.035   7.215  76.681  1.00  0.00     0.275 A 
HETATM   17  C23 UNL     1       1.678   8.373  77.045  1.00  0.00     0.112 A 
HETATM   18  O3  UNL     1      -0.215   7.237  76.616  1.00  0.00    -0.265 OA
HETATM   19  C20 UNL     1       3.047   8.360  77.121  1.00  0.00     0.010 A 
HETATM   20  N5  UNL     1       1.298   9.622  77.378  1.00  0.00    -0.361 N 
HETATM   21  C21 UNL     1       3.505   9.607  77.500  1.00  0.00     0.032 A 
HETATM   22  C22 UNL     1       2.378  10.386  77.656  1.00  0.00     0.089 A 
ATOM     23  H5  UNL     1       0.331   9.945  77.414  1.00  0.00     0.165 HD
BRANCH  15  24
HETATM   24  C4  UNL     1       0.939   4.876  76.016  1.00  0.00     0.135 C 
BRANCH  24  25
HETATM   25  C3  UNL     1       1.731   4.008  75.059  1.00  0.00     0.046 C 
BRANCH  25  26
HETATM   26  C2  UNL     1       1.888   2.669  75.703  1.00  0.00    -0.035 C 
HETATM   27  C1  UNL     1       1.645   2.487  76.986  1.00  0.00     0.007 C 
ENDBRANCH  25  26
ENDBRANCH  24  25
ENDBRANCH  15  24
ENDBRANCH   1  13
BRANCH   4  28
HETATM   28  O1  UNL     1       6.935   5.133  79.932  1.00  0.00    -0.346 OA
ATOM     29  H1  UNL     1       7.007   5.380  80.847  1.00  0.00     0.219 HD
ENDBRANCH   4  28
BRANCH   4  30
HETATM   30  N2  UNL     1       9.134   5.532  79.511  1.00  0.00    -0.357 N 
HETATM   31  C11 UNL     1      10.203   6.444  79.766  1.00  0.00     0.151 C 
HETATM   32  C12 UNL     1      11.503   5.664  80.063  1.00  0.00     0.187 C 
HETATM   33  O2  UNL     1      11.359   4.769  81.090  1.00  0.00    -0.388 OA
HETATM   34  C13 UNL     1      10.204   4.032  81.038  1.00  0.00     0.187 C 
HETATM   35  C14 UNL     1       9.578   4.100  79.674  1.00  0.00     0.151 C 
ENDBRANCH   4  30
TORSDOF 6
ENDMDL
