MODEL 5
REMARK VINA RESULT: -8.713533233      3.767      8.509
REMARK  6 active torsions:
REMARK  status: ('A' for Active; 'I' for Inactive)
REMARK    1  A    between atoms: C2_2  and  C3_3 
REMARK    2  A    between atoms: C3_3  and  C4_4 
REMARK    3  A    between atoms: C4_4  and  N1_5 
REMARK    4  A    between atoms: C6_7  and  C7_8 
REMARK    5  A    between atoms: C10_11  and  O1_12 
REMARK    6  A    between atoms: C10_11  and  N2_14 
ROOT
HETATM    1  C7  UNL     1       5.487   7.568  76.999  1.00  0.00     0.006 A 
HETATM    2  C8  UNL     1       5.978   6.824  78.045  1.00  0.00     0.030 A 
HETATM    3  C9  UNL     1       7.344   6.524  78.190  1.00  0.00     0.018 A 
HETATM    4  C10 UNL     1       7.792   5.740  79.306  1.00  0.00     0.148 C 
HETATM    5  C15 UNL     1       8.218   6.996  77.248  1.00  0.00     0.048 A 
HETATM    6  C16 UNL     1       7.736   7.758  76.171  1.00  0.00     0.063 A 
HETATM    7  C17 UNL     1       6.398   8.018  76.082  1.00  0.00     0.071 A 
HETATM    8  N3  UNL     1       6.210   8.755  74.975  1.00  0.00    -0.350 N 
ATOM      9  H3  UNL     1       5.321   9.112  74.628  1.00  0.00     0.166 HD
HETATM   10  C18 UNL     1       7.433   8.935  74.403  1.00  0.00     0.183 A 
HETATM   11  N4  UNL     1       8.380   8.322  75.134  1.00  0.00    -0.345 N 
HETATM   12  C19 UNL     1       9.810   8.295  74.837  1.00  0.00     0.157 C 
ENDROOT
BRANCH   1  13
HETATM   13  C6  UNL     1       4.052   7.844  76.912  1.00  0.00     0.005 A 
HETATM   14  C5  UNL     1       3.542   9.120  77.095  1.00  0.00     0.107 A 
HETATM   15  N1  UNL     1       2.226   9.382  77.015  1.00  0.00    -0.322 N 
HETATM   16  C24 UNL     1       1.395   8.352  76.750  1.00  0.00     0.275 A 
HETATM   17  C23 UNL     1       1.828   7.063  76.559  1.00  0.00     0.112 A 
HETATM   18  O3  UNL     1       0.165   8.572  76.672  1.00  0.00    -0.265 OA
HETATM   19  C20 UNL     1       3.173   6.811  76.642  1.00  0.00     0.010 A 
HETATM   20  N5  UNL     1       1.243   5.880  76.288  1.00  0.00    -0.361 N 
HETATM   21  C21 UNL     1       3.411   5.467  76.421  1.00  0.00     0.032 A 
HETATM   22  C22 UNL     1       2.172   4.902  76.200  1.00  0.00     0.089 A 
ATOM     23  H5  UNL     1       0.239   5.742  76.166  1.00  0.00     0.165 HD
BRANCH  15  24
HETATM   24  C4  UNL     1       1.700  10.723  77.206  1.00  0.00     0.135 C 
BRANCH  24  25
HETATM   25  C3  UNL     1       1.784  11.151  78.657  1.00  0.00     0.046 C 
BRANCH  25  26
HETATM   26  C2  UNL     1       0.388  11.401  79.127  1.00  0.00    -0.035 C 
HETATM   27  C1  UNL     1       0.080  12.467  79.839  1.00  0.00     0.007 C 
ENDBRANCH  25  26
ENDBRANCH  24  25
ENDBRANCH  15  24
ENDBRANCH   1  13
BRANCH   4  28
HETATM   28  O1  UNL     1       6.825   5.358  80.107  1.00  0.00    -0.346 OA
ATOM     29  H1  UNL     1       6.246   6.063  80.374  1.00  0.00     0.219 HD
ENDBRANCH   4  28
BRANCH   4  30
HETATM   30  N2  UNL     1       9.058   5.323  79.675  1.00  0.00    -0.357 N 
HETATM   31  C11 UNL     1      10.279   6.032  79.895  1.00  0.00     0.151 C 
HETATM   32  C12 UNL     1      11.413   5.038  80.228  1.00  0.00     0.187 C 
HETATM   33  O2  UNL     1      11.111   4.228  81.290  1.00  0.00    -0.388 OA
HETATM   34  C13 UNL     1       9.839   3.716  81.266  1.00  0.00     0.187 C 
HETATM   35  C14 UNL     1       9.230   3.842  79.898  1.00  0.00     0.151 C 
ENDBRANCH   4  30
TORSDOF 6
ENDMDL
