MODEL 2
REMARK VINA RESULT: -9.182442095      2.603      4.490
REMARK  6 active torsions:
REMARK  status: ('A' for Active; 'I' for Inactive)
REMARK    1  A    between atoms: C2_2  and  C3_3 
REMARK    2  A    between atoms: C3_3  and  C4_4 
REMARK    3  A    between atoms: C4_4  and  N1_5 
REMARK    4  A    between atoms: C6_7  and  C7_8 
REMARK    5  A    between atoms: C10_11  and  O1_12 
REMARK    6  A    between atoms: C10_11  and  N2_14 
ROOT
HETATM    1  C7  UNL     1       9.852   8.274  76.591  1.00  0.00     0.006 A 
HETATM    2  C8  UNL     1      10.985   8.985  76.906  1.00  0.00     0.030 A 
HETATM    3  C9  UNL     1      11.511   9.987  76.071  1.00  0.00     0.018 A 
HETATM    4  C10 UNL     1      12.700  10.692  76.458  1.00  0.00     0.148 C 
HETATM    5  C15 UNL     1      10.864  10.262  74.896  1.00  0.00     0.048 A 
HETATM    6  C16 UNL     1       9.705   9.546  74.556  1.00  0.00     0.063 A 
HETATM    7  C17 UNL     1       9.239   8.583  75.406  1.00  0.00     0.071 A 
HETATM    8  N3  UNL     1       8.135   8.061  74.848  1.00  0.00    -0.350 N 
ATOM      9  H3  UNL     1       7.553   7.319  75.236  1.00  0.00     0.166 HD
HETATM   10  C18 UNL     1       7.941   8.709  73.666  1.00  0.00     0.183 A 
HETATM   11  N4  UNL     1       8.905   9.626  73.478  1.00  0.00    -0.345 N 
HETATM   12  C19 UNL     1       9.030  10.516  72.326  1.00  0.00     0.157 C 
ENDROOT
BRANCH   1  13
HETATM   13  C6  UNL     1       9.360   7.246  77.509  1.00  0.00     0.005 A 
HETATM   14  C5  UNL     1      10.223   6.486  78.283  1.00  0.00     0.107 A 
HETATM   15  N1  UNL     1       9.779   5.540  79.130  1.00  0.00    -0.322 N 
HETATM   16  C24 UNL     1       8.446   5.343  79.209  1.00  0.00     0.275 A 
HETATM   17  C23 UNL     1       7.533   6.057  78.473  1.00  0.00     0.112 A 
HETATM   18  O3  UNL     1       8.009   4.468  79.991  1.00  0.00    -0.265 OA
HETATM   19  C20 UNL     1       7.999   7.019  77.614  1.00  0.00     0.010 A 
HETATM   20  N5  UNL     1       6.191   6.073  78.356  1.00  0.00    -0.361 N 
HETATM   21  C21 UNL     1       6.938   7.624  76.970  1.00  0.00     0.032 A 
HETATM   22  C22 UNL     1       5.805   7.006  77.457  1.00  0.00     0.089 A 
ATOM     23  H5  UNL     1       5.555   5.465  78.873  1.00  0.00     0.165 HD
BRANCH  15  24
HETATM   24  C4  UNL     1      10.690   4.749  79.939  1.00  0.00     0.135 C 
BRANCH  24  25
HETATM   25  C3  UNL     1      11.783   5.607  80.543  1.00  0.00     0.046 C 
BRANCH  25  26
HETATM   26  C2  UNL     1      12.648   4.708  81.366  1.00  0.00    -0.035 C 
HETATM   27  C1  UNL     1      12.134   3.745  82.106  1.00  0.00     0.007 C 
ENDBRANCH  25  26
ENDBRANCH  24  25
ENDBRANCH  15  24
ENDBRANCH   1  13
BRANCH   4  28
HETATM   28  O1  UNL     1      13.200  10.298  77.606  1.00  0.00    -0.346 OA
ATOM     29  H1  UNL     1      13.963  10.793  77.882  1.00  0.00     0.219 HD
ENDBRANCH   4  28
BRANCH   4  30
HETATM   30  N2  UNL     1      13.400  11.707  75.832  1.00  0.00    -0.357 N 
HETATM   31  C11 UNL     1      13.465  13.116  76.063  1.00  0.00     0.151 C 
HETATM   32  C12 UNL     1      14.367  13.783  75.001  1.00  0.00     0.187 C 
HETATM   33  O2  UNL     1      15.619  13.230  74.949  1.00  0.00    -0.388 OA
HETATM   34  C13 UNL     1      15.633  11.859  74.987  1.00  0.00     0.187 C 
HETATM   35  C14 UNL     1      14.276  11.295  74.676  1.00  0.00     0.151 C 
ENDBRANCH   4  30
TORSDOF 6
ENDMDL
