MODEL 12
REMARK VINA RESULT: -9.052120044      2.714      6.311
REMARK  14 active torsions:
REMARK  status: ('A' for Active; 'I' for Inactive)
REMARK    1  A    between atoms: C2_2  and  C3_3 
REMARK    2  A    between atoms: C3_3  and  C5_5 
REMARK    3  A    between atoms: C5_5  and  N1_6 
REMARK    4  A    between atoms: N1_6  and  C6_7 
REMARK    5  A    between atoms: N1_6  and  S1_32 
REMARK    6  A    between atoms: C6_7  and  C7_8 
REMARK    7  A    between atoms: C7_8  and  O1_9 
REMARK    8  A    between atoms: C7_8  and  C8_11 
REMARK    9  A    between atoms: C8_11  and  C9_12 
REMARK   10  A    between atoms: C8_11  and  N2_19 
REMARK   11  A    between atoms: C9_12  and  C10_13 
REMARK       I    between atoms: N2_19  and  C16_21 
REMARK   12  A    between atoms: C16_21  and  O3_23 
REMARK   13  A    between atoms: O3_23  and  C17_24 
REMARK   14  A    between atoms: S1_32  and  C23_35 
ROOT
HETATM    1  C8  UNL     1     122.183  57.018  16.426  1.00  0.00     0.121 C 
ENDROOT
BRANCH   1   2
HETATM    2  C7  UNL     1     122.623  56.557  15.026  1.00  0.00     0.160 C 
BRANCH   2   3
HETATM    3  C6  UNL     1     121.579  55.593  14.536  1.00  0.00     0.174 C 
BRANCH   3   4
HETATM    4  N1  UNL     1     121.666  54.268  15.066  1.00  0.00    -0.283 N 
BRANCH   4   5
HETATM    5  C5  UNL     1     122.502  53.408  14.383  1.00  0.00     0.080 C 
BRANCH   5   6
HETATM    6  C3  UNL     1     123.697  52.812  15.060  1.00  0.00     0.020 C 
HETATM    7  C4  UNL     1     124.035  51.556  14.232  1.00  0.00     0.015 C 
BRANCH   6   8
HETATM    8  C2  UNL     1     124.938  53.682  14.994  1.00  0.00     0.005 C 
HETATM    9  C1  UNL     1     125.196  54.138  16.437  1.00  0.00     0.006 C 
ENDBRANCH   6   8
ENDBRANCH   5   6
ENDBRANCH   4   5
BRANCH   4  10
HETATM   10  S1  UNL     1     120.187  53.724  15.665  1.00  0.00     0.264 S 
HETATM   11  O6  UNL     1     120.469  52.898  16.900  1.00  0.00    -0.200 OA
HETATM   12  O7  UNL     1     119.235  54.794  16.112  1.00  0.00    -0.200 OA
BRANCH  10  13
HETATM   13  C23 UNL     1     119.359  52.638  14.562  1.00  0.00     0.080 A 
HETATM   14  C24 UNL     1     119.653  51.287  14.594  1.00  0.00     0.027 A 
HETATM   15  C25 UNL     1     119.024  50.381  13.741  1.00  0.00     0.028 A 
HETATM   16  C26 UNL     1     118.092  50.856  12.855  1.00  0.00     0.046 A 
HETATM   17  N3  UNL     1     117.448  49.961  11.982  1.00  0.00    -0.102 NA
HETATM   18  C27 UNL     1     117.800  52.217  12.828  1.00  0.00     0.028 A 
HETATM   19  C28 UNL     1     118.427  53.094  13.670  1.00  0.00     0.027 A 
ENDBRANCH  10  13
ENDBRANCH   4  10
ENDBRANCH   3   4
ENDBRANCH   2   3
BRANCH   2  20
HETATM   20  O1  UNL     1     122.740  57.631  14.192  1.00  0.00    -0.392 OA
ATOM     21  H1  UNL     1     123.599  57.664  13.789  1.00  0.00     0.210 HD
ENDBRANCH   2  20
ENDBRANCH   1   2
BRANCH   1  22
HETATM   22  C9  UNL     1     120.979  57.929  16.355  1.00  0.00     0.066 C 
BRANCH  22  23
HETATM   23  C10 UNL     1     120.473  58.406  17.635  1.00  0.00    -0.056 A 
HETATM   24  C11 UNL     1     120.550  59.722  17.994  1.00  0.00     0.007 A 
HETATM   25  C12 UNL     1     120.047  60.091  19.226  1.00  0.00     0.001 A 
HETATM   26  C13 UNL     1     119.477  59.183  20.095  1.00  0.00     0.000 A 
HETATM   27  C14 UNL     1     119.389  57.845  19.751  1.00  0.00     0.001 A 
HETATM   28  C15 UNL     1     119.901  57.493  18.506  1.00  0.00     0.007 A 
ENDBRANCH  22  23
ENDBRANCH   1  22
BRANCH   1  29
HETATM   29  N2  UNL     1     123.290  57.624  17.110  1.00  0.00    -0.329 N 
HETATM   30  C16 UNL     1     123.759  57.099  18.326  1.00  0.00     0.361 C 
HETATM   31  O2  UNL     1     123.171  56.092  18.786  1.00  0.00    -0.238 OA
ATOM     32  H2  UNL     1     123.741  58.446  16.708  1.00  0.00     0.165 HD
BRANCH  30  33
HETATM   33  O3  UNL     1     124.818  57.600  19.063  1.00  0.00    -0.296 OA
BRANCH  33  34
HETATM   34  C17 UNL     1     124.845  58.916  19.542  1.00  0.00     0.166 C 
HETATM   35  C18 UNL     1     125.661  59.107  20.802  1.00  0.00     0.204 C 
HETATM   36  O4  UNL     1     126.070  60.439  20.801  1.00  0.00    -0.358 OA
HETATM   37  C19 UNL     1     125.961  60.951  19.538  1.00  0.00     0.266 C 
HETATM   38  O5  UNL     1     127.156  61.435  19.004  1.00  0.00    -0.361 OA
HETATM   39  C22 UNL     1     125.653  59.807  18.598  1.00  0.00     0.075 C 
HETATM   40  C20 UNL     1     127.949  60.297  18.863  1.00  0.00     0.171 C 
HETATM   41  C21 UNL     1     127.023  59.206  18.365  1.00  0.00     0.038 C 
ENDBRANCH  33  34
ENDBRANCH  30  33
ENDBRANCH   1  29
TORSDOF 14
ENDMDL
