MODEL 3
REMARK VINA RESULT: -9.458533962      2.196      8.840
REMARK  14 active torsions:
REMARK  status: ('A' for Active; 'I' for Inactive)
REMARK    1  A    between atoms: C2_2  and  C3_3 
REMARK    2  A    between atoms: C3_3  and  C5_5 
REMARK    3  A    between atoms: C5_5  and  N1_6 
REMARK    4  A    between atoms: N1_6  and  C6_7 
REMARK    5  A    between atoms: N1_6  and  S1_32 
REMARK    6  A    between atoms: C6_7  and  C7_8 
REMARK    7  A    between atoms: C7_8  and  O1_9 
REMARK    8  A    between atoms: C7_8  and  C8_11 
REMARK    9  A    between atoms: C8_11  and  C9_12 
REMARK   10  A    between atoms: C8_11  and  N2_19 
REMARK   11  A    between atoms: C9_12  and  C10_13 
REMARK       I    between atoms: N2_19  and  C16_21 
REMARK   12  A    between atoms: C16_21  and  O3_23 
REMARK   13  A    between atoms: O3_23  and  C17_24 
REMARK   14  A    between atoms: S1_32  and  C23_35 
ROOT
HETATM    1  C8  UNL     1     124.003  57.256  16.551  1.00  0.00     0.121 C 
ENDROOT
BRANCH   1   2
HETATM    2  C7  UNL     1     122.746  58.004  16.077  1.00  0.00     0.160 C 
BRANCH   2   3
HETATM    3  C6  UNL     1     122.196  58.734  17.270  1.00  0.00     0.174 C 
BRANCH   3   4
HETATM    4  N1  UNL     1     120.778  58.664  17.436  1.00  0.00    -0.283 N 
BRANCH   4   5
HETATM    5  C5  UNL     1     120.165  59.841  17.818  1.00  0.00     0.080 C 
BRANCH   5   6
HETATM    6  C3  UNL     1     120.774  60.705  18.878  1.00  0.00     0.020 C 
HETATM    7  C4  UNL     1     120.182  62.108  18.633  1.00  0.00     0.015 C 
BRANCH   6   8
HETATM    8  C2  UNL     1     120.354  60.334  20.288  1.00  0.00     0.005 C 
HETATM    9  C1  UNL     1     121.546  59.570  20.882  1.00  0.00     0.006 C 
ENDBRANCH   6   8
ENDBRANCH   5   6
ENDBRANCH   4   5
BRANCH   4  10
HETATM   10  S1  UNL     1     120.286  57.193  18.097  1.00  0.00     0.264 S 
HETATM   11  O6  UNL     1     121.440  56.646  18.908  1.00  0.00    -0.200 OA
HETATM   12  O7  UNL     1     119.130  57.264  19.049  1.00  0.00    -0.200 OA
BRANCH  10  13
HETATM   13  C23 UNL     1     119.958  55.971  16.880  1.00  0.00     0.080 A 
HETATM   14  C24 UNL     1     120.821  54.898  16.746  1.00  0.00     0.027 A 
HETATM   15  C25 UNL     1     120.606  53.900  15.798  1.00  0.00     0.028 A 
HETATM   16  C26 UNL     1     119.507  53.996  14.984  1.00  0.00     0.046 A 
HETATM   17  N3  UNL     1     119.273  53.002  14.017  1.00  0.00    -0.102 NA
HETATM   18  C27 UNL     1     118.642  55.077  15.123  1.00  0.00     0.028 A 
HETATM   19  C28 UNL     1     118.866  56.050  16.058  1.00  0.00     0.027 A 
ENDBRANCH  10  13
ENDBRANCH   4  10
ENDBRANCH   3   4
ENDBRANCH   2   3
BRANCH   2  20
HETATM   20  O1  UNL     1     123.063  58.867  15.068  1.00  0.00    -0.392 OA
ATOM     21  H1  UNL     1     123.426  58.407  14.321  1.00  0.00     0.210 HD
ENDBRANCH   2  20
ENDBRANCH   1   2
BRANCH   1  22
HETATM   22  C9  UNL     1     125.198  58.177  16.629  1.00  0.00     0.066 C 
BRANCH  22  23
HETATM   23  C10 UNL     1     125.640  58.526  17.972  1.00  0.00    -0.056 A 
HETATM   24  C11 UNL     1     124.916  58.184  19.079  1.00  0.00     0.007 A 
HETATM   25  C12 UNL     1     125.405  58.553  20.317  1.00  0.00     0.001 A 
HETATM   26  C13 UNL     1     126.587  59.249  20.468  1.00  0.00     0.000 A 
HETATM   27  C14 UNL     1     127.336  59.606  19.359  1.00  0.00     0.001 A 
HETATM   28  C15 UNL     1     126.827  59.225  18.122  1.00  0.00     0.007 A 
ENDBRANCH  22  23
ENDBRANCH   1  22
BRANCH   1  29
HETATM   29  N2  UNL     1     124.241  56.119  15.708  1.00  0.00    -0.329 N 
HETATM   30  C16 UNL     1     124.589  54.874  16.260  1.00  0.00     0.361 C 
HETATM   31  O2  UNL     1     124.687  54.802  17.508  1.00  0.00    -0.238 OA
ATOM     32  H2  UNL     1     124.157  56.216  14.696  1.00  0.00     0.165 HD
BRANCH  30  33
HETATM   33  O3  UNL     1     124.834  53.717  15.542  1.00  0.00    -0.296 OA
BRANCH  33  34
HETATM   34  C17 UNL     1     124.059  53.339  14.438  1.00  0.00     0.166 C 
HETATM   35  C18 UNL     1     124.845  53.129  13.162  1.00  0.00     0.204 C 
HETATM   36  O4  UNL     1     124.103  52.236  12.392  1.00  0.00    -0.358 OA
HETATM   37  C19 UNL     1     123.206  51.579  13.187  1.00  0.00     0.266 C 
HETATM   38  O5  UNL     1     123.345  50.190  13.192  1.00  0.00    -0.361 OA
HETATM   39  C22 UNL     1     123.526  51.918  14.627  1.00  0.00     0.075 C 
HETATM   40  C20 UNL     1     124.584  49.975  13.793  1.00  0.00     0.171 C 
HETATM   41  C21 UNL     1     124.670  50.973  14.930  1.00  0.00     0.038 C 
ENDBRANCH  33  34
ENDBRANCH  30  33
ENDBRANCH   1  29
TORSDOF 14
ENDMDL
