MODEL 1
REMARK VINA RESULT: -9.657375806      0.000      0.000
REMARK  14 active torsions:
REMARK  status: ('A' for Active; 'I' for Inactive)
REMARK    1  A    between atoms: C2_2  and  C3_3 
REMARK    2  A    between atoms: C3_3  and  C5_5 
REMARK    3  A    between atoms: C5_5  and  N1_6 
REMARK    4  A    between atoms: N1_6  and  C6_7 
REMARK    5  A    between atoms: N1_6  and  S1_32 
REMARK    6  A    between atoms: C6_7  and  C7_8 
REMARK    7  A    between atoms: C7_8  and  O1_9 
REMARK    8  A    between atoms: C7_8  and  C8_11 
REMARK    9  A    between atoms: C8_11  and  C9_12 
REMARK   10  A    between atoms: C8_11  and  N2_19 
REMARK   11  A    between atoms: C9_12  and  C10_13 
REMARK       I    between atoms: N2_19  and  C16_21 
REMARK   12  A    between atoms: C16_21  and  O3_23 
REMARK   13  A    between atoms: O3_23  and  C17_24 
REMARK   14  A    between atoms: S1_32  and  C23_35 
ROOT
HETATM    1  C8  UNL     1     121.278  56.535  15.841  1.00  0.00     0.121 C 
ENDROOT
BRANCH   1   2
HETATM    2  C7  UNL     1     122.628  56.659  15.115  1.00  0.00     0.160 C 
BRANCH   2   3
HETATM    3  C6  UNL     1     123.058  55.265  14.752  1.00  0.00     0.174 C 
BRANCH   3   4
HETATM    4  N1  UNL     1     124.420  54.944  15.045  1.00  0.00    -0.283 N 
BRANCH   4   5
HETATM    5  C5  UNL     1     125.017  54.044  14.185  1.00  0.00     0.080 C 
BRANCH   5   6
HETATM    6  C3  UNL     1     124.331  52.761  13.834  1.00  0.00     0.020 C 
HETATM    7  C4  UNL     1     124.798  52.443  12.398  1.00  0.00     0.015 C 
BRANCH   6   8
HETATM    8  C2  UNL     1     124.778  51.577  14.670  1.00  0.00     0.005 C 
HETATM    9  C1  UNL     1     125.126  50.472  13.663  1.00  0.00     0.006 C 
ENDBRANCH   6   8
ENDBRANCH   5   6
ENDBRANCH   4   5
BRANCH   4  10
HETATM   10  S1  UNL     1     124.712  54.862  16.703  1.00  0.00     0.264 S 
HETATM   11  O6  UNL     1     123.478  54.280  17.357  1.00  0.00    -0.200 OA
HETATM   12  O7  UNL     1     125.842  53.967  17.119  1.00  0.00    -0.200 OA
BRANCH  10  13
HETATM   13  C23 UNL     1     124.924  56.441  17.441  1.00  0.00     0.080 A 
HETATM   14  C24 UNL     1     124.171  56.777  18.552  1.00  0.00     0.027 A 
HETATM   15  C25 UNL     1     124.301  58.016  19.176  1.00  0.00     0.028 A 
HETATM   16  C26 UNL     1     125.202  58.913  18.668  1.00  0.00     0.046 A 
HETATM   17  N3  UNL     1     125.348  60.172  19.279  1.00  0.00    -0.102 NA
HETATM   18  C27 UNL     1     125.958  58.570  17.550  1.00  0.00     0.028 A 
HETATM   19  C28 UNL     1     125.819  57.351  16.947  1.00  0.00     0.027 A 
ENDBRANCH  10  13
ENDBRANCH   4  10
ENDBRANCH   3   4
ENDBRANCH   2   3
BRANCH   2  20
HETATM   20  O1  UNL     1     122.497  57.444  14.007  1.00  0.00    -0.392 OA
ATOM     21  H1  UNL     1     123.343  57.710  13.668  1.00  0.00     0.210 HD
ENDBRANCH   2  20
ENDBRANCH   1   2
BRANCH   1  22
HETATM   22  C9  UNL     1     120.205  55.995  14.924  1.00  0.00     0.066 C 
BRANCH  22  23
HETATM   23  C10 UNL     1     119.771  54.631  15.196  1.00  0.00    -0.056 A 
HETATM   24  C11 UNL     1     120.312  53.893  16.210  1.00  0.00     0.007 A 
HETATM   25  C12 UNL     1     119.845  52.607  16.400  1.00  0.00     0.001 A 
HETATM   26  C13 UNL     1     118.862  52.052  15.606  1.00  0.00     0.000 A 
HETATM   27  C14 UNL     1     118.301  52.783  14.573  1.00  0.00     0.001 A 
HETATM   28  C15 UNL     1     118.784  54.076  14.398  1.00  0.00     0.007 A 
ENDBRANCH  22  23
ENDBRANCH   1  22
BRANCH   1  29
HETATM   29  N2  UNL     1     120.919  57.798  16.421  1.00  0.00    -0.329 N 
HETATM   30  C16 UNL     1     120.423  57.871  17.735  1.00  0.00     0.361 C 
HETATM   31  O2  UNL     1     120.304  56.796  18.369  1.00  0.00    -0.238 OA
ATOM     32  H2  UNL     1     121.024  58.652  15.874  1.00  0.00     0.165 HD
BRANCH  30  33
HETATM   33  O3  UNL     1     120.054  59.032  18.391  1.00  0.00    -0.296 OA
BRANCH  33  34
HETATM   34  C17 UNL     1     120.865  60.174  18.412  1.00  0.00     0.166 C 
HETATM   35  C18 UNL     1     120.105  61.482  18.436  1.00  0.00     0.204 C 
HETATM   36  O4  UNL     1     120.953  62.413  19.032  1.00  0.00    -0.358 OA
HETATM   37  C19 UNL     1     121.933  61.761  19.727  1.00  0.00     0.266 C 
HETATM   38  O5  UNL     1     121.979  62.065  21.088  1.00  0.00    -0.361 OA
HETATM   39  C22 UNL     1     121.581  60.290  19.758  1.00  0.00     0.075 C 
HETATM   40  C20 UNL     1     120.783  61.554  21.589  1.00  0.00     0.171 C 
HETATM   41  C21 UNL     1     120.574  60.227  20.886  1.00  0.00     0.038 C 
ENDBRANCH  33  34
ENDBRANCH  30  33
ENDBRANCH   1  29
TORSDOF 14
ENDMDL
