MODEL 2
REMARK VINA RESULT: -9.628730659      2.645      6.740
REMARK  14 active torsions:
REMARK  status: ('A' for Active; 'I' for Inactive)
REMARK    1  A    between atoms: C2_2  and  C3_3 
REMARK    2  A    between atoms: C3_3  and  C5_5 
REMARK    3  A    between atoms: C5_5  and  N1_6 
REMARK    4  A    between atoms: N1_6  and  C6_7 
REMARK    5  A    between atoms: N1_6  and  S1_32 
REMARK    6  A    between atoms: C6_7  and  C7_8 
REMARK    7  A    between atoms: C7_8  and  O1_9 
REMARK    8  A    between atoms: C7_8  and  C8_11 
REMARK    9  A    between atoms: C8_11  and  C9_12 
REMARK   10  A    between atoms: C8_11  and  N2_19 
REMARK   11  A    between atoms: C9_12  and  C10_13 
REMARK       I    between atoms: N2_19  and  C16_21 
REMARK   12  A    between atoms: C16_21  and  O3_23 
REMARK   13  A    between atoms: O3_23  and  C17_24 
REMARK   14  A    between atoms: S1_32  and  C23_35 
ROOT
HETATM    1  C8  UNL     1     120.644  55.857  16.044  1.00  0.00     0.121 C 
ENDROOT
BRANCH   1   2
HETATM    2  C7  UNL     1     121.918  56.137  15.227  1.00  0.00     0.160 C 
BRANCH   2   3
HETATM    3  C6  UNL     1     122.820  54.948  15.403  1.00  0.00     0.174 C 
BRANCH   3   4
HETATM    4  N1  UNL     1     124.196  55.166  15.084  1.00  0.00    -0.283 N 
BRANCH   4   5
HETATM    5  C5  UNL     1     124.692  54.412  14.040  1.00  0.00     0.080 C 
BRANCH   5   6
HETATM    6  C3  UNL     1     124.279  52.982  13.874  1.00  0.00     0.020 C 
HETATM    7  C4  UNL     1     124.703  52.612  12.438  1.00  0.00     0.015 C 
BRANCH   6   8
HETATM    8  C2  UNL     1     125.029  52.018  14.773  1.00  0.00     0.005 C 
HETATM    9  C1  UNL     1     125.075  50.691  14.003  1.00  0.00     0.006 C 
ENDBRANCH   6   8
ENDBRANCH   5   6
ENDBRANCH   4   5
BRANCH   4  10
HETATM   10  S1  UNL     1     125.133  55.438  16.459  1.00  0.00     0.264 S 
HETATM   11  O6  UNL     1     124.938  54.259  17.387  1.00  0.00    -0.200 OA
HETATM   12  O7  UNL     1     126.613  55.521  16.230  1.00  0.00    -0.200 OA
BRANCH  10  13
HETATM   13  C23 UNL     1     124.611  56.839  17.378  1.00  0.00     0.080 A 
HETATM   14  C24 UNL     1     124.225  56.680  18.697  1.00  0.00     0.027 A 
HETATM   15  C25 UNL     1     123.804  57.759  19.472  1.00  0.00     0.028 A 
HETATM   16  C26 UNL     1     123.777  59.004  18.900  1.00  0.00     0.046 A 
HETATM   17  N3  UNL     1     123.351  60.107  19.661  1.00  0.00    -0.102 NA
HETATM   18  C27 UNL     1     124.166  59.159  17.572  1.00  0.00     0.028 A 
HETATM   19  C28 UNL     1     124.577  58.090  16.824  1.00  0.00     0.027 A 
ENDBRANCH  10  13
ENDBRANCH   4  10
ENDBRANCH   3   4
ENDBRANCH   2   3
BRANCH   2  20
HETATM   20  O1  UNL     1     121.602  56.333  13.914  1.00  0.00    -0.392 OA
ATOM     21  H1  UNL     1     121.764  57.230  13.649  1.00  0.00     0.210 HD
ENDBRANCH   2  20
ENDBRANCH   1   2
BRANCH   1  22
HETATM   22  C9  UNL     1     120.847  56.172  17.508  1.00  0.00     0.066 C 
BRANCH  22  23
HETATM   23  C10 UNL     1     120.491  57.523  17.918  1.00  0.00    -0.056 A 
HETATM   24  C11 UNL     1     120.531  58.574  17.046  1.00  0.00     0.007 A 
HETATM   25  C12 UNL     1     120.179  59.824  17.516  1.00  0.00     0.001 A 
HETATM   26  C13 UNL     1     119.794  60.042  18.823  1.00  0.00     0.000 A 
HETATM   27  C14 UNL     1     119.746  58.991  19.723  1.00  0.00     0.001 A 
HETATM   28  C15 UNL     1     120.104  57.740  19.231  1.00  0.00     0.007 A 
ENDBRANCH  22  23
ENDBRANCH   1  22
BRANCH   1  29
HETATM   29  N2  UNL     1     120.214  54.506  15.828  1.00  0.00    -0.329 N 
HETATM   30  C16 UNL     1     118.980  54.234  15.211  1.00  0.00     0.361 C 
HETATM   31  O2  UNL     1     118.277  55.213  14.867  1.00  0.00    -0.238 OA
ATOM     32  H2  UNL     1     120.810  53.733  16.125  1.00  0.00     0.165 HD
BRANCH  30  33
HETATM   33  O3  UNL     1     118.473  52.973  14.950  1.00  0.00    -0.296 OA
BRANCH  33  34
HETATM   34  C17 UNL     1     119.118  52.064  14.102  1.00  0.00     0.166 C 
HETATM   35  C18 UNL     1     119.146  50.640  14.615  1.00  0.00     0.204 C 
HETATM   36  O4  UNL     1     119.252  49.825  13.490  1.00  0.00    -0.358 OA
HETATM   37  C19 UNL     1     118.883  50.528  12.377  1.00  0.00     0.266 C 
HETATM   38  O5  UNL     1     117.815  49.976  11.670  1.00  0.00    -0.361 OA
HETATM   39  C22 UNL     1     118.293  51.844  12.834  1.00  0.00     0.075 C 
HETATM   40  C20 UNL     1     116.735  50.091  12.543  1.00  0.00     0.171 C 
HETATM   41  C21 UNL     1     116.878  51.449  13.200  1.00  0.00     0.038 C 
ENDBRANCH  33  34
ENDBRANCH  30  33
ENDBRANCH   1  29
TORSDOF 14
ENDMDL
