MODEL 1
REMARK VINA RESULT: -9.666196438      0.000      0.000
REMARK  15 active torsions:
REMARK  status: ('A' for Active; 'I' for Inactive)
REMARK    1  A    between atoms: C2_2  and  C3_3 
REMARK    2  A    between atoms: C3_3  and  C4_4 
REMARK    3  A    between atoms: C3_3  and  C6_6 
REMARK    4  A    between atoms: C6_6  and  N1_7 
REMARK    5  A    between atoms: N1_7  and  C7_8 
REMARK    6  A    between atoms: N1_7  and  S1_33 
REMARK    7  A    between atoms: C7_8  and  C8_9 
REMARK    8  A    between atoms: C8_9  and  O1_10 
REMARK    9  A    between atoms: C8_9  and  C9_12 
REMARK   10  A    between atoms: C9_12  and  C10_13 
REMARK   11  A    between atoms: C9_12  and  N2_20 
REMARK   12  A    between atoms: C10_13  and  C11_14 
REMARK       I    between atoms: N2_20  and  C17_22 
REMARK   13  A    between atoms: C17_22  and  O3_24 
REMARK   14  A    between atoms: O3_24  and  C18_25 
REMARK   15  A    between atoms: S1_33  and  C24_36 
ROOT
HETATM    1  C8  UNL     1     122.650  56.526  14.982  1.00  0.00     0.160 C 
ENDROOT
BRANCH   1   2
HETATM    2  C7  UNL     1     123.042  57.317  16.183  1.00  0.00     0.174 C 
BRANCH   2   3
HETATM    3  N1  UNL     1     122.037  57.189  17.251  1.00  0.00    -0.283 N 
BRANCH   3   4
HETATM    4  C6  UNL     1     120.806  57.790  16.949  1.00  0.00     0.081 C 
BRANCH   4   5
HETATM    5  C3  UNL     1     119.651  56.839  17.098  1.00  0.00     0.024 C 
BRANCH   5   6
HETATM    6  C2  UNL     1     118.635  57.203  18.110  1.00  0.00     0.005 C 
HETATM    7  C1  UNL     1     118.577  58.614  18.566  1.00  0.00     0.006 C 
ENDBRANCH   5   6
BRANCH   5   8
HETATM    8  C4  UNL     1     119.119  56.408  15.755  1.00  0.00     0.005 C 
HETATM    9  C5  UNL     1     118.097  55.341  15.752  1.00  0.00     0.006 C 
ENDBRANCH   5   8
ENDBRANCH   4   5
ENDBRANCH   3   4
BRANCH   3  10
HETATM   10  S1  UNL     1     122.671  57.328  18.804  1.00  0.00     0.264 S 
HETATM   11  O6  UNL     1     121.643  57.619  19.841  1.00  0.00    -0.200 OA
HETATM   12  O7  UNL     1     123.262  55.969  19.184  1.00  0.00    -0.200 OA
BRANCH  10  13
HETATM   13  C24 UNL     1     123.928  58.537  18.935  1.00  0.00     0.080 A 
HETATM   14  C25 UNL     1     123.625  59.850  19.158  1.00  0.00     0.027 A 
HETATM   15  C26 UNL     1     124.651  60.761  19.253  1.00  0.00     0.028 A 
HETATM   16  C27 UNL     1     125.972  60.391  19.132  1.00  0.00     0.046 A 
HETATM   17  N3  UNL     1     127.036  61.327  19.229  1.00  0.00    -0.102 NA
HETATM   18  C28 UNL     1     126.275  59.054  18.905  1.00  0.00     0.028 A 
HETATM   19  C29 UNL     1     125.235  58.155  18.813  1.00  0.00     0.027 A 
ENDBRANCH  10  13
ENDBRANCH   3  10
ENDBRANCH   2   3
ENDBRANCH   1   2
BRANCH   1  20
HETATM   20  O1  UNL     1     122.694  57.204  13.773  1.00  0.00    -0.392 OA
ATOM     21  H1  UNL     1     121.859  57.322  13.337  1.00  0.00     0.210 HD
ENDBRANCH   1  20
BRANCH   1  22
HETATM   22  C9  UNL     1     123.185  55.133  14.896  1.00  0.00     0.117 C 
BRANCH  22  23
HETATM   23  C10 UNL     1     124.224  54.880  13.863  1.00  0.00     0.032 C 
BRANCH  23  24
HETATM   24  C11 UNL     1     125.153  53.745  14.066  1.00  0.00    -0.013 C 
HETATM   25  C12 UNL     1     125.041  52.863  12.801  1.00  0.00     0.005 C 
HETATM   26  C13 UNL     1     123.857  51.940  12.882  1.00  0.00     0.000 C 
HETATM   27  C14 UNL     1     123.968  51.011  14.058  1.00  0.00     0.000 C 
HETATM   28  C15 UNL     1     125.083  51.477  14.963  1.00  0.00     0.000 C 
HETATM   29  C16 UNL     1     124.905  52.945  15.311  1.00  0.00     0.005 C 
ENDBRANCH  23  24
ENDBRANCH  22  23
BRANCH  22  30
HETATM   30  N2  UNL     1     122.023  54.312  14.460  1.00  0.00    -0.330 N 
HETATM   31  C17 UNL     1     121.283  53.531  15.364  1.00  0.00     0.361 C 
HETATM   32  O2  UNL     1     121.575  53.493  16.591  1.00  0.00    -0.238 OA
ATOM     33  H2  UNL     1     121.756  54.315  13.475  1.00  0.00     0.165 HD
BRANCH  31  34
HETATM   34  O3  UNL     1     120.195  52.761  14.963  1.00  0.00    -0.296 OA
BRANCH  34  35
HETATM   35  C18 UNL     1     120.177  52.153  13.708  1.00  0.00     0.166 C 
HETATM   36  C19 UNL     1     120.339  50.660  13.741  1.00  0.00     0.204 C 
HETATM   37  O4  UNL     1     119.303  50.090  13.055  1.00  0.00    -0.358 OA
HETATM   38  C20 UNL     1     118.698  51.037  12.268  1.00  0.00     0.266 C 
HETATM   39  O5  UNL     1     117.357  50.776  12.191  1.00  0.00    -0.361 OA
HETATM   40  C23 UNL     1     118.824  52.324  13.081  1.00  0.00     0.075 C 
HETATM   41  C21 UNL     1     116.717  51.312  13.271  1.00  0.00     0.171 C 
HETATM   42  C22 UNL     1     117.690  52.117  14.070  1.00  0.00     0.038 C 
ENDBRANCH  34  35
ENDBRANCH  31  34
ENDBRANCH  22  30
ENDBRANCH   1  22
TORSDOF 15
ENDMDL
