MODEL 13
REMARK VINA RESULT: -9.020329741      2.373      9.599
REMARK  15 active torsions:
REMARK  status: ('A' for Active; 'I' for Inactive)
REMARK    1  A    between atoms: C2_2  and  C3_3 
REMARK    2  A    between atoms: C3_3  and  C4_4 
REMARK    3  A    between atoms: C3_3  and  C6_6 
REMARK    4  A    between atoms: C6_6  and  N1_7 
REMARK    5  A    between atoms: N1_7  and  C7_8 
REMARK    6  A    between atoms: N1_7  and  S1_33 
REMARK    7  A    between atoms: C7_8  and  C8_9 
REMARK    8  A    between atoms: C8_9  and  O1_10 
REMARK    9  A    between atoms: C8_9  and  C9_12 
REMARK   10  A    between atoms: C9_12  and  C10_13 
REMARK   11  A    between atoms: C9_12  and  N2_20 
REMARK   12  A    between atoms: C10_13  and  C11_14 
REMARK       I    between atoms: N2_20  and  C17_22 
REMARK   13  A    between atoms: C17_22  and  O3_24 
REMARK   14  A    between atoms: O3_24  and  C18_25 
REMARK   15  A    between atoms: S1_33  and  C24_36 
ROOT
HETATM    1  C8  UNL     1     122.538  57.708  15.825  1.00  0.00     0.160 C 
ENDROOT
BRANCH   1   2
HETATM    2  C7  UNL     1     121.989  56.531  15.092  1.00  0.00     0.174 C 
BRANCH   2   3
HETATM    3  N1  UNL     1     122.434  55.271  15.708  1.00  0.00    -0.283 N 
BRANCH   3   4
HETATM    4  C6  UNL     1     123.495  54.650  15.033  1.00  0.00     0.081 C 
BRANCH   4   5
HETATM    5  C3  UNL     1     124.462  53.984  15.972  1.00  0.00     0.024 C 
BRANCH   5   6
HETATM    6  C2  UNL     1     125.490  53.124  15.345  1.00  0.00     0.005 C 
HETATM    7  C1  UNL     1     125.035  51.966  14.538  1.00  0.00     0.006 C 
ENDBRANCH   5   6
BRANCH   5   8
HETATM    8  C4  UNL     1     124.958  54.944  17.022  1.00  0.00     0.005 C 
HETATM    9  C5  UNL     1     125.831  56.045  16.564  1.00  0.00     0.006 C 
ENDBRANCH   5   8
ENDBRANCH   4   5
ENDBRANCH   3   4
BRANCH   3  10
HETATM   10  S1  UNL     1     121.179  54.333  16.322  1.00  0.00     0.264 S 
HETATM   11  O6  UNL     1     121.631  53.295  17.289  1.00  0.00    -0.200 OA
HETATM   12  O7  UNL     1     120.257  55.259  17.118  1.00  0.00    -0.200 OA
BRANCH  10  13
HETATM   13  C24 UNL     1     120.233  53.540  15.083  1.00  0.00     0.080 A 
HETATM   14  C25 UNL     1     120.813  52.681  14.193  1.00  0.00     0.027 A 
HETATM   15  C26 UNL     1     120.025  52.084  13.237  1.00  0.00     0.028 A 
HETATM   16  C27 UNL     1     118.671  52.323  13.150  1.00  0.00     0.046 A 
HETATM   17  N3  UNL     1     117.852  51.710  12.165  1.00  0.00    -0.102 NA
HETATM   18  C28 UNL     1     118.086  53.198  14.058  1.00  0.00     0.028 A 
HETATM   19  C29 UNL     1     118.890  53.787  15.008  1.00  0.00     0.027 A 
ENDBRANCH  10  13
ENDBRANCH   3  10
ENDBRANCH   2   3
ENDBRANCH   1   2
BRANCH   1  20
HETATM   20  O1  UNL     1     123.019  58.739  15.034  1.00  0.00    -0.392 OA
ATOM     21  H1  UNL     1     123.397  59.475  15.501  1.00  0.00     0.210 HD
ENDBRANCH   1  20
BRANCH   1  22
HETATM   22  C9  UNL     1     121.753  58.186  17.003  1.00  0.00     0.117 C 
BRANCH  22  23
HETATM   23  C10 UNL     1     120.764  59.267  16.753  1.00  0.00     0.032 C 
BRANCH  23  24
HETATM   24  C11 UNL     1     119.559  59.328  17.610  1.00  0.00    -0.013 C 
HETATM   25  C12 UNL     1     119.574  60.723  18.279  1.00  0.00     0.005 C 
HETATM   26  C13 UNL     1     120.466  60.739  19.488  1.00  0.00     0.000 C 
HETATM   27  C14 UNL     1     119.997  59.759  20.526  1.00  0.00     0.000 C 
HETATM   28  C15 UNL     1     118.950  58.853  19.925  1.00  0.00     0.000 C 
HETATM   29  C16 UNL     1     119.461  58.236  18.634  1.00  0.00     0.005 C 
ENDBRANCH  23  24
ENDBRANCH  22  23
BRANCH  22  30
HETATM   30  N2  UNL     1     122.764  58.811  17.899  1.00  0.00    -0.330 N 
HETATM   31  C17 UNL     1     123.214  58.177  19.070  1.00  0.00     0.361 C 
HETATM   32  O2  UNL     1     122.775  57.045  19.414  1.00  0.00    -0.238 OA
ATOM     33  H2  UNL     1     123.143  59.727  17.655  1.00  0.00     0.165 HD
BRANCH  31  34
HETATM   34  O3  UNL     1     124.159  58.757  19.911  1.00  0.00    -0.296 OA
BRANCH  34  35
HETATM   35  C18 UNL     1     124.425  60.124  19.851  1.00  0.00     0.166 C 
HETATM   36  C19 UNL     1     124.902  60.719  21.145  1.00  0.00     0.204 C 
HETATM   37  O4  UNL     1     126.078  61.377  20.918  1.00  0.00    -0.358 OA
HETATM   38  C20 UNL     1     126.229  61.598  19.572  1.00  0.00     0.266 C 
HETATM   39  O5  UNL     1     127.556  61.531  19.245  1.00  0.00    -0.361 OA
HETATM   40  C23 UNL     1     125.579  60.376  18.925  1.00  0.00     0.075 C 
HETATM   41  C21 UNL     1     127.917  60.231  19.039  1.00  0.00     0.171 C 
HETATM   42  C22 UNL     1     126.700  59.366  19.099  1.00  0.00     0.038 C 
ENDBRANCH  34  35
ENDBRANCH  31  34
ENDBRANCH  22  30
ENDBRANCH   1  22
TORSDOF 15
ENDMDL
