MODEL 2
REMARK VINA RESULT: -9.635320984      1.058      1.953
REMARK  15 active torsions:
REMARK  status: ('A' for Active; 'I' for Inactive)
REMARK    1  A    between atoms: C2_2  and  C3_3 
REMARK    2  A    between atoms: C3_3  and  C4_4 
REMARK    3  A    between atoms: C3_3  and  C6_6 
REMARK    4  A    between atoms: C6_6  and  N1_7 
REMARK    5  A    between atoms: N1_7  and  C7_8 
REMARK    6  A    between atoms: N1_7  and  S1_33 
REMARK    7  A    between atoms: C7_8  and  C8_9 
REMARK    8  A    between atoms: C8_9  and  O1_10 
REMARK    9  A    between atoms: C8_9  and  C9_12 
REMARK   10  A    between atoms: C9_12  and  C10_13 
REMARK   11  A    between atoms: C9_12  and  N2_20 
REMARK   12  A    between atoms: C10_13  and  C11_14 
REMARK       I    between atoms: N2_20  and  C17_22 
REMARK   13  A    between atoms: C17_22  and  O3_24 
REMARK   14  A    between atoms: O3_24  and  C18_25 
REMARK   15  A    between atoms: S1_33  and  C24_36 
ROOT
HETATM    1  C8  UNL     1     122.388  56.797  15.128  1.00  0.00     0.160 C 
ENDROOT
BRANCH   1   2
HETATM    2  C7  UNL     1     122.929  57.707  16.178  1.00  0.00     0.174 C 
BRANCH   2   3
HETATM    3  N1  UNL     1     121.978  57.854  17.291  1.00  0.00    -0.283 N 
BRANCH   3   4
HETATM    4  C6  UNL     1     120.954  58.781  17.046  1.00  0.00     0.081 C 
BRANCH   4   5
HETATM    5  C3  UNL     1     119.589  58.216  17.324  1.00  0.00     0.024 C 
BRANCH   5   6
HETATM    6  C2  UNL     1     119.489  56.740  17.350  1.00  0.00     0.005 C 
HETATM    7  C1  UNL     1     118.538  56.087  16.418  1.00  0.00     0.006 C 
ENDBRANCH   5   6
BRANCH   5   8
HETATM    8  C4  UNL     1     118.916  58.941  18.460  1.00  0.00     0.005 C 
HETATM    9  C5  UNL     1     118.163  58.117  19.428  1.00  0.00     0.006 C 
ENDBRANCH   5   8
ENDBRANCH   4   5
ENDBRANCH   3   4
BRANCH   3  10
HETATM   10  S1  UNL     1     122.694  57.791  18.813  1.00  0.00     0.264 S 
HETATM   11  O6  UNL     1     121.736  58.019  19.929  1.00  0.00    -0.200 OA
HETATM   12  O7  UNL     1     123.226  56.371  19.013  1.00  0.00    -0.200 OA
BRANCH  10  13
HETATM   13  C24 UNL     1     124.022  58.914  19.003  1.00  0.00     0.080 A 
HETATM   14  C25 UNL     1     123.799  60.226  19.310  1.00  0.00     0.027 A 
HETATM   15  C26 UNL     1     124.878  61.068  19.448  1.00  0.00     0.028 A 
HETATM   16  C27 UNL     1     126.174  60.629  19.288  1.00  0.00     0.046 A 
HETATM   17  N3  UNL     1     127.292  61.493  19.429  1.00  0.00    -0.102 NA
HETATM   18  C28 UNL     1     126.395  59.293  18.975  1.00  0.00     0.028 A 
HETATM   19  C29 UNL     1     125.303  58.465  18.840  1.00  0.00     0.027 A 
ENDBRANCH  10  13
ENDBRANCH   3  10
ENDBRANCH   2   3
ENDBRANCH   1   2
BRANCH   1  20
HETATM   20  O1  UNL     1     122.618  57.186  13.817  1.00  0.00    -0.392 OA
ATOM     21  H1  UNL     1     123.468  56.956  13.462  1.00  0.00     0.210 HD
ENDBRANCH   1  20
BRANCH   1  22
HETATM   22  C9  UNL     1     122.579  55.332  15.351  1.00  0.00     0.117 C 
BRANCH  22  23
HETATM   23  C10 UNL     1     123.753  54.705  14.690  1.00  0.00     0.032 C 
BRANCH  23  24
HETATM   24  C11 UNL     1     124.615  53.807  15.492  1.00  0.00    -0.013 C 
HETATM   25  C12 UNL     1     124.870  54.535  16.832  1.00  0.00     0.005 C 
HETATM   26  C13 UNL     1     125.984  55.535  16.707  1.00  0.00     0.000 C 
HETATM   27  C14 UNL     1     127.274  54.870  16.317  1.00  0.00     0.000 C 
HETATM   28  C15 UNL     1     126.996  53.449  15.887  1.00  0.00     0.000 C 
HETATM   29  C16 UNL     1     125.905  53.419  14.831  1.00  0.00     0.005 C 
ENDBRANCH  23  24
ENDBRANCH  22  23
BRANCH  22  30
HETATM   30  N2  UNL     1     121.404  54.696  14.696  1.00  0.00    -0.330 N 
HETATM   31  C17 UNL     1     120.704  53.634  15.294  1.00  0.00     0.361 C 
HETATM   32  O2  UNL     1     121.046  53.172  16.417  1.00  0.00    -0.238 OA
ATOM     33  H2  UNL     1     121.096  55.041  13.786  1.00  0.00     0.165 HD
BRANCH  31  34
HETATM   34  O3  UNL     1     119.603  53.036  14.687  1.00  0.00    -0.296 OA
BRANCH  34  35
HETATM   35  C18 UNL     1     119.772  52.118  13.651  1.00  0.00     0.166 C 
HETATM   36  C19 UNL     1     119.956  50.698  14.107  1.00  0.00     0.204 C 
HETATM   37  O4  UNL     1     119.037  49.910  13.472  1.00  0.00    -0.358 OA
HETATM   38  C20 UNL     1     118.531  50.580  12.387  1.00  0.00     0.266 C 
HETATM   39  O5  UNL     1     117.219  50.233  12.209  1.00  0.00    -0.361 OA
HETATM   40  C23 UNL     1     118.518  52.041  12.831  1.00  0.00     0.075 C 
HETATM   41  C21 UNL     1     116.424  50.999  13.012  1.00  0.00     0.171 C 
HETATM   42  C22 UNL     1     117.260  52.040  13.683  1.00  0.00     0.038 C 
ENDBRANCH  34  35
ENDBRANCH  31  34
ENDBRANCH  22  30
ENDBRANCH   1  22
TORSDOF 15
ENDMDL
