MODEL 8
REMARK VINA RESULT: -9.178531745      2.311      9.463
REMARK  15 active torsions:
REMARK  status: ('A' for Active; 'I' for Inactive)
REMARK    1  A    between atoms: C2_2  and  C3_3 
REMARK    2  A    between atoms: C3_3  and  C4_4 
REMARK    3  A    between atoms: C3_3  and  C6_6 
REMARK    4  A    between atoms: C6_6  and  N1_7 
REMARK    5  A    between atoms: N1_7  and  C7_8 
REMARK    6  A    between atoms: N1_7  and  S1_33 
REMARK    7  A    between atoms: C7_8  and  C8_9 
REMARK    8  A    between atoms: C8_9  and  O1_10 
REMARK    9  A    between atoms: C8_9  and  C9_12 
REMARK   10  A    between atoms: C9_12  and  C10_13 
REMARK   11  A    between atoms: C9_12  and  N2_20 
REMARK   12  A    between atoms: C10_13  and  C11_14 
REMARK       I    between atoms: N2_20  and  C17_22 
REMARK   13  A    between atoms: C17_22  and  O3_24 
REMARK   14  A    between atoms: O3_24  and  C18_25 
REMARK   15  A    between atoms: S1_33  and  C24_36 
ROOT
HETATM    1  C8  UNL     1     122.631  57.712  15.702  1.00  0.00     0.160 C 
ENDROOT
BRANCH   1   2
HETATM    2  C7  UNL     1     122.165  56.518  14.942  1.00  0.00     0.174 C 
BRANCH   2   3
HETATM    3  N1  UNL     1     122.800  55.290  15.446  1.00  0.00    -0.283 N 
BRANCH   3   4
HETATM    4  C6  UNL     1     123.840  54.813  14.634  1.00  0.00     0.081 C 
BRANCH   4   5
HETATM    5  C3  UNL     1     125.133  54.662  15.387  1.00  0.00     0.024 C 
BRANCH   5   6
HETATM    6  C2  UNL     1     125.208  55.350  16.695  1.00  0.00     0.005 C 
HETATM    7  C1  UNL     1     125.992  56.606  16.779  1.00  0.00     0.006 C 
ENDBRANCH   5   6
BRANCH   5   8
HETATM    8  C4  UNL     1     125.617  53.235  15.365  1.00  0.00     0.005 C 
HETATM    9  C5  UNL     1     124.914  52.303  14.459  1.00  0.00     0.006 C 
ENDBRANCH   5   8
ENDBRANCH   4   5
ENDBRANCH   3   4
BRANCH   3  10
HETATM   10  S1  UNL     1     121.723  54.199  16.139  1.00  0.00     0.264 S 
HETATM   11  O6  UNL     1     122.391  53.089  16.872  1.00  0.00    -0.200 OA
HETATM   12  O7  UNL     1     120.915  54.958  17.194  1.00  0.00    -0.200 OA
BRANCH  10  13
HETATM   13  C24 UNL     1     120.610  53.494  14.989  1.00  0.00     0.080 A 
HETATM   14  C25 UNL     1     121.047  52.642  14.015  1.00  0.00     0.027 A 
HETATM   15  C26 UNL     1     120.131  52.114  13.135  1.00  0.00     0.028 A 
HETATM   16  C27 UNL     1     118.789  52.419  13.205  1.00  0.00     0.046 A 
HETATM   17  N3  UNL     1     117.838  51.878  12.299  1.00  0.00    -0.102 NA
HETATM   18  C28 UNL     1     118.351  53.287  14.197  1.00  0.00     0.028 A 
HETATM   19  C29 UNL     1     119.281  53.805  15.070  1.00  0.00     0.027 A 
ENDBRANCH  10  13
ENDBRANCH   3  10
ENDBRANCH   2   3
ENDBRANCH   1   2
BRANCH   1  20
HETATM   20  O1  UNL     1     123.055  58.786  14.935  1.00  0.00    -0.392 OA
ATOM     21  H1  UNL     1     122.579  59.598  15.062  1.00  0.00     0.210 HD
ENDBRANCH   1  20
BRANCH   1  22
HETATM   22  C9  UNL     1     121.807  58.119  16.880  1.00  0.00     0.117 C 
BRANCH  22  23
HETATM   23  C10 UNL     1     120.766  59.153  16.641  1.00  0.00     0.032 C 
BRANCH  23  24
HETATM   24  C11 UNL     1     119.503  59.069  17.410  1.00  0.00    -0.013 C 
HETATM   25  C12 UNL     1     119.388  60.393  18.200  1.00  0.00     0.005 C 
HETATM   26  C13 UNL     1     120.192  60.345  19.468  1.00  0.00     0.000 C 
HETATM   27  C14 UNL     1     119.714  59.248  20.377  1.00  0.00     0.000 C 
HETATM   28  C15 UNL     1     118.767  58.346  19.621  1.00  0.00     0.000 C 
HETATM   29  C16 UNL     1     119.402  57.881  18.322  1.00  0.00     0.005 C 
ENDBRANCH  23  24
ENDBRANCH  22  23
BRANCH  22  30
HETATM   30  N2  UNL     1     122.772  58.773  17.805  1.00  0.00    -0.330 N 
HETATM   31  C17 UNL     1     123.171  58.170  19.011  1.00  0.00     0.361 C 
HETATM   32  O2  UNL     1     122.725  57.043  19.361  1.00  0.00    -0.238 OA
ATOM     33  H2  UNL     1     123.155  59.686  17.558  1.00  0.00     0.165 HD
BRANCH  31  34
HETATM   34  O3  UNL     1     124.073  58.777  19.880  1.00  0.00    -0.296 OA
BRANCH  34  35
HETATM   35  C18 UNL     1     124.318  60.148  19.811  1.00  0.00     0.166 C 
HETATM   36  C19 UNL     1     124.726  60.769  21.116  1.00  0.00     0.204 C 
HETATM   37  O4  UNL     1     125.900  61.445  20.933  1.00  0.00    -0.358 OA
HETATM   38  C20 UNL     1     126.107  61.649  19.592  1.00  0.00     0.266 C 
HETATM   39  O5  UNL     1     127.448  61.601  19.325  1.00  0.00    -0.361 OA
HETATM   40  C23 UNL     1     125.508  60.408  18.935  1.00  0.00     0.075 C 
HETATM   41  C21 UNL     1     127.841  60.305  19.155  1.00  0.00     0.171 C 
HETATM   42  C22 UNL     1     126.638  59.419  19.173  1.00  0.00     0.038 C 
ENDBRANCH  34  35
ENDBRANCH  31  34
ENDBRANCH  22  30
ENDBRANCH   1  22
TORSDOF 15
ENDMDL
