MODEL 3
REMARK VINA RESULT: -9.585989665      0.983      1.582
REMARK  15 active torsions:
REMARK  status: ('A' for Active; 'I' for Inactive)
REMARK    1  A    between atoms: C2_2  and  C3_3 
REMARK    2  A    between atoms: C3_3  and  C4_4 
REMARK    3  A    between atoms: C3_3  and  C6_6 
REMARK    4  A    between atoms: C6_6  and  N1_7 
REMARK    5  A    between atoms: N1_7  and  C7_8 
REMARK    6  A    between atoms: N1_7  and  S1_33 
REMARK    7  A    between atoms: C7_8  and  C8_9 
REMARK    8  A    between atoms: C8_9  and  O1_10 
REMARK    9  A    between atoms: C8_9  and  C9_12 
REMARK   10  A    between atoms: C9_12  and  C10_13 
REMARK   11  A    between atoms: C9_12  and  N2_20 
REMARK   12  A    between atoms: C10_13  and  C11_14 
REMARK       I    between atoms: N2_20  and  C17_22 
REMARK   13  A    between atoms: C17_22  and  O3_24 
REMARK   14  A    between atoms: O3_24  and  C18_25 
REMARK   15  A    between atoms: S1_33  and  C24_36 
ROOT
HETATM    1  C8  UNL     1     122.283  56.803  15.079  1.00  0.00     0.160 C 
ENDROOT
BRANCH   1   2
HETATM    2  C7  UNL     1     122.477  57.764  16.202  1.00  0.00     0.174 C 
BRANCH   2   3
HETATM    3  N1  UNL     1     121.562  57.466  17.315  1.00  0.00    -0.283 N 
BRANCH   3   4
HETATM    4  C6  UNL     1     120.286  58.031  17.169  1.00  0.00     0.081 C 
BRANCH   4   5
HETATM    5  C3  UNL     1     119.189  57.010  17.289  1.00  0.00     0.024 C 
BRANCH   5   6
HETATM    6  C2  UNL     1     118.047  57.380  18.154  1.00  0.00     0.005 C 
HETATM    7  C1  UNL     1     118.222  58.514  19.095  1.00  0.00     0.006 C 
ENDBRANCH   5   6
BRANCH   5   8
HETATM    8  C4  UNL     1     118.835  56.424  15.947  1.00  0.00     0.005 C 
HETATM    9  C5  UNL     1     117.803  55.366  15.929  1.00  0.00     0.006 C 
ENDBRANCH   5   8
ENDBRANCH   4   5
ENDBRANCH   3   4
BRANCH   3  10
HETATM   10  S1  UNL     1     122.303  57.469  18.826  1.00  0.00     0.264 S 
HETATM   11  O6  UNL     1     121.362  57.735  19.949  1.00  0.00    -0.200 OA
HETATM   12  O7  UNL     1     122.847  56.060  19.074  1.00  0.00    -0.200 OA
BRANCH  10  13
HETATM   13  C24 UNL     1     123.626  58.606  18.950  1.00  0.00     0.080 A 
HETATM   14  C25 UNL     1     123.399  59.930  19.196  1.00  0.00     0.027 A 
HETATM   15  C26 UNL     1     124.475  60.782  19.284  1.00  0.00     0.028 A 
HETATM   16  C27 UNL     1     125.771  60.343  19.131  1.00  0.00     0.046 A 
HETATM   17  N3  UNL     1     126.887  61.218  19.220  1.00  0.00    -0.102 NA
HETATM   18  C28 UNL     1     125.996  58.995  18.880  1.00  0.00     0.028 A 
HETATM   19  C29 UNL     1     124.908  58.155  18.796  1.00  0.00     0.027 A 
ENDBRANCH  10  13
ENDBRANCH   3  10
ENDBRANCH   2   3
ENDBRANCH   1   2
BRANCH   1  20
HETATM   20  O1  UNL     1     122.742  57.224  13.840  1.00  0.00    -0.392 OA
ATOM     21  H1  UNL     1     122.091  57.614  13.270  1.00  0.00     0.210 HD
ENDBRANCH   1  20
BRANCH   1  22
HETATM   22  C9  UNL     1     122.591  55.369  15.365  1.00  0.00     0.117 C 
BRANCH  22  23
HETATM   23  C10 UNL     1     123.777  54.791  14.680  1.00  0.00     0.032 C 
BRANCH  23  24
HETATM   24  C11 UNL     1     124.626  53.838  15.429  1.00  0.00    -0.013 C 
HETATM   25  C12 UNL     1     124.896  54.488  16.806  1.00  0.00     0.005 C 
HETATM   26  C13 UNL     1     126.026  55.475  16.732  1.00  0.00     0.000 C 
HETATM   27  C14 UNL     1     127.304  54.812  16.301  1.00  0.00     0.000 C 
HETATM   28  C15 UNL     1     127.002  53.421  15.796  1.00  0.00     0.000 C 
HETATM   29  C16 UNL     1     125.908  53.466  14.743  1.00  0.00     0.005 C 
ENDBRANCH  23  24
ENDBRANCH  22  23
BRANCH  22  30
HETATM   30  N2  UNL     1     121.437  54.617  14.802  1.00  0.00    -0.330 N 
HETATM   31  C17 UNL     1     120.875  53.512  15.464  1.00  0.00     0.361 C 
HETATM   32  O2  UNL     1     121.329  53.108  16.569  1.00  0.00    -0.238 OA
ATOM     33  H2  UNL     1     121.041  54.913  13.908  1.00  0.00     0.165 HD
BRANCH  31  34
HETATM   34  O3  UNL     1     119.795  52.805  14.942  1.00  0.00    -0.296 OA
BRANCH  34  35
HETATM   35  C18 UNL     1     119.917  52.096  13.748  1.00  0.00     0.166 C 
HETATM   36  C19 UNL     1     120.095  50.615  13.923  1.00  0.00     0.204 C 
HETATM   37  O4  UNL     1     119.144  49.968  13.183  1.00  0.00    -0.358 OA
HETATM   38  C20 UNL     1     118.613  50.834  12.261  1.00  0.00     0.266 C 
HETATM   39  O5  UNL     1     117.291  50.538  12.067  1.00  0.00    -0.361 OA
HETATM   40  C23 UNL     1     118.636  52.186  12.971  1.00  0.00     0.075 C 
HETATM   41  C21 UNL     1     116.534  51.146  13.026  1.00  0.00     0.171 C 
HETATM   42  C22 UNL     1     117.406  52.036  13.851  1.00  0.00     0.038 C 
ENDBRANCH  34  35
ENDBRANCH  31  34
ENDBRANCH  22  30
ENDBRANCH   1  22
TORSDOF 15
ENDMDL
