MODEL 16
REMARK VINA RESULT: -8.884372278      2.377      9.611
REMARK  15 active torsions:
REMARK  status: ('A' for Active; 'I' for Inactive)
REMARK    1  A    between atoms: C2_2  and  C3_3 
REMARK    2  A    between atoms: C3_3  and  C4_4 
REMARK    3  A    between atoms: C3_3  and  C6_6 
REMARK    4  A    between atoms: C6_6  and  N1_7 
REMARK    5  A    between atoms: N1_7  and  C7_8 
REMARK    6  A    between atoms: N1_7  and  S1_33 
REMARK    7  A    between atoms: C7_8  and  C8_9 
REMARK    8  A    between atoms: C8_9  and  O1_10 
REMARK    9  A    between atoms: C8_9  and  C9_12 
REMARK   10  A    between atoms: C9_12  and  C10_13 
REMARK   11  A    between atoms: C9_12  and  N2_20 
REMARK   12  A    between atoms: C10_13  and  C11_14 
REMARK       I    between atoms: N2_20  and  C17_22 
REMARK   13  A    between atoms: C17_22  and  O3_24 
REMARK   14  A    between atoms: O3_24  and  C18_25 
REMARK   15  A    between atoms: S1_33  and  C24_36 
ROOT
HETATM    1  C8  UNL     1     122.526  56.587  15.053  1.00  0.00     0.160 C 
ENDROOT
BRANCH   1   2
HETATM    2  C7  UNL     1     121.501  55.625  14.556  1.00  0.00     0.174 C 
BRANCH   2   3
HETATM    3  N1  UNL     1     121.721  54.283  15.117  1.00  0.00    -0.283 N 
BRANCH   3   4
HETATM    4  C6  UNL     1     122.608  53.493  14.372  1.00  0.00     0.081 C 
BRANCH   4   5
HETATM    5  C3  UNL     1     123.621  52.794  15.236  1.00  0.00     0.024 C 
BRANCH   5   6
HETATM    6  C2  UNL     1     124.438  51.756  14.570  1.00  0.00     0.005 C 
HETATM    7  C1  UNL     1     124.500  51.759  13.088  1.00  0.00     0.006 C 
ENDBRANCH   5   6
BRANCH   5   8
HETATM    8  C4  UNL     1     124.376  53.773  16.098  1.00  0.00     0.005 C 
HETATM    9  C5  UNL     1     125.554  54.428  15.493  1.00  0.00     0.006 C 
ENDBRANCH   5   8
ENDBRANCH   4   5
ENDBRANCH   3   4
BRANCH   3  10
HETATM   10  S1  UNL     1     120.339  53.584  15.775  1.00  0.00     0.264 S 
HETATM   11  O6  UNL     1     120.602  52.796  17.011  1.00  0.00    -0.200 OA
HETATM   12  O7  UNL     1     119.408  54.720  16.205  1.00  0.00    -0.200 OA
BRANCH  10  13
HETATM   13  C24 UNL     1     119.478  52.556  14.652  1.00  0.00     0.080 A 
HETATM   14  C25 UNL     1     119.753  51.221  14.563  1.00  0.00     0.027 A 
HETATM   15  C26 UNL     1     119.047  50.457  13.664  1.00  0.00     0.028 A 
HETATM   16  C27 UNL     1     118.074  50.995  12.851  1.00  0.00     0.046 A 
HETATM   17  N3  UNL     1     117.341  50.211  11.920  1.00  0.00    -0.102 NA
HETATM   18  C28 UNL     1     117.799  52.353  12.945  1.00  0.00     0.028 A 
HETATM   19  C29 UNL     1     118.514  53.104  13.851  1.00  0.00     0.027 A 
ENDBRANCH  10  13
ENDBRANCH   3  10
ENDBRANCH   2   3
ENDBRANCH   1   2
BRANCH   1  20
HETATM   20  O1  UNL     1     122.741  57.703  14.257  1.00  0.00    -0.392 OA
ATOM     21  H1  UNL     1     122.898  58.516  14.722  1.00  0.00     0.210 HD
ENDBRANCH   1  20
BRANCH   1  22
HETATM   22  C9  UNL     1     122.495  56.902  16.513  1.00  0.00     0.117 C 
BRANCH  22  23
HETATM   23  C10 UNL     1     121.254  57.532  17.034  1.00  0.00     0.032 C 
BRANCH  23  24
HETATM   24  C11 UNL     1     120.833  57.217  18.418  1.00  0.00    -0.013 C 
HETATM   25  C12 UNL     1     119.289  57.291  18.429  1.00  0.00     0.005 C 
HETATM   26  C13 UNL     1     118.810  58.707  18.579  1.00  0.00     0.000 C 
HETATM   27  C14 UNL     1     119.288  59.311  19.869  1.00  0.00     0.000 C 
HETATM   28  C15 UNL     1     120.339  58.417  20.484  1.00  0.00     0.000 C 
HETATM   29  C16 UNL     1     121.427  58.105  19.472  1.00  0.00     0.005 C 
ENDBRANCH  23  24
ENDBRANCH  22  23
BRANCH  22  30
HETATM   30  N2  UNL     1     123.542  57.945  16.695  1.00  0.00    -0.330 N 
HETATM   31  C17 UNL     1     124.605  57.782  17.599  1.00  0.00     0.361 C 
HETATM   32  O2  UNL     1     124.716  56.739  18.301  1.00  0.00    -0.238 OA
ATOM     33  H2  UNL     1     123.486  58.804  16.146  1.00  0.00     0.165 HD
BRANCH  31  34
HETATM   34  O3  UNL     1     125.587  58.753  17.773  1.00  0.00    -0.296 OA
BRANCH  34  35
HETATM   35  C18 UNL     1     126.093  59.036  19.041  1.00  0.00     0.166 C 
HETATM   36  C19 UNL     1     127.272  59.967  19.042  1.00  0.00     0.204 C 
HETATM   37  O4  UNL     1     127.005  61.012  19.883  1.00  0.00    -0.358 OA
HETATM   38  C20 UNL     1     125.960  60.682  20.708  1.00  0.00     0.266 C 
HETATM   39  O5  UNL     1     125.219  61.802  20.975  1.00  0.00    -0.361 OA
HETATM   40  C23 UNL     1     125.072  59.795  19.838  1.00  0.00     0.075 C 
HETATM   41  C21 UNL     1     124.318  62.012  19.972  1.00  0.00     0.171 C 
HETATM   42  C22 UNL     1     124.364  60.861  19.019  1.00  0.00     0.038 C 
ENDBRANCH  34  35
ENDBRANCH  31  34
ENDBRANCH  22  30
ENDBRANCH   1  22
TORSDOF 15
ENDMDL
