MODEL 2
REMARK VINA RESULT: -9.110474136      2.275     10.062
REMARK  13 active torsions:
REMARK  status: ('A' for Active; 'I' for Inactive)
REMARK    1  A    between atoms: C2_2  and  C4_4 
REMARK    2  A    between atoms: C4_4  and  N1_5 
REMARK    3  A    between atoms: N1_5  and  C5_6 
REMARK    4  A    between atoms: N1_5  and  S1_31 
REMARK    5  A    between atoms: C5_6  and  C6_7 
REMARK    6  A    between atoms: C6_7  and  O1_8 
REMARK    7  A    between atoms: C6_7  and  C7_10 
REMARK    8  A    between atoms: C7_10  and  C8_11 
REMARK    9  A    between atoms: C7_10  and  N2_18 
REMARK   10  A    between atoms: C8_11  and  C9_12 
REMARK       I    between atoms: N2_18  and  C15_20 
REMARK   11  A    between atoms: C15_20  and  O3_22 
REMARK   12  A    between atoms: O3_22  and  C16_23 
REMARK   13  A    between atoms: S1_31  and  C22_34 
ROOT
HETATM    1  C7  UNL     1      71.023  55.281  14.889  1.00  0.00     0.029 C 
ENDROOT
BRANCH   1   2
HETATM    2  C6  UNL     1      70.645  56.738  14.814  1.00  0.00     0.203 C 
BRANCH   2   3
HETATM    3  C5  UNL     1      71.431  57.641  15.675  1.00  0.00     0.119 C 
BRANCH   3   4
HETATM    4  N1  UNL     1      71.193  57.598  17.056  1.00  0.00    -0.262 N 
BRANCH   4   5
HETATM    5  C4  UNL     1      69.920  57.373  17.581  1.00  0.00     0.085 C 
BRANCH   5   6
HETATM    6  C2  UNL     1      69.366  58.482  18.466  1.00  0.00     0.017 C 
HETATM    7  C1  UNL     1      68.975  59.716  17.703  1.00  0.00     0.015 C 
HETATM    8  C3  UNL     1      68.204  58.002  19.303  1.00  0.00     0.015 C 
ENDBRANCH   5   6
ENDBRANCH   4   5
BRANCH   4   9
HETATM    9  S1  UNL     1      72.542  57.231  18.005  1.00  0.00     0.267 S 
HETATM   10  O6  UNL     1      72.056  56.489  19.241  1.00  0.00    -0.200 OA
HETATM   11  O7  UNL     1      73.540  56.345  17.273  1.00  0.00    -0.200 OA
BRANCH   9  12
HETATM   12  C22 UNL     1      73.421  58.649  18.563  1.00  0.00     0.080 A 
HETATM   13  C23 UNL     1      74.774  58.644  18.828  1.00  0.00     0.027 A 
HETATM   14  C24 UNL     1      75.443  59.770  19.271  1.00  0.00     0.028 A 
HETATM   15  C25 UNL     1      74.771  60.958  19.466  1.00  0.00     0.046 A 
HETATM   16  N3  UNL     1      75.463  62.132  19.928  1.00  0.00    -0.102 NA
HETATM   17  C26 UNL     1      73.419  60.981  19.208  1.00  0.00     0.028 A 
HETATM   18  C27 UNL     1      72.759  59.856  18.767  1.00  0.00     0.027 A 
ENDBRANCH   9  12
ENDBRANCH   4   9
ENDBRANCH   3   4
ENDBRANCH   2   3
BRANCH   2  19
HETATM   19  O1  UNL     1      70.865  57.119  13.468  1.00  0.00    -0.385 OA
ATOM     20  H1  UNL     1      70.254  56.635  12.924  1.00  0.00     0.211 HD
ENDBRANCH   2  19
ENDBRANCH   1   2
BRANCH   1  21
HETATM   21  C8  UNL     1      72.407  55.004  14.368  1.00  0.00     0.094 C 
BRANCH  21  22
HETATM   22  C9  UNL     1      72.731  53.594  14.153  1.00  0.00    -0.053 A 
HETATM   23  C10 UNL     1      73.088  52.814  15.254  1.00  0.00     0.007 A 
HETATM   24  C11 UNL     1      73.441  51.494  15.172  1.00  0.00     0.001 A 
HETATM   25  C12 UNL     1      73.447  50.888  13.928  1.00  0.00     0.000 A 
HETATM   26  C13 UNL     1      73.103  51.615  12.816  1.00  0.00     0.001 A 
HETATM   27  C14 UNL     1      72.748  52.967  12.946  1.00  0.00     0.007 A 
ENDBRANCH  21  22
ENDBRANCH   1  21
BRANCH   1  28
HETATM   28  N2  UNL     1      69.995  54.368  14.581  1.00  0.00    -0.307 N 
HETATM   29  C15 UNL     1      69.365  53.507  15.513  1.00  0.00     0.365 C 
HETATM   30  O2  UNL     1      69.717  53.517  16.698  1.00  0.00    -0.238 OA
ATOM     31  H2  UNL     1      69.679  54.325  13.613  1.00  0.00     0.170 HD
BRANCH  29  32
HETATM   32  O3  UNL     1      68.345  52.638  15.114  1.00  0.00    -0.296 OA
BRANCH  32  33
HETATM   33  C16 UNL     1      68.465  51.848  13.942  1.00  0.00     0.166 C 
HETATM   34  C17 UNL     1      68.201  50.402  14.208  1.00  0.00     0.204 C 
HETATM   35  O4  UNL     1      67.405  49.899  13.213  1.00  0.00    -0.358 OA
HETATM   36  C18 UNL     1      67.120  50.901  12.301  1.00  0.00     0.266 C 
HETATM   37  O5  UNL     1      65.783  50.925  11.922  1.00  0.00    -0.361 OA
HETATM   38  C21 UNL     1      67.308  52.213  13.035  1.00  0.00     0.075 C 
HETATM   39  C19 UNL     1      65.047  51.491  12.934  1.00  0.00     0.171 C 
HETATM   40  C20 UNL     1      66.007  52.361  13.753  1.00  0.00     0.038 C 
ENDBRANCH  32  33
ENDBRANCH  29  32
ENDBRANCH   1  28
TORSDOF 13
ENDMDL
