MODEL 1
REMARK VINA RESULT: -9.135264822      0.000      0.000
REMARK  13 active torsions:
REMARK  status: ('A' for Active; 'I' for Inactive)
REMARK    1  A    between atoms: C2_2  and  C4_4 
REMARK    2  A    between atoms: C4_4  and  N1_5 
REMARK    3  A    between atoms: N1_5  and  C5_6 
REMARK    4  A    between atoms: N1_5  and  S1_31 
REMARK    5  A    between atoms: C5_6  and  C6_7 
REMARK    6  A    between atoms: C6_7  and  O1_8 
REMARK    7  A    between atoms: C6_7  and  C7_10 
REMARK    8  A    between atoms: C7_10  and  C8_11 
REMARK    9  A    between atoms: C7_10  and  N2_18 
REMARK   10  A    between atoms: C8_11  and  C9_12 
REMARK       I    between atoms: N2_18  and  C15_20 
REMARK   11  A    between atoms: C15_20  and  O3_22 
REMARK   12  A    between atoms: O3_22  and  C16_23 
REMARK   13  A    between atoms: S1_31  and  C22_34 
ROOT
HETATM    1  C7  UNL     1      70.880  57.077  16.184  1.00  0.00     0.029 C 
ENDROOT
BRANCH   1   2
HETATM    2  C6  UNL     1      70.993  56.411  14.836  1.00  0.00     0.203 C 
BRANCH   2   3
HETATM    3  C5  UNL     1      69.835  55.591  14.436  1.00  0.00     0.119 C 
BRANCH   3   4
HETATM    4  N1  UNL     1      69.859  54.227  14.755  1.00  0.00    -0.262 N 
BRANCH   4   5
HETATM    5  C4  UNL     1      71.049  53.552  15.032  1.00  0.00     0.085 C 
BRANCH   5   6
HETATM    6  C2  UNL     1      71.838  53.082  13.817  1.00  0.00     0.017 C 
HETATM    7  C1  UNL     1      73.229  53.648  13.753  1.00  0.00     0.015 C 
HETATM    8  C3  UNL     1      71.890  51.575  13.732  1.00  0.00     0.015 C 
ENDBRANCH   5   6
ENDBRANCH   4   5
BRANCH   4   9
HETATM    9  S1  UNL     1      68.410  53.608  15.366  1.00  0.00     0.267 S 
HETATM   10  O6  UNL     1      68.721  52.893  16.673  1.00  0.00    -0.200 OA
HETATM   11  O7  UNL     1      67.387  54.700  15.646  1.00  0.00    -0.200 OA
BRANCH   9  12
HETATM   12  C22 UNL     1      67.638  52.435  14.305  1.00  0.00     0.080 A 
HETATM   13  C23 UNL     1      66.406  52.641  13.721  1.00  0.00     0.027 A 
HETATM   14  C24 UNL     1      65.817  51.703  12.894  1.00  0.00     0.028 A 
HETATM   15  C25 UNL     1      66.450  50.509  12.619  1.00  0.00     0.046 A 
HETATM   16  N3  UNL     1      65.839  49.530  11.759  1.00  0.00    -0.102 NA
HETATM   17  C26 UNL     1      67.681  50.287  13.194  1.00  0.00     0.028 A 
HETATM   18  C27 UNL     1      68.262  51.226  14.016  1.00  0.00     0.027 A 
ENDBRANCH   9  12
ENDBRANCH   4   9
ENDBRANCH   3   4
ENDBRANCH   2   3
BRANCH   2  19
HETATM   19  O1  UNL     1      71.124  57.467  13.901  1.00  0.00    -0.385 OA
ATOM     20  H1  UNL     1      71.321  57.085  13.054  1.00  0.00     0.211 HD
ENDBRANCH   2  19
ENDBRANCH   1   2
BRANCH   1  21
HETATM   21  C8  UNL     1      69.464  57.427  16.551  1.00  0.00     0.094 C 
BRANCH  21  22
HETATM   22  C9  UNL     1      69.313  58.423  17.611  1.00  0.00    -0.053 A 
HETATM   23  C10 UNL     1      69.470  58.018  18.937  1.00  0.00     0.007 A 
HETATM   24  C11 UNL     1      69.322  58.852  20.013  1.00  0.00     0.001 A 
HETATM   25  C12 UNL     1      68.999  60.177  19.782  1.00  0.00     0.000 A 
HETATM   26  C13 UNL     1      68.835  60.622  18.493  1.00  0.00     0.001 A 
HETATM   27  C14 UNL     1      68.995  59.732  17.420  1.00  0.00     0.007 A 
ENDBRANCH  21  22
ENDBRANCH   1  21
BRANCH   1  28
HETATM   28  N2  UNL     1      71.901  57.995  16.497  1.00  0.00    -0.307 N 
HETATM   29  C15 UNL     1      72.964  57.754  17.402  1.00  0.00     0.365 C 
HETATM   30  O2  UNL     1      73.039  56.669  17.991  1.00  0.00    -0.238 OA
ATOM     31  H2  UNL     1      71.873  58.905  16.037  1.00  0.00     0.170 HD
BRANCH  29  32
HETATM   32  O3  UNL     1      73.939  58.727  17.644  1.00  0.00    -0.296 OA
BRANCH  32  33
HETATM   33  C16 UNL     1      74.474  58.928  18.942  1.00  0.00     0.166 C 
HETATM   34  C17 UNL     1      75.630  59.873  18.935  1.00  0.00     0.204 C 
HETATM   35  O4  UNL     1      75.504  60.748  19.981  1.00  0.00    -0.358 OA
HETATM   36  C18 UNL     1      74.350  60.454  20.690  1.00  0.00     0.266 C 
HETATM   37  O5  UNL     1      73.616  61.586  21.021  1.00  0.00    -0.361 OA
HETATM   38  C21 UNL     1      73.444  59.704  19.736  1.00  0.00     0.075 C 
HETATM   39  C19 UNL     1      72.946  62.020  19.904  1.00  0.00     0.171 C 
HETATM   40  C20 UNL     1      72.806  60.815  18.968  1.00  0.00     0.038 C 
ENDBRANCH  32  33
ENDBRANCH  29  32
ENDBRANCH   1  28
TORSDOF 13
ENDMDL
