MODEL 5
REMARK VINA RESULT: -8.877066621      2.808      9.448
REMARK  13 active torsions:
REMARK  status: ('A' for Active; 'I' for Inactive)
REMARK    1  A    between atoms: C2_2  and  C4_4 
REMARK    2  A    between atoms: C4_4  and  N1_5 
REMARK    3  A    between atoms: N1_5  and  C5_6 
REMARK    4  A    between atoms: N1_5  and  S1_31 
REMARK    5  A    between atoms: C5_6  and  C6_7 
REMARK    6  A    between atoms: C6_7  and  O1_8 
REMARK    7  A    between atoms: C6_7  and  C7_10 
REMARK    8  A    between atoms: C7_10  and  C8_11 
REMARK    9  A    between atoms: C7_10  and  N2_18 
REMARK   10  A    between atoms: C8_11  and  C9_12 
REMARK       I    between atoms: N2_18  and  C15_20 
REMARK   11  A    between atoms: C15_20  and  O3_22 
REMARK   12  A    between atoms: O3_22  and  C16_23 
REMARK   13  A    between atoms: S1_31  and  C22_34 
ROOT
HETATM    1  C7  UNL     1      72.676  55.434  16.309  1.00  0.00     0.029 C 
ENDROOT
BRANCH   1   2
HETATM    2  C6  UNL     1      73.086  56.593  17.181  1.00  0.00     0.203 C 
BRANCH   2   3
HETATM    3  C5  UNL     1      72.410  57.871  16.895  1.00  0.00     0.119 C 
BRANCH   3   4
HETATM    4  N1  UNL     1      72.015  58.660  17.984  1.00  0.00    -0.262 N 
BRANCH   4   5
HETATM    5  C4  UNL     1      72.736  59.787  18.383  1.00  0.00     0.085 C 
BRANCH   5   6
HETATM    6  C2  UNL     1      73.496  59.652  19.696  1.00  0.00     0.017 C 
HETATM    7  C1  UNL     1      74.824  58.964  19.550  1.00  0.00     0.015 C 
HETATM    8  C3  UNL     1      73.679  60.989  20.376  1.00  0.00     0.015 C 
ENDBRANCH   5   6
ENDBRANCH   4   5
BRANCH   4   9
HETATM    9  S1  UNL     1      70.377  58.555  18.387  1.00  0.00     0.267 S 
HETATM   10  O6  UNL     1      69.569  58.737  17.111  1.00  0.00    -0.200 OA
HETATM   11  O7  UNL     1      70.017  57.208  18.998  1.00  0.00    -0.200 OA
BRANCH   9  12
HETATM   12  C22 UNL     1      69.847  59.794  19.519  1.00  0.00     0.080 A 
HETATM   13  C23 UNL     1      69.342  61.014  19.122  1.00  0.00     0.027 A 
HETATM   14  C24 UNL     1      68.936  61.974  20.030  1.00  0.00     0.028 A 
HETATM   15  C25 UNL     1      69.023  61.743  21.386  1.00  0.00     0.046 A 
HETATM   16  N3  UNL     1      68.602  62.741  22.334  1.00  0.00    -0.102 NA
HETATM   17  C26 UNL     1      69.526  60.531  21.800  1.00  0.00     0.028 A 
HETATM   18  C27 UNL     1      69.928  59.578  20.891  1.00  0.00     0.027 A 
ENDBRANCH   9  12
ENDBRANCH   4   9
ENDBRANCH   3   4
ENDBRANCH   2   3
BRANCH   2  19
HETATM   19  O1  UNL     1      72.753  56.209  18.503  1.00  0.00    -0.385 OA
ATOM     20  H1  UNL     1      72.073  56.795  18.815  1.00  0.00     0.211 HD
ENDBRANCH   2  19
ENDBRANCH   1   2
BRANCH   1  21
HETATM   21  C8  UNL     1      73.789  54.936  15.429  1.00  0.00     0.094 C 
BRANCH  21  22
HETATM   22  C9  UNL     1      73.484  53.746  14.636  1.00  0.00    -0.053 A 
HETATM   23  C10 UNL     1      73.369  52.518  15.289  1.00  0.00     0.007 A 
HETATM   24  C11 UNL     1      73.117  51.334  14.649  1.00  0.00     0.001 A 
HETATM   25  C12 UNL     1      72.966  51.345  13.275  1.00  0.00     0.000 A 
HETATM   26  C13 UNL     1      73.071  52.529  12.588  1.00  0.00     0.001 A 
HETATM   27  C14 UNL     1      73.331  53.721  13.285  1.00  0.00     0.007 A 
ENDBRANCH  21  22
ENDBRANCH   1  21
BRANCH   1  28
HETATM   28  N2  UNL     1      71.376  55.508  15.770  1.00  0.00    -0.307 N 
HETATM   29  C15 UNL     1      70.209  54.990  16.385  1.00  0.00     0.365 C 
HETATM   30  O2  UNL     1      70.290  54.414  17.476  1.00  0.00    -0.238 OA
ATOM     31  H2  UNL     1      71.266  55.970  14.868  1.00  0.00     0.170 HD
BRANCH  29  32
HETATM   32  O3  UNL     1      68.957  55.118  15.775  1.00  0.00    -0.296 OA
BRANCH  32  33
HETATM   33  C16 UNL     1      68.012  54.061  15.803  1.00  0.00     0.166 C 
HETATM   34  C17 UNL     1      66.840  54.329  14.918  1.00  0.00     0.204 C 
HETATM   35  O4  UNL     1      66.536  53.194  14.215  1.00  0.00    -0.358 OA
HETATM   36  C18 UNL     1      67.417  52.185  14.567  1.00  0.00     0.266 C 
HETATM   37  O5  UNL     1      67.896  51.477  13.472  1.00  0.00    -0.361 OA
HETATM   38  C21 UNL     1      68.651  52.870  15.119  1.00  0.00     0.075 C 
HETATM   39  C19 UNL     1      68.851  52.235  12.839  1.00  0.00     0.171 C 
HETATM   40  C20 UNL     1      69.398  53.222  13.875  1.00  0.00     0.038 C 
ENDBRANCH  32  33
ENDBRANCH  29  32
ENDBRANCH   1  28
TORSDOF 13
ENDMDL
