MODEL 3
REMARK VINA RESULT: -9.089476808      3.000      8.808
REMARK  13 active torsions:
REMARK  status: ('A' for Active; 'I' for Inactive)
REMARK    1  A    between atoms: C2_2  and  C4_4 
REMARK    2  A    between atoms: C4_4  and  N1_5 
REMARK    3  A    between atoms: N1_5  and  C5_6 
REMARK    4  A    between atoms: N1_5  and  S1_31 
REMARK    5  A    between atoms: C5_6  and  C6_7 
REMARK    6  A    between atoms: C6_7  and  O1_8 
REMARK    7  A    between atoms: C6_7  and  C7_10 
REMARK    8  A    between atoms: C7_10  and  C8_11 
REMARK    9  A    between atoms: C7_10  and  N2_18 
REMARK   10  A    between atoms: C8_11  and  C9_12 
REMARK       I    between atoms: N2_18  and  C15_20 
REMARK   11  A    between atoms: C15_20  and  O3_22 
REMARK   12  A    between atoms: O3_22  and  C16_23 
REMARK   13  A    between atoms: S1_31  and  C22_34 
ROOT
HETATM    1  C7  UNL     1      72.213  57.130  17.160  1.00  0.00     0.029 C 
ENDROOT
BRANCH   1   2
HETATM    2  C6  UNL     1      72.141  58.633  17.082  1.00  0.00     0.203 C 
BRANCH   2   3
HETATM    3  C5  UNL     1      73.219  59.356  17.782  1.00  0.00     0.119 C 
BRANCH   3   4
HETATM    4  N1  UNL     1      73.093  59.536  19.166  1.00  0.00    -0.262 N 
BRANCH   4   5
HETATM    5  C4  UNL     1      74.074  59.106  20.061  1.00  0.00     0.085 C 
BRANCH   5   6
HETATM    6  C2  UNL     1      75.513  59.253  19.583  1.00  0.00     0.017 C 
HETATM    7  C1  UNL     1      76.038  60.656  19.690  1.00  0.00     0.015 C 
HETATM    8  C3  UNL     1      76.440  58.299  20.299  1.00  0.00     0.015 C 
ENDBRANCH   5   6
ENDBRANCH   4   5
BRANCH   4   9
HETATM    9  S1  UNL     1      72.053  60.783  19.634  1.00  0.00     0.267 S 
HETATM   10  O6  UNL     1      72.386  61.154  21.072  1.00  0.00    -0.200 OA
HETATM   11  O7  UNL     1      72.212  62.025  18.767  1.00  0.00    -0.200 OA
BRANCH   9  12
HETATM   12  C22 UNL     1      70.351  60.338  19.594  1.00  0.00     0.080 A 
HETATM   13  C23 UNL     1      69.372  61.142  19.051  1.00  0.00     0.027 A 
HETATM   14  C24 UNL     1      68.040  60.773  19.035  1.00  0.00     0.028 A 
HETATM   15  C25 UNL     1      67.636  59.569  19.569  1.00  0.00     0.046 A 
HETATM   16  N3  UNL     1      66.250  59.182  19.555  1.00  0.00    -0.102 NA
HETATM   17  C26 UNL     1      68.601  58.753  20.117  1.00  0.00     0.028 A 
HETATM   18  C27 UNL     1      69.926  59.126  20.130  1.00  0.00     0.027 A 
ENDBRANCH   9  12
ENDBRANCH   4   9
ENDBRANCH   3   4
ENDBRANCH   2   3
BRANCH   2  19
HETATM   19  O1  UNL     1      72.229  58.946  15.703  1.00  0.00    -0.385 OA
ATOM     20  H1  UNL     1      72.377  58.137  15.229  1.00  0.00     0.211 HD
ENDBRANCH   2  19
ENDBRANCH   1   2
BRANCH   1  21
HETATM   21  C8  UNL     1      73.540  56.580  16.714  1.00  0.00     0.094 C 
BRANCH  21  22
HETATM   22  C9  UNL     1      73.478  55.392  15.862  1.00  0.00    -0.053 A 
HETATM   23  C10 UNL     1      73.821  54.156  16.412  1.00  0.00     0.007 A 
HETATM   24  C11 UNL     1      73.831  52.983  15.707  1.00  0.00     0.001 A 
HETATM   25  C12 UNL     1      73.481  53.014  14.369  1.00  0.00     0.000 A 
HETATM   26  C13 UNL     1      73.136  54.207  13.783  1.00  0.00     0.001 A 
HETATM   27  C14 UNL     1      73.140  55.387  14.545  1.00  0.00     0.007 A 
ENDBRANCH  21  22
ENDBRANCH   1  21
BRANCH   1  28
HETATM   28  N2  UNL     1      71.041  56.443  16.784  1.00  0.00    -0.307 N 
HETATM   29  C15 UNL     1      70.450  55.382  17.513  1.00  0.00     0.365 C 
HETATM   30  O2  UNL     1      70.972  54.988  18.562  1.00  0.00    -0.238 OA
ATOM     31  H2  UNL     1      70.582  56.734  15.921  1.00  0.00     0.170 HD
BRANCH  29  32
HETATM   32  O3  UNL     1      69.278  54.765  17.063  1.00  0.00    -0.296 OA
BRANCH  32  33
HETATM   33  C16 UNL     1      69.312  53.755  16.068  1.00  0.00     0.166 C 
HETATM   34  C17 UNL     1      68.481  52.571  16.438  1.00  0.00     0.204 C 
HETATM   35  O4  UNL     1      67.756  52.169  15.348  1.00  0.00    -0.358 OA
HETATM   36  C18 UNL     1      68.044  52.996  14.274  1.00  0.00     0.266 C 
HETATM   37  O5  UNL     1      66.911  53.388  13.573  1.00  0.00    -0.361 OA
HETATM   38  C21 UNL     1      68.568  54.290  14.861  1.00  0.00     0.075 C 
HETATM   39  C19 UNL     1      66.264  54.366  14.289  1.00  0.00     0.171 C 
HETATM   40  C20 UNL     1      67.307  55.013  15.206  1.00  0.00     0.038 C 
ENDBRANCH  32  33
ENDBRANCH  29  32
ENDBRANCH   1  28
TORSDOF 13
ENDMDL
