MODEL 7
REMARK VINA RESULT: -8.750352154      1.521      1.901
REMARK  13 active torsions:
REMARK  status: ('A' for Active; 'I' for Inactive)
REMARK    1  A    between atoms: C2_2  and  C4_4 
REMARK    2  A    between atoms: C4_4  and  N1_5 
REMARK    3  A    between atoms: N1_5  and  C5_6 
REMARK    4  A    between atoms: N1_5  and  S1_31 
REMARK    5  A    between atoms: C5_6  and  C6_7 
REMARK    6  A    between atoms: C6_7  and  O1_8 
REMARK    7  A    between atoms: C6_7  and  C7_10 
REMARK    8  A    between atoms: C7_10  and  C8_11 
REMARK    9  A    between atoms: C7_10  and  N2_18 
REMARK   10  A    between atoms: C8_11  and  C9_12 
REMARK       I    between atoms: N2_18  and  C15_20 
REMARK   11  A    between atoms: C15_20  and  O3_22 
REMARK   12  A    between atoms: O3_22  and  C16_23 
REMARK   13  A    between atoms: S1_31  and  C22_34 
ROOT
HETATM    1  C7  UNL     1      70.767  58.130  17.177  1.00  0.00     0.029 C 
ENDROOT
BRANCH   1   2
HETATM    2  C6  UNL     1      71.381  57.736  15.858  1.00  0.00     0.203 C 
BRANCH   2   3
HETATM    3  C5  UNL     1      70.620  56.744  15.077  1.00  0.00     0.119 C 
BRANCH   3   4
HETATM    4  N1  UNL     1      70.787  55.390  15.400  1.00  0.00    -0.262 N 
BRANCH   4   5
HETATM    5  C4  UNL     1      72.046  54.833  15.627  1.00  0.00     0.085 C 
BRANCH   5   6
HETATM    6  C2  UNL     1      72.565  53.910  14.531  1.00  0.00     0.017 C 
HETATM    7  C1  UNL     1      73.653  54.524  13.698  1.00  0.00     0.015 C 
HETATM    8  C3  UNL     1      73.028  52.585  15.090  1.00  0.00     0.015 C 
ENDBRANCH   5   6
ENDBRANCH   4   5
BRANCH   4   9
HETATM    9  S1  UNL     1      69.431  54.643  16.079  1.00  0.00     0.267 S 
HETATM   10  O6  UNL     1      69.920  53.622  17.095  1.00  0.00    -0.200 OA
HETATM   11  O7  UNL     1      68.521  55.634  16.791  1.00  0.00    -0.200 OA
BRANCH   9  12
HETATM   12  C22 UNL     1      68.441  53.779  14.910  1.00  0.00     0.080 A 
HETATM   13  C23 UNL     1      67.063  53.830  14.902  1.00  0.00     0.027 A 
HETATM   14  C24 UNL     1      66.305  53.138  13.976  1.00  0.00     0.028 A 
HETATM   15  C25 UNL     1      66.909  52.359  13.011  1.00  0.00     0.046 A 
HETATM   16  N3  UNL     1      66.123  51.637  12.046  1.00  0.00    -0.102 NA
HETATM   17  C26 UNL     1      68.284  52.296  13.005  1.00  0.00     0.028 A 
HETATM   18  C27 UNL     1      69.033  52.988  13.929  1.00  0.00     0.027 A 
ENDBRANCH   9  12
ENDBRANCH   4   9
ENDBRANCH   3   4
ENDBRANCH   2   3
BRANCH   2  19
HETATM   19  O1  UNL     1      71.449  58.930  15.099  1.00  0.00    -0.385 OA
ATOM     20  H1  UNL     1      70.696  58.951  14.520  1.00  0.00     0.211 HD
ENDBRANCH   2  19
ENDBRANCH   1   2
BRANCH   1  21
HETATM   21  C8  UNL     1      69.472  58.879  17.023  1.00  0.00     0.094 C 
BRANCH  21  22
HETATM   22  C9  UNL     1      69.057  59.668  18.183  1.00  0.00    -0.053 A 
HETATM   23  C10 UNL     1      69.066  61.060  18.084  1.00  0.00     0.007 A 
HETATM   24  C11 UNL     1      68.729  61.901  19.110  1.00  0.00     0.001 A 
HETATM   25  C12 UNL     1      68.355  61.348  20.321  1.00  0.00     0.000 A 
HETATM   26  C13 UNL     1      68.331  59.983  20.467  1.00  0.00     0.001 A 
HETATM   27  C14 UNL     1      68.685  59.157  19.388  1.00  0.00     0.007 A 
ENDBRANCH  21  22
ENDBRANCH   1  21
BRANCH   1  28
HETATM   28  N2  UNL     1      71.674  58.552  18.169  1.00  0.00    -0.307 N 
HETATM   29  C15 UNL     1      72.451  57.690  18.982  1.00  0.00     0.365 C 
HETATM   30  O2  UNL     1      72.355  56.464  18.850  1.00  0.00    -0.238 OA
ATOM     31  H2  UNL     1      71.779  59.556  18.314  1.00  0.00     0.170 HD
BRANCH  29  32
HETATM   32  O3  UNL     1      73.333  58.203  19.938  1.00  0.00    -0.296 OA
BRANCH  32  33
HETATM   33  C16 UNL     1      74.694  58.456  19.627  1.00  0.00     0.166 C 
HETATM   34  C17 UNL     1      74.865  58.998  18.247  1.00  0.00     0.204 C 
HETATM   35  O4  UNL     1      75.758  60.035  18.276  1.00  0.00    -0.358 OA
HETATM   36  C18 UNL     1      76.199  60.225  19.576  1.00  0.00     0.266 C 
HETATM   37  O5  UNL     1      76.230  61.564  19.948  1.00  0.00    -0.361 OA
HETATM   38  C21 UNL     1      75.138  59.627  20.478  1.00  0.00     0.075 C 
HETATM   39  C19 UNL     1      74.947  61.980  20.209  1.00  0.00     0.171 C 
HETATM   40  C20 UNL     1      74.132  60.729  20.554  1.00  0.00     0.038 C 
ENDBRANCH  32  33
ENDBRANCH  29  32
ENDBRANCH   1  28
TORSDOF 13
ENDMDL
