MODEL 8
REMARK VINA RESULT: -9.008147446      1.051      1.396
REMARK  14 active torsions:
REMARK  status: ('A' for Active; 'I' for Inactive)
REMARK    1  A    between atoms: C2_2  and  C3_3 
REMARK    2  A    between atoms: C3_3  and  C5_5 
REMARK    3  A    between atoms: C5_5  and  N1_6 
REMARK    4  A    between atoms: N1_6  and  C6_7 
REMARK    5  A    between atoms: N1_6  and  S1_32 
REMARK    6  A    between atoms: C6_7  and  C7_8 
REMARK    7  A    between atoms: C7_8  and  O1_9 
REMARK    8  A    between atoms: C7_8  and  C8_11 
REMARK    9  A    between atoms: C8_11  and  C9_12 
REMARK   10  A    between atoms: C8_11  and  N2_19 
REMARK   11  A    between atoms: C9_12  and  C10_13 
REMARK       I    between atoms: N2_19  and  C16_21 
REMARK   12  A    between atoms: C16_21  and  O3_23 
REMARK   13  A    between atoms: O3_23  and  C17_24 
REMARK   14  A    between atoms: S1_32  and  C23_35 
ROOT
HETATM    1  C8  UNL     1      70.925  57.923  16.943  1.00  0.00     0.121 C 
ENDROOT
BRANCH   1   2
HETATM    2  C7  UNL     1      71.168  57.476  15.492  1.00  0.00     0.160 C 
BRANCH   2   3
HETATM    3  C6  UNL     1      70.088  56.487  15.153  1.00  0.00     0.174 C 
BRANCH   3   4
HETATM    4  N1  UNL     1      70.364  55.129  15.507  1.00  0.00    -0.283 N 
BRANCH   4   5
HETATM    5  C5  UNL     1      71.159  54.432  14.619  1.00  0.00     0.080 C 
BRANCH   5   6
HETATM    6  C3  UNL     1      72.438  53.804  15.078  1.00  0.00     0.020 C 
HETATM    7  C4  UNL     1      73.485  54.226  14.026  1.00  0.00     0.015 C 
BRANCH   6   8
HETATM    8  C2  UNL     1      72.953  54.352  16.396  1.00  0.00     0.005 C 
HETATM    9  C1  UNL     1      74.481  54.237  16.318  1.00  0.00     0.006 C 
ENDBRANCH   6   8
ENDBRANCH   5   6
ENDBRANCH   4   5
BRANCH   4  10
HETATM   10  S1  UNL     1      69.040  54.380  16.234  1.00  0.00     0.264 S 
HETATM   11  O6  UNL     1      69.572  53.344  17.199  1.00  0.00    -0.200 OA
HETATM   12  O7  UNL     1      68.160  55.274  17.057  1.00  0.00    -0.200 OA
BRANCH  10  13
HETATM   13  C23 UNL     1      68.048  53.484  15.095  1.00  0.00     0.080 A 
HETATM   14  C24 UNL     1      68.515  52.285  14.588  1.00  0.00     0.027 A 
HETATM   15  C25 UNL     1      67.769  51.533  13.682  1.00  0.00     0.028 A 
HETATM   16  C26 UNL     1      66.542  52.006  13.295  1.00  0.00     0.046 A 
HETATM   17  N3  UNL     1      65.772  51.266  12.379  1.00  0.00    -0.102 NA
HETATM   18  C27 UNL     1      66.077  53.213  13.809  1.00  0.00     0.028 A 
HETATM   19  C28 UNL     1      66.822  53.940  14.696  1.00  0.00     0.027 A 
ENDBRANCH  10  13
ENDBRANCH   4  10
ENDBRANCH   3   4
ENDBRANCH   2   3
BRANCH   2  20
HETATM   20  O1  UNL     1      71.136  58.553  14.656  1.00  0.00    -0.392 OA
ATOM     21  H1  UNL     1      71.999  58.937  14.552  1.00  0.00     0.210 HD
ENDBRANCH   2  20
ENDBRANCH   1   2
BRANCH   1  22
HETATM   22  C9  UNL     1      69.521  58.451  17.131  1.00  0.00     0.066 C 
BRANCH  22  23
HETATM   23  C10 UNL     1      69.276  59.162  18.378  1.00  0.00    -0.056 A 
HETATM   24  C11 UNL     1      69.123  60.519  18.415  1.00  0.00     0.007 A 
HETATM   25  C12 UNL     1      68.894  61.115  19.640  1.00  0.00     0.001 A 
HETATM   26  C13 UNL     1      68.817  60.392  20.812  1.00  0.00     0.000 A 
HETATM   27  C14 UNL     1      68.968  59.016  20.797  1.00  0.00     0.001 A 
HETATM   28  C15 UNL     1      69.198  58.434  19.554  1.00  0.00     0.007 A 
ENDBRANCH  22  23
ENDBRANCH   1  22
BRANCH   1  29
HETATM   29  N2  UNL     1      71.925  58.874  17.335  1.00  0.00    -0.329 N 
HETATM   30  C16 UNL     1      72.939  58.519  18.242  1.00  0.00     0.361 C 
HETATM   31  O2  UNL     1      72.928  57.349  18.694  1.00  0.00    -0.238 OA
ATOM     32  H2  UNL     1      71.901  59.818  16.951  1.00  0.00     0.165 HD
BRANCH  30  33
HETATM   33  O3  UNL     1      73.953  59.352  18.681  1.00  0.00    -0.296 OA
BRANCH  33  34
HETATM   34  C17 UNL     1      73.708  60.645  19.161  1.00  0.00     0.166 C 
HETATM   35  C18 UNL     1      72.721  60.713  20.306  1.00  0.00     0.204 C 
HETATM   36  O4  UNL     1      73.030  61.871  21.017  1.00  0.00    -0.358 OA
HETATM   37  C19 UNL     1      74.297  62.277  20.703  1.00  0.00     0.266 C 
HETATM   38  O5  UNL     1      75.166  62.356  21.792  1.00  0.00    -0.361 OA
HETATM   39  C22 UNL     1      74.945  61.185  19.880  1.00  0.00     0.075 C 
HETATM   40  C20 UNL     1      75.305  61.034  22.211  1.00  0.00     0.171 C 
HETATM   41  C21 UNL     1      75.393  60.207  20.944  1.00  0.00     0.038 C 
ENDBRANCH  33  34
ENDBRANCH  30  33
ENDBRANCH   1  29
TORSDOF 14
ENDMDL
