MODEL 12
REMARK VINA RESULT: -8.925530213      1.794      5.956
REMARK  14 active torsions:
REMARK  status: ('A' for Active; 'I' for Inactive)
REMARK    1  A    between atoms: C2_2  and  C3_3 
REMARK    2  A    between atoms: C3_3  and  C5_5 
REMARK    3  A    between atoms: C5_5  and  N1_6 
REMARK    4  A    between atoms: N1_6  and  C6_7 
REMARK    5  A    between atoms: N1_6  and  S1_32 
REMARK    6  A    between atoms: C6_7  and  C7_8 
REMARK    7  A    between atoms: C7_8  and  O1_9 
REMARK    8  A    between atoms: C7_8  and  C8_11 
REMARK    9  A    between atoms: C8_11  and  C9_12 
REMARK   10  A    between atoms: C8_11  and  N2_19 
REMARK   11  A    between atoms: C9_12  and  C10_13 
REMARK       I    between atoms: N2_19  and  C16_21 
REMARK   12  A    between atoms: C16_21  and  O3_23 
REMARK   13  A    between atoms: O3_23  and  C17_24 
REMARK   14  A    between atoms: S1_32  and  C23_35 
ROOT
HETATM    1  C8  UNL     1      73.147  55.751  16.045  1.00  0.00     0.121 C 
ENDROOT
BRANCH   1   2
HETATM    2  C7  UNL     1      71.707  55.376  15.653  1.00  0.00     0.160 C 
BRANCH   2   3
HETATM    3  C6  UNL     1      70.933  55.222  16.932  1.00  0.00     0.174 C 
BRANCH   3   4
HETATM    4  N1  UNL     1      69.655  54.594  16.807  1.00  0.00    -0.283 N 
BRANCH   4   5
HETATM    5  C5  UNL     1      69.634  53.431  16.063  1.00  0.00     0.080 C 
BRANCH   5   6
HETATM    6  C3  UNL     1      68.756  53.318  14.855  1.00  0.00     0.020 C 
HETATM    7  C4  UNL     1      69.684  52.795  13.740  1.00  0.00     0.015 C 
BRANCH   6   8
HETATM    8  C2  UNL     1      67.662  52.276  14.987  1.00  0.00     0.005 C 
HETATM    9  C1  UNL     1      66.453  52.855  14.239  1.00  0.00     0.006 C 
ENDBRANCH   6   8
ENDBRANCH   5   6
ENDBRANCH   4   5
BRANCH   4  10
HETATM   10  S1  UNL     1      68.404  55.716  16.669  1.00  0.00     0.264 S 
HETATM   11  O6  UNL     1      68.337  56.153  15.223  1.00  0.00    -0.200 OA
HETATM   12  O7  UNL     1      67.033  55.202  16.993  1.00  0.00    -0.200 OA
BRANCH  10  13
HETATM   13  C23 UNL     1      68.700  57.186  17.582  1.00  0.00     0.080 A 
HETATM   14  C24 UNL     1      69.271  58.275  16.948  1.00  0.00     0.027 A 
HETATM   15  C25 UNL     1      69.527  59.466  17.625  1.00  0.00     0.028 A 
HETATM   16  C26 UNL     1      69.196  59.547  18.952  1.00  0.00     0.046 A 
HETATM   17  N3  UNL     1      69.448  60.738  19.657  1.00  0.00    -0.102 NA
HETATM   18  C27 UNL     1      68.621  58.449  19.586  1.00  0.00     0.028 A 
HETATM   19  C28 UNL     1      68.378  57.286  18.908  1.00  0.00     0.027 A 
ENDBRANCH  10  13
ENDBRANCH   4  10
ENDBRANCH   3   4
ENDBRANCH   2   3
BRANCH   2  20
HETATM   20  O1  UNL     1      71.169  56.344  14.858  1.00  0.00    -0.392 OA
ATOM     21  H1  UNL     1      70.455  56.004  14.332  1.00  0.00     0.210 HD
ENDBRANCH   2  20
ENDBRANCH   1   2
BRANCH   1  22
HETATM   22  C9  UNL     1      74.062  54.549  16.002  1.00  0.00     0.066 C 
BRANCH  22  23
HETATM   23  C10 UNL     1      73.712  53.523  15.029  1.00  0.00    -0.056 A 
HETATM   24  C11 UNL     1      73.707  53.776  13.687  1.00  0.00     0.007 A 
HETATM   25  C12 UNL     1      73.361  52.748  12.832  1.00  0.00     0.001 A 
HETATM   26  C13 UNL     1      73.024  51.490  13.286  1.00  0.00     0.000 A 
HETATM   27  C14 UNL     1      73.022  51.212  14.642  1.00  0.00     0.001 A 
HETATM   28  C15 UNL     1      73.373  52.260  15.487  1.00  0.00     0.007 A 
ENDBRANCH  22  23
ENDBRANCH   1  22
BRANCH   1  29
HETATM   29  N2  UNL     1      73.151  56.398  17.325  1.00  0.00    -0.329 N 
HETATM   30  C16 UNL     1      72.975  57.789  17.429  1.00  0.00     0.361 C 
HETATM   31  O2  UNL     1      72.821  58.433  16.364  1.00  0.00    -0.238 OA
ATOM     32  H2  UNL     1      73.284  55.843  18.171  1.00  0.00     0.165 HD
BRANCH  30  33
HETATM   33  O3  UNL     1      72.956  58.511  18.609  1.00  0.00    -0.296 OA
BRANCH  33  34
HETATM   34  C17 UNL     1      73.542  59.778  18.725  1.00  0.00     0.166 C 
HETATM   35  C18 UNL     1      73.109  60.560  19.946  1.00  0.00     0.204 C 
HETATM   36  O4  UNL     1      74.147  61.446  20.228  1.00  0.00    -0.358 OA
HETATM   37  C19 UNL     1      75.290  61.026  19.607  1.00  0.00     0.266 C 
HETATM   38  O5  UNL     1      76.359  60.778  20.468  1.00  0.00    -0.361 OA
HETATM   39  C22 UNL     1      75.031  59.646  19.043  1.00  0.00     0.075 C 
HETATM   40  C20 UNL     1      75.939  59.686  21.225  1.00  0.00     0.171 C 
HETATM   41  C21 UNL     1      75.224  58.763  20.258  1.00  0.00     0.038 C 
ENDBRANCH  33  34
ENDBRANCH  30  33
ENDBRANCH   1  29
TORSDOF 14
ENDMDL
