MODEL 10
REMARK VINA RESULT: -8.956549288      2.490      6.827
REMARK  14 active torsions:
REMARK  status: ('A' for Active; 'I' for Inactive)
REMARK    1  A    between atoms: C2_2  and  C3_3 
REMARK    2  A    between atoms: C3_3  and  C5_5 
REMARK    3  A    between atoms: C5_5  and  N1_6 
REMARK    4  A    between atoms: N1_6  and  C6_7 
REMARK    5  A    between atoms: N1_6  and  S1_32 
REMARK    6  A    between atoms: C6_7  and  C7_8 
REMARK    7  A    between atoms: C7_8  and  O1_9 
REMARK    8  A    between atoms: C7_8  and  C8_11 
REMARK    9  A    between atoms: C8_11  and  C9_12 
REMARK   10  A    between atoms: C8_11  and  N2_19 
REMARK   11  A    between atoms: C9_12  and  C10_13 
REMARK       I    between atoms: N2_19  and  C16_21 
REMARK   12  A    between atoms: C16_21  and  O3_23 
REMARK   13  A    between atoms: O3_23  and  C17_24 
REMARK   14  A    between atoms: S1_32  and  C23_35 
ROOT
HETATM    1  C8  UNL     1      73.016  57.520  17.029  1.00  0.00     0.121 C 
ENDROOT
BRANCH   1   2
HETATM    2  C7  UNL     1      71.703  58.127  16.503  1.00  0.00     0.160 C 
BRANCH   2   3
HETATM    3  C6  UNL     1      71.020  58.773  17.676  1.00  0.00     0.174 C 
BRANCH   3   4
HETATM    4  N1  UNL     1      69.592  58.710  17.669  1.00  0.00    -0.283 N 
BRANCH   4   5
HETATM    5  C5  UNL     1      68.943  59.880  18.010  1.00  0.00     0.080 C 
BRANCH   5   6
HETATM    6  C3  UNL     1      69.429  60.709  19.158  1.00  0.00     0.020 C 
HETATM    7  C4  UNL     1      68.955  62.142  18.839  1.00  0.00     0.015 C 
BRANCH   6   8
HETATM    8  C2  UNL     1      68.780  60.360  20.485  1.00  0.00     0.005 C 
HETATM    9  C1  UNL     1      68.659  61.690  21.243  1.00  0.00     0.006 C 
ENDBRANCH   6   8
ENDBRANCH   5   6
ENDBRANCH   4   5
BRANCH   4  10
HETATM   10  S1  UNL     1      69.017  57.224  18.220  1.00  0.00     0.264 S 
HETATM   11  O6  UNL     1      70.115  56.584  19.040  1.00  0.00    -0.200 OA
HETATM   12  O7  UNL     1      67.827  57.287  19.131  1.00  0.00    -0.200 OA
BRANCH  10  13
HETATM   13  C23 UNL     1      68.691  56.090  16.920  1.00  0.00     0.080 A 
HETATM   14  C24 UNL     1      67.529  55.340  16.951  1.00  0.00     0.027 A 
HETATM   15  C25 UNL     1      67.221  54.427  15.944  1.00  0.00     0.028 A 
HETATM   16  C26 UNL     1      68.100  54.280  14.903  1.00  0.00     0.046 A 
HETATM   17  N3  UNL     1      67.812  53.361  13.878  1.00  0.00    -0.102 NA
HETATM   18  C27 UNL     1      69.268  55.037  14.877  1.00  0.00     0.028 A 
HETATM   19  C28 UNL     1      69.557  55.929  15.873  1.00  0.00     0.027 A 
ENDBRANCH  10  13
ENDBRANCH   4  10
ENDBRANCH   3   4
ENDBRANCH   2   3
BRANCH   2  20
HETATM   20  O1  UNL     1      71.965  59.034  15.518  1.00  0.00    -0.392 OA
ATOM     21  H1  UNL     1      72.450  58.639  14.803  1.00  0.00     0.210 HD
ENDBRANCH   2  20
ENDBRANCH   1   2
BRANCH   1  22
HETATM   22  C9  UNL     1      74.104  58.563  17.131  1.00  0.00     0.066 C 
BRANCH  22  23
HETATM   23  C10 UNL     1      74.659  58.767  18.462  1.00  0.00    -0.056 A 
HETATM   24  C11 UNL     1      75.754  59.557  18.672  1.00  0.00     0.007 A 
HETATM   25  C12 UNL     1      76.218  59.696  19.966  1.00  0.00     0.001 A 
HETATM   26  C13 UNL     1      75.617  59.070  21.039  1.00  0.00     0.000 A 
HETATM   27  C14 UNL     1      74.507  58.266  20.848  1.00  0.00     0.001 A 
HETATM   28  C15 UNL     1      74.055  58.137  19.539  1.00  0.00     0.007 A 
ENDBRANCH  22  23
ENDBRANCH   1  22
BRANCH   1  29
HETATM   29  N2  UNL     1      73.399  56.406  16.211  1.00  0.00    -0.329 N 
HETATM   30  C16 UNL     1      73.070  55.091  16.586  1.00  0.00     0.361 C 
HETATM   31  O2  UNL     1      72.438  54.937  17.658  1.00  0.00    -0.238 OA
ATOM     32  H2  UNL     1      73.917  56.568  15.347  1.00  0.00     0.165 HD
BRANCH  30  33
HETATM   33  O3  UNL     1      73.384  53.949  15.871  1.00  0.00    -0.296 OA
BRANCH  33  34
HETATM   34  C17 UNL     1      72.796  53.650  14.635  1.00  0.00     0.166 C 
HETATM   35  C18 UNL     1      73.783  53.424  13.510  1.00  0.00     0.204 C 
HETATM   36  O4  UNL     1      73.140  52.601  12.589  1.00  0.00    -0.358 OA
HETATM   37  C19 UNL     1      72.079  51.982  13.189  1.00  0.00     0.266 C 
HETATM   38  O5  UNL     1      72.134  50.588  13.166  1.00  0.00    -0.361 OA
HETATM   39  C22 UNL     1      72.158  52.261  14.674  1.00  0.00     0.075 C 
HETATM   40  C20 UNL     1      73.232  50.278  13.967  1.00  0.00     0.171 C 
HETATM   41  C21 UNL     1      73.172  51.239  15.138  1.00  0.00     0.038 C 
ENDBRANCH  33  34
ENDBRANCH  30  33
ENDBRANCH   1  29
TORSDOF 14
ENDMDL
