MODEL 9
REMARK VINA RESULT: -8.981377973      2.836      8.447
REMARK  14 active torsions:
REMARK  status: ('A' for Active; 'I' for Inactive)
REMARK    1  A    between atoms: C2_2  and  C3_3 
REMARK    2  A    between atoms: C3_3  and  C5_5 
REMARK    3  A    between atoms: C5_5  and  N1_6 
REMARK    4  A    between atoms: N1_6  and  C6_7 
REMARK    5  A    between atoms: N1_6  and  S1_32 
REMARK    6  A    between atoms: C6_7  and  C7_8 
REMARK    7  A    between atoms: C7_8  and  O1_9 
REMARK    8  A    between atoms: C7_8  and  C8_11 
REMARK    9  A    between atoms: C8_11  and  C9_12 
REMARK   10  A    between atoms: C8_11  and  N2_19 
REMARK   11  A    between atoms: C9_12  and  C10_13 
REMARK       I    between atoms: N2_19  and  C16_21 
REMARK   12  A    between atoms: C16_21  and  O3_23 
REMARK   13  A    between atoms: O3_23  and  C17_24 
REMARK   14  A    between atoms: S1_32  and  C23_35 
ROOT
HETATM    1  C8  UNL     1      68.976  55.752  15.733  1.00  0.00     0.121 C 
ENDROOT
BRANCH   1   2
HETATM    2  C7  UNL     1      70.302  56.054  15.014  1.00  0.00     0.160 C 
BRANCH   2   3
HETATM    3  C6  UNL     1      71.017  54.743  14.848  1.00  0.00     0.174 C 
BRANCH   3   4
HETATM    4  N1  UNL     1      72.429  54.778  15.075  1.00  0.00    -0.283 N 
BRANCH   4   5
HETATM    5  C5  UNL     1      73.191  54.030  14.200  1.00  0.00     0.080 C 
BRANCH   5   6
HETATM    6  C3  UNL     1      72.786  52.633  13.845  1.00  0.00     0.020 C 
HETATM    7  C4  UNL     1      73.335  52.413  12.420  1.00  0.00     0.015 C 
BRANCH   6   8
HETATM    8  C2  UNL     1      73.448  51.567  14.697  1.00  0.00     0.005 C 
HETATM    9  C1  UNL     1      73.498  50.311  13.816  1.00  0.00     0.006 C 
ENDBRANCH   6   8
ENDBRANCH   5   6
ENDBRANCH   4   5
BRANCH   4  10
HETATM   10  S1  UNL     1      72.808  54.817  16.718  1.00  0.00     0.264 S 
HETATM   11  O6  UNL     1      71.738  54.041  17.454  1.00  0.00    -0.200 OA
HETATM   12  O7  UNL     1      74.104  54.166  17.099  1.00  0.00    -0.200 OA
BRANCH  10  13
HETATM   13  C23 UNL     1      72.753  56.436  17.395  1.00  0.00     0.080 A 
HETATM   14  C24 UNL     1      72.463  56.599  18.738  1.00  0.00     0.027 A 
HETATM   15  C25 UNL     1      72.408  57.861  19.326  1.00  0.00     0.028 A 
HETATM   16  C26 UNL     1      72.651  58.959  18.543  1.00  0.00     0.046 A 
HETATM   17  N3  UNL     1      72.597  60.243  19.115  1.00  0.00    -0.102 NA
HETATM   18  C27 UNL     1      72.942  58.789  17.193  1.00  0.00     0.028 A 
HETATM   19  C28 UNL     1      72.991  57.544  16.629  1.00  0.00     0.027 A 
ENDBRANCH  10  13
ENDBRANCH   4  10
ENDBRANCH   3   4
ENDBRANCH   2   3
BRANCH   2  20
HETATM   20  O1  UNL     1      70.059  56.645  13.808  1.00  0.00    -0.392 OA
ATOM     21  H1  UNL     1      70.249  56.055  13.088  1.00  0.00     0.210 HD
ENDBRANCH   2  20
ENDBRANCH   1   2
BRANCH   1  22
HETATM   22  C9  UNL     1      69.091  55.981  17.222  1.00  0.00     0.066 C 
BRANCH  22  23
HETATM   23  C10 UNL     1      69.033  57.370  17.653  1.00  0.00    -0.056 A 
HETATM   24  C11 UNL     1      69.237  58.403  16.783  1.00  0.00     0.007 A 
HETATM   25  C12 UNL     1      69.167  59.692  17.274  1.00  0.00     0.001 A 
HETATM   26  C13 UNL     1      68.900  59.965  18.600  1.00  0.00     0.000 A 
HETATM   27  C14 UNL     1      68.689  58.934  19.499  1.00  0.00     0.001 A 
HETATM   28  C15 UNL     1      68.765  57.643  18.986  1.00  0.00     0.007 A 
ENDBRANCH  22  23
ENDBRANCH   1  22
BRANCH   1  29
HETATM   29  N2  UNL     1      68.540  54.423  15.414  1.00  0.00    -0.329 N 
HETATM   30  C16 UNL     1      67.238  54.187  14.937  1.00  0.00     0.361 C 
HETATM   31  O2  UNL     1      66.481  55.178  14.810  1.00  0.00    -0.238 OA
ATOM     32  H2  UNL     1      69.182  53.639  15.534  1.00  0.00     0.165 HD
BRANCH  30  33
HETATM   33  O3  UNL     1      66.719  52.951  14.595  1.00  0.00    -0.296 OA
BRANCH  33  34
HETATM   34  C17 UNL     1      67.471  51.980  13.922  1.00  0.00     0.166 C 
HETATM   35  C18 UNL     1      67.507  50.630  14.605  1.00  0.00     0.204 C 
HETATM   36  O4  UNL     1      67.743  49.693  13.602  1.00  0.00    -0.358 OA
HETATM   37  C19 UNL     1      67.449  50.241  12.384  1.00  0.00     0.266 C 
HETATM   38  O5  UNL     1      66.470  49.558  11.663  1.00  0.00    -0.361 OA
HETATM   39  C22 UNL     1      66.771  51.572  12.626  1.00  0.00     0.075 C 
HETATM   40  C20 UNL     1      65.312  49.724  12.421  1.00  0.00     0.171 C 
HETATM   41  C21 UNL     1      65.345  51.156  12.917  1.00  0.00     0.038 C 
ENDBRANCH  33  34
ENDBRANCH  30  33
ENDBRANCH   1  29
TORSDOF 14
ENDMDL
