MODEL 1
REMARK VINA RESULT: -9.894036567      0.000      0.000
REMARK  14 active torsions:
REMARK  status: ('A' for Active; 'I' for Inactive)
REMARK    1  A    between atoms: C2_2  and  C3_3 
REMARK    2  A    between atoms: C3_3  and  C5_5 
REMARK    3  A    between atoms: C5_5  and  N1_6 
REMARK    4  A    between atoms: N1_6  and  C6_7 
REMARK    5  A    between atoms: N1_6  and  S1_32 
REMARK    6  A    between atoms: C6_7  and  C7_8 
REMARK    7  A    between atoms: C7_8  and  O1_9 
REMARK    8  A    between atoms: C7_8  and  C8_11 
REMARK    9  A    between atoms: C8_11  and  C9_12 
REMARK   10  A    between atoms: C8_11  and  N2_19 
REMARK   11  A    between atoms: C9_12  and  C10_13 
REMARK       I    between atoms: N2_19  and  C16_21 
REMARK   12  A    between atoms: C16_21  and  O3_23 
REMARK   13  A    between atoms: O3_23  and  C17_24 
REMARK   14  A    between atoms: S1_32  and  C23_35 
ROOT
HETATM    1  C8  UNL     1      70.737  57.402  16.755  1.00  0.00     0.121 C 
ENDROOT
BRANCH   1   2
HETATM    2  C7  UNL     1      71.091  57.072  15.295  1.00  0.00     0.160 C 
BRANCH   2   3
HETATM    3  C6  UNL     1      70.075  56.074  14.814  1.00  0.00     0.174 C 
BRANCH   3   4
HETATM    4  N1  UNL     1      70.262  54.733  15.273  1.00  0.00    -0.283 N 
BRANCH   4   5
HETATM    5  C5  UNL     1      71.039  53.930  14.463  1.00  0.00     0.080 C 
BRANCH   5   6
HETATM    6  C3  UNL     1      72.412  53.518  14.896  1.00  0.00     0.020 C 
HETATM    7  C4  UNL     1      73.369  54.289  13.963  1.00  0.00     0.015 C 
BRANCH   6   8
HETATM    8  C2  UNL     1      72.774  53.966  16.299  1.00  0.00     0.005 C 
HETATM    9  C1  UNL     1      74.040  54.821  16.142  1.00  0.00     0.006 C 
ENDBRANCH   6   8
ENDBRANCH   5   6
ENDBRANCH   4   5
BRANCH   4  10
HETATM   10  S1  UNL     1      68.879  54.115  16.013  1.00  0.00     0.264 S 
HETATM   11  O6  UNL     1      69.326  53.146  17.084  1.00  0.00    -0.200 OA
HETATM   12  O7  UNL     1      68.018  55.120  16.720  1.00  0.00    -0.200 OA
BRANCH  10  13
HETATM   13  C23 UNL     1      67.883  53.169  14.920  1.00  0.00     0.080 A 
HETATM   14  C24 UNL     1      68.312  51.913  14.528  1.00  0.00     0.027 A 
HETATM   15  C25 UNL     1      67.559  51.120  13.664  1.00  0.00     0.028 A 
HETATM   16  C26 UNL     1      66.366  51.608  13.200  1.00  0.00     0.046 A 
HETATM   17  N3  UNL     1      65.592  50.827  12.323  1.00  0.00    -0.102 NA
HETATM   18  C27 UNL     1      65.939  52.872  13.597  1.00  0.00     0.028 A 
HETATM   19  C28 UNL     1      66.689  53.640  14.445  1.00  0.00     0.027 A 
ENDBRANCH  10  13
ENDBRANCH   4  10
ENDBRANCH   3   4
ENDBRANCH   2   3
BRANCH   2  20
HETATM   20  O1  UNL     1      71.073  58.207  14.537  1.00  0.00    -0.392 OA
ATOM     21  H1  UNL     1      71.123  58.985  15.079  1.00  0.00     0.210 HD
ENDBRANCH   2  20
ENDBRANCH   1   2
BRANCH   1  22
HETATM   22  C9  UNL     1      69.496  58.261  16.841  1.00  0.00     0.066 C 
BRANCH  22  23
HETATM   23  C10 UNL     1      69.183  58.786  18.163  1.00  0.00    -0.056 A 
HETATM   24  C11 UNL     1      68.754  57.977  19.176  1.00  0.00     0.007 A 
HETATM   25  C12 UNL     1      68.477  58.555  20.399  1.00  0.00     0.001 A 
HETATM   26  C13 UNL     1      68.619  59.909  20.626  1.00  0.00     0.000 A 
HETATM   27  C14 UNL     1      69.052  60.747  19.613  1.00  0.00     0.001 A 
HETATM   28  C15 UNL     1      69.325  60.146  18.389  1.00  0.00     0.007 A 
ENDBRANCH  22  23
ENDBRANCH   1  22
BRANCH   1  29
HETATM   29  N2  UNL     1      71.865  58.002  17.407  1.00  0.00    -0.329 N 
HETATM   30  C16 UNL     1      72.492  57.364  18.492  1.00  0.00     0.361 C 
HETATM   31  O2  UNL     1      72.023  56.262  18.865  1.00  0.00    -0.238 OA
ATOM     32  H2  UNL     1      72.217  58.902  17.080  1.00  0.00     0.165 HD
BRANCH  30  33
HETATM   33  O3  UNL     1      73.586  57.848  19.187  1.00  0.00    -0.296 OA
BRANCH  33  34
HETATM   34  C17 UNL     1      74.348  58.931  18.729  1.00  0.00     0.166 C 
HETATM   35  C18 UNL     1      73.840  60.287  19.170  1.00  0.00     0.204 C 
HETATM   36  O4  UNL     1      74.944  61.136  19.165  1.00  0.00    -0.358 OA
HETATM   37  C19 UNL     1      76.093  60.395  19.180  1.00  0.00     0.266 C 
HETATM   38  O5  UNL     1      76.930  60.646  20.267  1.00  0.00    -0.361 OA
HETATM   39  C22 UNL     1      75.711  58.950  19.422  1.00  0.00     0.075 C 
HETATM   40  C20 UNL     1      76.200  60.200  21.368  1.00  0.00     0.171 C 
HETATM   41  C21 UNL     1      75.527  58.917  20.924  1.00  0.00     0.038 C 
ENDBRANCH  33  34
ENDBRANCH  30  33
ENDBRANCH   1  29
TORSDOF 14
ENDMDL
