MODEL 5
REMARK VINA RESULT: -9.121898077      0.823      1.130
REMARK  14 active torsions:
REMARK  status: ('A' for Active; 'I' for Inactive)
REMARK    1  A    between atoms: C2_2  and  C3_3 
REMARK    2  A    between atoms: C3_3  and  C5_5 
REMARK    3  A    between atoms: C5_5  and  N1_6 
REMARK    4  A    between atoms: N1_6  and  C6_7 
REMARK    5  A    between atoms: N1_6  and  S1_32 
REMARK    6  A    between atoms: C6_7  and  C7_8 
REMARK    7  A    between atoms: C7_8  and  O1_9 
REMARK    8  A    between atoms: C7_8  and  C8_11 
REMARK    9  A    between atoms: C8_11  and  C9_12 
REMARK   10  A    between atoms: C8_11  and  N2_19 
REMARK   11  A    between atoms: C9_12  and  C10_13 
REMARK       I    between atoms: N2_19  and  C16_21 
REMARK   12  A    between atoms: C16_21  and  O3_23 
REMARK   13  A    between atoms: O3_23  and  C17_24 
REMARK   14  A    between atoms: S1_32  and  C23_35 
ROOT
HETATM    1  C8  UNL     1      70.852  57.534  16.512  1.00  0.00     0.121 C 
ENDROOT
BRANCH   1   2
HETATM    2  C7  UNL     1      71.028  56.880  15.131  1.00  0.00     0.160 C 
BRANCH   2   3
HETATM    3  C6  UNL     1      69.856  55.960  14.931  1.00  0.00     0.174 C 
BRANCH   3   4
HETATM    4  N1  UNL     1      70.046  54.615  15.376  1.00  0.00    -0.283 N 
BRANCH   4   5
HETATM    5  C5  UNL     1      70.850  53.831  14.573  1.00  0.00     0.080 C 
BRANCH   5   6
HETATM    6  C3  UNL     1      72.140  53.280  15.097  1.00  0.00     0.020 C 
HETATM    7  C4  UNL     1      73.174  53.574  13.991  1.00  0.00     0.015 C 
BRANCH   6   8
HETATM    8  C2  UNL     1      72.658  53.997  16.329  1.00  0.00     0.005 C 
HETATM    9  C1  UNL     1      73.968  54.668  15.893  1.00  0.00     0.006 C 
ENDBRANCH   6   8
ENDBRANCH   5   6
ENDBRANCH   4   5
BRANCH   4  10
HETATM   10  S1  UNL     1      68.652  53.972  16.073  1.00  0.00     0.264 S 
HETATM   11  O6  UNL     1      69.084  52.996  17.145  1.00  0.00    -0.200 OA
HETATM   12  O7  UNL     1      67.762  54.958  16.770  1.00  0.00    -0.200 OA
BRANCH  10  13
HETATM   13  C23 UNL     1      67.695  53.027  14.946  1.00  0.00     0.080 A 
HETATM   14  C24 UNL     1      68.080  51.732  14.649  1.00  0.00     0.027 A 
HETATM   15  C25 UNL     1      67.356  50.938  13.762  1.00  0.00     0.028 A 
HETATM   16  C26 UNL     1      66.235  51.466  13.177  1.00  0.00     0.046 A 
HETATM   17  N3  UNL     1      65.491  50.684  12.275  1.00  0.00    -0.102 NA
HETATM   18  C27 UNL     1      65.852  52.770  13.479  1.00  0.00     0.028 A 
HETATM   19  C28 UNL     1      66.573  53.537  14.351  1.00  0.00     0.027 A 
ENDBRANCH  10  13
ENDBRANCH   4  10
ENDBRANCH   3   4
ENDBRANCH   2   3
BRANCH   2  20
HETATM   20  O1  UNL     1      71.081  57.838  14.160  1.00  0.00    -0.392 OA
ATOM     21  H1  UNL     1      71.755  57.645  13.520  1.00  0.00     0.210 HD
ENDBRANCH   2  20
ENDBRANCH   1   2
BRANCH   1  22
HETATM   22  C9  UNL     1      69.469  58.120  16.674  1.00  0.00     0.066 C 
BRANCH  22  23
HETATM   23  C10 UNL     1      69.153  58.637  17.999  1.00  0.00    -0.056 A 
HETATM   24  C11 UNL     1      68.663  57.832  18.987  1.00  0.00     0.007 A 
HETATM   25  C12 UNL     1      68.388  58.401  20.215  1.00  0.00     0.001 A 
HETATM   26  C13 UNL     1      68.591  59.742  20.471  1.00  0.00     0.000 A 
HETATM   27  C14 UNL     1      69.087  60.575  19.483  1.00  0.00     0.001 A 
HETATM   28  C15 UNL     1      69.358  59.984  18.254  1.00  0.00     0.007 A 
ENDBRANCH  22  23
ENDBRANCH   1  22
BRANCH   1  29
HETATM   29  N2  UNL     1      71.888  58.503  16.728  1.00  0.00    -0.329 N 
HETATM   30  C16 UNL     1      72.933  58.250  17.634  1.00  0.00     0.361 C 
HETATM   31  O2  UNL     1      72.918  57.154  18.243  1.00  0.00    -0.238 OA
ATOM     32  H2  UNL     1      71.865  59.387  16.219  1.00  0.00     0.165 HD
BRANCH  30  33
HETATM   33  O3  UNL     1      73.981  59.110  17.912  1.00  0.00    -0.296 OA
BRANCH  33  34
HETATM   34  C17 UNL     1      74.771  58.984  19.062  1.00  0.00     0.166 C 
HETATM   35  C18 UNL     1      76.122  59.660  18.972  1.00  0.00     0.204 C 
HETATM   36  O4  UNL     1      76.496  59.957  20.280  1.00  0.00    -0.358 OA
HETATM   37  C19 UNL     1      75.395  59.927  21.090  1.00  0.00     0.266 C 
HETATM   38  O5  UNL     1      75.134  61.123  21.758  1.00  0.00    -0.361 OA
HETATM   39  C22 UNL     1      74.172  59.802  20.207  1.00  0.00     0.075 C 
HETATM   40  C20 UNL     1      74.806  62.016  20.739  1.00  0.00     0.171 C 
HETATM   41  C21 UNL     1      73.954  61.232  19.762  1.00  0.00     0.038 C 
ENDBRANCH  33  34
ENDBRANCH  30  33
ENDBRANCH   1  29
TORSDOF 14
ENDMDL
