MODEL 3
REMARK VINA RESULT: -9.228214807      2.386      9.596
REMARK  15 active torsions:
REMARK  status: ('A' for Active; 'I' for Inactive)
REMARK    1  A    between atoms: C2_2  and  C3_3 
REMARK    2  A    between atoms: C3_3  and  C4_4 
REMARK    3  A    between atoms: C3_3  and  C6_6 
REMARK    4  A    between atoms: C6_6  and  N1_7 
REMARK    5  A    between atoms: N1_7  and  C7_8 
REMARK    6  A    between atoms: N1_7  and  S1_33 
REMARK    7  A    between atoms: C7_8  and  C8_9 
REMARK    8  A    between atoms: C8_9  and  O1_10 
REMARK    9  A    between atoms: C8_9  and  C9_12 
REMARK   10  A    between atoms: C9_12  and  C10_13 
REMARK   11  A    between atoms: C9_12  and  N2_20 
REMARK   12  A    between atoms: C10_13  and  C11_14 
REMARK       I    between atoms: N2_20  and  C17_22 
REMARK   13  A    between atoms: C17_22  and  O3_24 
REMARK   14  A    between atoms: O3_24  and  C18_25 
REMARK   15  A    between atoms: S1_33  and  C24_36 
ROOT
HETATM    1  C8  UNL     1      71.792 112.802  15.212  1.00  0.00     0.160 C 
ENDROOT
BRANCH   1   2
HETATM    2  C7  UNL     1      71.999 113.687  16.394  1.00  0.00     0.174 C 
BRANCH   2   3
HETATM    3  N1  UNL     1      71.497 113.053  17.623  1.00  0.00    -0.283 N 
BRANCH   3   4
HETATM    4  C6  UNL     1      70.178 113.404  17.946  1.00  0.00     0.081 C 
BRANCH   4   5
HETATM    5  C3  UNL     1      70.075 114.794  18.507  1.00  0.00     0.024 C 
BRANCH   5   6
HETATM    6  C2  UNL     1      69.731 115.862  17.542  1.00  0.00     0.005 C 
HETATM    7  C1  UNL     1      69.690 117.261  18.033  1.00  0.00     0.006 C 
ENDBRANCH   5   6
BRANCH   5   8
HETATM    8  C4  UNL     1      69.306 114.807  19.804  1.00  0.00     0.005 C 
HETATM    9  C5  UNL     1      69.940 115.488  20.951  1.00  0.00     0.006 C 
ENDBRANCH   5   8
ENDBRANCH   4   5
ENDBRANCH   3   4
BRANCH   3  10
HETATM   10  S1  UNL     1      72.646 112.929  18.845  1.00  0.00     0.264 S 
HETATM   11  O6  UNL     1      72.057 112.718  20.196  1.00  0.00    -0.200 OA
HETATM   12  O7  UNL     1      73.485 111.681  18.565  1.00  0.00    -0.200 OA
BRANCH  10  13
HETATM   13  C24 UNL     1      73.718 114.310  18.934  1.00  0.00     0.080 A 
HETATM   14  C25 UNL     1      73.227 115.576  19.073  1.00  0.00     0.027 A 
HETATM   15  C26 UNL     1      74.112 116.627  19.138  1.00  0.00     0.028 A 
HETATM   16  C27 UNL     1      75.475 116.442  19.066  1.00  0.00     0.046 A 
HETATM   17  N3  UNL     1      76.394 117.523  19.132  1.00  0.00    -0.102 NA
HETATM   18  C28 UNL     1      75.969 115.151  18.924  1.00  0.00     0.028 A 
HETATM   19  C29 UNL     1      75.069 114.110  18.861  1.00  0.00     0.027 A 
ENDBRANCH  10  13
ENDBRANCH   3  10
ENDBRANCH   2   3
ENDBRANCH   1   2
BRANCH   1  20
HETATM   20  O1  UNL     1      71.996 113.392  13.974  1.00  0.00    -0.392 OA
ATOM     21  H1  UNL     1      72.889 113.656  13.785  1.00  0.00     0.210 HD
ENDBRANCH   1  20
BRANCH   1  22
HETATM   22  C9  UNL     1      72.352 111.420  15.305  1.00  0.00     0.117 C 
BRANCH  22  23
HETATM   23  C10 UNL     1      73.416 111.064  14.330  1.00  0.00     0.032 C 
BRANCH  23  24
HETATM   24  C11 UNL     1      74.401 110.027  14.714  1.00  0.00    -0.013 C 
HETATM   25  C12 UNL     1      74.511 109.067  13.506  1.00  0.00     0.005 C 
HETATM   26  C13 UNL     1      73.403 108.052  13.512  1.00  0.00     0.000 C 
HETATM   27  C14 UNL     1      73.444 107.205  14.752  1.00  0.00     0.000 C 
HETATM   28  C15 UNL     1      74.402 107.816  15.746  1.00  0.00     0.000 C 
HETATM   29  C16 UNL     1      74.069 109.280  15.972  1.00  0.00     0.005 C 
ENDBRANCH  23  24
ENDBRANCH  22  23
BRANCH  22  30
HETATM   30  N2  UNL     1      71.214 110.529  14.950  1.00  0.00    -0.330 N 
HETATM   31  C17 UNL     1      70.453 109.867  15.930  1.00  0.00     0.361 C 
HETATM   32  O2  UNL     1      70.707 110.001  17.159  1.00  0.00    -0.238 OA
ATOM     33  H2  UNL     1      70.978 110.394  13.966  1.00  0.00     0.165 HD
BRANCH  31  34
HETATM   34  O3  UNL     1      69.388 109.033  15.604  1.00  0.00    -0.296 OA
BRANCH  34  35
HETATM   35  C18 UNL     1      69.439 108.219  14.474  1.00  0.00     0.166 C 
HETATM   36  C19 UNL     1      69.355 106.748  14.766  1.00  0.00     0.204 C 
HETATM   37  O4  UNL     1      68.342 106.210  14.023  1.00  0.00    -0.358 OA
HETATM   38  C20 UNL     1      68.006 107.073  13.012  1.00  0.00     0.266 C 
HETATM   39  O5  UNL     1      66.663 106.986  12.765  1.00  0.00    -0.361 OA
HETATM   40  C23 UNL     1      68.227 108.456  13.622  1.00  0.00     0.075 C 
HETATM   41  C21 UNL     1      65.979 107.787  13.633  1.00  0.00     0.171 C 
HETATM   42  C22 UNL     1      66.953 108.584  14.439  1.00  0.00     0.038 C 
ENDBRANCH  34  35
ENDBRANCH  31  34
ENDBRANCH  22  30
ENDBRANCH   1  22
TORSDOF 15
ENDMDL
