MODEL 9
REMARK VINA RESULT: -8.827756080      1.129      1.260
REMARK  15 active torsions:
REMARK  status: ('A' for Active; 'I' for Inactive)
REMARK    1  A    between atoms: C2_2  and  C3_3 
REMARK    2  A    between atoms: C3_3  and  C4_4 
REMARK    3  A    between atoms: C3_3  and  C6_6 
REMARK    4  A    between atoms: C6_6  and  N1_7 
REMARK    5  A    between atoms: N1_7  and  C7_8 
REMARK    6  A    between atoms: N1_7  and  S1_33 
REMARK    7  A    between atoms: C7_8  and  C8_9 
REMARK    8  A    between atoms: C8_9  and  O1_10 
REMARK    9  A    between atoms: C8_9  and  C9_12 
REMARK   10  A    between atoms: C9_12  and  C10_13 
REMARK   11  A    between atoms: C9_12  and  N2_20 
REMARK   12  A    between atoms: C10_13  and  C11_14 
REMARK       I    between atoms: N2_20  and  C17_22 
REMARK   13  A    between atoms: C17_22  and  O3_24 
REMARK   14  A    between atoms: O3_24  and  C18_25 
REMARK   15  A    between atoms: S1_33  and  C24_36 
ROOT
HETATM    1  C8  UNL     1      71.968 113.780  15.931  1.00  0.00     0.160 C 
ENDROOT
BRANCH   1   2
HETATM    2  C7  UNL     1      71.037 112.711  15.468  1.00  0.00     0.174 C 
BRANCH   2   3
HETATM    3  N1  UNL     1      71.231 111.472  16.237  1.00  0.00    -0.283 N 
BRANCH   3   4
HETATM    4  C6  UNL     1      72.264 110.657  15.751  1.00  0.00     0.081 C 
BRANCH   4   5
HETATM    5  C3  UNL     1      73.113 110.086  16.854  1.00  0.00     0.024 C 
BRANCH   5   6
HETATM    6  C2  UNL     1      73.951 108.922  16.493  1.00  0.00     0.005 C 
HETATM    7  C1  UNL     1      74.400 108.793  15.085  1.00  0.00     0.006 C 
ENDBRANCH   5   6
BRANCH   5   8
HETATM    8  C4  UNL     1      73.800 111.175  17.637  1.00  0.00     0.005 C 
HETATM    9  C5  UNL     1      74.938 111.853  16.983  1.00  0.00     0.006 C 
ENDBRANCH   5   8
ENDBRANCH   4   5
ENDBRANCH   3   4
BRANCH   3  10
HETATM   10  S1  UNL     1      69.799 110.768  16.770  1.00  0.00     0.264 S 
HETATM   11  O6  UNL     1      69.975 109.887  17.957  1.00  0.00    -0.200 OA
HETATM   12  O7  UNL     1      68.874 111.896  17.230  1.00  0.00    -0.200 OA
BRANCH  10  13
HETATM   13  C24 UNL     1      68.976 109.846  15.532  1.00  0.00     0.080 A 
HETATM   14  C25 UNL     1      69.648 108.941  14.761  1.00  0.00     0.027 A 
HETATM   15  C26 UNL     1      68.954 108.242  13.801  1.00  0.00     0.028 A 
HETATM   16  C27 UNL     1      67.604 108.425  13.594  1.00  0.00     0.046 A 
HETATM   17  N3  UNL     1      66.882 107.707  12.604  1.00  0.00    -0.102 NA
HETATM   18  C28 UNL     1      66.926 109.348  14.381  1.00  0.00     0.028 A 
HETATM   19  C29 UNL     1      67.636 110.039  15.337  1.00  0.00     0.027 A 
ENDBRANCH  10  13
ENDBRANCH   3  10
ENDBRANCH   2   3
ENDBRANCH   1   2
BRANCH   1  20
HETATM   20  O1  UNL     1      72.346 114.706  14.971  1.00  0.00    -0.392 OA
ATOM     21  H1  UNL     1      73.108 115.232  15.183  1.00  0.00     0.210 HD
ENDBRANCH   1  20
BRANCH   1  22
HETATM   22  C9  UNL     1      71.670 114.396  17.259  1.00  0.00     0.117 C 
BRANCH  22  23
HETATM   23  C10 UNL     1      70.535 115.353  17.311  1.00  0.00     0.032 C 
BRANCH  23  24
HETATM   24  C11 UNL     1      69.517 115.179  18.372  1.00  0.00    -0.013 C 
HETATM   25  C12 UNL     1      69.009 116.596  18.723  1.00  0.00     0.005 C 
HETATM   26  C13 UNL     1      69.933 117.285  19.687  1.00  0.00     0.000 C 
HETATM   27  C14 UNL     1      70.040 116.525  20.979  1.00  0.00     0.000 C 
HETATM   28  C15 UNL     1      69.420 115.159  20.810  1.00  0.00     0.000 C 
HETATM   29  C16 UNL     1      70.003 114.458  19.596  1.00  0.00     0.005 C 
ENDBRANCH  23  24
ENDBRANCH  22  23
BRANCH  22  30
HETATM   30  N2  UNL     1      72.867 115.226  17.564  1.00  0.00    -0.330 N 
HETATM   31  C17 UNL     1      73.672 114.984  18.691  1.00  0.00     0.361 C 
HETATM   32  O2  UNL     1      73.410 114.049  19.497  1.00  0.00    -0.238 OA
ATOM     33  H2  UNL     1      73.112 115.993  16.937  1.00  0.00     0.165 HD
BRANCH  31  34
HETATM   34  O3  UNL     1      74.792 115.757  18.982  1.00  0.00    -0.296 OA
BRANCH  34  35
HETATM   35  C18 UNL     1      74.667 117.116  19.267  1.00  0.00     0.166 C 
HETATM   36  C19 UNL     1      73.540 117.451  20.202  1.00  0.00     0.204 C 
HETATM   37  O4  UNL     1      74.038 118.180  21.246  1.00  0.00    -0.358 OA
HETATM   38  C20 UNL     1      75.273 118.675  20.912  1.00  0.00     0.266 C 
HETATM   39  O5  UNL     1      76.062 118.721  22.029  1.00  0.00    -0.361 OA
HETATM   40  C23 UNL     1      75.874 117.590  20.022  1.00  0.00     0.075 C 
HETATM   41  C21 UNL     1      76.643 117.503  22.236  1.00  0.00     0.171 C 
HETATM   42  C22 UNL     1      76.324 116.603  21.086  1.00  0.00     0.038 C 
ENDBRANCH  34  35
ENDBRANCH  31  34
ENDBRANCH  22  30
ENDBRANCH   1  22
TORSDOF 15
ENDMDL
