MODEL 1
REMARK VINA RESULT: -9.389891376      0.000      0.000
REMARK  15 active torsions:
REMARK  status: ('A' for Active; 'I' for Inactive)
REMARK    1  A    between atoms: C2_2  and  C3_3 
REMARK    2  A    between atoms: C3_3  and  C4_4 
REMARK    3  A    between atoms: C3_3  and  C6_6 
REMARK    4  A    between atoms: C6_6  and  N1_7 
REMARK    5  A    between atoms: N1_7  and  C7_8 
REMARK    6  A    between atoms: N1_7  and  S1_33 
REMARK    7  A    between atoms: C7_8  and  C8_9 
REMARK    8  A    between atoms: C8_9  and  O1_10 
REMARK    9  A    between atoms: C8_9  and  C9_12 
REMARK   10  A    between atoms: C9_12  and  C10_13 
REMARK   11  A    between atoms: C9_12  and  N2_20 
REMARK   12  A    between atoms: C10_13  and  C11_14 
REMARK       I    between atoms: N2_20  and  C17_22 
REMARK   13  A    between atoms: C17_22  and  O3_24 
REMARK   14  A    between atoms: O3_24  and  C18_25 
REMARK   15  A    between atoms: S1_33  and  C24_36 
ROOT
HETATM    1  C8  UNL     1      71.664 113.351  15.865  1.00  0.00     0.160 C 
ENDROOT
BRANCH   1   2
HETATM    2  C7  UNL     1      70.723 112.322  15.337  1.00  0.00     0.174 C 
BRANCH   2   3
HETATM    3  N1  UNL     1      70.898 111.039  16.035  1.00  0.00    -0.283 N 
BRANCH   3   4
HETATM    4  C6  UNL     1      71.802 110.169  15.407  1.00  0.00     0.081 C 
BRANCH   4   5
HETATM    5  C3  UNL     1      72.851 109.651  16.352  1.00  0.00     0.024 C 
BRANCH   5   6
HETATM    6  C2  UNL     1      73.999 108.956  15.731  1.00  0.00     0.005 C 
HETATM    7  C1  UNL     1      74.232 109.149  14.279  1.00  0.00     0.006 C 
ENDBRANCH   5   6
BRANCH   5   8
HETATM    8  C4  UNL     1      73.192 110.673  17.407  1.00  0.00     0.005 C 
HETATM    9  C5  UNL     1      74.602 111.107  17.486  1.00  0.00     0.006 C 
ENDBRANCH   5   8
ENDBRANCH   4   5
ENDBRANCH   3   4
BRANCH   3  10
HETATM   10  S1  UNL     1      69.479 110.424  16.698  1.00  0.00     0.264 S 
HETATM   11  O6  UNL     1      69.696 109.652  17.953  1.00  0.00    -0.200 OA
HETATM   12  O7  UNL     1      68.603 111.614  17.096  1.00  0.00    -0.200 OA
BRANCH  10  13
HETATM   13  C24 UNL     1      68.575 109.414  15.592  1.00  0.00     0.080 A 
HETATM   14  C25 UNL     1      68.931 108.114  15.371  1.00  0.00     0.027 A 
HETATM   15  C26 UNL     1      68.187 107.363  14.491  1.00  0.00     0.028 A 
HETATM   16  C27 UNL     1      67.096 107.880  13.828  1.00  0.00     0.046 A 
HETATM   17  N3  UNL     1      66.324 107.109  12.918  1.00  0.00    -0.102 NA
HETATM   18  C28 UNL     1      66.739 109.203  14.056  1.00  0.00     0.028 A 
HETATM   19  C29 UNL     1      67.495 109.941  14.939  1.00  0.00     0.027 A 
ENDBRANCH  10  13
ENDBRANCH   3  10
ENDBRANCH   2   3
ENDBRANCH   1   2
BRANCH   1  20
HETATM   20  O1  UNL     1      72.225 114.197  14.920  1.00  0.00    -0.392 OA
ATOM     21  H1  UNL     1      72.602 115.000  15.258  1.00  0.00     0.210 HD
ENDBRANCH   1  20
BRANCH   1  22
HETATM   22  C9  UNL     1      71.250 114.057  17.115  1.00  0.00     0.117 C 
BRANCH  22  23
HETATM   23  C10 UNL     1      70.363 115.239  16.952  1.00  0.00     0.032 C 
BRANCH  23  24
HETATM   24  C11 UNL     1      69.334 115.493  17.986  1.00  0.00    -0.013 C 
HETATM   25  C12 UNL     1      69.588 116.927  18.506  1.00  0.00     0.005 C 
HETATM   26  C13 UNL     1      70.674 116.948  19.545  1.00  0.00     0.000 C 
HETATM   27  C14 UNL     1      70.306 116.108  20.735  1.00  0.00     0.000 C 
HETATM   28  C15 UNL     1      69.095 115.270  20.404  1.00  0.00     0.000 C 
HETATM   29  C16 UNL     1      69.318 114.502  19.113  1.00  0.00     0.005 C 
ENDBRANCH  23  24
ENDBRANCH  22  23
BRANCH  22  30
HETATM   30  N2  UNL     1      72.514 114.617  17.666  1.00  0.00    -0.330 N 
HETATM   31  C17 UNL     1      73.043 114.189  18.896  1.00  0.00     0.361 C 
HETATM   32  O2  UNL     1      72.464 113.307  19.589  1.00  0.00    -0.238 OA
ATOM     33  H2  UNL     1      73.011 115.334  17.136  1.00  0.00     0.165 HD
BRANCH  31  34
HETATM   34  O3  UNL     1      74.225 114.709  19.416  1.00  0.00    -0.296 OA
BRANCH  34  35
HETATM   35  C18 UNL     1      74.938 115.688  18.726  1.00  0.00     0.166 C 
HETATM   36  C19 UNL     1      74.633 117.094  19.158  1.00  0.00     0.204 C 
HETATM   37  O4  UNL     1      75.805 117.719  19.479  1.00  0.00    -0.358 OA
HETATM   38  C20 UNL     1      76.859 117.015  18.955  1.00  0.00     0.266 C 
HETATM   39  O5  UNL     1      77.935 117.111  19.795  1.00  0.00    -0.361 OA
HETATM   40  C23 UNL     1      76.402 115.560  19.030  1.00  0.00     0.075 C 
HETATM   41  C21 UNL     1      77.839 116.171  20.780  1.00  0.00     0.171 C 
HETATM   42  C22 UNL     1      76.672 115.280  20.499  1.00  0.00     0.038 C 
ENDBRANCH  34  35
ENDBRANCH  31  34
ENDBRANCH  22  30
ENDBRANCH   1  22
TORSDOF 15
ENDMDL
