MODEL 2
REMARK VINA RESULT: -9.365298206      0.243      1.279
REMARK  15 active torsions:
REMARK  status: ('A' for Active; 'I' for Inactive)
REMARK    1  A    between atoms: C2_2  and  C3_3 
REMARK    2  A    between atoms: C3_3  and  C4_4 
REMARK    3  A    between atoms: C3_3  and  C6_6 
REMARK    4  A    between atoms: C6_6  and  N1_7 
REMARK    5  A    between atoms: N1_7  and  C7_8 
REMARK    6  A    between atoms: N1_7  and  S1_33 
REMARK    7  A    between atoms: C7_8  and  C8_9 
REMARK    8  A    between atoms: C8_9  and  O1_10 
REMARK    9  A    between atoms: C8_9  and  C9_12 
REMARK   10  A    between atoms: C9_12  and  C10_13 
REMARK   11  A    between atoms: C9_12  and  N2_20 
REMARK   12  A    between atoms: C10_13  and  C11_14 
REMARK       I    between atoms: N2_20  and  C17_22 
REMARK   13  A    between atoms: C17_22  and  O3_24 
REMARK   14  A    between atoms: O3_24  and  C18_25 
REMARK   15  A    between atoms: S1_33  and  C24_36 
ROOT
HETATM    1  C8  UNL     1      71.683 113.301  15.838  1.00  0.00     0.160 C 
ENDROOT
BRANCH   1   2
HETATM    2  C7  UNL     1      70.714 112.308  15.291  1.00  0.00     0.174 C 
BRANCH   2   3
HETATM    3  N1  UNL     1      70.864 111.003  15.954  1.00  0.00    -0.283 N 
BRANCH   3   4
HETATM    4  C6  UNL     1      71.695 110.107  15.265  1.00  0.00     0.081 C 
BRANCH   4   5
HETATM    5  C3  UNL     1      73.121 110.170  15.735  1.00  0.00     0.024 C 
BRANCH   5   6
HETATM    6  C2  UNL     1      73.320 110.430  17.179  1.00  0.00     0.005 C 
HETATM    7  C1  UNL     1      74.616 111.006  17.613  1.00  0.00     0.006 C 
ENDBRANCH   5   6
BRANCH   5   8
HETATM    8  C4  UNL     1      73.942 109.050  15.149  1.00  0.00     0.005 C 
HETATM    9  C5  UNL     1      74.978 109.424  14.164  1.00  0.00     0.006 C 
ENDBRANCH   5   8
ENDBRANCH   4   5
ENDBRANCH   3   4
BRANCH   3  10
HETATM   10  S1  UNL     1      69.452 110.439  16.675  1.00  0.00     0.264 S 
HETATM   11  O6  UNL     1      69.695 109.626  17.899  1.00  0.00    -0.200 OA
HETATM   12  O7  UNL     1      68.656 111.658  17.145  1.00  0.00    -0.200 OA
BRANCH  10  13
HETATM   13  C24 UNL     1      68.446 109.501  15.595  1.00  0.00     0.080 A 
HETATM   14  C25 UNL     1      67.334 110.043  15.016  1.00  0.00     0.027 A 
HETATM   15  C26 UNL     1      66.577 109.262  14.174  1.00  0.00     0.028 A 
HETATM   16  C27 UNL     1      66.906 107.953  13.896  1.00  0.00     0.046 A 
HETATM   17  N3  UNL     1      66.128 107.142  13.027  1.00  0.00    -0.102 NA
HETATM   18  C28 UNL     1      68.038 107.407  14.488  1.00  0.00     0.028 A 
HETATM   19  C29 UNL     1      68.784 108.202  15.328  1.00  0.00     0.027 A 
ENDBRANCH  10  13
ENDBRANCH   3  10
ENDBRANCH   2   3
ENDBRANCH   1   2
BRANCH   1  20
HETATM   20  O1  UNL     1      72.281 114.135  14.906  1.00  0.00    -0.392 OA
ATOM     21  H1  UNL     1      73.062 114.589  15.200  1.00  0.00     0.210 HD
ENDBRANCH   1  20
BRANCH   1  22
HETATM   22  C9  UNL     1      71.279 114.009  17.090  1.00  0.00     0.117 C 
BRANCH  22  23
HETATM   23  C10 UNL     1      70.397 115.195  16.931  1.00  0.00     0.032 C 
BRANCH  23  24
HETATM   24  C11 UNL     1      69.383 115.461  17.976  1.00  0.00    -0.013 C 
HETATM   25  C12 UNL     1      69.651 116.898  18.483  1.00  0.00     0.005 C 
HETATM   26  C13 UNL     1      70.750 116.921  19.507  1.00  0.00     0.000 C 
HETATM   27  C14 UNL     1      70.395 116.090  20.708  1.00  0.00     0.000 C 
HETATM   28  C15 UNL     1      69.175 115.256  20.399  1.00  0.00     0.000 C 
HETATM   29  C16 UNL     1      69.378 114.478  19.110  1.00  0.00     0.005 C 
ENDBRANCH  23  24
ENDBRANCH  22  23
BRANCH  22  30
HETATM   30  N2  UNL     1      72.549 114.565  17.633  1.00  0.00    -0.330 N 
HETATM   31  C17 UNL     1      73.107 114.104  18.838  1.00  0.00     0.361 C 
HETATM   32  O2  UNL     1      72.550 113.195  19.514  1.00  0.00    -0.238 OA
ATOM     33  H2  UNL     1      73.029 115.302  17.115  1.00  0.00     0.165 HD
BRANCH  31  34
HETATM   34  O3  UNL     1      74.294 114.619  19.351  1.00  0.00    -0.296 OA
BRANCH  34  35
HETATM   35  C18 UNL     1      74.997 115.608  18.664  1.00  0.00     0.166 C 
HETATM   36  C19 UNL     1      74.636 117.011  19.061  1.00  0.00     0.204 C 
HETATM   37  O4  UNL     1      75.779 117.677  19.406  1.00  0.00    -0.358 OA
HETATM   38  C20 UNL     1      76.870 116.997  18.926  1.00  0.00     0.266 C 
HETATM   39  O5  UNL     1      77.916 117.141  19.796  1.00  0.00    -0.361 OA
HETATM   40  C23 UNL     1      76.454 115.530  19.014  1.00  0.00     0.075 C 
HETATM   41  C21 UNL     1      77.819 116.216  20.795  1.00  0.00     0.171 C 
HETATM   42  C22 UNL     1      76.689 115.284  20.495  1.00  0.00     0.038 C 
ENDBRANCH  34  35
ENDBRANCH  31  34
ENDBRANCH  22  30
ENDBRANCH   1  22
TORSDOF 15
ENDMDL
