MODEL 7
REMARK VINA RESULT: -9.018632142      1.112      1.624
REMARK  15 active torsions:
REMARK  status: ('A' for Active; 'I' for Inactive)
REMARK    1  A    between atoms: C2_2  and  C3_3 
REMARK    2  A    between atoms: C3_3  and  C4_4 
REMARK    3  A    between atoms: C3_3  and  C6_6 
REMARK    4  A    between atoms: C6_6  and  N1_7 
REMARK    5  A    between atoms: N1_7  and  C7_8 
REMARK    6  A    between atoms: N1_7  and  S1_33 
REMARK    7  A    between atoms: C7_8  and  C8_9 
REMARK    8  A    between atoms: C8_9  and  O1_10 
REMARK    9  A    between atoms: C8_9  and  C9_12 
REMARK   10  A    between atoms: C9_12  and  C10_13 
REMARK   11  A    between atoms: C9_12  and  N2_20 
REMARK   12  A    between atoms: C10_13  and  C11_14 
REMARK       I    between atoms: N2_20  and  C17_22 
REMARK   13  A    between atoms: C17_22  and  O3_24 
REMARK   14  A    between atoms: O3_24  and  C18_25 
REMARK   15  A    between atoms: S1_33  and  C24_36 
ROOT
HETATM    1  C8  UNL     1      71.996 113.890  15.854  1.00  0.00     0.160 C 
ENDROOT
BRANCH   1   2
HETATM    2  C7  UNL     1      71.405 112.633  15.312  1.00  0.00     0.174 C 
BRANCH   2   3
HETATM    3  N1  UNL     1      72.257 111.473  15.620  1.00  0.00    -0.283 N 
BRANCH   3   4
HETATM    4  C6  UNL     1      73.254 111.231  14.664  1.00  0.00     0.081 C 
BRANCH   4   5
HETATM    5  C3  UNL     1      74.613 111.057  15.282  1.00  0.00     0.024 C 
BRANCH   5   6
HETATM    6  C2  UNL     1      74.776 111.587  16.654  1.00  0.00     0.005 C 
HETATM    7  C1  UNL     1      75.737 110.907  17.557  1.00  0.00     0.006 C 
ENDBRANCH   5   6
BRANCH   5   8
HETATM    8  C4  UNL     1      75.151 109.669  15.045  1.00  0.00     0.005 C 
HETATM    9  C5  UNL     1      74.680 108.967  13.834  1.00  0.00     0.006 C 
ENDBRANCH   5   8
ENDBRANCH   4   5
ENDBRANCH   3   4
BRANCH   3  10
HETATM   10  S1  UNL     1      71.427 110.178  16.300  1.00  0.00     0.264 S 
HETATM   11  O6  UNL     1      72.317 109.076  16.759  1.00  0.00    -0.200 OA
HETATM   12  O7  UNL     1      70.726 110.690  17.560  1.00  0.00    -0.200 OA
BRANCH  10  13
HETATM   13  C24 UNL     1      70.221 109.489  15.235  1.00  0.00     0.080 A 
HETATM   14  C25 UNL     1      70.571 108.621  14.240  1.00  0.00     0.027 A 
HETATM   15  C26 UNL     1      69.584 108.108  13.430  1.00  0.00     0.028 A 
HETATM   16  C27 UNL     1      68.258 108.442  13.592  1.00  0.00     0.046 A 
HETATM   17  N3  UNL     1      67.234 107.915  12.759  1.00  0.00    -0.102 NA
HETATM   18  C28 UNL     1      67.908 109.325  14.606  1.00  0.00     0.028 A 
HETATM   19  C29 UNL     1      68.908 109.829  15.407  1.00  0.00     0.027 A 
ENDBRANCH  10  13
ENDBRANCH   3  10
ENDBRANCH   2   3
ENDBRANCH   1   2
BRANCH   1  20
HETATM   20  O1  UNL     1      72.289 114.870  14.917  1.00  0.00    -0.392 OA
ATOM     21  H1  UNL     1      73.011 115.446  15.136  1.00  0.00     0.210 HD
ENDBRANCH   1  20
BRANCH   1  22
HETATM   22  C9  UNL     1      71.382 114.434  17.103  1.00  0.00     0.117 C 
BRANCH  22  23
HETATM   23  C10 UNL     1      70.331 115.470  16.933  1.00  0.00     0.032 C 
BRANCH  23  24
HETATM   24  C11 UNL     1      69.278 115.579  17.968  1.00  0.00    -0.013 C 
HETATM   25  C12 UNL     1      69.371 117.015  18.533  1.00  0.00     0.005 C 
HETATM   26  C13 UNL     1      70.445 117.123  19.578  1.00  0.00     0.000 C 
HETATM   27  C14 UNL     1      70.169 116.211  20.740  1.00  0.00     0.000 C 
HETATM   28  C15 UNL     1      69.058 115.256  20.377  1.00  0.00     0.000 C 
HETATM   29  C16 UNL     1      69.368 114.558  19.064  1.00  0.00     0.005 C 
ENDBRANCH  23  24
ENDBRANCH  22  23
BRANCH  22  30
HETATM   30  N2  UNL     1      72.495 115.145  17.789  1.00  0.00    -0.330 N 
HETATM   31  C17 UNL     1      73.048 114.674  18.992  1.00  0.00     0.361 C 
HETATM   32  O2  UNL     1      72.622 113.623  19.544  1.00  0.00    -0.238 OA
ATOM     33  H2  UNL     1      72.867 116.000  17.374  1.00  0.00     0.165 HD
BRANCH  31  34
HETATM   34  O3  UNL     1      74.089 115.335  19.638  1.00  0.00    -0.296 OA
BRANCH  34  35
HETATM   35  C18 UNL     1      74.887 116.251  18.953  1.00  0.00     0.166 C 
HETATM   36  C19 UNL     1      74.849 117.644  19.514  1.00  0.00     0.204 C 
HETATM   37  O4  UNL     1      76.130 118.053  19.761  1.00  0.00    -0.358 OA
HETATM   38  C20 UNL     1      77.008 117.244  19.085  1.00  0.00     0.266 C 
HETATM   39  O5  UNL     1      78.154 117.102  19.819  1.00  0.00    -0.361 OA
HETATM   40  C23 UNL     1      76.332 115.875  19.100  1.00  0.00     0.075 C 
HETATM   41  C21 UNL     1      77.995 116.106  20.738  1.00  0.00     0.171 C 
HETATM   42  C22 UNL     1      76.681 115.431  20.511  1.00  0.00     0.038 C 
ENDBRANCH  34  35
ENDBRANCH  31  34
ENDBRANCH  22  30
ENDBRANCH   1  22
TORSDOF 15
ENDMDL
