MODEL 6
REMARK VINA RESULT: -9.034437137      2.489      6.933
REMARK  15 active torsions:
REMARK  status: ('A' for Active; 'I' for Inactive)
REMARK    1  A    between atoms: C2_2  and  C3_3 
REMARK    2  A    between atoms: C3_3  and  C4_4 
REMARK    3  A    between atoms: C3_3  and  C6_6 
REMARK    4  A    between atoms: C6_6  and  N1_7 
REMARK    5  A    between atoms: N1_7  and  C7_8 
REMARK    6  A    between atoms: N1_7  and  S1_33 
REMARK    7  A    between atoms: C7_8  and  C8_9 
REMARK    8  A    between atoms: C8_9  and  O1_10 
REMARK    9  A    between atoms: C8_9  and  C9_12 
REMARK   10  A    between atoms: C9_12  and  C10_13 
REMARK   11  A    between atoms: C9_12  and  N2_20 
REMARK   12  A    between atoms: C10_13  and  C11_14 
REMARK       I    between atoms: N2_20  and  C17_22 
REMARK   13  A    between atoms: C17_22  and  O3_24 
REMARK   14  A    between atoms: O3_24  and  C18_25 
REMARK   15  A    between atoms: S1_33  and  C24_36 
ROOT
HETATM    1  C8  UNL     1      73.101 114.287  17.355  1.00  0.00     0.160 C 
ENDROOT
BRANCH   1   2
HETATM    2  C7  UNL     1      72.283 115.198  18.206  1.00  0.00     0.174 C 
BRANCH   2   3
HETATM    3  N1  UNL     1      70.851 115.067  17.893  1.00  0.00    -0.283 N 
BRANCH   3   4
HETATM    4  C6  UNL     1      70.139 116.274  17.971  1.00  0.00     0.081 C 
BRANCH   4   5
HETATM    5  C3  UNL     1      70.480 117.063  19.205  1.00  0.00     0.024 C 
BRANCH   5   6
HETATM    6  C2  UNL     1      71.137 118.370  18.980  1.00  0.00     0.005 C 
HETATM    7  C1  UNL     1      72.559 118.514  19.375  1.00  0.00     0.006 C 
ENDBRANCH   5   6
BRANCH   5   8
HETATM    8  C4  UNL     1      69.340 117.060  20.191  1.00  0.00     0.005 C 
HETATM    9  C5  UNL     1      69.438 117.995  21.330  1.00  0.00     0.006 C 
ENDBRANCH   5   8
ENDBRANCH   4   5
ENDBRANCH   3   4
BRANCH   3  10
HETATM   10  S1  UNL     1      70.151 113.652  18.476  1.00  0.00     0.264 S 
HETATM   11  O6  UNL     1      70.835 113.103  19.679  1.00  0.00    -0.200 OA
HETATM   12  O7  UNL     1      68.732 113.994  18.932  1.00  0.00    -0.200 OA
BRANCH  10  13
HETATM   13  C24 UNL     1      70.059 112.379  17.279  1.00  0.00     0.080 A 
HETATM   14  C25 UNL     1      70.042 111.064  17.648  1.00  0.00     0.027 A 
HETATM   15  C26 UNL     1      69.968 110.101  16.667  1.00  0.00     0.028 A 
HETATM   16  C27 UNL     1      69.911 110.423  15.329  1.00  0.00     0.046 A 
HETATM   17  N3  UNL     1      69.836 109.434  14.312  1.00  0.00    -0.102 NA
HETATM   18  C28 UNL     1      69.930 111.762  14.961  1.00  0.00     0.028 A 
HETATM   19  C29 UNL     1      70.004 112.713  15.954  1.00  0.00     0.027 A 
ENDBRANCH  10  13
ENDBRANCH   3  10
ENDBRANCH   2   3
ENDBRANCH   1   2
BRANCH   1  20
HETATM   20  O1  UNL     1      73.495 114.800  16.129  1.00  0.00    -0.392 OA
ATOM     21  H1  UNL     1      73.699 114.158  15.460  1.00  0.00     0.210 HD
ENDBRANCH   1  20
BRANCH   1  22
HETATM   22  C9  UNL     1      74.180 113.517  18.045  1.00  0.00     0.117 C 
BRANCH  22  23
HETATM   23  C10 UNL     1      75.395 114.277  18.438  1.00  0.00     0.032 C 
BRANCH  23  24
HETATM   24  C11 UNL     1      75.293 115.231  19.567  1.00  0.00    -0.013 C 
HETATM   25  C12 UNL     1      75.728 116.607  19.012  1.00  0.00     0.005 C 
HETATM   26  C13 UNL     1      77.225 116.743  18.999  1.00  0.00     0.000 C 
HETATM   27  C14 UNL     1      77.795 116.627  20.385  1.00  0.00     0.000 C 
HETATM   28  C15 UNL     1      76.729 116.123  21.327  1.00  0.00     0.000 C 
HETATM   29  C16 UNL     1      76.094 114.856  20.779  1.00  0.00     0.005 C 
ENDBRANCH  23  24
ENDBRANCH  22  23
BRANCH  22  30
HETATM   30  N2  UNL     1      74.664 112.550  17.023  1.00  0.00    -0.330 N 
HETATM   31  C17 UNL     1      74.267 111.202  17.027  1.00  0.00     0.361 C 
HETATM   32  O2  UNL     1      73.480 110.752  17.904  1.00  0.00    -0.238 OA
ATOM     33  H2  UNL     1      75.304 112.876  16.297  1.00  0.00     0.165 HD
BRANCH  31  34
HETATM   34  O3  UNL     1      74.716 110.293  16.073  1.00  0.00    -0.296 OA
BRANCH  34  35
HETATM   35  C18 UNL     1      73.958 110.019  14.936  1.00  0.00     0.166 C 
HETATM   36  C19 UNL     1      74.766 109.824  13.686  1.00  0.00     0.204 C 
HETATM   37  O4  UNL     1      74.425 108.625  13.125  1.00  0.00    -0.358 OA
HETATM   38  C20 UNL     1      73.233 108.195  13.651  1.00  0.00     0.266 C 
HETATM   39  O5  UNL     1      73.237 106.828  13.731  1.00  0.00    -0.361 OA
HETATM   40  C23 UNL     1      73.268 108.695  15.094  1.00  0.00     0.075 C 
HETATM   41  C21 UNL     1      73.852 106.433  14.884  1.00  0.00     0.171 C 
HETATM   42  C22 UNL     1      74.165 107.637  15.713  1.00  0.00     0.038 C 
ENDBRANCH  34  35
ENDBRANCH  31  34
ENDBRANCH  22  30
ENDBRANCH   1  22
TORSDOF 15
ENDMDL
