MODEL 4
REMARK VINA RESULT: -9.112824655      2.352      9.479
REMARK  15 active torsions:
REMARK  status: ('A' for Active; 'I' for Inactive)
REMARK    1  A    between atoms: C2_2  and  C3_3 
REMARK    2  A    between atoms: C3_3  and  C4_4 
REMARK    3  A    between atoms: C3_3  and  C6_6 
REMARK    4  A    between atoms: C6_6  and  N1_7 
REMARK    5  A    between atoms: N1_7  and  C7_8 
REMARK    6  A    between atoms: N1_7  and  S1_33 
REMARK    7  A    between atoms: C7_8  and  C8_9 
REMARK    8  A    between atoms: C8_9  and  O1_10 
REMARK    9  A    between atoms: C8_9  and  C9_12 
REMARK   10  A    between atoms: C9_12  and  C10_13 
REMARK   11  A    between atoms: C9_12  and  N2_20 
REMARK   12  A    between atoms: C10_13  and  C11_14 
REMARK       I    between atoms: N2_20  and  C17_22 
REMARK   13  A    between atoms: C17_22  and  O3_24 
REMARK   14  A    between atoms: O3_24  and  C18_25 
REMARK   15  A    between atoms: S1_33  and  C24_36 
ROOT
HETATM    1  C8  UNL     1      71.670 112.971  15.457  1.00  0.00     0.160 C 
ENDROOT
BRANCH   1   2
HETATM    2  C7  UNL     1      71.871 114.000  16.517  1.00  0.00     0.174 C 
BRANCH   2   3
HETATM    3  N1  UNL     1      71.155 113.635  17.750  1.00  0.00    -0.283 N 
BRANCH   3   4
HETATM    4  C6  UNL     1      69.876 114.200  17.853  1.00  0.00     0.081 C 
BRANCH   4   5
HETATM    5  C3  UNL     1      69.882 115.503  18.603  1.00  0.00     0.024 C 
BRANCH   5   6
HETATM    6  C2  UNL     1      69.858 116.730  17.775  1.00  0.00     0.005 C 
HETATM    7  C1  UNL     1      69.758 118.038  18.467  1.00  0.00     0.006 C 
ENDBRANCH   5   6
BRANCH   5   8
HETATM    8  C4  UNL     1      68.921 115.474  19.763  1.00  0.00     0.005 C 
HETATM    9  C5  UNL     1      67.653 114.740  19.564  1.00  0.00     0.006 C 
ENDBRANCH   5   8
ENDBRANCH   4   5
ENDBRANCH   3   4
BRANCH   3  10
HETATM   10  S1  UNL     1      72.139 113.555  19.112  1.00  0.00     0.264 S 
HETATM   11  O6  UNL     1      71.406 113.778  20.389  1.00  0.00    -0.200 OA
HETATM   12  O7  UNL     1      72.690 112.130  19.200  1.00  0.00    -0.200 OA
BRANCH  10  13
HETATM   13  C24 UNL     1      73.487 114.669  19.062  1.00  0.00     0.080 A 
HETATM   14  C25 UNL     1      74.760 114.227  18.839  1.00  0.00     0.027 A 
HETATM   15  C26 UNL     1      75.785 115.145  18.810  1.00  0.00     0.028 A 
HETATM   16  C27 UNL     1      75.567 116.492  18.997  1.00  0.00     0.046 A 
HETATM   17  N3  UNL     1      76.621 117.444  18.968  1.00  0.00    -0.102 NA
HETATM   18  C28 UNL     1      74.270 116.935  19.224  1.00  0.00     0.028 A 
HETATM   19  C29 UNL     1      73.256 116.003  19.251  1.00  0.00     0.027 A 
ENDBRANCH  10  13
ENDBRANCH   3  10
ENDBRANCH   2   3
ENDBRANCH   1   2
BRANCH   1  20
HETATM   20  O1  UNL     1      71.954 113.378  14.162  1.00  0.00    -0.392 OA
ATOM     21  H1  UNL     1      72.526 114.132  14.083  1.00  0.00     0.210 HD
ENDBRANCH   1  20
BRANCH   1  22
HETATM   22  C9  UNL     1      72.158 111.593  15.762  1.00  0.00     0.117 C 
BRANCH  22  23
HETATM   23  C10 UNL     1      73.345 111.121  15.003  1.00  0.00     0.032 C 
BRANCH  23  24
HETATM   24  C11 UNL     1      74.020 109.882  15.452  1.00  0.00    -0.013 C 
HETATM   25  C12 UNL     1      74.185 110.010  16.985  1.00  0.00     0.005 C 
HETATM   26  C13 UNL     1      75.394 110.828  17.339  1.00  0.00     0.000 C 
HETATM   27  C14 UNL     1      76.653 110.197  16.813  1.00  0.00     0.000 C 
HETATM   28  C15 UNL     1      76.296 109.094  15.846  1.00  0.00     0.000 C 
HETATM   29  C16 UNL     1      75.337 109.608  14.786  1.00  0.00     0.005 C 
ENDBRANCH  23  24
ENDBRANCH  22  23
BRANCH  22  30
HETATM   30  N2  UNL     1      71.056 110.697  15.317  1.00  0.00    -0.330 N 
HETATM   31  C17 UNL     1      70.155 110.117  16.227  1.00  0.00     0.361 C 
HETATM   32  O2  UNL     1      70.246 110.331  17.467  1.00  0.00    -0.238 OA
ATOM     33  H2  UNL     1      70.950 110.499  14.321  1.00  0.00     0.165 HD
BRANCH  31  34
HETATM   34  O3  UNL     1      69.122 109.279  15.817  1.00  0.00    -0.296 OA
BRANCH  34  35
HETATM   35  C18 UNL     1      69.264 108.473  14.688  1.00  0.00     0.166 C 
HETATM   36  C19 UNL     1      69.218 106.998  14.971  1.00  0.00     0.204 C 
HETATM   37  O4  UNL     1      68.266 106.428  14.173  1.00  0.00    -0.358 OA
HETATM   38  C20 UNL     1      67.953 107.284  13.147  1.00  0.00     0.266 C 
HETATM   39  O5  UNL     1      66.629 107.149  12.829  1.00  0.00    -0.361 OA
HETATM   40  C23 UNL     1      68.091 108.671  13.772  1.00  0.00     0.075 C 
HETATM   41  C21 UNL     1      65.871 107.921  13.661  1.00  0.00     0.171 C 
HETATM   42  C22 UNL     1      66.771 108.749  14.521  1.00  0.00     0.038 C 
ENDBRANCH  34  35
ENDBRANCH  31  34
ENDBRANCH  22  30
ENDBRANCH   1  22
TORSDOF 15
ENDMDL
