MODEL 5
REMARK VINA RESULT: -9.052286758      0.795      1.169
REMARK  15 active torsions:
REMARK  status: ('A' for Active; 'I' for Inactive)
REMARK    1  A    between atoms: C2_2  and  C3_3 
REMARK    2  A    between atoms: C3_3  and  C4_4 
REMARK    3  A    between atoms: C3_3  and  C6_6 
REMARK    4  A    between atoms: C6_6  and  N1_7 
REMARK    5  A    between atoms: N1_7  and  C7_8 
REMARK    6  A    between atoms: N1_7  and  S1_33 
REMARK    7  A    between atoms: C7_8  and  C8_9 
REMARK    8  A    between atoms: C8_9  and  O1_10 
REMARK    9  A    between atoms: C8_9  and  C9_12 
REMARK   10  A    between atoms: C9_12  and  C10_13 
REMARK   11  A    between atoms: C9_12  and  N2_20 
REMARK   12  A    between atoms: C10_13  and  C11_14 
REMARK       I    between atoms: N2_20  and  C17_22 
REMARK   13  A    between atoms: C17_22  and  O3_24 
REMARK   14  A    between atoms: O3_24  and  C18_25 
REMARK   15  A    between atoms: S1_33  and  C24_36 
ROOT
HETATM    1  C8  UNL     1      71.586 113.266  15.665  1.00  0.00     0.160 C 
ENDROOT
BRANCH   1   2
HETATM    2  C7  UNL     1      70.486 112.306  15.360  1.00  0.00     0.174 C 
BRANCH   2   3
HETATM    3  N1  UNL     1      70.720 111.010  16.017  1.00  0.00    -0.283 N 
BRANCH   3   4
HETATM    4  C6  UNL     1      71.680 110.212  15.377  1.00  0.00     0.081 C 
BRANCH   4   5
HETATM    5  C3  UNL     1      72.696 109.657  16.335  1.00  0.00     0.024 C 
BRANCH   5   6
HETATM    6  C2  UNL     1      73.771 108.833  15.739  1.00  0.00     0.005 C 
HETATM    7  C1  UNL     1      74.067 109.009  14.296  1.00  0.00     0.006 C 
ENDBRANCH   5   6
BRANCH   5   8
HETATM    8  C4  UNL     1      73.141 110.700  17.329  1.00  0.00     0.005 C 
HETATM    9  C5  UNL     1      74.597 110.892  17.491  1.00  0.00     0.006 C 
ENDBRANCH   5   8
ENDBRANCH   4   5
ENDBRANCH   3   4
BRANCH   3  10
HETATM   10  S1  UNL     1      69.325 110.297  16.633  1.00  0.00     0.264 S 
HETATM   11  O6  UNL     1      69.559 109.516  17.879  1.00  0.00    -0.200 OA
HETATM   12  O7  UNL     1      68.369 111.424  17.029  1.00  0.00    -0.200 OA
BRANCH  10  13
HETATM   13  C24 UNL     1      68.513 109.255  15.487  1.00  0.00     0.080 A 
HETATM   14  C25 UNL     1      68.926 107.969  15.285  1.00  0.00     0.027 A 
HETATM   15  C26 UNL     1      68.253 107.191  14.372  1.00  0.00     0.028 A 
HETATM   16  C27 UNL     1      67.177 107.668  13.657  1.00  0.00     0.046 A 
HETATM   17  N3  UNL     1      66.477 106.870  12.713  1.00  0.00    -0.102 NA
HETATM   18  C28 UNL     1      66.761 108.977  13.866  1.00  0.00     0.028 A 
HETATM   19  C29 UNL     1      67.446 109.742  14.784  1.00  0.00     0.027 A 
ENDBRANCH  10  13
ENDBRANCH   3  10
ENDBRANCH   2   3
ENDBRANCH   1   2
BRANCH   1  20
HETATM   20  O1  UNL     1      72.061 113.999  14.588  1.00  0.00    -0.392 OA
ATOM     21  H1  UNL     1      72.996 114.167  14.584  1.00  0.00     0.210 HD
ENDBRANCH   1  20
BRANCH   1  22
HETATM   22  C9  UNL     1      71.439 114.076  16.911  1.00  0.00     0.117 C 
BRANCH  22  23
HETATM   23  C10 UNL     1      70.521 115.244  16.843  1.00  0.00     0.032 C 
BRANCH  23  24
HETATM   24  C11 UNL     1      69.589 115.471  17.972  1.00  0.00    -0.013 C 
HETATM   25  C12 UNL     1      69.859 116.908  18.474  1.00  0.00     0.005 C 
HETATM   26  C13 UNL     1      71.037 116.950  19.405  1.00  0.00     0.000 C 
HETATM   27  C14 UNL     1      70.803 116.097  20.620  1.00  0.00     0.000 C 
HETATM   28  C15 UNL     1      69.585 115.233  20.400  1.00  0.00     0.000 C 
HETATM   29  C16 UNL     1      69.702 114.475  19.089  1.00  0.00     0.005 C 
ENDBRANCH  23  24
ENDBRANCH  22  23
BRANCH  22  30
HETATM   30  N2  UNL     1      72.783 114.676  17.129  1.00  0.00    -0.330 N 
HETATM   31  C17 UNL     1      73.529 114.426  18.294  1.00  0.00     0.361 C 
HETATM   32  O2  UNL     1      73.086 113.680  19.210  1.00  0.00    -0.238 OA
ATOM     33  H2  UNL     1      73.176 115.287  16.412  1.00  0.00     0.165 HD
BRANCH  31  34
HETATM   34  O3  UNL     1      74.787 114.985  18.504  1.00  0.00    -0.296 OA
BRANCH  34  35
HETATM   35  C18 UNL     1      75.429 114.854  19.735  1.00  0.00     0.166 C 
HETATM   36  C19 UNL     1      76.924 114.737  19.643  1.00  0.00     0.204 C 
HETATM   37  O4  UNL     1      77.489 115.688  20.446  1.00  0.00    -0.358 OA
HETATM   38  C20 UNL     1      76.551 116.158  21.329  1.00  0.00     0.266 C 
HETATM   39  O5  UNL     1      76.783 117.484  21.578  1.00  0.00    -0.361 OA
HETATM   40  C23 UNL     1      75.244 116.106  20.540  1.00  0.00     0.075 C 
HETATM   41  C21 UNL     1      76.202 118.246  20.606  1.00  0.00     0.171 C 
HETATM   42  C22 UNL     1      75.397 117.367  19.705  1.00  0.00     0.038 C 
ENDBRANCH  34  35
ENDBRANCH  31  34
ENDBRANCH  22  30
ENDBRANCH   1  22
TORSDOF 15
ENDMDL
