MODEL 1
REMARK VINA RESULT: -11.483612459      0.000      0.000
REMARK  12 active torsions:
REMARK  status: ('A' for Active; 'I' for Inactive)
REMARK    1  A    between atoms: C2_2  and  C3_3 
REMARK    2  A    between atoms: C3_3  and  C4_4 
REMARK    3  A    between atoms: C4_4  and  C5_5 
REMARK    4  A    between atoms: C6_6  and  C7_7 
REMARK    5  A    between atoms: C14_14  and  O1_15 
REMARK    6  A    between atoms: C15_17  and  C16_18 
REMARK    7  A    between atoms: C16_18  and  C17_19 
REMARK    8  A    between atoms: C16_18  and  C19_21 
REMARK    9  A    between atoms: C23_25  and  N1_26 
REMARK   10  A    between atoms: N1_26  and  S1_28 
REMARK   11  A    between atoms: S1_28  and  C24_31 
REMARK   12  A    between atoms: C27_34  and  C28_35 
ROOT
HETATM    1  C16 UNL     1      10.781  19.647  63.657  1.00  0.00    -0.029 C 
ENDROOT
BRANCH   1   2
HETATM    2  C15 UNL     1      12.077  20.227  63.778  1.00  0.00     0.075 C 
HETATM    3  C14 UNL     1      13.126  19.567  64.215  1.00  0.00     0.063 C 
HETATM    4  C13 UNL     1      14.487  20.129  64.354  1.00  0.00     0.108 C 
HETATM    5  C4  UNL     1      14.796  21.073  63.185  1.00  0.00     0.094 C 
HETATM    6  O5  UNL     1      13.679  22.065  63.387  1.00  0.00    -0.301 OA
HETATM    7  C31 UNL     1      12.394  21.605  63.327  1.00  0.00     0.297 C 
HETATM    8  O4  UNL     1      11.410  22.280  62.908  1.00  0.00    -0.259 OA
BRANCH   3   9
HETATM    9  O1  UNL     1      12.908  18.216  64.573  1.00  0.00    -0.364 OA
ATOM     10  H1  UNL     1      12.157  17.762  64.207  1.00  0.00     0.217 HD
ENDBRANCH   3   9
BRANCH   5  11
HETATM   11  C3  UNL     1      15.968  21.903  63.359  1.00  0.00     0.043 C 
BRANCH  11  12
HETATM   12  C2  UNL     1      16.062  23.115  64.155  1.00  0.00    -0.001 C 
HETATM   13  C1  UNL     1      17.334  23.897  64.172  1.00  0.00     0.005 C 
ENDBRANCH  11  12
ENDBRANCH   5  11
BRANCH   5  14
HETATM   14  C5  UNL     1      14.469  20.492  61.882  1.00  0.00     0.013 C 
HETATM   15  C6  UNL     1      14.558  21.208  60.631  1.00  0.00     0.010 C 
BRANCH  15  16
HETATM   16  C7  UNL     1      15.734  21.735  59.977  1.00  0.00    -0.036 A 
HETATM   17  C8  UNL     1      16.870  21.045  59.654  1.00  0.00     0.011 A 
HETATM   18  C9  UNL     1      17.972  21.649  59.149  1.00  0.00     0.001 A 
HETATM   19  C10 UNL     1      18.016  23.007  58.926  1.00  0.00     0.000 A 
HETATM   20  C11 UNL     1      16.874  23.708  59.249  1.00  0.00     0.001 A 
HETATM   21  C12 UNL     1      15.749  23.131  59.757  1.00  0.00     0.011 A 
ENDBRANCH  15  16
ENDBRANCH   5  14
ENDBRANCH   1   2
BRANCH   1  22
HETATM   22  C17 UNL     1      10.015  19.262  64.853  1.00  0.00     0.036 C 
HETATM   23  C18 UNL     1       9.864  20.239  65.950  1.00  0.00     0.010 C 
ENDBRANCH   1  22
BRANCH   1  24
HETATM   24  C19 UNL     1      10.589  18.674  62.578  1.00  0.00    -0.027 A 
HETATM   25  C20 UNL     1      11.579  18.254  61.716  1.00  0.00     0.012 A 
HETATM   26  C21 UNL     1      11.355  17.364  60.679  1.00  0.00     0.003 A 
HETATM   27  C22 UNL     1      10.097  16.870  60.488  1.00  0.00     0.030 A 
HETATM   28  C23 UNL     1       9.043  17.262  61.336  1.00  0.00     0.043 A 
HETATM   29  C30 UNL     1       9.310  18.137  62.340  1.00  0.00     0.042 A 
BRANCH  28  30
HETATM   30  N1  UNL     1       7.765  16.756  61.005  1.00  0.00    -0.279 N 
ATOM     31  H1  UNL     1       7.241  17.162  60.230  1.00  0.00     0.179 HD
BRANCH  30  32
HETATM   32  S1  UNL     1       7.085  15.438  61.924  1.00  0.00     0.278 S 
HETATM   33  O2  UNL     1       7.937  14.229  61.816  1.00  0.00    -0.199 OA
HETATM   34  O3  UNL     1       5.703  15.134  61.470  1.00  0.00    -0.199 OA
BRANCH  32  35
HETATM   35  C24 UNL     1       7.064  15.980  63.618  1.00  0.00     0.149 A 
HETATM   36  C25 UNL     1       8.054  15.681  64.503  1.00  0.00     0.044 A 
HETATM   37  C26 UNL     1       7.988  16.140  65.802  1.00  0.00     0.020 A 
HETATM   38  C27 UNL     1       6.924  16.900  66.205  1.00  0.00     0.063 A 
HETATM   39  C29 UNL     1       5.913  17.200  65.295  1.00  0.00     0.105 A 
HETATM   40  N2  UNL     1       6.019  16.735  64.054  1.00  0.00    -0.355 N 
ATOM     41  H2  UNL     1       5.275  16.957  63.392  1.00  0.00     0.166 HD
BRANCH  38  42
HETATM   42  C28 UNL     1       6.810  17.434  67.595  1.00  0.00     0.418 C 
HETATM   43  F1  UNL     1       5.461  17.572  67.877  1.00  0.00    -0.166 F 
HETATM   44  F2  UNL     1       7.419  18.683  67.726  1.00  0.00    -0.166 F 
HETATM   45  F3  UNL     1       7.424  16.580  68.463  1.00  0.00    -0.166 F 
ENDBRANCH  38  42
ENDBRANCH  32  35
ENDBRANCH  30  32
ENDBRANCH  28  30
ENDBRANCH   1  24
TORSDOF 12
ENDMDL
