MODEL 8
REMARK VINA RESULT: -10.376016675      6.259     11.096
REMARK  12 active torsions:
REMARK  status: ('A' for Active; 'I' for Inactive)
REMARK    1  A    between atoms: C2_2  and  C3_3 
REMARK    2  A    between atoms: C3_3  and  C4_4 
REMARK    3  A    between atoms: C4_4  and  C5_5 
REMARK    4  A    between atoms: C6_6  and  C7_7 
REMARK    5  A    between atoms: C14_14  and  O1_15 
REMARK    6  A    between atoms: C15_17  and  C16_18 
REMARK    7  A    between atoms: C16_18  and  C17_19 
REMARK    8  A    between atoms: C16_18  and  C19_21 
REMARK    9  A    between atoms: C23_25  and  N1_26 
REMARK   10  A    between atoms: N1_26  and  S1_28 
REMARK   11  A    between atoms: S1_28  and  C24_31 
REMARK   12  A    between atoms: C27_34  and  C28_35 
ROOT
HETATM    1  C16 UNL     1      14.264  22.089  63.051  1.00  0.00    -0.029 C 
ENDROOT
BRANCH   1   2
HETATM    2  C15 UNL     1      13.341  21.107  63.514  1.00  0.00     0.075 C 
HETATM    3  C14 UNL     1      12.036  21.246  63.433  1.00  0.00     0.063 C 
HETATM    4  C13 UNL     1      11.045  20.253  63.898  1.00  0.00     0.108 C 
HETATM    5  C4  UNL     1      11.532  18.830  63.596  1.00  0.00     0.094 C 
HETATM    6  O5  UNL     1      12.819  18.855  64.380  1.00  0.00    -0.301 OA
HETATM    7  C31 UNL     1      13.760  19.785  64.041  1.00  0.00     0.297 C 
HETATM    8  O4  UNL     1      15.008  19.612  64.145  1.00  0.00    -0.259 OA
BRANCH   3   9
HETATM    9  O1  UNL     1      11.573  22.450  62.851  1.00  0.00    -0.364 OA
ATOM     10  H1  UNL     1      10.996  22.401  62.097  1.00  0.00     0.217 HD
ENDBRANCH   3   9
BRANCH   5  11
HETATM   11  C3  UNL     1      10.798  17.774  64.258  1.00  0.00     0.043 C 
BRANCH  11  12
HETATM   12  C2  UNL     1       9.717  17.939  65.214  1.00  0.00    -0.001 C 
HETATM   13  C1  UNL     1       8.341  17.471  64.870  1.00  0.00     0.005 C 
ENDBRANCH  11  12
ENDBRANCH   5  11
BRANCH   5  14
HETATM   14  C5  UNL     1      12.007  18.672  62.220  1.00  0.00     0.013 C 
HETATM   15  C6  UNL     1      11.769  17.498  61.411  1.00  0.00     0.010 C 
BRANCH  15  16
HETATM   16  C7  UNL     1      10.511  16.984  60.919  1.00  0.00    -0.036 A 
HETATM   17  C8  UNL     1       9.266  17.254  61.416  1.00  0.00     0.011 A 
HETATM   18  C9  UNL     1       8.150  16.632  60.965  1.00  0.00     0.001 A 
HETATM   19  C10 UNL     1       8.201  15.682  59.970  1.00  0.00     0.000 A 
HETATM   20  C11 UNL     1       9.454  15.407  59.464  1.00  0.00     0.001 A 
HETATM   21  C12 UNL     1      10.595  16.014  59.895  1.00  0.00     0.011 A 
ENDBRANCH  15  16
ENDBRANCH   5  14
ENDBRANCH   1   2
BRANCH   1  22
HETATM   22  C17 UNL     1      15.146  21.810  61.906  1.00  0.00     0.036 C 
HETATM   23  C18 UNL     1      14.542  21.410  60.620  1.00  0.00     0.010 C 
ENDBRANCH   1  22
BRANCH   1  24
HETATM   24  C19 UNL     1      14.965  22.873  64.071  1.00  0.00    -0.027 A 
HETATM   25  C20 UNL     1      14.424  23.246  65.283  1.00  0.00     0.012 A 
HETATM   26  C21 UNL     1      15.098  24.023  66.208  1.00  0.00     0.003 A 
HETATM   27  C22 UNL     1      16.363  24.451  65.920  1.00  0.00     0.030 A 
HETATM   28  C23 UNL     1      16.969  24.104  64.698  1.00  0.00     0.043 A 
HETATM   29  C30 UNL     1      16.269  23.339  63.821  1.00  0.00     0.042 A 
BRANCH  28  30
HETATM   30  N1  UNL     1      18.246  24.663  64.463  1.00  0.00    -0.279 N 
ATOM     31  H1  UNL     1      19.080  24.199  64.821  1.00  0.00     0.179 HD
BRANCH  30  32
HETATM   32  S1  UNL     1      18.394  26.149  63.560  1.00  0.00     0.278 S 
HETATM   33  O2  UNL     1      19.676  26.826  63.870  1.00  0.00    -0.199 OA
HETATM   34  O3  UNL     1      17.252  27.056  63.843  1.00  0.00    -0.199 OA
BRANCH  32  35
HETATM   35  C24 UNL     1      18.389  25.681  61.843  1.00  0.00     0.149 A 
HETATM   36  C25 UNL     1      18.747  24.440  61.414  1.00  0.00     0.044 A 
HETATM   37  C26 UNL     1      18.712  24.132  60.070  1.00  0.00     0.020 A 
HETATM   38  C27 UNL     1      18.316  25.076  59.162  1.00  0.00     0.063 A 
HETATM   39  C29 UNL     1      17.954  26.346  59.608  1.00  0.00     0.105 A 
HETATM   40  N2  UNL     1      18.004  26.597  60.913  1.00  0.00    -0.355 N 
ATOM     41  H2  UNL     1      17.739  27.528  61.235  1.00  0.00     0.166 HD
BRANCH  38  42
HETATM   42  C28 UNL     1      18.247  24.792  57.698  1.00  0.00     0.418 C 
HETATM   43  F1  UNL     1      17.530  23.619  57.537  1.00  0.00    -0.166 F 
HETATM   44  F2  UNL     1      19.515  24.615  57.141  1.00  0.00    -0.166 F 
HETATM   45  F3  UNL     1      17.655  25.840  57.057  1.00  0.00    -0.166 F 
ENDBRANCH  38  42
ENDBRANCH  32  35
ENDBRANCH  30  32
ENDBRANCH  28  30
ENDBRANCH   1  24
TORSDOF 12
ENDMDL
