MODEL 5
REMARK VINA RESULT: -10.808195859      5.840     10.793
REMARK  12 active torsions:
REMARK  status: ('A' for Active; 'I' for Inactive)
REMARK    1  A    between atoms: C2_2  and  C3_3 
REMARK    2  A    between atoms: C3_3  and  C4_4 
REMARK    3  A    between atoms: C4_4  and  C5_5 
REMARK    4  A    between atoms: C6_6  and  C7_7 
REMARK    5  A    between atoms: C14_14  and  O1_15 
REMARK    6  A    between atoms: C15_17  and  C16_18 
REMARK    7  A    between atoms: C16_18  and  C17_19 
REMARK    8  A    between atoms: C16_18  and  C19_21 
REMARK    9  A    between atoms: C23_25  and  N1_26 
REMARK   10  A    between atoms: N1_26  and  S1_28 
REMARK   11  A    between atoms: S1_28  and  C24_31 
REMARK   12  A    between atoms: C27_34  and  C28_35 
ROOT
HETATM    1  C16 UNL     1      13.844  21.794  62.377  1.00  0.00    -0.029 C 
ENDROOT
BRANCH   1   2
HETATM    2  C15 UNL     1      12.984  20.658  62.364  1.00  0.00     0.075 C 
HETATM    3  C14 UNL     1      13.422  19.419  62.401  1.00  0.00     0.063 C 
HETATM    4  C13 UNL     1      12.565  18.214  62.392  1.00  0.00     0.108 C 
HETATM    5  C4  UNL     1      11.307  18.448  63.237  1.00  0.00     0.094 C 
HETATM    6  O5  UNL     1      10.743  19.630  62.491  1.00  0.00    -0.301 OA
HETATM    7  C31 UNL     1      11.504  20.761  62.411  1.00  0.00     0.297 C 
HETATM    8  O4  UNL     1      11.039  21.936  62.367  1.00  0.00    -0.259 OA
BRANCH   3   9
HETATM    9  O1  UNL     1      14.826  19.256  62.454  1.00  0.00    -0.364 OA
ATOM     10  H1  UNL     1      15.292  19.039  61.655  1.00  0.00     0.217 HD
ENDBRANCH   3   9
BRANCH   5  11
HETATM   11  C3  UNL     1      10.261  17.462  63.069  1.00  0.00     0.043 C 
BRANCH  11  12
HETATM   12  C2  UNL     1       9.326  17.369  61.961  1.00  0.00    -0.001 C 
HETATM   13  C1  UNL     1       9.733  16.680  60.700  1.00  0.00     0.005 C 
ENDBRANCH  11  12
ENDBRANCH   5  11
BRANCH   5  14
HETATM   14  C5  UNL     1      11.601  19.018  64.552  1.00  0.00     0.013 C 
HETATM   15  C6  UNL     1      10.624  19.677  65.387  1.00  0.00     0.010 C 
BRANCH  15  16
HETATM   16  C7  UNL     1       9.452  19.112  66.018  1.00  0.00    -0.036 A 
HETATM   17  C8  UNL     1       9.417  18.373  67.167  1.00  0.00     0.011 A 
HETATM   18  C9  UNL     1       8.286  17.782  67.620  1.00  0.00     0.001 A 
HETATM   19  C10 UNL     1       7.090  17.892  66.946  1.00  0.00     0.000 A 
HETATM   20  C11 UNL     1       7.120  18.637  65.786  1.00  0.00     0.001 A 
HETATM   21  C12 UNL     1       8.240  19.244  65.304  1.00  0.00     0.011 A 
ENDBRANCH  15  16
ENDBRANCH   5  14
ENDBRANCH   1   2
BRANCH   1  22
HETATM   22  C17 UNL     1      14.976  21.890  61.440  1.00  0.00     0.036 C 
HETATM   23  C18 UNL     1      14.712  21.806  59.990  1.00  0.00     0.010 C 
ENDBRANCH   1  22
BRANCH   1  24
HETATM   24  C19 UNL     1      14.206  22.336  63.689  1.00  0.00    -0.027 A 
HETATM   25  C20 UNL     1      13.856  21.768  64.896  1.00  0.00     0.012 A 
HETATM   26  C21 UNL     1      14.177  22.329  66.120  1.00  0.00     0.003 A 
HETATM   27  C22 UNL     1      14.873  23.504  66.150  1.00  0.00     0.030 A 
HETATM   28  C23 UNL     1      15.257  24.133  64.951  1.00  0.00     0.043 A 
HETATM   29  C30 UNL     1      14.920  23.546  63.773  1.00  0.00     0.042 A 
BRANCH  28  30
HETATM   30  N1  UNL     1      15.901  25.384  65.090  1.00  0.00    -0.279 N 
ATOM     31  H1  UNL     1      15.353  26.224  65.271  1.00  0.00     0.179 HD
BRANCH  30  32
HETATM   32  S1  UNL     1      17.638  25.489  64.953  1.00  0.00     0.278 S 
HETATM   33  O2  UNL     1      18.297  24.730  66.043  1.00  0.00    -0.199 OA
HETATM   34  O3  UNL     1      18.086  26.905  64.970  1.00  0.00    -0.199 OA
BRANCH  32  35
HETATM   35  C24 UNL     1      18.053  24.738  63.394  1.00  0.00     0.149 A 
HETATM   36  C25 UNL     1      18.462  23.445  63.282  1.00  0.00     0.044 A 
HETATM   37  C26 UNL     1      18.759  22.915  62.043  1.00  0.00     0.020 A 
HETATM   38  C27 UNL     1      18.642  23.690  60.922  1.00  0.00     0.063 A 
HETATM   39  C29 UNL     1      18.225  25.013  61.044  1.00  0.00     0.105 A 
HETATM   40  N2  UNL     1      17.951  25.481  62.258  1.00  0.00    -0.355 N 
ATOM     41  H2  UNL     1      17.647  26.452  62.343  1.00  0.00     0.166 HD
BRANCH  38  42
HETATM   42  C28 UNL     1      18.938  23.162  59.556  1.00  0.00     0.418 C 
HETATM   43  F1  UNL     1      19.440  24.211  58.806  1.00  0.00    -0.166 F 
HETATM   44  F2  UNL     1      17.791  22.676  58.926  1.00  0.00    -0.166 F 
HETATM   45  F3  UNL     1      19.827  22.133  59.648  1.00  0.00    -0.166 F 
ENDBRANCH  38  42
ENDBRANCH  32  35
ENDBRANCH  30  32
ENDBRANCH  28  30
ENDBRANCH   1  24
TORSDOF 12
ENDMDL
