MODEL 6
REMARK VINA RESULT: -10.769514749      5.882     10.673
REMARK  12 active torsions:
REMARK  status: ('A' for Active; 'I' for Inactive)
REMARK    1  A    between atoms: C2_2  and  C3_3 
REMARK    2  A    between atoms: C3_3  and  C4_4 
REMARK    3  A    between atoms: C4_4  and  C5_5 
REMARK    4  A    between atoms: C6_6  and  C7_7 
REMARK    5  A    between atoms: C14_14  and  O1_15 
REMARK    6  A    between atoms: C15_17  and  C16_18 
REMARK    7  A    between atoms: C16_18  and  C17_19 
REMARK    8  A    between atoms: C16_18  and  C19_21 
REMARK    9  A    between atoms: C23_25  and  N1_26 
REMARK   10  A    between atoms: N1_26  and  S1_28 
REMARK   11  A    between atoms: S1_28  and  C24_31 
REMARK   12  A    between atoms: C27_34  and  C28_35 
ROOT
HETATM    1  C16 UNL     1      13.993  21.970  63.258  1.00  0.00    -0.029 C 
ENDROOT
BRANCH   1   2
HETATM    2  C15 UNL     1      13.097  20.928  63.634  1.00  0.00     0.075 C 
HETATM    3  C14 UNL     1      11.790  21.025  63.530  1.00  0.00     0.063 C 
HETATM    4  C13 UNL     1      10.826  19.969  63.904  1.00  0.00     0.108 C 
HETATM    5  C4  UNL     1      11.373  18.588  63.522  1.00  0.00     0.094 C 
HETATM    6  O5  UNL     1      12.640  18.606  64.339  1.00  0.00    -0.301 OA
HETATM    7  C31 UNL     1      13.553  19.590  64.084  1.00  0.00     0.297 C 
HETATM    8  O4  UNL     1      14.804  19.455  64.208  1.00  0.00    -0.259 OA
BRANCH   3   9
HETATM    9  O1  UNL     1      11.296  22.247  63.015  1.00  0.00    -0.364 OA
ATOM     10  H1  UNL     1      10.399  22.283  62.703  1.00  0.00     0.217 HD
ENDBRANCH   3   9
BRANCH   5  11
HETATM   11  C3  UNL     1      10.664  17.465  64.096  1.00  0.00     0.043 C 
BRANCH  11  12
HETATM   12  C2  UNL     1       9.403  17.512  64.816  1.00  0.00    -0.001 C 
HETATM   13  C1  UNL     1       8.389  16.435  64.614  1.00  0.00     0.005 C 
ENDBRANCH  11  12
ENDBRANCH   5  11
BRANCH   5  14
HETATM   14  C5  UNL     1      11.884  18.537  62.151  1.00  0.00     0.013 C 
HETATM   15  C6  UNL     1      11.713  17.409  61.265  1.00  0.00     0.010 C 
BRANCH  15  16
HETATM   16  C7  UNL     1      10.489  16.877  60.711  1.00  0.00    -0.036 A 
HETATM   17  C8  UNL     1       9.214  17.170  61.110  1.00  0.00     0.011 A 
HETATM   18  C9  UNL     1       8.129  16.531  60.611  1.00  0.00     0.001 A 
HETATM   19  C10 UNL     1       8.243  15.540  59.662  1.00  0.00     0.000 A 
HETATM   20  C11 UNL     1       9.526  15.241  59.255  1.00  0.00     0.001 A 
HETATM   21  C12 UNL     1      10.638  15.864  59.736  1.00  0.00     0.011 A 
ENDBRANCH  15  16
ENDBRANCH   5  14
ENDBRANCH   1   2
BRANCH   1  22
HETATM   22  C17 UNL     1      15.029  21.739  62.239  1.00  0.00     0.036 C 
HETATM   23  C18 UNL     1      14.615  21.406  60.862  1.00  0.00     0.010 C 
ENDBRANCH   1  22
BRANCH   1  24
HETATM   24  C19 UNL     1      14.499  22.828  64.333  1.00  0.00    -0.027 A 
HETATM   25  C20 UNL     1      14.223  22.653  65.672  1.00  0.00     0.012 A 
HETATM   26  C21 UNL     1      14.683  23.506  66.660  1.00  0.00     0.003 A 
HETATM   27  C22 UNL     1      15.449  24.579  66.306  1.00  0.00     0.030 A 
HETATM   28  C23 UNL     1      15.765  24.812  64.954  1.00  0.00     0.043 A 
HETATM   29  C30 UNL     1      15.292  23.948  64.019  1.00  0.00     0.042 A 
BRANCH  28  30
HETATM   30  N1  UNL     1      16.495  25.993  64.686  1.00  0.00    -0.279 N 
ATOM     31  H1  UNL     1      16.025  26.898  64.699  1.00  0.00     0.179 HD
BRANCH  30  32
HETATM   32  S1  UNL     1      18.202  25.901  64.334  1.00  0.00     0.278 S 
HETATM   33  O2  UNL     1      18.933  25.248  65.446  1.00  0.00    -0.199 OA
HETATM   34  O3  UNL     1      18.763  27.252  64.075  1.00  0.00    -0.199 OA
BRANCH  32  35
HETATM   35  C24 UNL     1      18.348  24.892  62.876  1.00  0.00     0.149 A 
HETATM   36  C25 UNL     1      18.786  23.604  62.909  1.00  0.00     0.044 A 
HETATM   37  C26 UNL     1      18.867  22.866  61.746  1.00  0.00     0.020 A 
HETATM   38  C27 UNL     1      18.505  23.430  60.553  1.00  0.00     0.063 A 
HETATM   39  C29 UNL     1      18.060  24.750  60.526  1.00  0.00     0.105 A 
HETATM   40  N2  UNL     1      17.999  25.422  61.671  1.00  0.00    -0.355 N 
ATOM     41  H2  UNL     1      17.674  26.388  61.646  1.00  0.00     0.166 HD
BRANCH  38  42
HETATM   42  C28 UNL     1      18.561  22.673  59.267  1.00  0.00     0.418 C 
HETATM   43  F1  UNL     1      17.937  23.447  58.303  1.00  0.00    -0.166 F 
HETATM   44  F2  UNL     1      17.893  21.450  59.353  1.00  0.00    -0.166 F 
HETATM   45  F3  UNL     1      19.860  22.413  58.946  1.00  0.00    -0.166 F 
ENDBRANCH  38  42
ENDBRANCH  32  35
ENDBRANCH  30  32
ENDBRANCH  28  30
ENDBRANCH   1  24
TORSDOF 12
ENDMDL
