MODEL 2
REMARK VINA RESULT: -11.105621148      0.796      1.139
REMARK  12 active torsions:
REMARK  status: ('A' for Active; 'I' for Inactive)
REMARK    1  A    between atoms: C2_2  and  C3_3 
REMARK    2  A    between atoms: C3_3  and  C4_4 
REMARK    3  A    between atoms: C4_4  and  C5_5 
REMARK    4  A    between atoms: C6_6  and  C7_7 
REMARK    5  A    between atoms: C14_14  and  O1_15 
REMARK    6  A    between atoms: C15_17  and  C16_18 
REMARK    7  A    between atoms: C16_18  and  C17_19 
REMARK    8  A    between atoms: C16_18  and  C19_21 
REMARK    9  A    between atoms: C23_25  and  N1_26 
REMARK   10  A    between atoms: N1_26  and  S1_28 
REMARK   11  A    between atoms: S1_28  and  C24_31 
REMARK   12  A    between atoms: C27_34  and  C28_35 
ROOT
HETATM    1  C16 UNL     1      10.571  19.949  64.116  1.00  0.00    -0.029 C 
ENDROOT
BRANCH   1   2
HETATM    2  C15 UNL     1      11.751  20.732  64.279  1.00  0.00     0.075 C 
HETATM    3  C14 UNL     1      12.662  20.484  65.194  1.00  0.00     0.063 C 
HETATM    4  C13 UNL     1      13.899  21.267  65.395  1.00  0.00     0.108 C 
HETATM    5  C4  UNL     1      14.484  21.698  64.044  1.00  0.00     0.094 C 
HETATM    6  O5  UNL     1      13.311  22.490  63.526  1.00  0.00    -0.301 OA
HETATM    7  C31 UNL     1      12.119  21.843  63.368  1.00  0.00     0.297 C 
HETATM    8  O4  UNL     1      11.265  22.122  62.478  1.00  0.00    -0.259 OA
BRANCH   3   9
HETATM    9  O1  UNL     1      12.413  19.375  66.036  1.00  0.00    -0.364 OA
ATOM     10  H1  UNL     1      11.908  18.646  65.695  1.00  0.00     0.217 HD
ENDBRANCH   3   9
BRANCH   5  11
HETATM   11  C3  UNL     1      15.519  22.707  64.115  1.00  0.00     0.043 C 
BRANCH  11  12
HETATM   12  C2  UNL     1      15.796  23.586  65.238  1.00  0.00    -0.001 C 
HETATM   13  C1  UNL     1      15.007  24.842  65.412  1.00  0.00     0.005 C 
ENDBRANCH  11  12
ENDBRANCH   5  11
BRANCH   5  14
HETATM   14  C5  UNL     1      14.568  20.597  63.083  1.00  0.00     0.013 C 
HETATM   15  C6  UNL     1      14.534  20.770  61.649  1.00  0.00     0.010 C 
BRANCH  15  16
HETATM   16  C7  UNL     1      15.495  21.437  60.800  1.00  0.00    -0.036 A 
HETATM   17  C8  UNL     1      15.473  22.748  60.412  1.00  0.00     0.011 A 
HETATM   18  C9  UNL     1      16.351  23.258  59.516  1.00  0.00     0.001 A 
HETATM   19  C10 UNL     1      17.329  22.482  58.937  1.00  0.00     0.000 A 
HETATM   20  C11 UNL     1      17.357  21.159  59.325  1.00  0.00     0.001 A 
HETATM   21  C12 UNL     1      16.489  20.615  60.223  1.00  0.00     0.011 A 
ENDBRANCH  15  16
ENDBRANCH   5  14
ENDBRANCH   1   2
BRANCH   1  22
HETATM   22  C17 UNL     1       9.824  19.463  65.287  1.00  0.00     0.036 C 
HETATM   23  C18 UNL     1       9.305  20.444  66.262  1.00  0.00     0.010 C 
ENDBRANCH   1  22
BRANCH   1  24
HETATM   24  C19 UNL     1      10.586  18.943  63.052  1.00  0.00    -0.027 A 
HETATM   25  C20 UNL     1      11.714  18.537  62.371  1.00  0.00     0.012 A 
HETATM   26  C21 UNL     1      11.688  17.614  61.341  1.00  0.00     0.003 A 
HETATM   27  C22 UNL     1      10.493  17.069  60.967  1.00  0.00     0.030 A 
HETATM   28  C23 UNL     1       9.305  17.444  61.623  1.00  0.00     0.043 A 
HETATM   29  C30 UNL     1       9.379  18.354  62.629  1.00  0.00     0.042 A 
BRANCH  28  30
HETATM   30  N1  UNL     1       8.113  16.885  61.108  1.00  0.00    -0.279 N 
ATOM     31  H1  UNL     1       7.697  17.264  60.258  1.00  0.00     0.179 HD
BRANCH  30  32
HETATM   32  S1  UNL     1       7.355  15.545  61.928  1.00  0.00     0.278 S 
HETATM   33  O2  UNL     1       8.195  14.327  61.833  1.00  0.00    -0.199 OA
HETATM   34  O3  UNL     1       6.003  15.279  61.371  1.00  0.00    -0.199 OA
BRANCH  32  35
HETATM   35  C24 UNL     1       7.225  16.025  63.636  1.00  0.00     0.149 A 
HETATM   36  C25 UNL     1       8.128  15.645  64.581  1.00  0.00     0.044 A 
HETATM   37  C26 UNL     1       7.981  16.058  65.889  1.00  0.00     0.020 A 
HETATM   38  C27 UNL     1       6.925  16.854  66.240  1.00  0.00     0.063 A 
HETATM   39  C29 UNL     1       6.004  17.238  65.268  1.00  0.00     0.105 A 
HETATM   40  N2  UNL     1       6.185  16.814  64.021  1.00  0.00    -0.355 N 
ATOM     41  H2  UNL     1       5.507  17.096  63.313  1.00  0.00     0.166 HD
BRANCH  38  42
HETATM   42  C28 UNL     1       6.727  17.341  67.638  1.00  0.00     0.418 C 
HETATM   43  F1  UNL     1       5.365  17.339  67.888  1.00  0.00    -0.166 F 
HETATM   44  F2  UNL     1       7.206  18.641  67.810  1.00  0.00    -0.166 F 
HETATM   45  F3  UNL     1       7.403  16.533  68.502  1.00  0.00    -0.166 F 
ENDBRANCH  38  42
ENDBRANCH  32  35
ENDBRANCH  30  32
ENDBRANCH  28  30
ENDBRANCH   1  24
TORSDOF 12
ENDMDL
