MODEL 2
REMARK VINA RESULT: -10.378491246      1.587      3.265
REMARK  12 active torsions:
REMARK  status: ('A' for Active; 'I' for Inactive)
REMARK    1  A    between atoms: C2_2  and  C3_3 
REMARK    2  A    between atoms: C3_3  and  C4_4 
REMARK    3  A    between atoms: C4_4  and  C5_5 
REMARK    4  A    between atoms: C6_6  and  C7_7 
REMARK    5  A    between atoms: C14_14  and  O1_15 
REMARK    6  A    between atoms: C15_17  and  C16_18 
REMARK    7  A    between atoms: C16_18  and  C17_19 
REMARK    8  A    between atoms: C16_18  and  C19_21 
REMARK    9  A    between atoms: C23_25  and  N1_26 
REMARK   10  A    between atoms: N1_26  and  S1_28 
REMARK   11  A    between atoms: S1_28  and  C24_31 
REMARK   12  A    between atoms: C27_34  and  C28_35 
ROOT
HETATM    1  C16 UNL     1      10.805  19.798  63.817  1.00  0.00    -0.029 C 
ENDROOT
BRANCH   1   2
HETATM    2  C15 UNL     1      12.120  20.305  64.033  1.00  0.00     0.075 C 
HETATM    3  C14 UNL     1      13.106  19.576  64.508  1.00  0.00     0.063 C 
HETATM    4  C13 UNL     1      14.482  20.061  64.744  1.00  0.00     0.108 C 
HETATM    5  C4  UNL     1      14.909  21.022  63.628  1.00  0.00     0.094 C 
HETATM    6  O5  UNL     1      13.835  22.065  63.797  1.00  0.00    -0.301 OA
HETATM    7  C31 UNL     1      12.534  21.676  63.647  1.00  0.00     0.297 C 
HETATM    8  O4  UNL     1      11.613  22.415  63.194  1.00  0.00    -0.259 OA
BRANCH   3   9
HETATM    9  O1  UNL     1      12.796  18.229  64.807  1.00  0.00    -0.364 OA
ATOM     10  H1  UNL     1      12.082  17.809  64.342  1.00  0.00     0.217 HD
ENDBRANCH   3   9
BRANCH   5  11
HETATM   11  C3  UNL     1      16.110  21.782  63.897  1.00  0.00     0.043 C 
BRANCH  11  12
HETATM   12  C2  UNL     1      16.241  23.229  63.880  1.00  0.00    -0.001 C 
HETATM   13  C1  UNL     1      17.559  23.853  63.555  1.00  0.00     0.005 C 
ENDBRANCH  11  12
ENDBRANCH   5  11
BRANCH   5  14
HETATM   14  C5  UNL     1      14.632  20.499  62.289  1.00  0.00     0.013 C 
HETATM   15  C6  UNL     1      14.735  21.278  61.077  1.00  0.00     0.010 C 
BRANCH  15  16
HETATM   16  C7  UNL     1      15.915  21.864  60.483  1.00  0.00    -0.036 A 
HETATM   17  C8  UNL     1      17.199  21.407  60.590  1.00  0.00     0.011 A 
HETATM   18  C9  UNL     1      18.260  22.090  60.096  1.00  0.00     0.001 A 
HETATM   19  C10 UNL     1      18.109  23.296  59.450  1.00  0.00     0.000 A 
HETATM   20  C11 UNL     1      16.816  23.762  59.338  1.00  0.00     0.001 A 
HETATM   21  C12 UNL     1      15.728  23.100  59.822  1.00  0.00     0.011 A 
ENDBRANCH  15  16
ENDBRANCH   5  14
ENDBRANCH   1   2
BRANCH   1  22
HETATM   22  C17 UNL     1       9.927  19.480  64.954  1.00  0.00     0.036 C 
HETATM   23  C18 UNL     1       9.842  20.431  66.080  1.00  0.00     0.010 C 
ENDBRANCH   1  22
BRANCH   1  24
HETATM   24  C19 UNL     1      10.641  18.819  62.740  1.00  0.00    -0.027 A 
HETATM   25  C20 UNL     1      11.652  18.397  61.903  1.00  0.00     0.012 A 
HETATM   26  C21 UNL     1      11.455  17.500  60.867  1.00  0.00     0.003 A 
HETATM   27  C22 UNL     1      10.203  17.002  60.649  1.00  0.00     0.030 A 
HETATM   28  C23 UNL     1       9.128  17.396  61.469  1.00  0.00     0.043 A 
HETATM   29  C30 UNL     1       9.369  18.278  62.475  1.00  0.00     0.042 A 
BRANCH  28  30
HETATM   30  N1  UNL     1       7.860  16.886  61.111  1.00  0.00    -0.279 N 
ATOM     31  H1  UNL     1       7.342  17.301  60.337  1.00  0.00     0.179 HD
BRANCH  30  32
HETATM   32  S1  UNL     1       7.179  15.544  61.995  1.00  0.00     0.278 S 
HETATM   33  O2  UNL     1       8.037  14.342  61.866  1.00  0.00    -0.199 OA
HETATM   34  O3  UNL     1       5.802  15.244  61.524  1.00  0.00    -0.199 OA
BRANCH  32  35
HETATM   35  C24 UNL     1       7.143  16.048  63.701  1.00  0.00     0.149 A 
HETATM   36  C25 UNL     1       8.117  15.714  64.591  1.00  0.00     0.044 A 
HETATM   37  C26 UNL     1       8.040  16.145  65.900  1.00  0.00     0.020 A 
HETATM   38  C27 UNL     1       6.983  16.911  66.306  1.00  0.00     0.063 A 
HETATM   39  C29 UNL     1       5.988  17.247  65.390  1.00  0.00     0.105 A 
HETATM   40  N2  UNL     1       6.103  16.809  64.140  1.00  0.00    -0.355 N 
ATOM     41  H2  UNL     1       5.372  17.056  63.474  1.00  0.00     0.166 HD
BRANCH  38  42
HETATM   42  C28 UNL     1       6.858  17.414  67.707  1.00  0.00     0.418 C 
HETATM   43  F1  UNL     1       7.550  18.611  67.780  1.00  0.00    -0.166 F 
HETATM   44  F2  UNL     1       7.410  16.526  68.631  1.00  0.00    -0.166 F 
HETATM   45  F3  UNL     1       5.540  17.571  68.019  1.00  0.00    -0.166 F 
ENDBRANCH  38  42
ENDBRANCH  32  35
ENDBRANCH  30  32
ENDBRANCH  28  30
ENDBRANCH   1  24
TORSDOF 12
ENDMDL
