MODEL 3
REMARK VINA RESULT: -9.794822969      5.969     10.690
REMARK  12 active torsions:
REMARK  status: ('A' for Active; 'I' for Inactive)
REMARK    1  A    between atoms: C2_2  and  C3_3 
REMARK    2  A    between atoms: C3_3  and  C4_4 
REMARK    3  A    between atoms: C4_4  and  C5_5 
REMARK    4  A    between atoms: C6_6  and  C7_7 
REMARK    5  A    between atoms: C14_14  and  O1_15 
REMARK    6  A    between atoms: C15_17  and  C16_18 
REMARK    7  A    between atoms: C16_18  and  C17_19 
REMARK    8  A    between atoms: C16_18  and  C19_21 
REMARK    9  A    between atoms: C23_25  and  N1_26 
REMARK   10  A    between atoms: N1_26  and  S1_28 
REMARK   11  A    between atoms: S1_28  and  C24_31 
REMARK   12  A    between atoms: C27_34  and  C28_35 
ROOT
HETATM    1  C16 UNL     1      13.951  21.797  62.480  1.00  0.00    -0.029 C 
ENDROOT
BRANCH   1   2
HETATM    2  C15 UNL     1      13.040  20.702  62.437  1.00  0.00     0.075 C 
HETATM    3  C14 UNL     1      13.423  19.446  62.362  1.00  0.00     0.063 C 
HETATM    4  C13 UNL     1      12.513  18.282  62.318  1.00  0.00     0.108 C 
HETATM    5  C4  UNL     1      11.314  18.506  63.248  1.00  0.00     0.094 C 
HETATM    6  O5  UNL     1      10.765  19.761  62.620  1.00  0.00    -0.301 OA
HETATM    7  C31 UNL     1      11.572  20.862  62.576  1.00  0.00     0.297 C 
HETATM    8  O4  UNL     1      11.159  22.056  62.642  1.00  0.00    -0.259 OA
BRANCH   3   9
HETATM    9  O1  UNL     1      14.819  19.222  62.322  1.00  0.00    -0.364 OA
ATOM     10  H1  UNL     1      15.227  19.025  61.487  1.00  0.00     0.217 HD
ENDBRANCH   3   9
BRANCH   5  11
HETATM   11  C3  UNL     1      10.217  17.579  63.072  1.00  0.00     0.043 C 
BRANCH  11  12
HETATM   12  C2  UNL     1       9.239  17.587  61.998  1.00  0.00    -0.001 C 
HETATM   13  C1  UNL     1       9.502  16.817  60.746  1.00  0.00     0.005 C 
ENDBRANCH  11  12
ENDBRANCH   5  11
BRANCH   5  14
HETATM   14  C5  UNL     1      11.706  18.967  64.581  1.00  0.00     0.013 C 
HETATM   15  C6  UNL     1      10.827  19.674  65.484  1.00  0.00     0.010 C 
BRANCH  15  16
HETATM   16  C7  UNL     1       9.623  19.197  66.124  1.00  0.00    -0.036 A 
HETATM   17  C8  UNL     1       9.541  18.478  67.285  1.00  0.00     0.011 A 
HETATM   18  C9  UNL     1       8.374  17.971  67.748  1.00  0.00     0.001 A 
HETATM   19  C10 UNL     1       7.187  18.150  67.073  1.00  0.00     0.000 A 
HETATM   20  C11 UNL     1       7.263  18.874  65.903  1.00  0.00     0.001 A 
HETATM   21  C12 UNL     1       8.420  19.399  65.410  1.00  0.00     0.011 A 
ENDBRANCH  15  16
ENDBRANCH   5  14
ENDBRANCH   1   2
BRANCH   1  22
HETATM   22  C17 UNL     1      15.118  21.839  61.585  1.00  0.00     0.036 C 
HETATM   23  C18 UNL     1      14.905  22.070  60.142  1.00  0.00     0.010 C 
ENDBRANCH   1  22
BRANCH   1  24
HETATM   24  C19 UNL     1      14.289  22.326  63.804  1.00  0.00    -0.027 A 
HETATM   25  C20 UNL     1      13.957  21.722  64.998  1.00  0.00     0.012 A 
HETATM   26  C21 UNL     1      14.255  22.269  66.233  1.00  0.00     0.003 A 
HETATM   27  C22 UNL     1      14.908  23.467  66.289  1.00  0.00     0.030 A 
HETATM   28  C23 UNL     1      15.273  24.133  65.104  1.00  0.00     0.043 A 
HETATM   29  C30 UNL     1      14.961  23.558  63.914  1.00  0.00     0.042 A 
BRANCH  28  30
HETATM   30  N1  UNL     1      15.873  25.403  65.270  1.00  0.00    -0.279 N 
ATOM     31  H1  UNL     1      15.293  26.221  65.454  1.00  0.00     0.179 HD
BRANCH  30  32
HETATM   32  S1  UNL     1      17.607  25.568  65.161  1.00  0.00     0.278 S 
HETATM   33  O2  UNL     1      18.275  24.819  66.251  1.00  0.00    -0.199 OA
HETATM   34  O3  UNL     1      18.005  26.999  65.201  1.00  0.00    -0.199 OA
BRANCH  32  35
HETATM   35  C24 UNL     1      18.070  24.851  63.600  1.00  0.00     0.149 A 
HETATM   36  C25 UNL     1      18.549  23.583  63.482  1.00  0.00     0.044 A 
HETATM   37  C26 UNL     1      18.882  23.077  62.242  1.00  0.00     0.020 A 
HETATM   38  C27 UNL     1      18.728  23.852  61.125  1.00  0.00     0.063 A 
HETATM   39  C29 UNL     1      18.239  25.150  61.253  1.00  0.00     0.105 A 
HETATM   40  N2  UNL     1      17.933  25.595  62.468  1.00  0.00    -0.355 N 
ATOM     41  H2  UNL     1      17.576  26.547  62.556  1.00  0.00     0.166 HD
BRANCH  38  42
HETATM   42  C28 UNL     1      19.060  23.349  59.758  1.00  0.00     0.418 C 
HETATM   43  F1  UNL     1      19.741  24.359  59.099  1.00  0.00    -0.166 F 
HETATM   44  F2  UNL     1      17.913  23.038  59.025  1.00  0.00    -0.166 F 
HETATM   45  F3  UNL     1      19.808  22.214  59.858  1.00  0.00    -0.166 F 
ENDBRANCH  38  42
ENDBRANCH  32  35
ENDBRANCH  30  32
ENDBRANCH  28  30
ENDBRANCH   1  24
TORSDOF 12
ENDMDL
