MODEL 8
REMARK VINA RESULT: -9.503615165      6.379     11.497
REMARK  12 active torsions:
REMARK  status: ('A' for Active; 'I' for Inactive)
REMARK    1  A    between atoms: C2_2  and  C3_3 
REMARK    2  A    between atoms: C3_3  and  C4_4 
REMARK    3  A    between atoms: C4_4  and  C5_5 
REMARK    4  A    between atoms: C6_6  and  C7_7 
REMARK    5  A    between atoms: C14_14  and  O1_15 
REMARK    6  A    between atoms: C15_17  and  C16_18 
REMARK    7  A    between atoms: C16_18  and  C17_19 
REMARK    8  A    between atoms: C16_18  and  C19_21 
REMARK    9  A    between atoms: C23_25  and  N1_26 
REMARK   10  A    between atoms: N1_26  and  S1_28 
REMARK   11  A    between atoms: S1_28  and  C24_31 
REMARK   12  A    between atoms: C27_34  and  C28_35 
ROOT
HETATM    1  C16 UNL     1      14.322  22.281  63.308  1.00  0.00    -0.029 C 
ENDROOT
BRANCH   1   2
HETATM    2  C15 UNL     1      13.447  21.255  63.770  1.00  0.00     0.075 C 
HETATM    3  C14 UNL     1      12.137  21.345  63.719  1.00  0.00     0.063 C 
HETATM    4  C13 UNL     1      11.195  20.305  64.183  1.00  0.00     0.108 C 
HETATM    5  C4  UNL     1      11.730  18.909  63.841  1.00  0.00     0.094 C 
HETATM    6  O5  UNL     1      13.032  18.967  64.599  1.00  0.00    -0.301 OA
HETATM    7  C31 UNL     1      13.928  19.940  64.259  1.00  0.00     0.297 C 
HETATM    8  O4  UNL     1      15.184  19.813  64.334  1.00  0.00    -0.259 OA
BRANCH   3   9
HETATM    9  O1  UNL     1      11.616  22.541  63.172  1.00  0.00    -0.364 OA
ATOM     10  H1  UNL     1      11.595  22.641  62.227  1.00  0.00     0.217 HD
ENDBRANCH   3   9
BRANCH   5  11
HETATM   11  C3  UNL     1      11.051  17.812  64.496  1.00  0.00     0.043 C 
BRANCH  11  12
HETATM   12  C2  UNL     1       9.640  17.745  64.836  1.00  0.00    -0.001 C 
HETATM   13  C1  UNL     1       8.819  16.584  64.378  1.00  0.00     0.005 C 
ENDBRANCH  11  12
ENDBRANCH   5  11
BRANCH   5  14
HETATM   14  C5  UNL     1      12.179  18.796  62.453  1.00  0.00     0.013 C 
HETATM   15  C6  UNL     1      11.936  17.646  61.613  1.00  0.00     0.010 C 
BRANCH  15  16
HETATM   16  C7  UNL     1      10.673  17.137  61.129  1.00  0.00    -0.036 A 
HETATM   17  C8  UNL     1       9.471  17.790  61.132  1.00  0.00     0.011 A 
HETATM   18  C9  UNL     1       8.313  17.189  60.767  1.00  0.00     0.001 A 
HETATM   19  C10 UNL     1       8.275  15.873  60.365  1.00  0.00     0.000 A 
HETATM   20  C11 UNL     1       9.484  15.210  60.359  1.00  0.00     0.001 A 
HETATM   21  C12 UNL     1      10.665  15.785  60.719  1.00  0.00     0.011 A 
ENDBRANCH  15  16
ENDBRANCH   5  14
ENDBRANCH   1   2
BRANCH   1  22
HETATM   22  C17 UNL     1      15.229  22.041  62.174  1.00  0.00     0.036 C 
HETATM   23  C18 UNL     1      14.666  21.550  60.900  1.00  0.00     0.010 C 
ENDBRANCH   1  22
BRANCH   1  24
HETATM   24  C19 UNL     1      14.970  23.108  64.328  1.00  0.00    -0.027 A 
HETATM   25  C20 UNL     1      14.356  23.563  65.475  1.00  0.00     0.012 A 
HETATM   26  C21 UNL     1      14.984  24.379  66.400  1.00  0.00     0.003 A 
HETATM   27  C22 UNL     1      16.275  24.763  66.179  1.00  0.00     0.030 A 
HETATM   28  C23 UNL     1      16.956  24.332  65.024  1.00  0.00     0.043 A 
HETATM   29  C30 UNL     1      16.300  23.531  64.145  1.00  0.00     0.042 A 
BRANCH  28  30
HETATM   30  N1  UNL     1      18.260  24.849  64.849  1.00  0.00    -0.279 N 
ATOM     31  H1  UNL     1      19.046  24.432  65.346  1.00  0.00     0.179 HD
BRANCH  30  32
HETATM   32  S1  UNL     1      18.524  26.202  63.778  1.00  0.00     0.278 S 
HETATM   33  O2  UNL     1      19.849  26.818  64.029  1.00  0.00    -0.199 OA
HETATM   34  O3  UNL     1      17.449  27.216  63.932  1.00  0.00    -0.199 OA
BRANCH  32  35
HETATM   35  C24 UNL     1      18.500  25.535  62.129  1.00  0.00     0.149 A 
HETATM   36  C25 UNL     1      18.925  24.276  61.835  1.00  0.00     0.044 A 
HETATM   37  C26 UNL     1      18.871  23.810  60.538  1.00  0.00     0.020 A 
HETATM   38  C27 UNL     1      18.388  24.613  59.542  1.00  0.00     0.063 A 
HETATM   39  C29 UNL     1      17.957  25.902  59.850  1.00  0.00     0.105 A 
HETATM   40  N2  UNL     1      18.029  26.309  61.113  1.00  0.00    -0.355 N 
ATOM     41  H2  UNL     1      17.713  27.254  61.334  1.00  0.00     0.166 HD
BRANCH  38  42
HETATM   42  C28 UNL     1      18.295  24.154  58.124  1.00  0.00     0.418 C 
HETATM   43  F1  UNL     1      17.186  23.331  58.027  1.00  0.00    -0.166 F 
HETATM   44  F2  UNL     1      19.422  23.426  57.737  1.00  0.00    -0.166 F 
HETATM   45  F3  UNL     1      18.198  25.235  57.299  1.00  0.00    -0.166 F 
ENDBRANCH  38  42
ENDBRANCH  32  35
ENDBRANCH  30  32
ENDBRANCH  28  30
ENDBRANCH   1  24
TORSDOF 12
ENDMDL
