MODEL 5
REMARK VINA RESULT: -9.651155779      3.016      4.116
REMARK  12 active torsions:
REMARK  status: ('A' for Active; 'I' for Inactive)
REMARK    1  A    between atoms: C2_2  and  C3_3 
REMARK    2  A    between atoms: C3_3  and  C4_4 
REMARK    3  A    between atoms: C4_4  and  C5_5 
REMARK    4  A    between atoms: C6_6  and  C7_7 
REMARK    5  A    between atoms: C14_14  and  O1_15 
REMARK    6  A    between atoms: C15_17  and  C16_18 
REMARK    7  A    between atoms: C16_18  and  C17_19 
REMARK    8  A    between atoms: C16_18  and  C19_21 
REMARK    9  A    between atoms: C23_25  and  N1_26 
REMARK   10  A    between atoms: N1_26  and  S1_28 
REMARK   11  A    between atoms: S1_28  and  C24_31 
REMARK   12  A    between atoms: C27_34  and  C28_35 
ROOT
HETATM    1  C16 UNL     1      10.651  18.575  63.322  1.00  0.00    -0.029 C 
ENDROOT
BRANCH   1   2
HETATM    2  C15 UNL     1      11.710  19.312  62.715  1.00  0.00     0.075 C 
HETATM    3  C14 UNL     1      11.812  20.620  62.785  1.00  0.00     0.063 C 
HETATM    4  C13 UNL     1      12.893  21.422  62.174  1.00  0.00     0.108 C 
HETATM    5  C4  UNL     1      14.236  20.692  62.302  1.00  0.00     0.094 C 
HETATM    6  O5  UNL     1      13.886  19.430  61.556  1.00  0.00    -0.301 OA
HETATM    7  C31 UNL     1      12.859  18.667  62.033  1.00  0.00     0.297 C 
HETATM    8  O4  UNL     1      12.797  17.408  61.935  1.00  0.00    -0.259 OA
BRANCH   3   9
HETATM    9  O1  UNL     1      10.794  21.287  63.506  1.00  0.00    -0.364 OA
ATOM     10  H1  UNL     1      10.711  21.122  64.438  1.00  0.00     0.217 HD
ENDBRANCH   3   9
BRANCH   5  11
HETATM   11  C3  UNL     1      15.308  21.230  61.493  1.00  0.00     0.043 C 
BRANCH  11  12
HETATM   12  C2  UNL     1      15.182  21.845  60.183  1.00  0.00    -0.001 C 
HETATM   13  C1  UNL     1      15.775  23.193  59.933  1.00  0.00     0.005 C 
ENDBRANCH  11  12
ENDBRANCH   5  11
BRANCH   5  14
HETATM   14  C5  UNL     1      14.488  20.197  63.656  1.00  0.00     0.013 C 
HETATM   15  C6  UNL     1      15.266  20.905  64.646  1.00  0.00     0.010 C 
BRANCH  15  16
HETATM   16  C7  UNL     1      14.975  22.170  65.283  1.00  0.00    -0.036 A 
HETATM   17  C8  UNL     1      15.240  23.416  64.787  1.00  0.00     0.011 A 
HETATM   18  C9  UNL     1      15.041  24.546  65.508  1.00  0.00     0.001 A 
HETATM   19  C10 UNL     1      14.553  24.508  66.795  1.00  0.00     0.000 A 
HETATM   20  C11 UNL     1      14.283  23.254  67.300  1.00  0.00     0.001 A 
HETATM   21  C12 UNL     1      14.472  22.099  66.602  1.00  0.00     0.011 A 
ENDBRANCH  15  16
ENDBRANCH   5  14
ENDBRANCH   1   2
BRANCH   1  22
HETATM   22  C17 UNL     1       9.366  18.397  62.627  1.00  0.00     0.036 C 
HETATM   23  C18 UNL     1       9.271  17.393  61.548  1.00  0.00     0.010 C 
ENDBRANCH   1  22
BRANCH   1  24
HETATM   24  C19 UNL     1      10.444  18.773  64.759  1.00  0.00    -0.027 A 
HETATM   25  C20 UNL     1      11.453  18.975  65.675  1.00  0.00     0.012 A 
HETATM   26  C21 UNL     1      11.228  19.117  67.034  1.00  0.00     0.003 A 
HETATM   27  C22 UNL     1       9.948  19.054  67.504  1.00  0.00     0.030 A 
HETATM   28  C23 UNL     1       8.874  18.847  66.617  1.00  0.00     0.043 A 
HETATM   29  C30 UNL     1       9.143  18.714  65.292  1.00  0.00     0.042 A 
BRANCH  28  30
HETATM   30  N1  UNL     1       7.598  18.717  67.213  1.00  0.00    -0.279 N 
ATOM     31  H1  UNL     1       7.096  19.545  67.531  1.00  0.00     0.179 HD
BRANCH  30  32
HETATM   32  S1  UNL     1       6.883  17.136  67.403  1.00  0.00     0.278 S 
HETATM   33  O2  UNL     1       5.653  17.213  68.228  1.00  0.00    -0.199 OA
HETATM   34  O3  UNL     1       7.851  16.187  68.013  1.00  0.00    -0.199 OA
BRANCH  32  35
HETATM   35  C24 UNL     1       6.448  16.594  65.766  1.00  0.00     0.149 A 
HETATM   36  C25 UNL     1       7.298  15.889  64.970  1.00  0.00     0.044 A 
HETATM   37  C26 UNL     1       6.899  15.486  63.712  1.00  0.00     0.020 A 
HETATM   38  C27 UNL     1       5.645  15.794  63.261  1.00  0.00     0.063 A 
HETATM   39  C29 UNL     1       4.781  16.518  64.080  1.00  0.00     0.105 A 
HETATM   40  N2  UNL     1       5.209  16.886  65.284  1.00  0.00    -0.355 N 
ATOM     41  H2  UNL     1       4.573  17.417  65.879  1.00  0.00     0.166 HD
BRANCH  38  42
HETATM   42  C28 UNL     1       5.159  15.370  61.914  1.00  0.00     0.418 C 
HETATM   43  F1  UNL     1       4.773  14.044  62.011  1.00  0.00    -0.166 F 
HETATM   44  F2  UNL     1       6.157  15.471  60.944  1.00  0.00    -0.166 F 
HETATM   45  F3  UNL     1       4.125  16.172  61.530  1.00  0.00    -0.166 F 
ENDBRANCH  38  42
ENDBRANCH  32  35
ENDBRANCH  30  32
ENDBRANCH  28  30
ENDBRANCH   1  24
TORSDOF 12
ENDMDL
