MODEL 4
REMARK VINA RESULT: -10.921578873      1.215      2.121
REMARK  16 active torsions:
REMARK  status: ('A' for Active; 'I' for Inactive)
REMARK    1  A    between atoms: C8_8  and  O1_9 
REMARK    2  A    between atoms: O1_9  and  C9_10 
REMARK    3  A    between atoms: C9_10  and  C10_11 
REMARK       I    between atoms: C10_11  and  N1_13 
REMARK    4  A    between atoms: N1_13  and  C11_15 
REMARK    5  A    between atoms: C11_15  and  C12_16 
REMARK    6  A    between atoms: C11_15  and  C19_23 
REMARK    7  A    between atoms: C12_16  and  C13_17 
REMARK    8  A    between atoms: C19_23  and  O3_24 
REMARK    9  A    between atoms: C19_23  and  C20_26 
REMARK   10  A    between atoms: C20_26  and  C21_27 
REMARK   11  A    between atoms: C21_27  and  C22_28 
REMARK   12  A    between atoms: C21_27  and  N2_35 
REMARK   13  A    between atoms: C22_28  and  C23_29 
REMARK       I    between atoms: N2_35  and  C29_37 
REMARK   14  A    between atoms: C29_37  and  C30_39 
REMARK   15  A    between atoms: C30_39  and  C31_40 
REMARK   16  A    between atoms: C30_39  and  N3_43 
ROOT
HETATM    1  C19 UNL     1      13.342  19.219  64.573  1.00  0.00     0.143 C 
ENDROOT
BRANCH   1   2
HETATM    2  C11 UNL     1      14.342  20.143  63.869  1.00  0.00     0.117 C 
BRANCH   2   3
HETATM    3  N1  UNL     1      15.179  20.881  64.732  1.00  0.00    -0.352 N 
HETATM    4  C10 UNL     1      15.101  22.308  64.903  1.00  0.00     0.242 C 
HETATM    5  O2  UNL     1      14.208  22.826  64.214  1.00  0.00    -0.271 OA
ATOM      6  H1  UNL     1      15.883  20.373  65.267  1.00  0.00     0.163 HD
BRANCH   4   7
HETATM    7  C9  UNL     1      16.035  22.974  65.826  1.00  0.00     0.278 C 
BRANCH   7   8
HETATM    8  O1  UNL     1      17.315  23.187  65.493  1.00  0.00    -0.341 OA
BRANCH   8   9
HETATM    9  C8  UNL     1      17.905  24.239  64.884  1.00  0.00     0.081 A 
HETATM   10  C2  UNL     1      18.197  24.254  63.550  1.00  0.00    -0.028 A 
HETATM   11  C1  UNL     1      17.801  23.103  62.680  1.00  0.00     0.051 C 
HETATM   12  C3  UNL     1      18.812  25.316  62.891  1.00  0.00     0.009 A 
HETATM   13  C4  UNL     1      19.136  26.426  63.681  1.00  0.00     0.001 A 
HETATM   14  C5  UNL     1      18.850  26.438  65.031  1.00  0.00     0.009 A 
HETATM   15  C6  UNL     1      18.249  25.377  65.633  1.00  0.00    -0.028 A 
HETATM   16  C7  UNL     1      17.930  25.365  67.066  1.00  0.00     0.051 C 
ENDBRANCH   8   9
ENDBRANCH   7   8
ENDBRANCH   4   7
ENDBRANCH   2   3
BRANCH   2  17
HETATM   17  C12 UNL     1      15.032  19.445  62.734  1.00  0.00     0.066 C 
BRANCH  17  18
HETATM   18  C13 UNL     1      15.079  20.244  61.490  1.00  0.00    -0.056 A 
HETATM   19  C14 UNL     1      16.247  20.446  60.797  1.00  0.00     0.007 A 
HETATM   20  C15 UNL     1      16.257  21.187  59.638  1.00  0.00     0.001 A 
HETATM   21  C16 UNL     1      15.058  21.723  59.187  1.00  0.00     0.000 A 
HETATM   22  C17 UNL     1      13.872  21.534  59.865  1.00  0.00     0.001 A 
HETATM   23  C18 UNL     1      13.897  20.780  61.035  1.00  0.00     0.007 A 
ENDBRANCH  17  18
ENDBRANCH   2  17
ENDBRANCH   1   2
BRANCH   1  24
HETATM   24  O3  UNL     1      14.033  18.064  64.923  1.00  0.00    -0.393 OA
ATOM     25  H3  UNL     1      13.875  17.917  65.848  1.00  0.00     0.210 HD
ENDBRANCH   1  24
BRANCH   1  26
HETATM   26  C20 UNL     1      12.550  19.852  65.619  1.00  0.00     0.059 C 
BRANCH  26  27
HETATM   27  C21 UNL     1      11.076  19.609  65.674  1.00  0.00     0.091 C 
BRANCH  27  28
HETATM   28  C22 UNL     1      10.465  19.488  67.007  1.00  0.00     0.063 C 
BRANCH  28  29
HETATM   29  C23 UNL     1       9.014  19.265  67.089  1.00  0.00    -0.056 A 
HETATM   30  C24 UNL     1       8.467  18.021  67.387  1.00  0.00     0.007 A 
HETATM   31  C25 UNL     1       7.105  17.812  67.437  1.00  0.00     0.001 A 
HETATM   32  C26 UNL     1       6.250  18.865  67.183  1.00  0.00     0.000 A 
HETATM   33  C27 UNL     1       6.739  20.112  66.885  1.00  0.00     0.001 A 
HETATM   34  C28 UNL     1       8.089  20.284  66.845  1.00  0.00     0.007 A 
ENDBRANCH  28  29
ENDBRANCH  27  28
BRANCH  27  35
HETATM   35  N2  UNL     1      10.690  18.476  64.833  1.00  0.00    -0.354 N 
HETATM   36  C29 UNL     1       9.765  18.575  63.757  1.00  0.00     0.241 C 
HETATM   37  O4  UNL     1       9.250  19.735  63.544  1.00  0.00    -0.271 OA
ATOM     38  H2  UNL     1      11.107  17.566  65.029  1.00  0.00     0.162 HD
BRANCH  36  39
HETATM   39  C30 UNL     1       9.382  17.449  62.909  1.00  0.00     0.184 C 
BRANCH  39  40
HETATM   40  C31 UNL     1       9.784  17.586  61.457  1.00  0.00     0.010 C 
HETATM   41  C32 UNL     1      11.091  18.296  61.254  1.00  0.00     0.012 C 
HETATM   42  C33 UNL     1       9.637  16.317  60.658  1.00  0.00     0.012 C 
ENDBRANCH  39  40
BRANCH  39  43
HETATM   43  N3  UNL     1       7.999  17.113  63.067  1.00  0.00    -0.320 N 
HETATM   44  C34 UNL     1       6.869  17.771  62.483  1.00  0.00     0.130 C 
HETATM   45  C35 UNL     1       6.069  16.771  61.684  1.00  0.00     0.040 C 
HETATM   46  C36 UNL     1       5.721  15.540  62.481  1.00  0.00     0.126 C 
HETATM   47  N4  UNL     1       6.336  15.498  63.787  1.00  0.00    -0.343 N 
HETATM   48  C37 UNL     1       7.667  15.981  63.912  1.00  0.00     0.319 C 
ATOM     49  H4  UNL     1       5.830  15.135  64.595  1.00  0.00     0.164 HD
HETATM   50  O5  UNL     1       8.519  15.502  64.675  1.00  0.00    -0.247 OA
ENDBRANCH  39  43
ENDBRANCH  36  39
ENDBRANCH  27  35
ENDBRANCH  26  27
ENDBRANCH   1  26
TORSDOF 16
ENDMDL
