MODEL 6
REMARK VINA RESULT: -10.775283066      1.027      1.586
REMARK  16 active torsions:
REMARK  status: ('A' for Active; 'I' for Inactive)
REMARK    1  A    between atoms: C8_8  and  O1_9 
REMARK    2  A    between atoms: O1_9  and  C9_10 
REMARK    3  A    between atoms: C9_10  and  C10_11 
REMARK       I    between atoms: C10_11  and  N1_13 
REMARK    4  A    between atoms: N1_13  and  C11_15 
REMARK    5  A    between atoms: C11_15  and  C12_16 
REMARK    6  A    between atoms: C11_15  and  C19_23 
REMARK    7  A    between atoms: C12_16  and  C13_17 
REMARK    8  A    between atoms: C19_23  and  O3_24 
REMARK    9  A    between atoms: C19_23  and  C20_26 
REMARK   10  A    between atoms: C20_26  and  C21_27 
REMARK   11  A    between atoms: C21_27  and  C22_28 
REMARK   12  A    between atoms: C21_27  and  N2_35 
REMARK   13  A    between atoms: C22_28  and  C23_29 
REMARK       I    between atoms: N2_35  and  C29_37 
REMARK   14  A    between atoms: C29_37  and  C30_39 
REMARK   15  A    between atoms: C30_39  and  C31_40 
REMARK   16  A    between atoms: C30_39  and  N3_43 
ROOT
HETATM    1  C19 UNL     1      12.731  18.834  64.647  1.00  0.00     0.143 C 
ENDROOT
BRANCH   1   2
HETATM    2  C11 UNL     1      13.639  19.893  64.014  1.00  0.00     0.117 C 
BRANCH   2   3
HETATM    3  N1  UNL     1      14.196  20.819  64.920  1.00  0.00    -0.352 N 
HETATM    4  C10 UNL     1      13.711  22.163  65.098  1.00  0.00     0.242 C 
HETATM    5  O2  UNL     1      12.739  22.422  64.371  1.00  0.00    -0.271 OA
ATOM      6  H1  UNL     1      14.991  20.518  65.485  1.00  0.00     0.163 HD
BRANCH   4   7
HETATM    7  C9  UNL     1      14.378  23.046  66.070  1.00  0.00     0.278 C 
BRANCH   7   8
HETATM    8  O1  UNL     1      15.684  22.925  66.343  1.00  0.00    -0.341 OA
BRANCH   8   9
HETATM    9  C8  UNL     1      16.693  23.817  66.238  1.00  0.00     0.081 A 
HETATM   10  C2  UNL     1      17.022  24.684  67.242  1.00  0.00    -0.028 A 
HETATM   11  C1  UNL     1      16.301  24.628  68.551  1.00  0.00     0.051 C 
HETATM   12  C3  UNL     1      18.050  25.621  67.166  1.00  0.00     0.009 A 
HETATM   13  C4  UNL     1      18.773  25.646  65.968  1.00  0.00     0.001 A 
HETATM   14  C5  UNL     1      18.464  24.780  64.939  1.00  0.00     0.009 A 
HETATM   15  C6  UNL     1      17.450  23.881  65.057  1.00  0.00    -0.028 A 
HETATM   16  C7  UNL     1      17.102  22.945  63.979  1.00  0.00     0.051 C 
ENDBRANCH   8   9
ENDBRANCH   7   8
ENDBRANCH   4   7
ENDBRANCH   2   3
BRANCH   2  17
HETATM   17  C12 UNL     1      14.601  19.282  63.037  1.00  0.00     0.066 C 
BRANCH  17  18
HETATM   18  C13 UNL     1      14.756  20.065  61.791  1.00  0.00    -0.056 A 
HETATM   19  C14 UNL     1      13.694  20.694  61.189  1.00  0.00     0.007 A 
HETATM   20  C15 UNL     1      13.871  21.423  60.037  1.00  0.00     0.001 A 
HETATM   21  C16 UNL     1      15.148  21.506  59.498  1.00  0.00     0.000 A 
HETATM   22  C17 UNL     1      16.230  20.884  60.084  1.00  0.00     0.001 A 
HETATM   23  C18 UNL     1      16.017  20.154  61.250  1.00  0.00     0.007 A 
ENDBRANCH  17  18
ENDBRANCH   2  17
ENDBRANCH   1   2
BRANCH   1  24
HETATM   24  O3  UNL     1      13.537  17.747  64.966  1.00  0.00    -0.393 OA
ATOM     25  H3  UNL     1      12.957  17.021  65.163  1.00  0.00     0.210 HD
ENDBRANCH   1  24
BRANCH   1  26
HETATM   26  C20 UNL     1      11.848  19.327  65.695  1.00  0.00     0.059 C 
BRANCH  26  27
HETATM   27  C21 UNL     1      10.393  18.989  65.650  1.00  0.00     0.091 C 
BRANCH  27  28
HETATM   28  C22 UNL     1       9.736  18.678  66.929  1.00  0.00     0.063 C 
BRANCH  28  29
HETATM   29  C23 UNL     1       8.278  18.847  67.021  1.00  0.00    -0.056 A 
HETATM   30  C24 UNL     1       7.421  17.787  67.305  1.00  0.00     0.007 A 
HETATM   31  C25 UNL     1       6.053  17.947  67.364  1.00  0.00     0.001 A 
HETATM   32  C26 UNL     1       5.508  19.193  67.135  1.00  0.00     0.000 A 
HETATM   33  C27 UNL     1       6.308  20.271  66.852  1.00  0.00     0.001 A 
HETATM   34  C28 UNL     1       7.655  20.078  66.802  1.00  0.00     0.007 A 
ENDBRANCH  28  29
ENDBRANCH  27  28
BRANCH  27  35
HETATM   35  N2  UNL     1      10.119  17.939  64.669  1.00  0.00    -0.354 N 
HETATM   36  C29 UNL     1       9.237  18.105  63.566  1.00  0.00     0.241 C 
HETATM   37  O4  UNL     1       8.656  19.249  63.457  1.00  0.00    -0.271 OA
ATOM     38  H2  UNL     1      10.585  17.039  64.783  1.00  0.00     0.162 HD
BRANCH  36  39
HETATM   39  C30 UNL     1       8.966  17.063  62.579  1.00  0.00     0.184 C 
BRANCH  39  40
HETATM   40  C31 UNL     1       9.515  17.341  61.197  1.00  0.00     0.010 C 
HETATM   41  C32 UNL     1      10.739  18.210  61.196  1.00  0.00     0.012 C 
HETATM   42  C33 UNL     1       9.621  16.120  60.321  1.00  0.00     0.012 C 
ENDBRANCH  39  40
BRANCH  39  43
HETATM   43  N3  UNL     1       7.580  16.702  62.556  1.00  0.00    -0.320 N 
HETATM   44  C34 UNL     1       6.964  15.564  63.171  1.00  0.00     0.130 C 
HETATM   45  C35 UNL     1       5.875  16.033  64.106  1.00  0.00     0.040 C 
HETATM   46  C36 UNL     1       4.905  16.974  63.439  1.00  0.00     0.126 C 
HETATM   47  N4  UNL     1       5.285  17.348  62.096  1.00  0.00    -0.343 N 
HETATM   48  C37 UNL     1       6.665  17.564  61.832  1.00  0.00     0.319 C 
ATOM     49  H4  UNL     1       4.586  17.452  61.361  1.00  0.00     0.164 HD
HETATM   50  O5  UNL     1       7.104  18.418  61.046  1.00  0.00    -0.247 OA
ENDBRANCH  39  43
ENDBRANCH  36  39
ENDBRANCH  27  35
ENDBRANCH  26  27
ENDBRANCH   1  26
TORSDOF 16
ENDMDL
