MODEL 3
REMARK VINA RESULT: -10.942814216      1.218      1.791
REMARK  16 active torsions:
REMARK  status: ('A' for Active; 'I' for Inactive)
REMARK    1  A    between atoms: C8_8  and  O1_9 
REMARK    2  A    between atoms: O1_9  and  C9_10 
REMARK    3  A    between atoms: C9_10  and  C10_11 
REMARK       I    between atoms: C10_11  and  N1_13 
REMARK    4  A    between atoms: N1_13  and  C11_15 
REMARK    5  A    between atoms: C11_15  and  C12_16 
REMARK    6  A    between atoms: C11_15  and  C19_23 
REMARK    7  A    between atoms: C12_16  and  C13_17 
REMARK    8  A    between atoms: C19_23  and  O3_24 
REMARK    9  A    between atoms: C19_23  and  C20_26 
REMARK   10  A    between atoms: C20_26  and  C21_27 
REMARK   11  A    between atoms: C21_27  and  C22_28 
REMARK   12  A    between atoms: C21_27  and  N2_35 
REMARK   13  A    between atoms: C22_28  and  C23_29 
REMARK       I    between atoms: N2_35  and  C29_37 
REMARK   14  A    between atoms: C29_37  and  C30_39 
REMARK   15  A    between atoms: C30_39  and  C31_40 
REMARK   16  A    between atoms: C30_39  and  N3_43 
ROOT
HETATM    1  C19 UNL     1      13.309  19.183  64.573  1.00  0.00     0.143 C 
ENDROOT
BRANCH   1   2
HETATM    2  C11 UNL     1      14.293  20.096  63.832  1.00  0.00     0.117 C 
BRANCH   2   3
HETATM    3  N1  UNL     1      15.164  20.830  64.664  1.00  0.00    -0.352 N 
HETATM    4  C10 UNL     1      15.118  22.261  64.814  1.00  0.00     0.242 C 
HETATM    5  O2  UNL     1      14.220  22.786  64.137  1.00  0.00    -0.271 OA
ATOM      6  H1  UNL     1      15.871  20.316  65.190  1.00  0.00     0.163 HD
BRANCH   4   7
HETATM    7  C9  UNL     1      16.087  22.922  65.704  1.00  0.00     0.278 C 
BRANCH   7   8
HETATM    8  O1  UNL     1      17.352  23.139  65.324  1.00  0.00    -0.341 OA
BRANCH   8   9
HETATM    9  C8  UNL     1      17.935  24.229  64.777  1.00  0.00     0.081 A 
HETATM   10  C2  UNL     1      18.257  25.340  65.504  1.00  0.00    -0.028 A 
HETATM   11  C1  UNL     1      18.032  25.363  66.982  1.00  0.00     0.051 C 
HETATM   12  C3  UNL     1      18.850  26.482  64.972  1.00  0.00     0.009 A 
HETATM   13  C4  UNL     1      19.122  26.453  63.599  1.00  0.00     0.001 A 
HETATM   14  C5  UNL     1      18.810  25.343  62.842  1.00  0.00     0.009 A 
HETATM   15  C6  UNL     1      18.229  24.248  63.403  1.00  0.00    -0.028 A 
HETATM   16  C7  UNL     1      17.890  23.052  62.622  1.00  0.00     0.051 C 
ENDBRANCH   8   9
ENDBRANCH   7   8
ENDBRANCH   4   7
ENDBRANCH   2   3
BRANCH   2  17
HETATM   17  C12 UNL     1      14.939  19.388  62.677  1.00  0.00     0.066 C 
BRANCH  17  18
HETATM   18  C13 UNL     1      15.032  20.215  61.455  1.00  0.00    -0.056 A 
HETATM   19  C14 UNL     1      16.224  20.430  60.808  1.00  0.00     0.007 A 
HETATM   20  C15 UNL     1      16.278  21.196  59.668  1.00  0.00     0.001 A 
HETATM   21  C16 UNL     1      15.097  21.746  59.187  1.00  0.00     0.000 A 
HETATM   22  C17 UNL     1      13.886  21.545  59.818  1.00  0.00     0.001 A 
HETATM   23  C18 UNL     1      13.868  20.764  60.970  1.00  0.00     0.007 A 
ENDBRANCH  17  18
ENDBRANCH   2  17
ENDBRANCH   1   2
BRANCH   1  24
HETATM   24  O3  UNL     1      14.015  18.046  64.949  1.00  0.00    -0.393 OA
ATOM     25  H3  UNL     1      14.162  18.109  65.885  1.00  0.00     0.210 HD
ENDBRANCH   1  24
BRANCH   1  26
HETATM   26  C20 UNL     1      12.521  19.839  65.608  1.00  0.00     0.059 C 
BRANCH  26  27
HETATM   27  C21 UNL     1      11.043  19.618  65.657  1.00  0.00     0.091 C 
BRANCH  27  28
HETATM   28  C22 UNL     1      10.420  19.540  66.987  1.00  0.00     0.063 C 
BRANCH  28  29
HETATM   29  C23 UNL     1       8.975  19.280  67.064  1.00  0.00    -0.056 A 
HETATM   30  C24 UNL     1       8.459  18.025  67.369  1.00  0.00     0.007 A 
HETATM   31  C25 UNL     1       7.102  17.782  67.414  1.00  0.00     0.001 A 
HETATM   32  C26 UNL     1       6.222  18.810  67.147  1.00  0.00     0.000 A 
HETATM   33  C27 UNL     1       6.680  20.067  66.842  1.00  0.00     0.001 A 
HETATM   34  C28 UNL     1       8.025  20.273  66.807  1.00  0.00     0.007 A 
ENDBRANCH  28  29
ENDBRANCH  27  28
BRANCH  27  35
HETATM   35  N2  UNL     1      10.647  18.470  64.841  1.00  0.00    -0.354 N 
HETATM   36  C29 UNL     1       9.745  18.558  63.746  1.00  0.00     0.241 C 
HETATM   37  O4  UNL     1       9.260  19.723  63.489  1.00  0.00    -0.271 OA
ATOM     38  H2  UNL     1      11.040  17.557  65.071  1.00  0.00     0.162 HD
BRANCH  36  39
HETATM   39  C30 UNL     1       9.352  17.417  62.924  1.00  0.00     0.184 C 
BRANCH  39  40
HETATM   40  C31 UNL     1       9.741  17.524  61.465  1.00  0.00     0.010 C 
HETATM   41  C32 UNL     1      11.054  18.215  61.238  1.00  0.00     0.012 C 
HETATM   42  C33 UNL     1       9.573  16.243  60.689  1.00  0.00     0.012 C 
ENDBRANCH  39  40
BRANCH  39  43
HETATM   43  N3  UNL     1       7.970  17.087  63.100  1.00  0.00    -0.320 N 
HETATM   44  C34 UNL     1       6.835  17.748  62.529  1.00  0.00     0.130 C 
HETATM   45  C35 UNL     1       6.020  16.749  61.743  1.00  0.00     0.040 C 
HETATM   46  C36 UNL     1       5.678  15.522  62.547  1.00  0.00     0.126 C 
HETATM   47  N4  UNL     1       6.309  15.481  63.845  1.00  0.00    -0.343 N 
HETATM   48  C37 UNL     1       7.643  15.958  63.952  1.00  0.00     0.319 C 
ATOM     49  H4  UNL     1       5.813  15.121  64.660  1.00  0.00     0.164 HD
HETATM   50  O5  UNL     1       8.503  15.477  64.705  1.00  0.00    -0.247 OA
ENDBRANCH  39  43
ENDBRANCH  36  39
ENDBRANCH  27  35
ENDBRANCH  26  27
ENDBRANCH   1  26
TORSDOF 16
ENDMDL
