MODEL 2
REMARK VINA RESULT: -10.954253707      1.059      1.682
REMARK  16 active torsions:
REMARK  status: ('A' for Active; 'I' for Inactive)
REMARK    1  A    between atoms: C8_8  and  O1_9 
REMARK    2  A    between atoms: O1_9  and  C9_10 
REMARK    3  A    between atoms: C9_10  and  C10_11 
REMARK       I    between atoms: C10_11  and  N1_13 
REMARK    4  A    between atoms: N1_13  and  C11_15 
REMARK    5  A    between atoms: C11_15  and  C12_16 
REMARK    6  A    between atoms: C11_15  and  C19_23 
REMARK    7  A    between atoms: C12_16  and  C13_17 
REMARK    8  A    between atoms: C19_23  and  O3_24 
REMARK    9  A    between atoms: C19_23  and  C20_26 
REMARK   10  A    between atoms: C20_26  and  C21_27 
REMARK   11  A    between atoms: C21_27  and  C22_28 
REMARK   12  A    between atoms: C21_27  and  N2_35 
REMARK   13  A    between atoms: C22_28  and  C23_29 
REMARK       I    between atoms: N2_35  and  C29_37 
REMARK   14  A    between atoms: C29_37  and  C30_39 
REMARK   15  A    between atoms: C30_39  and  C31_40 
REMARK   16  A    between atoms: C30_39  and  N3_43 
ROOT
HETATM    1  C19 UNL     1      13.247  19.145  64.559  1.00  0.00     0.143 C 
ENDROOT
BRANCH   1   2
HETATM    2  C11 UNL     1      14.229  20.074  63.836  1.00  0.00     0.117 C 
BRANCH   2   3
HETATM    3  N1  UNL     1      15.096  20.797  64.682  1.00  0.00    -0.352 N 
HETATM    4  C10 UNL     1      15.178  22.234  64.713  1.00  0.00     0.242 C 
HETATM    5  O2  UNL     1      14.394  22.776  63.917  1.00  0.00    -0.271 OA
ATOM      6  H1  UNL     1      15.703  20.270  65.310  1.00  0.00     0.163 HD
BRANCH   4   7
HETATM    7  C9  UNL     1      16.129  22.881  65.632  1.00  0.00     0.278 C 
BRANCH   7   8
HETATM    8  O1  UNL     1      17.394  23.127  65.270  1.00  0.00    -0.341 OA
BRANCH   8   9
HETATM    9  C8  UNL     1      17.962  24.235  64.744  1.00  0.00     0.081 A 
HETATM   10  C2  UNL     1      18.270  25.336  65.492  1.00  0.00    -0.028 A 
HETATM   11  C1  UNL     1      18.046  25.327  66.970  1.00  0.00     0.051 C 
HETATM   12  C3  UNL     1      18.848  26.496  64.983  1.00  0.00     0.009 A 
HETATM   13  C4  UNL     1      19.119  26.497  63.609  1.00  0.00     0.001 A 
HETATM   14  C5  UNL     1      18.820  25.398  62.830  1.00  0.00     0.009 A 
HETATM   15  C6  UNL     1      18.254  24.285  63.371  1.00  0.00    -0.028 A 
HETATM   16  C7  UNL     1      17.930  23.100  62.566  1.00  0.00     0.051 C 
ENDBRANCH   8   9
ENDBRANCH   7   8
ENDBRANCH   4   7
ENDBRANCH   2   3
BRANCH   2  17
HETATM   17  C12 UNL     1      14.881  19.388  62.671  1.00  0.00     0.066 C 
BRANCH  17  18
HETATM   18  C13 UNL     1      14.952  20.227  61.455  1.00  0.00    -0.056 A 
HETATM   19  C14 UNL     1      13.838  20.820  60.913  1.00  0.00     0.007 A 
HETATM   20  C15 UNL     1      13.936  21.603  59.787  1.00  0.00     0.001 A 
HETATM   21  C16 UNL     1      15.188  21.779  59.213  1.00  0.00     0.000 A 
HETATM   22  C17 UNL     1      16.322  21.194  59.738  1.00  0.00     0.001 A 
HETATM   23  C18 UNL     1      16.187  20.408  60.879  1.00  0.00     0.007 A 
ENDBRANCH  17  18
ENDBRANCH   2  17
ENDBRANCH   1   2
BRANCH   1  24
HETATM   24  O3  UNL     1      13.971  18.035  64.976  1.00  0.00    -0.393 OA
ATOM     25  H3  UNL     1      13.496  17.653  65.705  1.00  0.00     0.210 HD
ENDBRANCH   1  24
BRANCH   1  26
HETATM   26  C20 UNL     1      12.407  19.795  65.556  1.00  0.00     0.059 C 
BRANCH  26  27
HETATM   27  C21 UNL     1      10.951  19.462  65.620  1.00  0.00     0.091 C 
BRANCH  27  28
HETATM   28  C22 UNL     1      10.352  19.327  66.956  1.00  0.00     0.063 C 
BRANCH  28  29
HETATM   29  C23 UNL     1       8.894  19.158  67.051  1.00  0.00    -0.056 A 
HETATM   30  C24 UNL     1       8.002  20.167  66.700  1.00  0.00     0.007 A 
HETATM   31  C25 UNL     1       6.637  20.011  66.816  1.00  0.00     0.001 A 
HETATM   32  C26 UNL     1       6.131  18.820  67.294  1.00  0.00     0.000 A 
HETATM   33  C27 UNL     1       6.967  17.793  67.653  1.00  0.00     0.001 A 
HETATM   34  C28 UNL     1       8.310  17.980  67.525  1.00  0.00     0.007 A 
ENDBRANCH  28  29
ENDBRANCH  27  28
BRANCH  27  35
HETATM   35  N2  UNL     1      10.634  18.293  64.799  1.00  0.00    -0.354 N 
HETATM   36  C29 UNL     1       9.752  18.332  63.684  1.00  0.00     0.241 C 
HETATM   37  O4  UNL     1       9.213  19.469  63.414  1.00  0.00    -0.271 OA
ATOM     38  H2  UNL     1      11.068  17.402  65.040  1.00  0.00     0.162 HD
BRANCH  36  39
HETATM   39  C30 UNL     1       9.438  17.170  62.857  1.00  0.00     0.184 C 
BRANCH  39  40
HETATM   40  C31 UNL     1       9.502  17.419  61.365  1.00  0.00     0.010 C 
HETATM   41  C32 UNL     1       8.264  18.058  60.805  1.00  0.00     0.012 C 
HETATM   42  C33 UNL     1      10.789  18.051  60.903  1.00  0.00     0.012 C 
ENDBRANCH  39  40
BRANCH  39  43
HETATM   43  N3  UNL     1       8.211  16.551  63.257  1.00  0.00    -0.320 N 
HETATM   44  C34 UNL     1       7.246  17.047  64.192  1.00  0.00     0.130 C 
HETATM   45  C35 UNL     1       5.901  17.147  63.513  1.00  0.00     0.040 C 
HETATM   46  C36 UNL     1       5.498  15.862  62.836  1.00  0.00     0.126 C 
HETATM   47  N4  UNL     1       6.527  14.849  62.849  1.00  0.00    -0.343 N 
HETATM   48  C37 UNL     1       7.874  15.267  62.670  1.00  0.00     0.319 C 
ATOM     49  H4  UNL     1       6.296  13.865  62.983  1.00  0.00     0.164 HD
HETATM   50  O5  UNL     1       8.737  14.615  62.062  1.00  0.00    -0.247 OA
ENDBRANCH  39  43
ENDBRANCH  36  39
ENDBRANCH  27  35
ENDBRANCH  26  27
ENDBRANCH   1  26
TORSDOF 16
ENDMDL
