MODEL 1
REMARK VINA RESULT: -11.413500030      0.000      0.000
REMARK  16 active torsions:
REMARK  status: ('A' for Active; 'I' for Inactive)
REMARK    1  A    between atoms: C8_8  and  O1_9 
REMARK    2  A    between atoms: O1_9  and  C9_10 
REMARK    3  A    between atoms: C9_10  and  C10_11 
REMARK       I    between atoms: C10_11  and  N1_13 
REMARK    4  A    between atoms: N1_13  and  C11_15 
REMARK    5  A    between atoms: C11_15  and  C12_16 
REMARK    6  A    between atoms: C11_15  and  C19_23 
REMARK    7  A    between atoms: C12_16  and  C13_17 
REMARK    8  A    between atoms: C19_23  and  O3_24 
REMARK    9  A    between atoms: C19_23  and  C20_26 
REMARK   10  A    between atoms: C20_26  and  C21_27 
REMARK   11  A    between atoms: C21_27  and  C22_28 
REMARK   12  A    between atoms: C21_27  and  N2_35 
REMARK   13  A    between atoms: C22_28  and  C23_29 
REMARK       I    between atoms: N2_35  and  C29_37 
REMARK   14  A    between atoms: C29_37  and  C30_39 
REMARK   15  A    between atoms: C30_39  and  C31_40 
REMARK   16  A    between atoms: C30_39  and  N3_43 
ROOT
HETATM    1  C19 UNL     1      12.863  18.608  64.673  1.00  0.00     0.143 C 
ENDROOT
BRANCH   1   2
HETATM    2  C11 UNL     1      12.909  19.798  63.707  1.00  0.00     0.117 C 
BRANCH   2   3
HETATM    3  N1  UNL     1      13.719  20.874  64.127  1.00  0.00    -0.352 N 
HETATM    4  C10 UNL     1      13.205  22.113  64.650  1.00  0.00     0.242 C 
HETATM    5  O2  UNL     1      11.965  22.133  64.701  1.00  0.00    -0.271 OA
ATOM      6  H1  UNL     1      14.731  20.768  64.056  1.00  0.00     0.163 HD
BRANCH   4   7
HETATM    7  C9  UNL     1      14.147  23.171  65.049  1.00  0.00     0.278 C 
BRANCH   7   8
HETATM    8  O1  UNL     1      15.370  22.882  65.511  1.00  0.00    -0.341 OA
BRANCH   8   9
HETATM    9  C8  UNL     1      16.381  23.689  65.901  1.00  0.00     0.081 A 
HETATM   10  C2  UNL     1      16.425  24.279  67.132  1.00  0.00    -0.028 A 
HETATM   11  C1  UNL     1      15.362  23.989  68.144  1.00  0.00     0.051 C 
HETATM   12  C3  UNL     1      17.445  25.122  67.564  1.00  0.00     0.009 A 
HETATM   13  C4  UNL     1      18.479  25.357  66.649  1.00  0.00     0.001 A 
HETATM   14  C5  UNL     1      18.461  24.772  65.400  1.00  0.00     0.009 A 
HETATM   15  C6  UNL     1      17.442  23.955  65.020  1.00  0.00    -0.028 A 
HETATM   16  C7  UNL     1      17.400  23.317  63.698  1.00  0.00     0.051 C 
ENDBRANCH   8   9
ENDBRANCH   7   8
ENDBRANCH   4   7
ENDBRANCH   2   3
BRANCH   2  17
HETATM   17  C12 UNL     1      13.109  19.349  62.289  1.00  0.00     0.066 C 
BRANCH  17  18
HETATM   18  C13 UNL     1      14.153  20.112  61.569  1.00  0.00    -0.056 A 
HETATM   19  C14 UNL     1      15.488  19.818  61.695  1.00  0.00     0.007 A 
HETATM   20  C15 UNL     1      16.435  20.538  61.006  1.00  0.00     0.001 A 
HETATM   21  C16 UNL     1      16.007  21.570  60.181  1.00  0.00     0.000 A 
HETATM   22  C17 UNL     1      14.671  21.886  60.038  1.00  0.00     0.001 A 
HETATM   23  C18 UNL     1      13.739  21.136  60.750  1.00  0.00     0.007 A 
ENDBRANCH  17  18
ENDBRANCH   2  17
ENDBRANCH   1   2
BRANCH   1  24
HETATM   24  O3  UNL     1      14.169  18.154  64.819  1.00  0.00    -0.393 OA
ATOM     25  H3  UNL     1      14.227  17.753  65.678  1.00  0.00     0.210 HD
ENDBRANCH   1  24
BRANCH   1  26
HETATM   26  C20 UNL     1      12.106  18.838  65.896  1.00  0.00     0.059 C 
BRANCH  26  27
HETATM   27  C21 UNL     1      10.614  18.896  65.836  1.00  0.00     0.091 C 
BRANCH  27  28
HETATM   28  C22 UNL     1       9.887  18.777  67.110  1.00  0.00     0.063 C 
BRANCH  28  29
HETATM   29  C23 UNL     1       8.423  18.922  67.091  1.00  0.00    -0.056 A 
HETATM   30  C24 UNL     1       7.796  20.109  66.726  1.00  0.00     0.007 A 
HETATM   31  C25 UNL     1       6.424  20.246  66.736  1.00  0.00     0.001 A 
HETATM   32  C26 UNL     1       5.641  19.177  67.119  1.00  0.00     0.000 A 
HETATM   33  C27 UNL     1       6.209  17.984  67.486  1.00  0.00     0.001 A 
HETATM   34  C28 UNL     1       7.567  17.882  67.465  1.00  0.00     0.007 A 
ENDBRANCH  28  29
ENDBRANCH  27  28
BRANCH  27  35
HETATM   35  N2  UNL     1      10.081  17.949  64.856  1.00  0.00    -0.354 N 
HETATM   36  C29 UNL     1       9.444  18.345  63.648  1.00  0.00     0.241 C 
HETATM   37  O4  UNL     1       9.338  19.611  63.439  1.00  0.00    -0.271 OA
ATOM     38  H2  UNL     1      10.171  16.952  65.050  1.00  0.00     0.162 HD
BRANCH  36  39
HETATM   39  C30 UNL     1       8.918  17.405  62.662  1.00  0.00     0.184 C 
BRANCH  39  40
HETATM   40  C31 UNL     1       8.730  17.981  61.275  1.00  0.00     0.010 C 
HETATM   41  C32 UNL     1       9.450  17.219  60.201  1.00  0.00     0.012 C 
HETATM   42  C33 UNL     1       7.301  18.323  60.941  1.00  0.00     0.012 C 
ENDBRANCH  39  40
BRANCH  39  43
HETATM   43  N3  UNL     1       7.747  16.735  63.140  1.00  0.00    -0.320 N 
HETATM   44  C34 UNL     1       6.711  17.273  63.970  1.00  0.00     0.130 C 
HETATM   45  C35 UNL     1       5.383  17.125  63.267  1.00  0.00     0.040 C 
HETATM   46  C36 UNL     1       5.129  15.715  62.801  1.00  0.00     0.126 C 
HETATM   47  N4  UNL     1       6.252  14.827  62.990  1.00  0.00    -0.343 N 
HETATM   48  C37 UNL     1       7.556  15.346  62.764  1.00  0.00     0.319 C 
ATOM     49  H4  UNL     1       6.115  13.858  63.278  1.00  0.00     0.164 HD
HETATM   50  O5  UNL     1       8.496  14.697  62.280  1.00  0.00    -0.247 OA
ENDBRANCH  39  43
ENDBRANCH  36  39
ENDBRANCH  27  35
ENDBRANCH  26  27
ENDBRANCH   1  26
TORSDOF 16
ENDMDL
