MODEL 8
REMARK VINA RESULT: -10.613087694      1.479      5.810
REMARK  16 active torsions:
REMARK  status: ('A' for Active; 'I' for Inactive)
REMARK    1  A    between atoms: C8_8  and  O1_9 
REMARK    2  A    between atoms: O1_9  and  C9_10 
REMARK    3  A    between atoms: C9_10  and  C10_11 
REMARK       I    between atoms: C10_11  and  N1_13 
REMARK    4  A    between atoms: N1_13  and  C11_15 
REMARK    5  A    between atoms: C11_15  and  C12_16 
REMARK    6  A    between atoms: C11_15  and  C19_23 
REMARK    7  A    between atoms: C12_16  and  C13_17 
REMARK    8  A    between atoms: C19_23  and  O3_24 
REMARK    9  A    between atoms: C19_23  and  C20_26 
REMARK   10  A    between atoms: C20_26  and  C21_27 
REMARK   11  A    between atoms: C21_27  and  C22_28 
REMARK   12  A    between atoms: C21_27  and  N2_35 
REMARK   13  A    between atoms: C22_28  and  C23_29 
REMARK       I    between atoms: N2_35  and  C29_37 
REMARK   14  A    between atoms: C29_37  and  C30_39 
REMARK   15  A    between atoms: C30_39  and  C31_40 
REMARK   16  A    between atoms: C30_39  and  N3_43 
ROOT
HETATM    1  C19 UNL     1      11.029  20.851  63.645  1.00  0.00     0.143 C 
ENDROOT
BRANCH   1   2
HETATM    2  C11 UNL     1      11.535  20.836  65.091  1.00  0.00     0.117 C 
BRANCH   2   3
HETATM    3  N1  UNL     1      12.813  21.403  65.280  1.00  0.00    -0.352 N 
HETATM    4  C10 UNL     1      14.045  20.663  65.179  1.00  0.00     0.242 C 
HETATM    5  O2  UNL     1      13.864  19.468  64.898  1.00  0.00    -0.271 OA
ATOM      6  H1  UNL     1      12.869  22.396  65.503  1.00  0.00     0.163 HD
BRANCH   4   7
HETATM    7  C9  UNL     1      15.322  21.359  65.406  1.00  0.00     0.278 C 
BRANCH   7   8
HETATM    8  O1  UNL     1      15.418  22.692  65.321  1.00  0.00    -0.341 OA
BRANCH   8   9
HETATM    9  C8  UNL     1      16.299  23.552  65.879  1.00  0.00     0.081 A 
HETATM   10  C2  UNL     1      16.133  24.074  67.130  1.00  0.00    -0.028 A 
HETATM   11  C1  UNL     1      14.975  23.649  67.976  1.00  0.00     0.051 C 
HETATM   12  C3  UNL     1      17.015  24.967  67.733  1.00  0.00     0.009 A 
HETATM   13  C4  UNL     1      18.136  25.329  66.976  1.00  0.00     0.001 A 
HETATM   14  C5  UNL     1      18.330  24.815  65.711  1.00  0.00     0.009 A 
HETATM   15  C6  UNL     1      17.440  23.945  65.161  1.00  0.00    -0.028 A 
HETATM   16  C7  UNL     1      17.623  23.380  63.818  1.00  0.00     0.051 C 
ENDBRANCH   8   9
ENDBRANCH   7   8
ENDBRANCH   4   7
ENDBRANCH   2   3
BRANCH   2  17
HETATM   17  C12 UNL     1      10.475  21.292  66.051  1.00  0.00     0.066 C 
BRANCH  17  18
HETATM   18  C13 UNL     1       9.554  20.213  66.469  1.00  0.00    -0.056 A 
HETATM   19  C14 UNL     1      10.003  18.959  66.803  1.00  0.00     0.007 A 
HETATM   20  C15 UNL     1       9.123  17.979  67.197  1.00  0.00     0.001 A 
HETATM   21  C16 UNL     1       7.771  18.288  67.249  1.00  0.00     0.000 A 
HETATM   22  C17 UNL     1       7.294  19.540  66.918  1.00  0.00     0.001 A 
HETATM   23  C18 UNL     1       8.212  20.509  66.523  1.00  0.00     0.007 A 
ENDBRANCH  17  18
ENDBRANCH   2  17
ENDBRANCH   1   2
BRANCH   1  24
HETATM   24  O3  UNL     1       9.904  21.665  63.617  1.00  0.00    -0.393 OA
ATOM     25  H3  UNL     1      10.114  22.409  63.064  1.00  0.00     0.210 HD
ENDBRANCH   1  24
BRANCH   1  26
HETATM   26  C20 UNL     1      12.051  21.107  62.638  1.00  0.00     0.059 C 
BRANCH  26  27
HETATM   27  C21 UNL     1      12.443  20.015  61.695  1.00  0.00     0.091 C 
BRANCH  27  28
HETATM   28  C22 UNL     1      13.058  20.418  60.421  1.00  0.00     0.063 C 
BRANCH  28  29
HETATM   29  C23 UNL     1      14.407  21.003  60.454  1.00  0.00    -0.056 A 
HETATM   30  C24 UNL     1      14.733  22.166  59.762  1.00  0.00     0.007 A 
HETATM   31  C25 UNL     1      16.007  22.694  59.776  1.00  0.00     0.001 A 
HETATM   32  C26 UNL     1      16.995  22.057  60.498  1.00  0.00     0.000 A 
HETATM   33  C27 UNL     1      16.725  20.908  61.199  1.00  0.00     0.001 A 
HETATM   34  C28 UNL     1      15.456  20.414  61.164  1.00  0.00     0.007 A 
ENDBRANCH  28  29
ENDBRANCH  27  28
BRANCH  27  35
HETATM   35  N2  UNL     1      11.333  19.092  61.455  1.00  0.00    -0.354 N 
HETATM   36  C29 UNL     1      11.162  17.870  62.161  1.00  0.00     0.241 C 
HETATM   37  O4  UNL     1      12.053  17.583  63.045  1.00  0.00    -0.271 OA
ATOM     38  H2  UNL     1      10.646  19.339  60.743  1.00  0.00     0.162 HD
BRANCH  36  39
HETATM   39  C30 UNL     1      10.052  16.948  61.931  1.00  0.00     0.184 C 
BRANCH  39  40
HETATM   40  C31 UNL     1       9.890  16.498  60.495  1.00  0.00     0.010 C 
HETATM   41  C32 UNL     1      11.170  16.047  59.855  1.00  0.00     0.012 C 
HETATM   42  C33 UNL     1       8.724  15.572  60.270  1.00  0.00     0.012 C 
ENDBRANCH  39  40
BRANCH  39  43
HETATM   43  N3  UNL     1       8.830  17.439  62.493  1.00  0.00    -0.320 N 
HETATM   44  C34 UNL     1       8.077  18.585  62.079  1.00  0.00     0.130 C 
HETATM   45  C35 UNL     1       6.670  18.159  61.736  1.00  0.00     0.040 C 
HETATM   46  C36 UNL     1       6.023  17.362  62.839  1.00  0.00     0.126 C 
HETATM   47  N4  UNL     1       6.914  17.047  63.931  1.00  0.00    -0.343 N 
HETATM   48  C37 UNL     1       8.261  16.719  63.617  1.00  0.00     0.319 C 
ATOM     49  H4  UNL     1       6.587  17.059  64.897  1.00  0.00     0.164 HD
HETATM   50  O5  UNL     1       8.942  15.883  64.231  1.00  0.00    -0.247 OA
ENDBRANCH  39  43
ENDBRANCH  36  39
ENDBRANCH  27  35
ENDBRANCH  26  27
ENDBRANCH   1  26
TORSDOF 16
ENDMDL
