MODEL 9
REMARK VINA RESULT: -10.590863697      1.475      5.937
REMARK  16 active torsions:
REMARK  status: ('A' for Active; 'I' for Inactive)
REMARK    1  A    between atoms: C8_8  and  O1_9 
REMARK    2  A    between atoms: O1_9  and  C9_10 
REMARK    3  A    between atoms: C9_10  and  C10_11 
REMARK       I    between atoms: C10_11  and  N1_13 
REMARK    4  A    between atoms: N1_13  and  C11_15 
REMARK    5  A    between atoms: C11_15  and  C12_16 
REMARK    6  A    between atoms: C11_15  and  C19_23 
REMARK    7  A    between atoms: C12_16  and  C13_17 
REMARK    8  A    between atoms: C19_23  and  O3_24 
REMARK    9  A    between atoms: C19_23  and  C20_26 
REMARK   10  A    between atoms: C20_26  and  C21_27 
REMARK   11  A    between atoms: C21_27  and  C22_28 
REMARK   12  A    between atoms: C21_27  and  N2_35 
REMARK   13  A    between atoms: C22_28  and  C23_29 
REMARK       I    between atoms: N2_35  and  C29_37 
REMARK   14  A    between atoms: C29_37  and  C30_39 
REMARK   15  A    between atoms: C30_39  and  C31_40 
REMARK   16  A    between atoms: C30_39  and  N3_43 
ROOT
HETATM    1  C19 UNL     1      11.021  20.857  63.630  1.00  0.00     0.143 C 
ENDROOT
BRANCH   1   2
HETATM    2  C11 UNL     1      11.528  20.865  65.077  1.00  0.00     0.117 C 
BRANCH   2   3
HETATM    3  N1  UNL     1      12.798  21.449  65.259  1.00  0.00    -0.352 N 
HETATM    4  C10 UNL     1      14.038  20.721  65.183  1.00  0.00     0.242 C 
HETATM    5  O2  UNL     1      13.872  19.517  64.930  1.00  0.00    -0.271 OA
ATOM      6  H1  UNL     1      12.842  22.449  65.458  1.00  0.00     0.163 HD
BRANCH   4   7
HETATM    7  C9  UNL     1      15.307  21.436  65.400  1.00  0.00     0.278 C 
BRANCH   7   8
HETATM    8  O1  UNL     1      15.361  22.774  65.423  1.00  0.00    -0.341 OA
BRANCH   8   9
HETATM    9  C8  UNL     1      16.304  23.611  65.906  1.00  0.00     0.081 A 
HETATM   10  C2  UNL     1      17.417  23.963  65.196  1.00  0.00    -0.028 A 
HETATM   11  C1  UNL     1      17.601  23.473  63.795  1.00  0.00     0.051 C 
HETATM   12  C3  UNL     1      18.413  24.815  65.665  1.00  0.00     0.009 A 
HETATM   13  C4  UNL     1      18.226  25.330  66.954  1.00  0.00     0.001 A 
HETATM   14  C5  UNL     1      17.110  24.994  67.692  1.00  0.00     0.009 A 
HETATM   15  C6  UNL     1      16.162  24.155  67.193  1.00  0.00    -0.028 A 
HETATM   16  C7  UNL     1      14.963  23.784  67.956  1.00  0.00     0.051 C 
ENDBRANCH   8   9
ENDBRANCH   7   8
ENDBRANCH   4   7
ENDBRANCH   2   3
BRANCH   2  17
HETATM   17  C12 UNL     1      10.462  21.316  66.032  1.00  0.00     0.066 C 
BRANCH  17  18
HETATM   18  C13 UNL     1       9.554  20.230  66.462  1.00  0.00    -0.056 A 
HETATM   19  C14 UNL     1      10.012  18.966  66.743  1.00  0.00     0.007 A 
HETATM   20  C15 UNL     1       9.146  17.979  67.149  1.00  0.00     0.001 A 
HETATM   21  C16 UNL     1       7.798  18.292  67.268  1.00  0.00     0.000 A 
HETATM   22  C17 UNL     1       7.313  19.553  66.991  1.00  0.00     0.001 A 
HETATM   23  C18 UNL     1       8.218  20.529  66.581  1.00  0.00     0.007 A 
ENDBRANCH  17  18
ENDBRANCH   2  17
ENDBRANCH   1   2
BRANCH   1  24
HETATM   24  O3  UNL     1       9.887  21.661  63.594  1.00  0.00    -0.393 OA
ATOM     25  H3  UNL     1       9.464  21.504  62.758  1.00  0.00     0.210 HD
ENDBRANCH   1  24
BRANCH   1  26
HETATM   26  C20 UNL     1      12.039  21.113  62.620  1.00  0.00     0.059 C 
BRANCH  26  27
HETATM   27  C21 UNL     1      12.442  20.014  61.690  1.00  0.00     0.091 C 
BRANCH  27  28
HETATM   28  C22 UNL     1      13.065  20.408  60.417  1.00  0.00     0.063 C 
BRANCH  28  29
HETATM   29  C23 UNL     1      14.407  21.010  60.456  1.00  0.00    -0.056 A 
HETATM   30  C24 UNL     1      14.720  22.179  59.770  1.00  0.00     0.007 A 
HETATM   31  C25 UNL     1      15.987  22.723  59.790  1.00  0.00     0.001 A 
HETATM   32  C26 UNL     1      16.981  22.094  60.509  1.00  0.00     0.000 A 
HETATM   33  C27 UNL     1      16.725  20.938  61.204  1.00  0.00     0.001 A 
HETATM   34  C28 UNL     1      15.462  20.429  61.163  1.00  0.00     0.007 A 
ENDBRANCH  28  29
ENDBRANCH  27  28
BRANCH  27  35
HETATM   35  N2  UNL     1      11.338  19.085  61.450  1.00  0.00    -0.354 N 
HETATM   36  C29 UNL     1      11.166  17.868  62.165  1.00  0.00     0.241 C 
HETATM   37  O4  UNL     1      12.051  17.593  63.059  1.00  0.00    -0.271 OA
ATOM     38  H2  UNL     1      10.655  19.323  60.731  1.00  0.00     0.162 HD
BRANCH  36  39
HETATM   39  C30 UNL     1      10.061  16.941  61.936  1.00  0.00     0.184 C 
BRANCH  39  40
HETATM   40  C31 UNL     1       9.896  16.497  60.499  1.00  0.00     0.010 C 
HETATM   41  C32 UNL     1      11.170  16.024  59.861  1.00  0.00     0.012 C 
HETATM   42  C33 UNL     1       8.714  15.592  60.268  1.00  0.00     0.012 C 
ENDBRANCH  39  40
BRANCH  39  43
HETATM   43  N3  UNL     1       8.839  17.420  62.506  1.00  0.00    -0.320 N 
HETATM   44  C34 UNL     1       8.084  18.572  62.111  1.00  0.00     0.130 C 
HETATM   45  C35 UNL     1       6.678  18.150  61.761  1.00  0.00     0.040 C 
HETATM   46  C36 UNL     1       6.031  17.334  62.850  1.00  0.00     0.126 C 
HETATM   47  N4  UNL     1       6.922  17.001  63.936  1.00  0.00    -0.343 N 
HETATM   48  C37 UNL     1       8.270  16.680  63.617  1.00  0.00     0.319 C 
ATOM     49  H4  UNL     1       6.596  16.996  64.902  1.00  0.00     0.164 HD
HETATM   50  O5  UNL     1       8.952  15.835  64.217  1.00  0.00    -0.247 OA
ENDBRANCH  39  43
ENDBRANCH  36  39
ENDBRANCH  27  35
ENDBRANCH  26  27
ENDBRANCH   1  26
TORSDOF 16
ENDMDL
