MODEL 11
REMARK VINA RESULT: -10.540744386      2.164      9.945
REMARK  16 active torsions:
REMARK  status: ('A' for Active; 'I' for Inactive)
REMARK    1  A    between atoms: C8_8  and  O1_9 
REMARK    2  A    between atoms: O1_9  and  C9_10 
REMARK    3  A    between atoms: C9_10  and  C10_11 
REMARK       I    between atoms: C10_11  and  N1_13 
REMARK    4  A    between atoms: N1_13  and  C11_15 
REMARK    5  A    between atoms: C11_15  and  C12_16 
REMARK    6  A    between atoms: C11_15  and  C19_23 
REMARK    7  A    between atoms: C12_16  and  C13_17 
REMARK    8  A    between atoms: C19_23  and  O3_24 
REMARK    9  A    between atoms: C19_23  and  C20_26 
REMARK   10  A    between atoms: C20_26  and  C21_27 
REMARK   11  A    between atoms: C21_27  and  C22_28 
REMARK   12  A    between atoms: C21_27  and  N2_35 
REMARK   13  A    between atoms: C22_28  and  C23_29 
REMARK       I    between atoms: N2_35  and  C29_37 
REMARK   14  A    between atoms: C29_37  and  C30_39 
REMARK   15  A    between atoms: C30_39  and  C31_40 
REMARK   16  A    between atoms: C30_39  and  N3_43 
ROOT
HETATM    1  C19 UNL     1      13.055  20.726  65.845  1.00  0.00     0.143 C 
ENDROOT
BRANCH   1   2
HETATM    2  C11 UNL     1      11.724  20.065  65.468  1.00  0.00     0.117 C 
BRANCH   2   3
HETATM    3  N1  UNL     1      11.732  19.368  64.242  1.00  0.00    -0.352 N 
HETATM    4  C10 UNL     1      11.445  19.976  62.969  1.00  0.00     0.242 C 
HETATM    5  O2  UNL     1      11.197  21.188  63.061  1.00  0.00    -0.271 OA
ATOM      6  H1  UNL     1      11.954  18.373  64.258  1.00  0.00     0.163 HD
BRANCH   4   7
HETATM    7  C9  UNL     1      11.474  19.146  61.753  1.00  0.00     0.278 C 
BRANCH   7   8
HETATM    8  O1  UNL     1      10.353  18.636  61.227  1.00  0.00    -0.341 OA
BRANCH   8   9
HETATM    9  C8  UNL     1       9.590  17.591  61.618  1.00  0.00     0.081 A 
HETATM   10  C2  UNL     1       8.595  17.707  62.547  1.00  0.00    -0.028 A 
HETATM   11  C1  UNL     1       8.262  19.044  63.129  1.00  0.00     0.051 C 
HETATM   12  C3  UNL     1       7.796  16.652  62.979  1.00  0.00     0.009 A 
HETATM   13  C4  UNL     1       8.057  15.405  62.399  1.00  0.00     0.001 A 
HETATM   14  C5  UNL     1       9.054  15.260  61.457  1.00  0.00     0.009 A 
HETATM   15  C6  UNL     1       9.812  16.320  61.065  1.00  0.00    -0.028 A 
HETATM   16  C7  UNL     1      10.877  16.194  60.061  1.00  0.00     0.051 C 
ENDBRANCH   8   9
ENDBRANCH   7   8
ENDBRANCH   4   7
ENDBRANCH   2   3
BRANCH   2  17
HETATM   17  C12 UNL     1      11.127  19.327  66.631  1.00  0.00     0.066 C 
BRANCH  17  18
HETATM   18  C13 UNL     1       9.673  19.552  66.789  1.00  0.00    -0.056 A 
HETATM   19  C14 UNL     1       8.788  18.515  66.950  1.00  0.00     0.007 A 
HETATM   20  C15 UNL     1       7.443  18.756  67.104  1.00  0.00     0.001 A 
HETATM   21  C16 UNL     1       7.004  20.073  67.093  1.00  0.00     0.000 A 
HETATM   22  C17 UNL     1       7.873  21.133  66.934  1.00  0.00     0.001 A 
HETATM   23  C18 UNL     1       9.228  20.853  66.780  1.00  0.00     0.007 A 
ENDBRANCH  17  18
ENDBRANCH   2  17
ENDBRANCH   1   2
BRANCH   1  24
HETATM   24  O3  UNL     1      14.059  20.010  65.203  1.00  0.00    -0.393 OA
ATOM     25  H3  UNL     1      14.803  19.987  65.793  1.00  0.00     0.210 HD
ENDBRANCH   1  24
BRANCH   1  26
HETATM   26  C20 UNL     1      13.085  22.175  65.699  1.00  0.00     0.059 C 
BRANCH  26  27
HETATM   27  C21 UNL     1      14.342  22.840  65.239  1.00  0.00     0.091 C 
BRANCH  27  28
HETATM   28  C22 UNL     1      14.539  24.245  65.630  1.00  0.00     0.063 C 
BRANCH  28  29
HETATM   29  C23 UNL     1      15.887  24.670  66.039  1.00  0.00    -0.056 A 
HETATM   30  C24 UNL     1      16.296  24.676  67.369  1.00  0.00     0.007 A 
HETATM   31  C25 UNL     1      17.552  25.101  67.747  1.00  0.00     0.001 A 
HETATM   32  C26 UNL     1      18.437  25.536  66.783  1.00  0.00     0.000 A 
HETATM   33  C27 UNL     1      18.083  25.550  65.457  1.00  0.00     0.001 A 
HETATM   34  C28 UNL     1      16.835  25.123  65.118  1.00  0.00     0.007 A 
ENDBRANCH  28  29
ENDBRANCH  27  28
BRANCH  27  35
HETATM   35  N2  UNL     1      14.533  22.683  63.797  1.00  0.00    -0.354 N 
HETATM   36  C29 UNL     1      15.700  22.115  63.216  1.00  0.00     0.241 C 
HETATM   37  O4  UNL     1      16.625  21.737  64.030  1.00  0.00    -0.271 OA
ATOM     38  H2  UNL     1      13.789  22.998  63.174  1.00  0.00     0.162 HD
BRANCH  36  39
HETATM   39  C30 UNL     1      15.893  21.947  61.778  1.00  0.00     0.184 C 
BRANCH  39  40
HETATM   40  C31 UNL     1      16.268  20.546  61.349  1.00  0.00     0.010 C 
HETATM   41  C32 UNL     1      15.399  19.477  61.945  1.00  0.00     0.012 C 
HETATM   42  C33 UNL     1      16.503  20.399  59.868  1.00  0.00     0.012 C 
ENDBRANCH  39  40
BRANCH  39  43
HETATM   43  N3  UNL     1      16.775  22.940  61.243  1.00  0.00    -0.320 N 
HETATM   44  C34 UNL     1      18.074  23.305  61.724  1.00  0.00     0.130 C 
HETATM   45  C35 UNL     1      19.082  23.136  60.613  1.00  0.00     0.040 C 
HETATM   46  C36 UNL     1      18.673  23.844  59.348  1.00  0.00     0.126 C 
HETATM   47  N4  UNL     1      17.348  24.417  59.403  1.00  0.00    -0.343 N 
HETATM   48  C37 UNL     1      16.334  23.684  60.078  1.00  0.00     0.319 C 
ATOM     49  H4  UNL     1      17.146  25.319  58.972  1.00  0.00     0.164 HD
HETATM   50  O5  UNL     1      15.143  23.652  59.733  1.00  0.00    -0.247 OA
ENDBRANCH  39  43
ENDBRANCH  36  39
ENDBRANCH  27  35
ENDBRANCH  26  27
ENDBRANCH   1  26
TORSDOF 16
ENDMDL
