MODEL 1
REMARK VINA RESULT: -10.924877719      0.000      0.000
REMARK  16 active torsions:
REMARK  status: ('A' for Active; 'I' for Inactive)
REMARK    1  A    between atoms: C8_8  and  O1_9 
REMARK    2  A    between atoms: O1_9  and  C9_10 
REMARK    3  A    between atoms: C9_10  and  C10_11 
REMARK       I    between atoms: C10_11  and  N1_13 
REMARK    4  A    between atoms: N1_13  and  C11_15 
REMARK    5  A    between atoms: C11_15  and  C12_16 
REMARK    6  A    between atoms: C11_15  and  C19_23 
REMARK    7  A    between atoms: C12_16  and  C13_17 
REMARK    8  A    between atoms: C19_23  and  O3_24 
REMARK    9  A    between atoms: C19_23  and  C20_26 
REMARK   10  A    between atoms: C20_26  and  C21_27 
REMARK   11  A    between atoms: C21_27  and  C22_28 
REMARK   12  A    between atoms: C21_27  and  N2_35 
REMARK   13  A    between atoms: C22_28  and  C23_29 
REMARK       I    between atoms: N2_35  and  C29_37 
REMARK   14  A    between atoms: C29_37  and  C30_39 
REMARK   15  A    between atoms: C30_39  and  C31_40 
REMARK   16  A    between atoms: C30_39  and  N3_43 
ROOT
HETATM    1  C19 UNL     1      13.834  19.102  63.674  1.00  0.00     0.143 C 
ENDROOT
BRANCH   1   2
HETATM    2  C11 UNL     1      13.545  20.542  63.234  1.00  0.00     0.117 C 
BRANCH   2   3
HETATM    3  N1  UNL     1      14.195  21.537  63.993  1.00  0.00    -0.352 N 
HETATM    4  C10 UNL     1      13.517  22.440  64.887  1.00  0.00     0.242 C 
HETATM    5  O2  UNL     1      12.292  22.244  64.927  1.00  0.00    -0.271 OA
ATOM      6  H1  UNL     1      15.207  21.624  63.904  1.00  0.00     0.163 HD
BRANCH   4   7
HETATM    7  C9  UNL     1      14.299  23.447  65.622  1.00  0.00     0.278 C 
BRANCH   7   8
HETATM    8  O1  UNL     1      15.524  23.177  66.091  1.00  0.00    -0.341 OA
BRANCH   8   9
HETATM    9  C8  UNL     1      16.556  23.996  66.391  1.00  0.00     0.081 A 
HETATM   10  C2  UNL     1      16.695  24.593  67.613  1.00  0.00    -0.028 A 
HETATM   11  C1  UNL     1      15.723  24.297  68.710  1.00  0.00     0.051 C 
HETATM   12  C3  UNL     1      17.739  25.448  67.955  1.00  0.00     0.009 A 
HETATM   13  C4  UNL     1      18.691  25.688  66.956  1.00  0.00     0.001 A 
HETATM   14  C5  UNL     1      18.576  25.097  65.715  1.00  0.00     0.009 A 
HETATM   15  C6  UNL     1      17.537  24.268  65.424  1.00  0.00    -0.028 A 
HETATM   16  C7  UNL     1      17.392  23.623  64.113  1.00  0.00     0.051 C 
ENDBRANCH   8   9
ENDBRANCH   7   8
ENDBRANCH   4   7
ENDBRANCH   2   3
BRANCH   2  17
HETATM   17  C12 UNL     1      13.643  20.694  61.744  1.00  0.00     0.066 C 
BRANCH  17  18
HETATM   18  C13 UNL     1      14.861  21.408  61.302  1.00  0.00    -0.056 A 
HETATM   19  C14 UNL     1      16.122  20.942  61.581  1.00  0.00     0.007 A 
HETATM   20  C15 UNL     1      17.235  21.623  61.148  1.00  0.00     0.001 A 
HETATM   21  C16 UNL     1      17.052  22.792  60.423  1.00  0.00     0.000 A 
HETATM   22  C17 UNL     1      15.796  23.282  60.130  1.00  0.00     0.001 A 
HETATM   23  C18 UNL     1      14.690  22.568  60.583  1.00  0.00     0.007 A 
ENDBRANCH  17  18
ENDBRANCH   2  17
ENDBRANCH   1   2
BRANCH   1  24
HETATM   24  O3  UNL     1      15.201  18.899  63.526  1.00  0.00    -0.393 OA
ATOM     25  H3  UNL     1      15.373  17.994  63.759  1.00  0.00     0.210 HD
ENDBRANCH   1  24
BRANCH   1  26
HETATM   26  C20 UNL     1      13.248  18.720  64.952  1.00  0.00     0.059 C 
BRANCH  26  27
HETATM   27  C21 UNL     1      11.789  18.945  65.187  1.00  0.00     0.091 C 
BRANCH  27  28
HETATM   28  C22 UNL     1      11.376  19.293  66.556  1.00  0.00     0.063 C 
BRANCH  28  29
HETATM   29  C23 UNL     1      10.004  19.778  66.766  1.00  0.00    -0.056 A 
HETATM   30  C24 UNL     1       9.699  21.132  66.872  1.00  0.00     0.007 A 
HETATM   31  C25 UNL     1       8.414  21.578  67.096  1.00  0.00     0.001 A 
HETATM   32  C26 UNL     1       7.392  20.660  67.220  1.00  0.00     0.000 A 
HETATM   33  C27 UNL     1       7.638  19.314  67.122  1.00  0.00     0.001 A 
HETATM   34  C28 UNL     1       8.919  18.908  66.900  1.00  0.00     0.007 A 
ENDBRANCH  28  29
ENDBRANCH  27  28
BRANCH  27  35
HETATM   35  N2  UNL     1      10.988  17.829  64.683  1.00  0.00    -0.354 N 
HETATM   36  C29 UNL     1      10.037  17.956  63.633  1.00  0.00     0.241 C 
HETATM   37  O4  UNL     1       9.889  19.131  63.127  1.00  0.00    -0.271 OA
ATOM     38  H2  UNL     1      11.118  16.911  65.107  1.00  0.00     0.162 HD
BRANCH  36  39
HETATM   39  C30 UNL     1       9.240  16.845  63.121  1.00  0.00     0.184 C 
BRANCH  39  40
HETATM   40  C31 UNL     1       9.267  16.688  61.616  1.00  0.00     0.010 C 
HETATM   41  C32 UNL     1      10.608  16.971  61.002  1.00  0.00     0.012 C 
HETATM   42  C33 UNL     1       8.611  15.426  61.118  1.00  0.00     0.012 C 
ENDBRANCH  39  40
BRANCH  39  43
HETATM   43  N3  UNL     1       7.909  16.859  63.646  1.00  0.00    -0.320 N 
HETATM   44  C34 UNL     1       6.836  17.735  63.282  1.00  0.00     0.130 C 
HETATM   45  C35 UNL     1       5.656  16.912  62.823  1.00  0.00     0.040 C 
HETATM   46  C36 UNL     1       5.271  15.847  63.817  1.00  0.00     0.126 C 
HETATM   47  N4  UNL     1       6.183  15.734  64.931  1.00  0.00    -0.343 N 
HETATM   48  C37 UNL     1       7.572  15.890  64.673  1.00  0.00     0.319 C 
ATOM     49  H4  UNL     1       5.842  15.548  65.874  1.00  0.00     0.164 HD
HETATM   50  O5  UNL     1       8.470  15.264  65.257  1.00  0.00    -0.247 OA
ENDBRANCH  39  43
ENDBRANCH  36  39
ENDBRANCH  27  35
ENDBRANCH  26  27
ENDBRANCH   1  26
TORSDOF 16
ENDMDL
