MODEL 7
REMARK VINA RESULT: -10.515967777      2.027      9.914
REMARK  16 active torsions:
REMARK  status: ('A' for Active; 'I' for Inactive)
REMARK    1  A    between atoms: C8_8  and  O1_9 
REMARK    2  A    between atoms: O1_9  and  C9_10 
REMARK    3  A    between atoms: C9_10  and  C10_11 
REMARK       I    between atoms: C10_11  and  N1_13 
REMARK    4  A    between atoms: N1_13  and  C11_15 
REMARK    5  A    between atoms: C11_15  and  C12_16 
REMARK    6  A    between atoms: C11_15  and  C19_23 
REMARK    7  A    between atoms: C12_16  and  C13_17 
REMARK    8  A    between atoms: C19_23  and  O3_24 
REMARK    9  A    between atoms: C19_23  and  C20_26 
REMARK   10  A    between atoms: C20_26  and  C21_27 
REMARK   11  A    between atoms: C21_27  and  C22_28 
REMARK   12  A    between atoms: C21_27  and  N2_35 
REMARK   13  A    between atoms: C22_28  and  C23_29 
REMARK       I    between atoms: N2_35  and  C29_37 
REMARK   14  A    between atoms: C29_37  and  C30_39 
REMARK   15  A    between atoms: C30_39  and  C31_40 
REMARK   16  A    between atoms: C30_39  and  N3_43 
ROOT
HETATM    1  C19 UNL     1      13.937  19.800  64.824  1.00  0.00     0.143 C 
ENDROOT
BRANCH   1   2
HETATM    2  C11 UNL     1      12.430  19.521  64.852  1.00  0.00     0.117 C 
BRANCH   2   3
HETATM    3  N1  UNL     1      11.961  18.681  63.820  1.00  0.00    -0.352 N 
HETATM    4  C10 UNL     1      11.322  19.158  62.622  1.00  0.00     0.242 C 
HETATM    5  O2  UNL     1      11.232  20.396  62.587  1.00  0.00    -0.271 OA
ATOM      6  H1  UNL     1      12.083  17.674  63.929  1.00  0.00     0.163 HD
BRANCH   4   7
HETATM    7  C9  UNL     1      10.864  18.186  61.615  1.00  0.00     0.278 C 
BRANCH   7   8
HETATM    8  O1  UNL     1       9.561  17.951  61.412  1.00  0.00    -0.341 OA
BRANCH   8   9
HETATM    9  C8  UNL     1       8.665  17.253  62.143  1.00  0.00     0.081 A 
HETATM   10  C2  UNL     1       7.919  17.819  63.137  1.00  0.00    -0.028 A 
HETATM   11  C1  UNL     1       8.020  19.285  63.412  1.00  0.00     0.051 C 
HETATM   12  C3  UNL     1       6.993  17.128  63.916  1.00  0.00     0.009 A 
HETATM   13  C4  UNL     1       6.843  15.766  63.631  1.00  0.00     0.001 A 
HETATM   14  C5  UNL     1       7.583  15.169  62.631  1.00  0.00     0.009 A 
HETATM   15  C6  UNL     1       8.477  15.883  61.895  1.00  0.00    -0.028 A 
HETATM   16  C7  UNL     1       9.274  15.274  60.822  1.00  0.00     0.051 C 
ENDBRANCH   8   9
ENDBRANCH   7   8
ENDBRANCH   4   7
ENDBRANCH   2   3
BRANCH   2  17
HETATM   17  C12 UNL     1      11.959  19.176  66.235  1.00  0.00     0.066 C 
BRANCH  17  18
HETATM   18  C13 UNL     1      10.556  19.567  66.495  1.00  0.00    -0.056 A 
HETATM   19  C14 UNL     1       9.578  18.641  66.762  1.00  0.00     0.007 A 
HETATM   20  C15 UNL     1       8.285  19.035  67.010  1.00  0.00     0.001 A 
HETATM   21  C16 UNL     1       7.993  20.392  66.984  1.00  0.00     0.000 A 
HETATM   22  C17 UNL     1       8.957  21.343  66.718  1.00  0.00     0.001 A 
HETATM   23  C18 UNL     1      10.257  20.909  66.471  1.00  0.00     0.007 A 
ENDBRANCH  17  18
ENDBRANCH   2  17
ENDBRANCH   1   2
BRANCH   1  24
HETATM   24  O3  UNL     1      14.575  18.569  64.727  1.00  0.00    -0.393 OA
ATOM     25  H3  UNL     1      14.034  17.939  65.189  1.00  0.00     0.210 HD
ENDBRANCH   1  24
BRANCH   1  26
HETATM   26  C20 UNL     1      14.354  20.832  63.885  1.00  0.00     0.059 C 
BRANCH  26  27
HETATM   27  C21 UNL     1      15.238  21.942  64.358  1.00  0.00     0.091 C 
BRANCH  27  28
HETATM   28  C22 UNL     1      14.608  23.009  65.151  1.00  0.00     0.063 C 
BRANCH  28  29
HETATM   29  C23 UNL     1      15.368  23.584  66.271  1.00  0.00    -0.056 A 
HETATM   30  C24 UNL     1      14.986  23.412  67.598  1.00  0.00     0.007 A 
HETATM   31  C25 UNL     1      15.689  23.976  68.642  1.00  0.00     0.001 A 
HETATM   32  C26 UNL     1      16.808  24.736  68.370  1.00  0.00     0.000 A 
HETATM   33  C27 UNL     1      17.228  24.935  67.079  1.00  0.00     0.001 A 
HETATM   34  C28 UNL     1      16.511  24.363  66.072  1.00  0.00     0.007 A 
ENDBRANCH  28  29
ENDBRANCH  27  28
BRANCH  27  35
HETATM   35  N2  UNL     1      16.011  22.516  63.256  1.00  0.00    -0.354 N 
HETATM   36  C29 UNL     1      16.602  21.738  62.223  1.00  0.00     0.241 C 
HETATM   37  O4  UNL     1      16.440  20.463  62.295  1.00  0.00    -0.271 OA
ATOM     38  H2  UNL     1      16.131  23.528  63.228  1.00  0.00     0.162 HD
BRANCH  36  39
HETATM   39  C30 UNL     1      17.368  22.306  61.117  1.00  0.00     0.184 C 
BRANCH  39  40
HETATM   40  C31 UNL     1      18.870  22.228  61.281  1.00  0.00     0.010 C 
HETATM   41  C32 UNL     1      19.324  22.230  62.712  1.00  0.00     0.012 C 
HETATM   42  C33 UNL     1      19.527  21.178  60.424  1.00  0.00     0.012 C 
ENDBRANCH  39  40
BRANCH  39  43
HETATM   43  N3  UNL     1      16.921  23.625  60.784  1.00  0.00    -0.320 N 
HETATM   44  C34 UNL     1      17.607  24.862  61.009  1.00  0.00     0.130 C 
HETATM   45  C35 UNL     1      17.771  25.586  59.693  1.00  0.00     0.040 C 
HETATM   46  C36 UNL     1      16.471  25.729  58.946  1.00  0.00     0.126 C 
HETATM   47  N4  UNL     1      15.366  25.031  59.560  1.00  0.00    -0.343 N 
HETATM   48  C37 UNL     1      15.624  23.763  60.148  1.00  0.00     0.319 C 
ATOM     49  H4  UNL     1      14.429  25.436  59.572  1.00  0.00     0.164 HD
HETATM   50  O5  UNL     1      14.828  22.812  60.143  1.00  0.00    -0.247 OA
ENDBRANCH  39  43
ENDBRANCH  36  39
ENDBRANCH  27  35
ENDBRANCH  26  27
ENDBRANCH   1  26
TORSDOF 16
ENDMDL
