MODEL 4
REMARK VINA RESULT: -10.661791049      1.304      1.814
REMARK  16 active torsions:
REMARK  status: ('A' for Active; 'I' for Inactive)
REMARK    1  A    between atoms: C8_8  and  O1_9 
REMARK    2  A    between atoms: O1_9  and  C9_10 
REMARK    3  A    between atoms: C9_10  and  C10_11 
REMARK       I    between atoms: C10_11  and  N1_13 
REMARK    4  A    between atoms: N1_13  and  C11_15 
REMARK    5  A    between atoms: C11_15  and  C12_16 
REMARK    6  A    between atoms: C11_15  and  C19_23 
REMARK    7  A    between atoms: C12_16  and  C13_17 
REMARK    8  A    between atoms: C19_23  and  O3_24 
REMARK    9  A    between atoms: C19_23  and  C20_26 
REMARK   10  A    between atoms: C20_26  and  C21_27 
REMARK   11  A    between atoms: C21_27  and  C22_28 
REMARK   12  A    between atoms: C21_27  and  N2_35 
REMARK   13  A    between atoms: C22_28  and  C23_29 
REMARK       I    between atoms: N2_35  and  C29_37 
REMARK   14  A    between atoms: C29_37  and  C30_39 
REMARK   15  A    between atoms: C30_39  and  C31_40 
REMARK   16  A    between atoms: C30_39  and  N3_43 
ROOT
HETATM    1  C19 UNL     1      12.728  18.915  65.093  1.00  0.00     0.143 C 
ENDROOT
BRANCH   1   2
HETATM    2  C11 UNL     1      13.632  20.041  64.577  1.00  0.00     0.117 C 
BRANCH   2   3
HETATM    3  N1  UNL     1      14.189  20.863  65.579  1.00  0.00    -0.352 N 
HETATM    4  C10 UNL     1      13.845  22.248  65.767  1.00  0.00     0.242 C 
HETATM    5  O2  UNL     1      12.996  22.646  64.954  1.00  0.00    -0.271 OA
ATOM      6  H1  UNL     1      14.877  20.451  66.209  1.00  0.00     0.163 HD
BRANCH   4   7
HETATM    7  C9  UNL     1      14.499  23.012  66.842  1.00  0.00     0.278 C 
BRANCH   7   8
HETATM    8  O1  UNL     1      15.826  22.973  67.021  1.00  0.00    -0.341 OA
BRANCH   8   9
HETATM    9  C8  UNL     1      16.772  23.916  66.818  1.00  0.00     0.081 A 
HETATM   10  C2  UNL     1      17.093  24.857  67.756  1.00  0.00    -0.028 A 
HETATM   11  C1  UNL     1      16.440  24.832  69.100  1.00  0.00     0.051 C 
HETATM   12  C3  UNL     1      18.056  25.847  67.578  1.00  0.00     0.009 A 
HETATM   13  C4  UNL     1      18.719  25.847  66.345  1.00  0.00     0.001 A 
HETATM   14  C5  UNL     1      18.417  24.907  65.381  1.00  0.00     0.009 A 
HETATM   15  C6  UNL     1      17.467  23.957  65.598  1.00  0.00    -0.028 A 
HETATM   16  C7  UNL     1      17.128  22.943  64.592  1.00  0.00     0.051 C 
ENDBRANCH   8   9
ENDBRANCH   7   8
ENDBRANCH   4   7
ENDBRANCH   2   3
BRANCH   2  17
HETATM   17  C12 UNL     1      14.593  19.544  63.537  1.00  0.00     0.066 C 
BRANCH  17  18
HETATM   18  C13 UNL     1      14.638  20.388  62.323  1.00  0.00    -0.056 A 
HETATM   19  C14 UNL     1      15.753  21.113  61.981  1.00  0.00     0.007 A 
HETATM   20  C15 UNL     1      15.768  21.882  60.841  1.00  0.00     0.001 A 
HETATM   21  C16 UNL     1      14.630  21.906  60.046  1.00  0.00     0.000 A 
HETATM   22  C17 UNL     1      13.498  21.186  60.368  1.00  0.00     0.001 A 
HETATM   23  C18 UNL     1      13.516  20.418  61.529  1.00  0.00     0.007 A 
ENDBRANCH  17  18
ENDBRANCH   2  17
ENDBRANCH   1   2
BRANCH   1  24
HETATM   24  O3  UNL     1      13.540  17.805  65.295  1.00  0.00    -0.393 OA
ATOM     25  H3  UNL     1      13.157  17.310  66.011  1.00  0.00     0.210 HD
ENDBRANCH   1  24
BRANCH   1  26
HETATM   26  C20 UNL     1      11.842  19.290  66.186  1.00  0.00     0.059 C 
BRANCH  26  27
HETATM   27  C21 UNL     1      10.385  18.969  66.094  1.00  0.00     0.091 C 
BRANCH  27  28
HETATM   28  C22 UNL     1       9.654  18.803  67.360  1.00  0.00     0.063 C 
BRANCH  28  29
HETATM   29  C23 UNL     1       8.184  18.778  67.315  1.00  0.00    -0.056 A 
HETATM   30  C24 UNL     1       7.435  19.840  66.815  1.00  0.00     0.007 A 
HETATM   31  C25 UNL     1       6.057  19.821  66.801  1.00  0.00     0.001 A 
HETATM   32  C26 UNL     1       5.390  18.719  67.296  1.00  0.00     0.000 A 
HETATM   33  C27 UNL     1       6.081  17.646  67.799  1.00  0.00     0.001 A 
HETATM   34  C28 UNL     1       7.442  17.697  67.798  1.00  0.00     0.007 A 
ENDBRANCH  28  29
ENDBRANCH  27  28
BRANCH  27  35
HETATM   35  N2  UNL     1      10.145  17.825  65.214  1.00  0.00    -0.354 N 
HETATM   36  C29 UNL     1       9.473  17.923  63.965  1.00  0.00     0.241 C 
HETATM   37  O4  UNL     1       9.056  19.092  63.622  1.00  0.00    -0.271 OA
ATOM     38  H2  UNL     1      10.477  16.908  65.513  1.00  0.00     0.162 HD
BRANCH  36  39
HETATM   39  C30 UNL     1       9.237  16.786  63.078  1.00  0.00     0.184 C 
BRANCH  39  40
HETATM   40  C31 UNL     1       9.594  17.030  61.628  1.00  0.00     0.010 C 
HETATM   41  C32 UNL     1       8.605  17.893  60.899  1.00  0.00     0.012 C 
HETATM   42  C33 UNL     1      11.033  17.413  61.406  1.00  0.00     0.012 C 
ENDBRANCH  39  40
BRANCH  39  43
HETATM   43  N3  UNL     1       7.917  16.255  63.236  1.00  0.00    -0.320 N 
HETATM   44  C34 UNL     1       6.868  16.757  64.073  1.00  0.00     0.130 C 
HETATM   45  C35 UNL     1       5.652  17.047  63.226  1.00  0.00     0.040 C 
HETATM   46  C36 UNL     1       5.249  15.873  62.371  1.00  0.00     0.126 C 
HETATM   47  N4  UNL     1       6.178  14.768  62.424  1.00  0.00    -0.343 N 
HETATM   48  C37 UNL     1       7.566  15.068  62.479  1.00  0.00     0.319 C 
ATOM     49  H4  UNL     1       5.848  13.803  62.422  1.00  0.00     0.164 HD
HETATM   50  O5  UNL     1       8.453  14.392  61.934  1.00  0.00    -0.247 OA
ENDBRANCH  39  43
ENDBRANCH  36  39
ENDBRANCH  27  35
ENDBRANCH  26  27
ENDBRANCH   1  26
TORSDOF 16
ENDMDL
