MODEL 2
REMARK VINA RESULT: -10.920177972      0.746      1.054
REMARK  16 active torsions:
REMARK  status: ('A' for Active; 'I' for Inactive)
REMARK    1  A    between atoms: C8_8  and  O1_9 
REMARK    2  A    between atoms: O1_9  and  C9_10 
REMARK    3  A    between atoms: C9_10  and  C10_11 
REMARK       I    between atoms: C10_11  and  N1_13 
REMARK    4  A    between atoms: N1_13  and  C11_15 
REMARK    5  A    between atoms: C11_15  and  C12_16 
REMARK    6  A    between atoms: C11_15  and  C19_23 
REMARK    7  A    between atoms: C12_16  and  C13_17 
REMARK    8  A    between atoms: C19_23  and  O3_24 
REMARK    9  A    between atoms: C19_23  and  C20_26 
REMARK   10  A    between atoms: C20_26  and  C21_27 
REMARK   11  A    between atoms: C21_27  and  C22_28 
REMARK   12  A    between atoms: C21_27  and  N2_35 
REMARK   13  A    between atoms: C22_28  and  C23_29 
REMARK       I    between atoms: N2_35  and  C29_37 
REMARK   14  A    between atoms: C29_37  and  C30_39 
REMARK   15  A    between atoms: C30_39  and  C31_40 
REMARK   16  A    between atoms: C30_39  and  N3_43 
ROOT
HETATM    1  C19 UNL     1      13.316  18.643  64.660  1.00  0.00     0.143 C 
ENDROOT
BRANCH   1   2
HETATM    2  C11 UNL     1      13.313  19.932  63.830  1.00  0.00     0.117 C 
BRANCH   2   3
HETATM    3  N1  UNL     1      14.023  21.008  64.400  1.00  0.00    -0.352 N 
HETATM    4  C10 UNL     1      13.400  22.189  64.939  1.00  0.00     0.242 C 
HETATM    5  O2  UNL     1      12.162  22.157  64.857  1.00  0.00    -0.271 OA
ATOM      6  H1  UNL     1      15.041  20.948  64.433  1.00  0.00     0.163 HD
BRANCH   4   7
HETATM    7  C9  UNL     1      14.245  23.255  65.502  1.00  0.00     0.278 C 
BRANCH   7   8
HETATM    8  O1  UNL     1      15.480  23.004  65.955  1.00  0.00    -0.341 OA
BRANCH   8   9
HETATM    9  C8  UNL     1      16.470  23.843  66.330  1.00  0.00     0.081 A 
HETATM   10  C2  UNL     1      16.517  24.429  67.563  1.00  0.00    -0.028 A 
HETATM   11  C1  UNL     1      15.482  24.100  68.592  1.00  0.00     0.051 C 
HETATM   12  C3  UNL     1      17.517  25.303  67.981  1.00  0.00     0.009 A 
HETATM   13  C4  UNL     1      18.526  25.575  67.049  1.00  0.00     0.001 A 
HETATM   14  C5  UNL     1      18.505  24.996  65.798  1.00  0.00     0.009 A 
HETATM   15  C6  UNL     1      17.506  24.147  65.432  1.00  0.00    -0.028 A 
HETATM   16  C7  UNL     1      17.462  23.513  64.108  1.00  0.00     0.051 C 
ENDBRANCH   8   9
ENDBRANCH   7   8
ENDBRANCH   4   7
ENDBRANCH   2   3
BRANCH   2  17
HETATM   17  C12 UNL     1      13.602  19.656  62.383  1.00  0.00     0.066 C 
BRANCH  17  18
HETATM   18  C13 UNL     1      14.629  20.551  61.805  1.00  0.00    -0.056 A 
HETATM   19  C14 UNL     1      15.973  20.309  61.952  1.00  0.00     0.007 A 
HETATM   20  C15 UNL     1      16.904  21.154  61.395  1.00  0.00     0.001 A 
HETATM   21  C16 UNL     1      16.452  22.256  60.682  1.00  0.00     0.000 A 
HETATM   22  C17 UNL     1      15.107  22.521  60.520  1.00  0.00     0.001 A 
HETATM   23  C18 UNL     1      14.191  21.645  61.097  1.00  0.00     0.007 A 
ENDBRANCH  17  18
ENDBRANCH   2  17
ENDBRANCH   1   2
BRANCH   1  24
HETATM   24  O3  UNL     1      14.646  18.332  64.920  1.00  0.00    -0.393 OA
ATOM     25  H3  UNL     1      15.125  18.471  64.112  1.00  0.00     0.210 HD
ENDBRANCH   1  24
BRANCH   1  26
HETATM   26  C20 UNL     1      12.407  18.642  65.798  1.00  0.00     0.059 C 
BRANCH  26  27
HETATM   27  C21 UNL     1      10.971  19.006  65.591  1.00  0.00     0.091 C 
BRANCH  27  28
HETATM   28  C22 UNL     1      10.239  19.534  66.753  1.00  0.00     0.063 C 
BRANCH  28  29
HETATM   29  C23 UNL     1       8.890  19.014  67.020  1.00  0.00    -0.056 A 
HETATM   30  C24 UNL     1       7.742  19.643  66.549  1.00  0.00     0.007 A 
HETATM   31  C25 UNL     1       6.478  19.164  66.826  1.00  0.00     0.001 A 
HETATM   32  C26 UNL     1       6.340  18.025  67.592  1.00  0.00     0.000 A 
HETATM   33  C27 UNL     1       7.441  17.366  68.079  1.00  0.00     0.001 A 
HETATM   34  C28 UNL     1       8.673  17.866  67.787  1.00  0.00     0.007 A 
ENDBRANCH  28  29
ENDBRANCH  27  28
BRANCH  27  35
HETATM   35  N2  UNL     1      10.225  17.908  64.976  1.00  0.00    -0.354 N 
HETATM   36  C29 UNL     1       9.668  17.973  63.669  1.00  0.00     0.241 C 
HETATM   37  O4  UNL     1       9.838  19.073  63.022  1.00  0.00    -0.271 OA
ATOM     38  H2  UNL     1      10.098  17.051  65.513  1.00  0.00     0.162 HD
BRANCH  36  39
HETATM   39  C30 UNL     1       8.929  16.877  63.046  1.00  0.00     0.184 C 
BRANCH  39  40
HETATM   40  C31 UNL     1       8.999  16.845  61.535  1.00  0.00     0.010 C 
HETATM   41  C32 UNL     1      10.320  17.291  60.981  1.00  0.00     0.012 C 
HETATM   42  C33 UNL     1       8.466  15.576  60.923  1.00  0.00     0.012 C 
ENDBRANCH  39  40
BRANCH  39  43
HETATM   43  N3  UNL     1       7.585  16.799  63.535  1.00  0.00    -0.320 N 
HETATM   44  C34 UNL     1       6.452  17.558  63.099  1.00  0.00     0.130 C 
HETATM   45  C35 UNL     1       5.363  16.614  62.650  1.00  0.00     0.040 C 
HETATM   46  C36 UNL     1       5.042  15.567  63.684  1.00  0.00     0.126 C 
HETATM   47  N4  UNL     1       5.925  15.586  64.827  1.00  0.00    -0.343 N 
HETATM   48  C37 UNL     1       7.303  15.852  64.598  1.00  0.00     0.319 C 
ATOM     49  H4  UNL     1       5.572  15.415  65.768  1.00  0.00     0.164 HD
HETATM   50  O5  UNL     1       8.233  15.336  65.236  1.00  0.00    -0.247 OA
ENDBRANCH  39  43
ENDBRANCH  36  39
ENDBRANCH  27  35
ENDBRANCH  26  27
ENDBRANCH   1  26
TORSDOF 16
ENDMDL
