MODEL 10
REMARK VINA RESULT: -10.439132649      1.276      5.427
REMARK  16 active torsions:
REMARK  status: ('A' for Active; 'I' for Inactive)
REMARK    1  A    between atoms: C8_8  and  O1_9 
REMARK    2  A    between atoms: O1_9  and  C9_10 
REMARK    3  A    between atoms: C9_10  and  C10_11 
REMARK       I    between atoms: C10_11  and  N1_13 
REMARK    4  A    between atoms: N1_13  and  C11_15 
REMARK    5  A    between atoms: C11_15  and  C12_16 
REMARK    6  A    between atoms: C11_15  and  C19_23 
REMARK    7  A    between atoms: C12_16  and  C13_17 
REMARK    8  A    between atoms: C19_23  and  O3_24 
REMARK    9  A    between atoms: C19_23  and  C20_26 
REMARK   10  A    between atoms: C20_26  and  C21_27 
REMARK   11  A    between atoms: C21_27  and  C22_28 
REMARK   12  A    between atoms: C21_27  and  N2_35 
REMARK   13  A    between atoms: C22_28  and  C23_29 
REMARK       I    between atoms: N2_35  and  C29_37 
REMARK   14  A    between atoms: C29_37  and  C30_39 
REMARK   15  A    between atoms: C30_39  and  C31_40 
REMARK   16  A    between atoms: C30_39  and  N3_43 
ROOT
HETATM    1  C19 UNL     1      10.966  21.124  63.880  1.00  0.00     0.143 C 
ENDROOT
BRANCH   1   2
HETATM    2  C11 UNL     1      11.649  21.071  65.251  1.00  0.00     0.117 C 
BRANCH   2   3
HETATM    3  N1  UNL     1      12.931  21.657  65.300  1.00  0.00    -0.352 N 
HETATM    4  C10 UNL     1      14.157  20.906  65.378  1.00  0.00     0.242 C 
HETATM    5  O2  UNL     1      13.968  19.679  65.389  1.00  0.00    -0.271 OA
ATOM      6  H1  UNL     1      12.994  22.675  65.280  1.00  0.00     0.163 HD
BRANCH   4   7
HETATM    7  C9  UNL     1      15.440  21.627  65.434  1.00  0.00     0.278 C 
BRANCH   7   8
HETATM    8  O1  UNL     1      15.489  22.962  65.517  1.00  0.00    -0.341 OA
BRANCH   8   9
HETATM    9  C8  UNL     1      16.364  23.776  66.147  1.00  0.00     0.081 A 
HETATM   10  C2  UNL     1      17.500  24.245  65.551  1.00  0.00    -0.028 A 
HETATM   11  C1  UNL     1      17.789  23.920  64.120  1.00  0.00     0.051 C 
HETATM   12  C3  UNL     1      18.428  25.078  66.172  1.00  0.00     0.009 A 
HETATM   13  C4  UNL     1      18.142  25.440  67.494  1.00  0.00     0.001 A 
HETATM   14  C5  UNL     1      17.000  24.983  68.119  1.00  0.00     0.009 A 
HETATM   15  C6  UNL     1      16.121  24.169  67.474  1.00  0.00    -0.028 A 
HETATM   16  C7  UNL     1      14.897  23.671  68.114  1.00  0.00     0.051 C 
ENDBRANCH   8   9
ENDBRANCH   7   8
ENDBRANCH   4   7
ENDBRANCH   2   3
BRANCH   2  17
HETATM   17  C12 UNL     1      10.710  21.471  66.351  1.00  0.00     0.066 C 
BRANCH  17  18
HETATM   18  C13 UNL     1       9.725  20.423  66.698  1.00  0.00    -0.056 A 
HETATM   19  C14 UNL     1      10.105  19.142  67.016  1.00  0.00     0.007 A 
HETATM   20  C15 UNL     1       9.168  18.192  67.343  1.00  0.00     0.001 A 
HETATM   21  C16 UNL     1       7.829  18.559  67.345  1.00  0.00     0.000 A 
HETATM   22  C17 UNL     1       7.421  19.838  67.030  1.00  0.00     0.001 A 
HETATM   23  C18 UNL     1       8.396  20.777  66.702  1.00  0.00     0.007 A 
ENDBRANCH  17  18
ENDBRANCH   2  17
ENDBRANCH   1   2
BRANCH   1  24
HETATM   24  O3  UNL     1      10.227  22.301  63.841  1.00  0.00    -0.393 OA
ATOM     25  H3  UNL     1       9.360  22.072  63.527  1.00  0.00     0.210 HD
ENDBRANCH   1  24
BRANCH   1  26
HETATM   26  C20 UNL     1      11.842  20.860  62.746  1.00  0.00     0.059 C 
BRANCH  26  27
HETATM   27  C21 UNL     1      12.310  19.463  62.490  1.00  0.00     0.091 C 
BRANCH  27  28
HETATM   28  C22 UNL     1      13.384  19.288  61.500  1.00  0.00     0.063 C 
BRANCH  28  29
HETATM   29  C23 UNL     1      14.298  20.414  61.257  1.00  0.00    -0.056 A 
HETATM   30  C24 UNL     1      14.009  21.425  60.345  1.00  0.00     0.007 A 
HETATM   31  C25 UNL     1      14.883  22.465  60.104  1.00  0.00     0.001 A 
HETATM   32  C26 UNL     1      16.082  22.512  60.784  1.00  0.00     0.000 A 
HETATM   33  C27 UNL     1      16.414  21.540  61.694  1.00  0.00     0.001 A 
HETATM   34  C28 UNL     1      15.528  20.528  61.909  1.00  0.00     0.007 A 
ENDBRANCH  28  29
ENDBRANCH  27  28
BRANCH  27  35
HETATM   35  N2  UNL     1      11.191  18.570  62.190  1.00  0.00    -0.354 N 
HETATM   36  C29 UNL     1      10.712  17.581  63.093  1.00  0.00     0.241 C 
HETATM   37  O4  UNL     1      11.324  17.484  64.222  1.00  0.00    -0.271 OA
ATOM     38  H2  UNL     1      10.729  18.662  61.286  1.00  0.00     0.162 HD
BRANCH  36  39
HETATM   39  C30 UNL     1       9.590  16.693  62.803  1.00  0.00     0.184 C 
BRANCH  39  40
HETATM   40  C31 UNL     1       9.325  16.468  61.330  1.00  0.00     0.010 C 
HETATM   41  C32 UNL     1      10.571  16.307  60.509  1.00  0.00     0.012 C 
HETATM   42  C33 UNL     1       8.259  15.441  61.047  1.00  0.00     0.012 C 
ENDBRANCH  39  40
BRANCH  39  43
HETATM   43  N3  UNL     1       8.411  17.075  63.520  1.00  0.00    -0.320 N 
HETATM   44  C34 UNL     1       7.656  18.284  63.377  1.00  0.00     0.130 C 
HETATM   45  C35 UNL     1       6.225  17.941  63.044  1.00  0.00     0.040 C 
HETATM   46  C36 UNL     1       5.627  16.952  64.011  1.00  0.00     0.126 C 
HETATM   47  N4  UNL     1       6.573  16.428  64.968  1.00  0.00    -0.343 N 
HETATM   48  C37 UNL     1       7.894  16.157  64.517  1.00  0.00     0.319 C 
ATOM     49  H4  UNL     1       6.303  16.257  65.936  1.00  0.00     0.164 HD
HETATM   50  O5  UNL     1       8.594  15.215  64.919  1.00  0.00    -0.247 OA
ENDBRANCH  39  43
ENDBRANCH  36  39
ENDBRANCH  27  35
ENDBRANCH  26  27
ENDBRANCH   1  26
TORSDOF 16
ENDMDL
