MODEL 6
REMARK VINA RESULT: -10.567147481      1.980      9.889
REMARK  16 active torsions:
REMARK  status: ('A' for Active; 'I' for Inactive)
REMARK    1  A    between atoms: C8_8  and  O1_9 
REMARK    2  A    between atoms: O1_9  and  C9_10 
REMARK    3  A    between atoms: C9_10  and  C10_11 
REMARK       I    between atoms: C10_11  and  N1_13 
REMARK    4  A    between atoms: N1_13  and  C11_15 
REMARK    5  A    between atoms: C11_15  and  C12_16 
REMARK    6  A    between atoms: C11_15  and  C19_23 
REMARK    7  A    between atoms: C12_16  and  C13_17 
REMARK    8  A    between atoms: C19_23  and  O3_24 
REMARK    9  A    between atoms: C19_23  and  C20_26 
REMARK   10  A    between atoms: C20_26  and  C21_27 
REMARK   11  A    between atoms: C21_27  and  C22_28 
REMARK   12  A    between atoms: C21_27  and  N2_35 
REMARK   13  A    between atoms: C22_28  and  C23_29 
REMARK       I    between atoms: N2_35  and  C29_37 
REMARK   14  A    between atoms: C29_37  and  C30_39 
REMARK   15  A    between atoms: C30_39  and  C31_40 
REMARK   16  A    between atoms: C30_39  and  N3_43 
ROOT
HETATM    1  C19 UNL     1      12.888  20.656  66.057  1.00  0.00     0.143 C 
ENDROOT
BRANCH   1   2
HETATM    2  C11 UNL     1      11.557  19.981  65.707  1.00  0.00     0.117 C 
BRANCH   2   3
HETATM    3  N1  UNL     1      11.559  19.252  64.500  1.00  0.00    -0.352 N 
HETATM    4  C10 UNL     1      11.257  19.823  63.213  1.00  0.00     0.242 C 
HETATM    5  O2  UNL     1      11.000  21.036  63.276  1.00  0.00    -0.271 OA
ATOM      6  H1  UNL     1      11.789  18.258  64.540  1.00  0.00     0.163 HD
BRANCH   4   7
HETATM    7  C9  UNL     1      11.281  18.961  62.020  1.00  0.00     0.278 C 
BRANCH   7   8
HETATM    8  O1  UNL     1      10.150  18.530  61.445  1.00  0.00    -0.341 OA
BRANCH   8   9
HETATM    9  C8  UNL     1       9.349  17.485  61.747  1.00  0.00     0.081 A 
HETATM   10  C2  UNL     1       8.278  17.592  62.588  1.00  0.00    -0.028 A 
HETATM   11  C1  UNL     1       7.904  18.920  63.165  1.00  0.00     0.051 C 
HETATM   12  C3  UNL     1       7.437  16.536  62.928  1.00  0.00     0.009 A 
HETATM   13  C4  UNL     1       7.739  15.297  62.348  1.00  0.00     0.001 A 
HETATM   14  C5  UNL     1       8.813  15.161  61.494  1.00  0.00     0.009 A 
HETATM   15  C6  UNL     1       9.610  16.222  61.191  1.00  0.00    -0.028 A 
HETATM   16  C7  UNL     1      10.757  16.106  60.281  1.00  0.00     0.051 C 
ENDBRANCH   8   9
ENDBRANCH   7   8
ENDBRANCH   4   7
ENDBRANCH   2   3
BRANCH   2  17
HETATM   17  C12 UNL     1      10.970  19.272  66.893  1.00  0.00     0.066 C 
BRANCH  17  18
HETATM   18  C13 UNL     1       9.508  19.456  67.026  1.00  0.00    -0.056 A 
HETATM   19  C14 UNL     1       8.655  18.397  67.215  1.00  0.00     0.007 A 
HETATM   20  C15 UNL     1       7.301  18.599  67.344  1.00  0.00     0.001 A 
HETATM   21  C16 UNL     1       6.820  19.900  67.281  1.00  0.00     0.000 A 
HETATM   22  C17 UNL     1       7.656  20.981  67.092  1.00  0.00     0.001 A 
HETATM   23  C18 UNL     1       9.021  20.740  66.964  1.00  0.00     0.007 A 
ENDBRANCH  17  18
ENDBRANCH   2  17
ENDBRANCH   1   2
BRANCH   1  24
HETATM   24  O3  UNL     1      13.884  19.966  65.376  1.00  0.00    -0.393 OA
ATOM     25  H3  UNL     1      14.141  19.236  65.928  1.00  0.00     0.210 HD
ENDBRANCH   1  24
BRANCH   1  26
HETATM   26  C20 UNL     1      12.893  22.107  65.933  1.00  0.00     0.059 C 
BRANCH  26  27
HETATM   27  C21 UNL     1      14.148  22.805  65.516  1.00  0.00     0.091 C 
BRANCH  27  28
HETATM   28  C22 UNL     1      14.338  24.184  65.992  1.00  0.00     0.063 C 
BRANCH  28  29
HETATM   29  C23 UNL     1      15.662  24.565  66.508  1.00  0.00    -0.056 A 
HETATM   30  C24 UNL     1      15.999  24.450  67.853  1.00  0.00     0.007 A 
HETATM   31  C25 UNL     1      17.233  24.834  68.334  1.00  0.00     0.001 A 
HETATM   32  C26 UNL     1      18.168  25.349  67.461  1.00  0.00     0.000 A 
HETATM   33  C27 UNL     1      17.887  25.482  66.125  1.00  0.00     0.001 A 
HETATM   34  C28 UNL     1      16.658  25.092  65.683  1.00  0.00     0.007 A 
ENDBRANCH  28  29
ENDBRANCH  27  28
BRANCH  27  35
HETATM   35  N2  UNL     1      14.342  22.735  64.068  1.00  0.00    -0.354 N 
HETATM   36  C29 UNL     1      15.560  22.328  63.457  1.00  0.00     0.241 C 
HETATM   37  O4  UNL     1      16.528  22.019  64.249  1.00  0.00    -0.271 OA
ATOM     38  H2  UNL     1      13.562  22.993  63.463  1.00  0.00     0.162 HD
BRANCH  36  39
HETATM   39  C30 UNL     1      15.757  22.249  62.012  1.00  0.00     0.184 C 
BRANCH  39  40
HETATM   40  C31 UNL     1      15.285  20.958  61.379  1.00  0.00     0.010 C 
HETATM   41  C32 UNL     1      15.423  19.760  62.272  1.00  0.00     0.012 C 
HETATM   42  C33 UNL     1      13.951  21.066  60.687  1.00  0.00     0.012 C 
ENDBRANCH  39  40
BRANCH  39  43
HETATM   43  N3  UNL     1      17.099  22.583  61.641  1.00  0.00    -0.320 N 
HETATM   44  C34 UNL     1      18.311  22.182  62.292  1.00  0.00     0.130 C 
HETATM   45  C35 UNL     1      19.196  21.467  61.299  1.00  0.00     0.040 C 
HETATM   46  C36 UNL     1      19.409  22.262  60.037  1.00  0.00     0.126 C 
HETATM   47  N4  UNL     1      18.619  23.469  59.969  1.00  0.00    -0.343 N 
HETATM   48  C37 UNL     1      17.292  23.427  60.477  1.00  0.00     0.319 C 
ATOM     49  H4  UNL     1      19.002  24.326  59.569  1.00  0.00     0.164 HD
HETATM   50  O5  UNL     1      16.335  24.049  59.993  1.00  0.00    -0.247 OA
ENDBRANCH  39  43
ENDBRANCH  36  39
ENDBRANCH  27  35
ENDBRANCH  26  27
ENDBRANCH   1  26
TORSDOF 16
ENDMDL
