MODEL 3
REMARK VINA RESULT: -10.860932835      0.705      1.585
REMARK  16 active torsions:
REMARK  status: ('A' for Active; 'I' for Inactive)
REMARK    1  A    between atoms: C8_8  and  O1_9 
REMARK    2  A    between atoms: O1_9  and  C9_10 
REMARK    3  A    between atoms: C9_10  and  C10_11 
REMARK       I    between atoms: C10_11  and  N1_13 
REMARK    4  A    between atoms: N1_13  and  C11_15 
REMARK    5  A    between atoms: C11_15  and  C12_16 
REMARK    6  A    between atoms: C11_15  and  C19_23 
REMARK    7  A    between atoms: C12_16  and  C13_17 
REMARK    8  A    between atoms: C19_23  and  O3_24 
REMARK    9  A    between atoms: C19_23  and  C20_26 
REMARK   10  A    between atoms: C20_26  and  C21_27 
REMARK   11  A    between atoms: C21_27  and  C22_28 
REMARK   12  A    between atoms: C21_27  and  N2_35 
REMARK   13  A    between atoms: C22_28  and  C23_29 
REMARK       I    between atoms: N2_35  and  C29_37 
REMARK   14  A    between atoms: C29_37  and  C30_39 
REMARK   15  A    between atoms: C30_39  and  C31_40 
REMARK   16  A    between atoms: C30_39  and  N3_43 
ROOT
HETATM    1  C19 UNL     1      13.453  18.689  64.600  1.00  0.00     0.143 C 
ENDROOT
BRANCH   1   2
HETATM    2  C11 UNL     1      13.366  20.002  63.814  1.00  0.00     0.117 C 
BRANCH   2   3
HETATM    3  N1  UNL     1      14.062  21.087  64.387  1.00  0.00    -0.352 N 
HETATM    4  C10 UNL     1      13.422  22.236  64.973  1.00  0.00     0.242 C 
HETATM    5  O2  UNL     1      12.184  22.169  64.929  1.00  0.00    -0.271 OA
ATOM      6  H1  UNL     1      15.082  21.055  64.387  1.00  0.00     0.163 HD
BRANCH   4   7
HETATM    7  C9  UNL     1      14.253  23.314  65.534  1.00  0.00     0.278 C 
BRANCH   7   8
HETATM    8  O1  UNL     1      15.455  23.064  66.070  1.00  0.00    -0.341 OA
BRANCH   8   9
HETATM    9  C8  UNL     1      16.478  23.894  66.370  1.00  0.00     0.081 A 
HETATM   10  C2  UNL     1      17.470  24.197  65.481  1.00  0.00    -0.028 A 
HETATM   11  C1  UNL     1      17.421  23.659  64.086  1.00  0.00     0.051 C 
HETATM   12  C3  UNL     1      18.543  25.041  65.757  1.00  0.00     0.009 A 
HETATM   13  C4  UNL     1      18.572  25.599  67.041  1.00  0.00     0.001 A 
HETATM   14  C5  UNL     1      17.582  25.312  67.958  1.00  0.00     0.009 A 
HETATM   15  C6  UNL     1      16.552  24.480  67.644  1.00  0.00    -0.028 A 
HETATM   16  C7  UNL     1      15.483  24.161  68.599  1.00  0.00     0.051 C 
ENDBRANCH   8   9
ENDBRANCH   7   8
ENDBRANCH   4   7
ENDBRANCH   2   3
BRANCH   2  17
HETATM   17  C12 UNL     1      13.598  19.784  62.347  1.00  0.00     0.066 C 
BRANCH  17  18
HETATM   18  C13 UNL     1      14.668  20.636  61.785  1.00  0.00    -0.056 A 
HETATM   19  C14 UNL     1      15.998  20.334  61.939  1.00  0.00     0.007 A 
HETATM   20  C15 UNL     1      16.970  21.141  61.397  1.00  0.00     0.001 A 
HETATM   21  C16 UNL     1      16.573  22.268  60.690  1.00  0.00     0.000 A 
HETATM   22  C17 UNL     1      15.243  22.594  60.521  1.00  0.00     0.001 A 
HETATM   23  C18 UNL     1      14.285  21.755  61.083  1.00  0.00     0.007 A 
ENDBRANCH  17  18
ENDBRANCH   2  17
ENDBRANCH   1   2
BRANCH   1  24
HETATM   24  O3  UNL     1      14.794  18.491  64.909  1.00  0.00    -0.393 OA
ATOM     25  H3  UNL     1      15.299  18.837  64.183  1.00  0.00     0.210 HD
ENDBRANCH   1  24
BRANCH   1  26
HETATM   26  C20 UNL     1      12.501  18.563  65.695  1.00  0.00     0.059 C 
BRANCH  26  27
HETATM   27  C21 UNL     1      11.075  18.956  65.477  1.00  0.00     0.091 C 
BRANCH  27  28
HETATM   28  C22 UNL     1      10.356  19.535  66.623  1.00  0.00     0.063 C 
BRANCH  28  29
HETATM   29  C23 UNL     1       8.990  19.064  66.896  1.00  0.00    -0.056 A 
HETATM   30  C24 UNL     1       7.864  19.711  66.394  1.00  0.00     0.007 A 
HETATM   31  C25 UNL     1       6.585  19.280  66.676  1.00  0.00     0.001 A 
HETATM   32  C26 UNL     1       6.406  18.174  67.480  1.00  0.00     0.000 A 
HETATM   33  C27 UNL     1       7.483  17.499  67.999  1.00  0.00     0.001 A 
HETATM   34  C28 UNL     1       8.732  17.951  67.701  1.00  0.00     0.007 A 
ENDBRANCH  28  29
ENDBRANCH  27  28
BRANCH  27  35
HETATM   35  N2  UNL     1      10.302  17.860  64.893  1.00  0.00    -0.354 N 
HETATM   36  C29 UNL     1       9.693  17.925  63.610  1.00  0.00     0.241 C 
HETATM   37  O4  UNL     1       9.839  19.025  62.956  1.00  0.00    -0.271 OA
ATOM     38  H2  UNL     1      10.195  17.003  65.435  1.00  0.00     0.162 HD
BRANCH  36  39
HETATM   39  C30 UNL     1       8.927  16.831  63.018  1.00  0.00     0.184 C 
BRANCH  39  40
HETATM   40  C31 UNL     1       8.973  16.772  61.507  1.00  0.00     0.010 C 
HETATM   41  C32 UNL     1      10.314  17.119  60.928  1.00  0.00     0.012 C 
HETATM   42  C33 UNL     1       8.347  15.533  60.922  1.00  0.00     0.012 C 
ENDBRANCH  39  40
BRANCH  39  43
HETATM   43  N3  UNL     1       7.590  16.783  63.528  1.00  0.00    -0.320 N 
HETATM   44  C34 UNL     1       6.464  17.557  63.100  1.00  0.00     0.130 C 
HETATM   45  C35 UNL     1       5.352  16.626  62.680  1.00  0.00     0.040 C 
HETATM   46  C36 UNL     1       5.028  15.598  63.733  1.00  0.00     0.126 C 
HETATM   47  N4  UNL     1       5.930  15.617  64.862  1.00  0.00    -0.343 N 
HETATM   48  C37 UNL     1       7.308  15.856  64.608  1.00  0.00     0.319 C 
ATOM     49  H4  UNL     1       5.588  15.465  65.810  1.00  0.00     0.164 HD
HETATM   50  O5  UNL     1       8.239  15.332  65.239  1.00  0.00    -0.247 OA
ENDBRANCH  39  43
ENDBRANCH  36  39
ENDBRANCH  27  35
ENDBRANCH  26  27
ENDBRANCH   1  26
TORSDOF 16
ENDMDL
