MODEL 6
REMARK VINA RESULT: -9.666142040      2.779      5.044
REMARK  14 active torsions:
REMARK  status: ('A' for Active; 'I' for Inactive)
REMARK    1  A    between atoms: O1_2  and  C2_3 
REMARK    2  A    between atoms: C5_6  and  S1_7 
REMARK    3  A    between atoms: S1_7  and  N1_10 
REMARK    4  A    between atoms: N1_10  and  C6_11 
REMARK    5  A    between atoms: N1_10  and  C10_15 
REMARK    6  A    between atoms: C6_11  and  C7_12 
REMARK    7  A    between atoms: C10_15  and  C11_16 
REMARK    8  A    between atoms: C11_16  and  O4_17 
REMARK    9  A    between atoms: C11_16  and  C12_19 
REMARK   10  A    between atoms: C12_19  and  C13_20 
REMARK   11  A    between atoms: C12_19  and  N2_27 
REMARK   12  A    between atoms: C13_20  and  C14_21 
REMARK       I    between atoms: N2_27  and  C20_29 
REMARK   13  A    between atoms: C20_29  and  O6_31 
REMARK   14  A    between atoms: O6_31  and  C21_32 
ROOT
HETATM    1  C12 UNL     1      15.444  21.795  17.323  1.00  0.00     0.026 C 
ENDROOT
BRANCH   1   2
HETATM    2  C11 UNL     1      16.358  22.603  16.479  1.00  0.00     0.178 C 
BRANCH   2   3
HETATM    3  C10 UNL     1      17.189  23.622  17.208  1.00  0.00     0.145 C 
BRANCH   3   4
HETATM    4  N1  UNL     1      18.513  23.185  17.539  1.00  0.00    -0.203 NA
BRANCH   4   5
HETATM    5  S1  UNL     1      18.776  22.802  19.176  1.00  0.00     0.243 S 
HETATM    6  O2  UNL     1      17.527  23.053  20.008  1.00  0.00    -0.206 OA
HETATM    7  O3  UNL     1      19.000  21.296  19.297  1.00  0.00    -0.206 OA
BRANCH   5   8
HETATM    8  C5  UNL     1      20.094  23.606  19.939  1.00  0.00     0.074 A 
HETATM    9  C4  UNL     1      19.840  24.848  20.538  1.00  0.00     0.027 A 
HETATM   10  C3  UNL     1      20.846  25.534  21.165  1.00  0.00     0.038 A 
HETATM   11  C2  UNL     1      22.103  24.993  21.203  1.00  0.00     0.068 A 
HETATM   12  C30 UNL     1      22.348  23.767  20.612  1.00  0.00     0.038 A 
HETATM   13  C29 UNL     1      21.369  23.063  19.982  1.00  0.00     0.027 A 
BRANCH  11  14
HETATM   14  O1  UNL     1      23.116  25.671  21.829  1.00  0.00    -0.356 OA
HETATM   15  C1  UNL     1      22.974  26.315  23.060  1.00  0.00     0.210 C 
ENDBRANCH  11  14
ENDBRANCH   5   8
ENDBRANCH   4   5
BRANCH   4  16
HETATM   16  C6  UNL     1      19.572  23.995  17.023  1.00  0.00     0.111 C 
BRANCH  16  17
HETATM   17  C7  UNL     1      19.196  25.350  16.542  1.00  0.00    -0.009 C 
HETATM   18  C8  UNL     1      20.074  26.359  17.274  1.00  0.00     0.011 C 
HETATM   19  C9  UNL     1      19.223  25.484  15.066  1.00  0.00     0.011 C 
ENDBRANCH  16  17
ENDBRANCH   4  16
ENDBRANCH   3   4
ENDBRANCH   2   3
BRANCH   2  20
HETATM   20  O4  UNL     1      17.264  21.688  15.887  1.00  0.00    -0.389 OA
ATOM     21  H4  UNL     1      17.394  21.975  14.991  1.00  0.00     0.210 HD
ENDBRANCH   2  20
ENDBRANCH   1   2
BRANCH   1  22
HETATM   22  C13 UNL     1      15.923  20.513  17.865  1.00  0.00     0.094 C 
BRANCH  22  23
HETATM   23  C14 UNL     1      15.043  19.696  18.675  1.00  0.00    -0.053 A 
HETATM   24  C15 UNL     1      14.549  20.006  19.906  1.00  0.00     0.007 A 
HETATM   25  C16 UNL     1      13.736  19.141  20.604  1.00  0.00     0.001 A 
HETATM   26  C17 UNL     1      13.380  17.898  20.074  1.00  0.00     0.000 A 
HETATM   27  C18 UNL     1      13.870  17.566  18.828  1.00  0.00     0.001 A 
HETATM   28  C19 UNL     1      14.679  18.445  18.151  1.00  0.00     0.007 A 
ENDBRANCH  22  23
ENDBRANCH   1  22
BRANCH   1  29
HETATM   29  N2  UNL     1      14.082  21.789  16.816  1.00  0.00    -0.307 N 
HETATM   30  C20 UNL     1      13.667  21.253  15.594  1.00  0.00     0.365 C 
HETATM   31  O5  UNL     1      14.552  20.724  14.852  1.00  0.00    -0.238 OA
ATOM     32  H2  UNL     1      13.366  22.215  17.404  1.00  0.00     0.170 HD
BRANCH  30  33
HETATM   33  O6  UNL     1      12.344  21.265  15.144  1.00  0.00    -0.296 OA
BRANCH  33  34
HETATM   34  C21 UNL     1      11.476  20.290  15.632  1.00  0.00     0.167 C 
HETATM   35  C22 UNL     1      10.019  20.672  15.578  1.00  0.00     0.204 C 
HETATM   36  O7  UNL     1       9.282  19.529  15.469  1.00  0.00    -0.358 OA
HETATM   37  C23 UNL     1      10.105  18.438  15.276  1.00  0.00     0.270 C 
HETATM   38  O8  UNL     1       9.632  17.705  14.225  1.00  0.00    -0.331 OA
HETATM   39  C28 UNL     1      11.474  18.998  14.860  1.00  0.00     0.082 C 
HETATM   40  C24 UNL     1      10.377  17.947  13.098  1.00  0.00     0.267 C 
HETATM   41  O9  UNL     1      11.373  16.955  13.047  1.00  0.00    -0.361 OA
HETATM   42  C27 UNL     1      11.222  19.189  13.379  1.00  0.00     0.054 C 
HETATM   43  C25 UNL     1      12.422  17.469  12.322  1.00  0.00     0.171 C 
HETATM   44  C26 UNL     1      12.446  18.964  12.553  1.00  0.00     0.036 C 
ENDBRANCH  33  34
ENDBRANCH  30  33
ENDBRANCH   1  29
TORSDOF 14
ENDMDL
