MODEL 2
REMARK VINA RESULT: -9.768228466      1.621      2.108
REMARK  14 active torsions:
REMARK  status: ('A' for Active; 'I' for Inactive)
REMARK    1  A    between atoms: O1_2  and  C2_3 
REMARK    2  A    between atoms: C5_6  and  S1_7 
REMARK    3  A    between atoms: S1_7  and  N1_10 
REMARK    4  A    between atoms: N1_10  and  C6_11 
REMARK    5  A    between atoms: N1_10  and  C10_15 
REMARK    6  A    between atoms: C6_11  and  C7_12 
REMARK    7  A    between atoms: C10_15  and  C11_16 
REMARK    8  A    between atoms: C11_16  and  O4_17 
REMARK    9  A    between atoms: C11_16  and  C12_19 
REMARK   10  A    between atoms: C12_19  and  C13_20 
REMARK   11  A    between atoms: C12_19  and  N2_27 
REMARK   12  A    between atoms: C13_20  and  C14_21 
REMARK       I    between atoms: N2_27  and  C20_29 
REMARK   13  A    between atoms: C20_29  and  O6_31 
REMARK   14  A    between atoms: O6_31  and  C21_32 
ROOT
HETATM    1  C12 UNL     1      15.676  23.058  17.285  1.00  0.00     0.026 C 
ENDROOT
BRANCH   1   2
HETATM    2  C11 UNL     1      16.314  24.173  18.027  1.00  0.00     0.178 C 
BRANCH   2   3
HETATM    3  C10 UNL     1      17.124  25.130  17.197  1.00  0.00     0.145 C 
BRANCH   3   4
HETATM    4  N1  UNL     1      18.537  25.066  17.423  1.00  0.00    -0.203 NA
BRANCH   4   5
HETATM    5  S1  UNL     1      19.512  25.168  16.032  1.00  0.00     0.243 S 
HETATM    6  O2  UNL     1      20.080  23.807  15.657  1.00  0.00    -0.206 OA
HETATM    7  O3  UNL     1      18.629  25.537  14.841  1.00  0.00    -0.206 OA
BRANCH   5   8
HETATM    8  C5  UNL     1      20.818  26.288  16.102  1.00  0.00     0.074 A 
HETATM    9  C4  UNL     1      21.312  26.788  14.888  1.00  0.00     0.027 A 
HETATM   10  C3  UNL     1      22.346  27.686  14.878  1.00  0.00     0.038 A 
HETATM   11  C2  UNL     1      22.892  28.093  16.066  1.00  0.00     0.068 A 
HETATM   12  C30 UNL     1      22.399  27.598  17.260  1.00  0.00     0.038 A 
HETATM   13  C29 UNL     1      21.374  26.705  17.301  1.00  0.00     0.027 A 
BRANCH  11  14
HETATM   14  O1  UNL     1      23.926  28.992  16.067  1.00  0.00    -0.356 OA
HETATM   15  C1  UNL     1      25.225  28.679  15.663  1.00  0.00     0.210 C 
ENDBRANCH  11  14
ENDBRANCH   5   8
ENDBRANCH   4   5
BRANCH   4  16
HETATM   16  C6  UNL     1      18.974  24.010  18.281  1.00  0.00     0.111 C 
BRANCH  16  17
HETATM   17  C7  UNL     1      19.679  24.415  19.526  1.00  0.00    -0.009 C 
HETATM   18  C8  UNL     1      18.776  24.065  20.703  1.00  0.00     0.011 C 
HETATM   19  C9  UNL     1      21.053  23.868  19.633  1.00  0.00     0.011 C 
ENDBRANCH  16  17
ENDBRANCH   4  16
ENDBRANCH   3   4
ENDBRANCH   2   3
BRANCH   2  20
HETATM   20  O4  UNL     1      15.255  24.926  18.597  1.00  0.00    -0.389 OA
ATOM     21  H4  UNL     1      14.554  24.313  18.780  1.00  0.00     0.210 HD
ENDBRANCH   2  20
ENDBRANCH   1   2
BRANCH   1  22
HETATM   22  C13 UNL     1      15.328  23.252  15.869  1.00  0.00     0.094 C 
BRANCH  22  23
HETATM   23  C14 UNL     1      14.431  22.323  15.211  1.00  0.00    -0.053 A 
HETATM   24  C15 UNL     1      13.075  22.422  15.129  1.00  0.00     0.007 A 
HETATM   25  C16 UNL     1      12.312  21.465  14.499  1.00  0.00     0.001 A 
HETATM   26  C17 UNL     1      12.902  20.342  13.911  1.00  0.00     0.000 A 
HETATM   27  C18 UNL     1      14.275  20.225  13.984  1.00  0.00     0.001 A 
HETATM   28  C19 UNL     1      15.014  21.192  14.617  1.00  0.00     0.007 A 
ENDBRANCH  22  23
ENDBRANCH   1  22
BRANCH   1  29
HETATM   29  N2  UNL     1      14.683  22.359  18.084  1.00  0.00    -0.307 N 
HETATM   30  C20 UNL     1      14.721  21.007  18.436  1.00  0.00     0.365 C 
HETATM   31  O5  UNL     1      15.706  20.319  18.023  1.00  0.00    -0.238 OA
ATOM     32  H2  UNL     1      13.887  22.903  18.417  1.00  0.00     0.170 HD
BRANCH  30  33
HETATM   33  O6  UNL     1      13.746  20.373  19.209  1.00  0.00    -0.296 OA
BRANCH  33  34
HETATM   34  C21 UNL     1      13.759  18.981  19.269  1.00  0.00     0.167 C 
HETATM   35  C22 UNL     1      13.332  18.412  20.598  1.00  0.00     0.204 C 
HETATM   36  O7  UNL     1      12.797  17.175  20.381  1.00  0.00    -0.358 OA
HETATM   37  C23 UNL     1      12.671  16.933  19.028  1.00  0.00     0.270 C 
HETATM   38  O8  UNL     1      11.411  16.470  18.776  1.00  0.00    -0.331 OA
HETATM   39  C28 UNL     1      12.803  18.295  18.331  1.00  0.00     0.082 C 
HETATM   40  C24 UNL     1      10.629  17.469  18.251  1.00  0.00     0.267 C 
HETATM   41  O9  UNL     1      10.707  17.353  16.851  1.00  0.00    -0.361 OA
HETATM   42  C27 UNL     1      11.376  18.784  18.472  1.00  0.00     0.054 C 
HETATM   43  C25 UNL     1      10.443  18.595  16.325  1.00  0.00     0.171 C 
HETATM   44  C26 UNL     1      10.938  19.624  17.318  1.00  0.00     0.036 C 
ENDBRANCH  33  34
ENDBRANCH  30  33
ENDBRANCH   1  29
TORSDOF 14
ENDMDL
