MODEL 4
REMARK VINA RESULT: -9.698342450      1.919     10.661
REMARK  14 active torsions:
REMARK  status: ('A' for Active; 'I' for Inactive)
REMARK    1  A    between atoms: O1_2  and  C2_3 
REMARK    2  A    between atoms: C5_6  and  S1_7 
REMARK    3  A    between atoms: S1_7  and  N1_10 
REMARK    4  A    between atoms: N1_10  and  C6_11 
REMARK    5  A    between atoms: N1_10  and  C10_15 
REMARK    6  A    between atoms: C6_11  and  C7_12 
REMARK    7  A    between atoms: C10_15  and  C11_16 
REMARK    8  A    between atoms: C11_16  and  O4_17 
REMARK    9  A    between atoms: C11_16  and  C12_19 
REMARK   10  A    between atoms: C12_19  and  C13_20 
REMARK   11  A    between atoms: C12_19  and  N2_27 
REMARK   12  A    between atoms: C13_20  and  C14_21 
REMARK       I    between atoms: N2_27  and  C20_29 
REMARK   13  A    between atoms: C20_29  and  O6_31 
REMARK   14  A    between atoms: O6_31  and  C21_32 
ROOT
HETATM    1  C12 UNL     1      18.138  24.026  18.155  1.00  0.00     0.026 C 
ENDROOT
BRANCH   1   2
HETATM    2  C11 UNL     1      16.814  24.407  17.604  1.00  0.00     0.178 C 
BRANCH   2   3
HETATM    3  C10 UNL     1      15.629  23.720  18.222  1.00  0.00     0.145 C 
BRANCH   3   4
HETATM    4  N1  UNL     1      15.217  22.522  17.553  1.00  0.00    -0.203 NA
BRANCH   4   5
HETATM    5  S1  UNL     1      15.507  21.071  18.393  1.00  0.00     0.243 S 
HETATM    6  O2  UNL     1      16.469  20.174  17.628  1.00  0.00    -0.206 OA
HETATM    7  O3  UNL     1      16.256  21.394  19.685  1.00  0.00    -0.206 OA
BRANCH   5   8
HETATM    8  C5  UNL     1      14.116  20.138  18.795  1.00  0.00     0.074 A 
HETATM    9  C4  UNL     1      14.102  19.497  20.042  1.00  0.00     0.027 A 
HETATM   10  C3  UNL     1      13.022  18.745  20.423  1.00  0.00     0.038 A 
HETATM   11  C2  UNL     1      11.956  18.626  19.573  1.00  0.00     0.068 A 
HETATM   12  C30 UNL     1      11.975  19.261  18.344  1.00  0.00     0.038 A 
HETATM   13  C29 UNL     1      13.033  20.014  17.939  1.00  0.00     0.027 A 
BRANCH  11  14
HETATM   14  O1  UNL     1      10.870  17.876  19.944  1.00  0.00    -0.356 OA
HETATM   15  C1  UNL     1      10.271  16.920  19.121  1.00  0.00     0.210 C 
ENDBRANCH  11  14
ENDBRANCH   5   8
ENDBRANCH   4   5
BRANCH   4  16
HETATM   16  C6  UNL     1      15.620  22.415  16.186  1.00  0.00     0.111 C 
BRANCH  16  17
HETATM   17  C7  UNL     1      14.586  21.948  15.225  1.00  0.00    -0.009 C 
HETATM   18  C8  UNL     1      13.541  23.051  15.100  1.00  0.00     0.011 C 
HETATM   19  C9  UNL     1      15.144  21.494  13.928  1.00  0.00     0.011 C 
ENDBRANCH  16  17
ENDBRANCH   4  16
ENDBRANCH   3   4
ENDBRANCH   2   3
BRANCH   2  20
HETATM   20  O4  UNL     1      16.662  25.793  17.862  1.00  0.00    -0.389 OA
ATOM     21  H4  UNL     1      16.699  25.900  18.805  1.00  0.00     0.210 HD
ENDBRANCH   2  20
ENDBRANCH   1   2
BRANCH   1  22
HETATM   22  C13 UNL     1      18.379  24.179  19.598  1.00  0.00     0.094 C 
BRANCH  22  23
HETATM   23  C14 UNL     1      19.734  24.163  20.111  1.00  0.00    -0.053 A 
HETATM   24  C15 UNL     1      20.572  23.091  20.160  1.00  0.00     0.007 A 
HETATM   25  C16 UNL     1      21.838  23.180  20.694  1.00  0.00     0.001 A 
HETATM   26  C17 UNL     1      22.320  24.384  21.214  1.00  0.00     0.000 A 
HETATM   27  C18 UNL     1      21.485  25.482  21.173  1.00  0.00     0.001 A 
HETATM   28  C19 UNL     1      20.227  25.368  20.635  1.00  0.00     0.007 A 
ENDBRANCH  22  23
ENDBRANCH   1  22
BRANCH   1  29
HETATM   29  N2  UNL     1      19.235  24.433  17.291  1.00  0.00    -0.307 N 
HETATM   30  C20 UNL     1      19.592  23.828  16.084  1.00  0.00     0.365 C 
HETATM   31  O5  UNL     1      18.906  22.830  15.700  1.00  0.00    -0.238 OA
ATOM     32  H2  UNL     1      19.792  25.232  17.593  1.00  0.00     0.170 HD
BRANCH  30  33
HETATM   33  O6  UNL     1      20.653  24.253  15.280  1.00  0.00    -0.296 OA
BRANCH  33  34
HETATM   34  C21 UNL     1      20.512  25.455  14.590  1.00  0.00     0.167 C 
HETATM   35  C22 UNL     1      19.227  26.189  14.875  1.00  0.00     0.204 C 
HETATM   36  O7  UNL     1      19.446  27.523  14.688  1.00  0.00    -0.358 OA
HETATM   37  C23 UNL     1      20.787  27.767  14.472  1.00  0.00     0.270 C 
HETATM   38  O8  UNL     1      21.188  28.791  15.283  1.00  0.00    -0.331 OA
HETATM   39  C28 UNL     1      21.535  26.506  14.927  1.00  0.00     0.082 C 
HETATM   40  C24 UNL     1      21.874  28.302  16.367  1.00  0.00     0.267 C 
HETATM   41  O9  UNL     1      23.240  28.334  16.031  1.00  0.00    -0.361 OA
HETATM   42  C27 UNL     1      21.625  26.795  16.411  1.00  0.00     0.054 C 
HETATM   43  C25 UNL     1      23.868  27.377  16.792  1.00  0.00     0.171 C 
HETATM   44  C26 UNL     1      22.876  26.260  17.027  1.00  0.00     0.036 C 
ENDBRANCH  33  34
ENDBRANCH  30  33
ENDBRANCH   1  29
TORSDOF 14
ENDMDL
