MODEL 5
REMARK VINA RESULT: -9.693341595      3.091      9.921
REMARK  14 active torsions:
REMARK  status: ('A' for Active; 'I' for Inactive)
REMARK    1  A    between atoms: O1_2  and  C2_3 
REMARK    2  A    between atoms: C5_6  and  S1_7 
REMARK    3  A    between atoms: S1_7  and  N1_10 
REMARK    4  A    between atoms: N1_10  and  C6_11 
REMARK    5  A    between atoms: N1_10  and  C10_15 
REMARK    6  A    between atoms: C6_11  and  C7_12 
REMARK    7  A    between atoms: C10_15  and  C11_16 
REMARK    8  A    between atoms: C11_16  and  O4_17 
REMARK    9  A    between atoms: C11_16  and  C12_19 
REMARK   10  A    between atoms: C12_19  and  C13_20 
REMARK   11  A    between atoms: C12_19  and  N2_27 
REMARK   12  A    between atoms: C13_20  and  C14_21 
REMARK       I    between atoms: N2_27  and  C20_29 
REMARK   13  A    between atoms: C20_29  and  O6_31 
REMARK   14  A    between atoms: O6_31  and  C21_32 
ROOT
HETATM    1  C12 UNL     1      17.866  23.525  18.031  1.00  0.00     0.026 C 
ENDROOT
BRANCH   1   2
HETATM    2  C11 UNL     1      17.179  22.391  18.696  1.00  0.00     0.178 C 
BRANCH   2   3
HETATM    3  C10 UNL     1      15.770  22.127  18.246  1.00  0.00     0.145 C 
BRANCH   3   4
HETATM    4  N1  UNL     1      15.649  21.154  17.202  1.00  0.00    -0.203 NA
BRANCH   4   5
HETATM    5  S1  UNL     1      15.302  21.772  15.654  1.00  0.00     0.243 S 
HETATM    6  O2  UNL     1      15.162  23.286  15.684  1.00  0.00    -0.206 OA
HETATM    7  O3  UNL     1      16.510  21.533  14.750  1.00  0.00    -0.206 OA
BRANCH   5   8
HETATM    8  C5  UNL     1      13.910  21.124  14.875  1.00  0.00     0.074 A 
HETATM    9  C4  UNL     1      12.679  21.751  15.116  1.00  0.00     0.027 A 
HETATM   10  C3  UNL     1      11.536  21.287  14.522  1.00  0.00     0.038 A 
HETATM   11  C2  UNL     1      11.607  20.203  13.688  1.00  0.00     0.068 A 
HETATM   12  C30 UNL     1      12.824  19.589  13.453  1.00  0.00     0.038 A 
HETATM   13  C29 UNL     1      13.975  20.027  14.029  1.00  0.00     0.027 A 
BRANCH  11  14
HETATM   14  O1  UNL     1      10.469  19.731  13.088  1.00  0.00    -0.356 OA
HETATM   15  C1  UNL     1       9.271  20.446  13.027  1.00  0.00     0.210 C 
ENDBRANCH  11  14
ENDBRANCH   5   8
ENDBRANCH   4   5
BRANCH   4  16
HETATM   16  C6  UNL     1      14.820  20.030  17.505  1.00  0.00     0.111 C 
BRANCH  16  17
HETATM   17  C7  UNL     1      13.820  20.216  18.589  1.00  0.00    -0.009 C 
HETATM   18  C8  UNL     1      12.466  19.769  18.050  1.00  0.00     0.011 C 
HETATM   19  C9  UNL     1      14.204  19.571  19.867  1.00  0.00     0.011 C 
ENDBRANCH  16  17
ENDBRANCH   4  16
ENDBRANCH   3   4
ENDBRANCH   2   3
BRANCH   2  20
HETATM   20  O4  UNL     1      17.931  21.231  18.378  1.00  0.00    -0.389 OA
ATOM     21  H4  UNL     1      18.412  20.994  19.162  1.00  0.00     0.210 HD
ENDBRANCH   2  20
ENDBRANCH   1   2
BRANCH   1  22
HETATM   22  C13 UNL     1      18.621  23.273  16.793  1.00  0.00     0.094 C 
BRANCH  22  23
HETATM   23  C14 UNL     1      18.992  24.380  15.935  1.00  0.00    -0.053 A 
HETATM   24  C15 UNL     1      18.150  25.288  15.370  1.00  0.00     0.007 A 
HETATM   25  C16 UNL     1      18.608  26.291  14.544  1.00  0.00     0.001 A 
HETATM   26  C17 UNL     1      19.968  26.419  14.249  1.00  0.00     0.000 A 
HETATM   27  C18 UNL     1      20.837  25.507  14.813  1.00  0.00     0.001 A 
HETATM   28  C19 UNL     1      20.357  24.517  15.633  1.00  0.00     0.007 A 
ENDBRANCH  22  23
ENDBRANCH   1  22
BRANCH   1  29
HETATM   29  N2  UNL     1      18.505  24.420  18.982  1.00  0.00    -0.307 N 
HETATM   30  C20 UNL     1      19.635  24.124  19.749  1.00  0.00     0.365 C 
HETATM   31  O5  UNL     1      20.155  22.973  19.614  1.00  0.00    -0.238 OA
ATOM     32  H2  UNL     1      18.092  25.344  19.099  1.00  0.00     0.170 HD
BRANCH  30  33
HETATM   33  O6  UNL     1      20.221  25.016  20.652  1.00  0.00    -0.296 OA
BRANCH  33  34
HETATM   34  C21 UNL     1      20.956  26.082  20.137  1.00  0.00     0.167 C 
HETATM   35  C22 UNL     1      21.156  27.223  21.102  1.00  0.00     0.204 C 
HETATM   36  O7  UNL     1      22.317  27.860  20.775  1.00  0.00    -0.358 OA
HETATM   37  C23 UNL     1      22.996  27.160  19.798  1.00  0.00     0.270 C 
HETATM   38  O8  UNL     1      24.300  27.019  20.179  1.00  0.00    -0.331 OA
HETATM   39  C28 UNL     1      22.377  25.754  19.767  1.00  0.00     0.082 C 
HETATM   40  C24 UNL     1      24.525  25.754  20.662  1.00  0.00     0.267 C 
HETATM   41  O9  UNL     1      24.993  24.983  19.582  1.00  0.00    -0.361 OA
HETATM   42  C27 UNL     1      23.157  25.116  20.898  1.00  0.00     0.054 C 
HETATM   43  C25 UNL     1      24.687  23.672  19.856  1.00  0.00     0.171 C 
HETATM   44  C26 UNL     1      23.413  23.662  20.672  1.00  0.00     0.036 C 
ENDBRANCH  33  34
ENDBRANCH  30  33
ENDBRANCH   1  29
TORSDOF 14
ENDMDL
