MODEL 1
REMARK VINA RESULT: -9.910500294      0.000      0.000
REMARK  14 active torsions:
REMARK  status: ('A' for Active; 'I' for Inactive)
REMARK    1  A    between atoms: O1_2  and  C2_3 
REMARK    2  A    between atoms: C5_6  and  S1_7 
REMARK    3  A    between atoms: S1_7  and  N1_10 
REMARK    4  A    between atoms: N1_10  and  C6_11 
REMARK    5  A    between atoms: N1_10  and  C10_15 
REMARK    6  A    between atoms: C6_11  and  C7_12 
REMARK    7  A    between atoms: C10_15  and  C11_16 
REMARK    8  A    between atoms: C11_16  and  O4_17 
REMARK    9  A    between atoms: C11_16  and  C12_19 
REMARK   10  A    between atoms: C12_19  and  C13_20 
REMARK   11  A    between atoms: C12_19  and  N2_27 
REMARK   12  A    between atoms: C13_20  and  C14_21 
REMARK       I    between atoms: N2_27  and  C20_29 
REMARK   13  A    between atoms: C20_29  and  O6_31 
REMARK   14  A    between atoms: O6_31  and  C21_32 
ROOT
HETATM    1  C12 UNL     1      14.668  21.671  16.997  1.00  0.00     0.026 C 
ENDROOT
BRANCH   1   2
HETATM    2  C11 UNL     1      15.029  22.513  18.163  1.00  0.00     0.178 C 
BRANCH   2   3
HETATM    3  C10 UNL     1      15.724  23.806  17.844  1.00  0.00     0.145 C 
BRANCH   3   4
HETATM    4  N1  UNL     1      17.152  23.759  17.953  1.00  0.00    -0.203 NA
BRANCH   4   5
HETATM    5  S1  UNL     1      18.005  23.773  16.480  1.00  0.00     0.243 S 
HETATM    6  O2  UNL     1      18.928  22.568  16.366  1.00  0.00    -0.206 OA
HETATM    7  O3  UNL     1      17.010  23.582  15.337  1.00  0.00    -0.206 OA
BRANCH   5   8
HETATM    8  C5  UNL     1      18.933  25.187  16.156  1.00  0.00     0.074 A 
HETATM    9  C4  UNL     1      19.736  25.689  17.191  1.00  0.00     0.027 A 
HETATM   10  C3  UNL     1      20.501  26.807  16.994  1.00  0.00     0.038 A 
HETATM   11  C2  UNL     1      20.476  27.430  15.775  1.00  0.00     0.068 A 
HETATM   12  C30 UNL     1      19.683  26.930  14.758  1.00  0.00     0.038 A 
HETATM   13  C29 UNL     1      18.913  25.822  14.924  1.00  0.00     0.027 A 
BRANCH  11  14
HETATM   14  O1  UNL     1      21.239  28.550  15.567  1.00  0.00    -0.356 OA
HETATM   15  C1  UNL     1      22.624  28.587  15.741  1.00  0.00     0.210 C 
ENDBRANCH  11  14
ENDBRANCH   5   8
ENDBRANCH   4   5
BRANCH   4  16
HETATM   16  C6  UNL     1      17.666  22.759  18.836  1.00  0.00     0.111 C 
BRANCH  16  17
HETATM   17  C7  UNL     1      18.783  23.172  19.726  1.00  0.00    -0.009 C 
HETATM   18  C8  UNL     1      18.195  24.049  20.827  1.00  0.00     0.011 C 
HETATM   19  C9  UNL     1      19.594  22.037  20.226  1.00  0.00     0.011 C 
ENDBRANCH  16  17
ENDBRANCH   4  16
ENDBRANCH   3   4
ENDBRANCH   2   3
BRANCH   2  20
HETATM   20  O4  UNL     1      13.807  22.854  18.798  1.00  0.00    -0.389 OA
ATOM     21  H4  UNL     1      13.530  23.683  18.427  1.00  0.00     0.210 HD
ENDBRANCH   2  20
ENDBRANCH   1   2
BRANCH   1  22
HETATM   22  C13 UNL     1      13.846  22.254  15.925  1.00  0.00     0.094 C 
BRANCH  22  23
HETATM   23  C14 UNL     1      13.142  21.388  15.001  1.00  0.00    -0.053 A 
HETATM   24  C15 UNL     1      11.793  21.294  14.842  1.00  0.00     0.007 A 
HETATM   25  C16 UNL     1      11.224  20.414  13.948  1.00  0.00     0.001 A 
HETATM   26  C17 UNL     1      12.014  19.575  13.159  1.00  0.00     0.000 A 
HETATM   27  C18 UNL     1      13.384  19.656  13.305  1.00  0.00     0.001 A 
HETATM   28  C19 UNL     1      13.927  20.541  14.203  1.00  0.00     0.007 A 
ENDBRANCH  22  23
ENDBRANCH   1  22
BRANCH   1  29
HETATM   29  N2  UNL     1      14.323  20.312  17.381  1.00  0.00    -0.307 N 
HETATM   30  C20 UNL     1      15.216  19.341  17.841  1.00  0.00     0.365 C 
HETATM   31  O5  UNL     1      16.441  19.664  17.933  1.00  0.00    -0.238 OA
ATOM     32  H2  UNL     1      13.342  20.043  17.307  1.00  0.00     0.170 HD
BRANCH  30  33
HETATM   33  O6  UNL     1      14.842  18.045  18.204  1.00  0.00    -0.296 OA
BRANCH  33  34
HETATM   34  C21 UNL     1      14.111  17.877  19.378  1.00  0.00     0.167 C 
HETATM   35  C22 UNL     1      13.706  19.165  20.048  1.00  0.00     0.204 C 
HETATM   36  O7  UNL     1      12.557  18.940  20.749  1.00  0.00    -0.358 OA
HETATM   37  C23 UNL     1      12.065  17.679  20.479  1.00  0.00     0.270 C 
HETATM   38  O8  UNL     1      10.734  17.776  20.186  1.00  0.00    -0.331 OA
HETATM   39  C28 UNL     1      12.777  17.201  19.205  1.00  0.00     0.082 C 
HETATM   40  C24 UNL     1      10.535  17.696  18.830  1.00  0.00     0.267 C 
HETATM   41  O9  UNL     1      10.268  16.345  18.538  1.00  0.00    -0.361 OA
HETATM   42  C27 UNL     1      11.900  17.869  18.166  1.00  0.00     0.054 C 
HETATM   43  C25 UNL     1      10.625  16.135  17.228  1.00  0.00     0.171 C 
HETATM   44  C26 UNL     1      11.776  17.065  16.914  1.00  0.00     0.036 C 
ENDBRANCH  33  34
ENDBRANCH  30  33
ENDBRANCH   1  29
TORSDOF 14
ENDMDL
