MODEL 1
REMARK VINA RESULT: -9.672723369      0.000      0.000
REMARK  13 active torsions:
REMARK  status: ('A' for Active; 'I' for Inactive)
REMARK    1  A    between atoms: C2_2  and  C4_4 
REMARK    2  A    between atoms: C4_4  and  N1_5 
REMARK    3  A    between atoms: N1_5  and  C5_6 
REMARK    4  A    between atoms: N1_5  and  S1_33 
REMARK    5  A    between atoms: C5_6  and  C6_7 
REMARK    6  A    between atoms: C6_7  and  O1_8 
REMARK    7  A    between atoms: C6_7  and  C7_10 
REMARK    8  A    between atoms: C7_10  and  C8_11 
REMARK    9  A    between atoms: C7_10  and  N2_18 
REMARK   10  A    between atoms: C8_11  and  C9_12 
REMARK       I    between atoms: N2_18  and  C15_20 
REMARK   11  A    between atoms: C15_20  and  O3_22 
REMARK   12  A    between atoms: O3_22  and  C16_23 
REMARK   13  A    between atoms: S1_33  and  C22_36 
ROOT
HETATM    1  C7  UNL     1       9.436  20.129  19.624  1.00  0.00     0.124 C 
ENDROOT
BRANCH   1   2
HETATM    2  C6  UNL     1      10.573  21.074  19.356  1.00  0.00     0.180 C 
BRANCH   2   3
HETATM    3  C5  UNL     1      11.890  20.551  19.776  1.00  0.00     0.115 C 
BRANCH   3   4
HETATM    4  N1  UNL     1      13.024  20.831  19.020  1.00  0.00    -0.263 N 
BRANCH   4   5
HETATM    5  C4  UNL     1      14.087  21.587  19.457  1.00  0.00     0.085 C 
BRANCH   5   6
HETATM    6  C2  UNL     1      13.855  23.072  19.396  1.00  0.00     0.017 C 
HETATM    7  C1  UNL     1      14.897  23.914  20.062  1.00  0.00     0.015 C 
HETATM    8  C3  UNL     1      13.635  23.524  17.943  1.00  0.00     0.015 C 
ENDBRANCH   5   6
ENDBRANCH   4   5
BRANCH   4   9
HETATM    9  S1  UNL     1      13.370  19.592  17.902  1.00  0.00     0.267 S 
HETATM   10  O6  UNL     1      12.374  18.494  17.835  1.00  0.00    -0.200 OA
HETATM   11  O7  UNL     1      14.660  18.925  18.411  1.00  0.00    -0.200 OA
BRANCH   9  12
HETATM   12  C22 UNL     1      13.777  20.190  16.300  1.00  0.00     0.080 A 
HETATM   13  C23 UNL     1      12.863  20.767  15.451  1.00  0.00     0.027 A 
HETATM   14  C24 UNL     1      13.239  21.224  14.201  1.00  0.00     0.028 A 
HETATM   15  C25 UNL     1      14.533  21.122  13.757  1.00  0.00     0.046 A 
HETATM   16  N3  UNL     1      14.919  21.602  12.451  1.00  0.00    -0.102 NA
HETATM   17  C26 UNL     1      15.461  20.541  14.605  1.00  0.00     0.028 A 
HETATM   18  C27 UNL     1      15.076  20.091  15.849  1.00  0.00     0.027 A 
ENDBRANCH   9  12
ENDBRANCH   4   9
ENDBRANCH   3   4
ENDBRANCH   2   3
BRANCH   2  19
HETATM   19  O1  UNL     1      10.565  21.637  18.087  1.00  0.00    -0.388 OA
ATOM     20  H1  UNL     1       9.805  22.177  17.908  1.00  0.00     0.210 HD
ENDBRANCH   2  19
ENDBRANCH   1   2
BRANCH   1  21
HETATM   21  C8  UNL     1       9.380  19.503  20.952  1.00  0.00     0.066 C 
BRANCH  21  22
HETATM   22  C9  UNL     1       8.308  18.638  21.336  1.00  0.00    -0.056 A 
HETATM   23  C10 UNL     1       8.435  17.256  21.542  1.00  0.00     0.007 A 
HETATM   24  C11 UNL     1       7.396  16.454  21.897  1.00  0.00     0.001 A 
HETATM   25  C12 UNL     1       6.152  16.999  22.068  1.00  0.00     0.000 A 
HETATM   26  C13 UNL     1       5.984  18.339  21.878  1.00  0.00     0.001 A 
HETATM   27  C14 UNL     1       7.045  19.150  21.517  1.00  0.00     0.007 A 
ENDBRANCH  21  22
ENDBRANCH   1  21
BRANCH   1  28
HETATM   28  N2  UNL     1       9.416  19.144  18.532  1.00  0.00    -0.329 N 
HETATM   29  C15 UNL     1       8.244  18.752  17.855  1.00  0.00     0.361 C 
HETATM   30  O2  UNL     1       7.164  19.283  18.221  1.00  0.00    -0.238 OA
ATOM     31  H2  UNL     1      10.300  18.721  18.249  1.00  0.00     0.165 HD
BRANCH  29  32
HETATM   32  O3  UNL     1       8.231  17.821  16.819  1.00  0.00    -0.296 OA
BRANCH  32  33
HETATM   33  C16 UNL     1       8.715  16.524  17.110  1.00  0.00     0.172 C 
HETATM   34  C17 UNL     1       7.627  15.905  18.013  1.00  0.00     0.204 C 
HETATM   35  O4  UNL     1       6.651  15.567  17.073  1.00  0.00    -0.358 OA
HETATM   36  C18 UNL     1       7.293  15.041  15.977  1.00  0.00     0.272 C 
HETATM   37  O5  UNL     1       6.729  15.516  14.780  1.00  0.00    -0.355 OA
HETATM   38  C21 UNL     1       8.715  15.568  15.983  1.00  0.00     0.147 C 
HETATM   39  C19 UNL     1       7.777  15.404  13.844  1.00  0.00     0.250 C 
HETATM   40  C20 UNL     1       8.891  16.125  14.618  1.00  0.00     0.275 C 
HETATM   41  F1  UNL     1      10.116  15.638  14.138  1.00  0.00    -0.203 F 
HETATM   42  F2  UNL     1       8.812  17.476  14.506  1.00  0.00    -0.203 F 
ENDBRANCH  32  33
ENDBRANCH  29  32
ENDBRANCH   1  28
TORSDOF 13
ENDMDL
