MODEL 3
REMARK VINA RESULT: -9.454943881      2.500      4.087
REMARK  13 active torsions:
REMARK  status: ('A' for Active; 'I' for Inactive)
REMARK    1  A    between atoms: C2_2  and  C4_4 
REMARK    2  A    between atoms: C4_4  and  N1_5 
REMARK    3  A    between atoms: N1_5  and  C5_6 
REMARK    4  A    between atoms: N1_5  and  S1_33 
REMARK    5  A    between atoms: C5_6  and  C6_7 
REMARK    6  A    between atoms: C6_7  and  O1_8 
REMARK    7  A    between atoms: C6_7  and  C7_10 
REMARK    8  A    between atoms: C7_10  and  C8_11 
REMARK    9  A    between atoms: C7_10  and  N2_18 
REMARK   10  A    between atoms: C8_11  and  C9_12 
REMARK       I    between atoms: N2_18  and  C15_20 
REMARK   11  A    between atoms: C15_20  and  O3_22 
REMARK   12  A    between atoms: O3_22  and  C16_23 
REMARK   13  A    between atoms: S1_33  and  C22_36 
ROOT
HETATM    1  C7  UNL     1      11.989  19.489  18.267  1.00  0.00     0.124 C 
ENDROOT
BRANCH   1   2
HETATM    2  C6  UNL     1      13.438  19.104  18.172  1.00  0.00     0.180 C 
BRANCH   2   3
HETATM    3  C5  UNL     1      14.365  20.174  18.595  1.00  0.00     0.115 C 
BRANCH   3   4
HETATM    4  N1  UNL     1      14.510  21.319  17.817  1.00  0.00    -0.263 N 
BRANCH   4   5
HETATM    5  C4  UNL     1      14.221  21.392  16.474  1.00  0.00     0.085 C 
BRANCH   5   6
HETATM    6  C2  UNL     1      15.417  21.234  15.576  1.00  0.00     0.017 C 
HETATM    7  C1  UNL     1      15.614  19.866  15.002  1.00  0.00     0.015 C 
HETATM    8  C3  UNL     1      15.402  22.295  14.464  1.00  0.00     0.015 C 
ENDBRANCH   5   6
ENDBRANCH   4   5
BRANCH   4   9
HETATM    9  S1  UNL     1      14.297  22.743  18.729  1.00  0.00     0.267 S 
HETATM   10  O6  UNL     1      13.996  22.543  20.168  1.00  0.00    -0.200 OA
HETATM   11  O7  UNL     1      13.040  23.418  18.152  1.00  0.00    -0.200 OA
BRANCH   9  12
HETATM   12  C22 UNL     1      15.583  23.919  18.497  1.00  0.00     0.080 A 
HETATM   13  C23 UNL     1      15.460  25.250  18.823  1.00  0.00     0.027 A 
HETATM   14  C24 UNL     1      16.505  26.132  18.622  1.00  0.00     0.028 A 
HETATM   15  C25 UNL     1      17.703  25.722  18.093  1.00  0.00     0.046 A 
HETATM   16  N3  UNL     1      18.791  26.648  17.888  1.00  0.00    -0.102 NA
HETATM   17  C26 UNL     1      17.835  24.383  17.762  1.00  0.00     0.028 A 
HETATM   18  C27 UNL     1      16.787  23.512  17.966  1.00  0.00     0.027 A 
ENDBRANCH   9  12
ENDBRANCH   4   9
ENDBRANCH   3   4
ENDBRANCH   2   3
BRANCH   2  19
HETATM   19  O1  UNL     1      13.735  17.855  18.701  1.00  0.00    -0.388 OA
ATOM     20  H1  UNL     1      13.009  17.244  18.683  1.00  0.00     0.210 HD
ENDBRANCH   2  19
ENDBRANCH   1   2
BRANCH   1  21
HETATM   21  C8  UNL     1      11.530  20.076  19.534  1.00  0.00     0.066 C 
BRANCH  21  22
HETATM   22  C9  UNL     1      10.217  19.836  20.049  1.00  0.00    -0.056 A 
HETATM   23  C10 UNL     1       9.901  18.843  20.989  1.00  0.00     0.007 A 
HETATM   24  C11 UNL     1       8.642  18.627  21.454  1.00  0.00     0.001 A 
HETATM   25  C12 UNL     1       7.612  19.405  20.997  1.00  0.00     0.000 A 
HETATM   26  C13 UNL     1       7.877  20.383  20.082  1.00  0.00     0.001 A 
HETATM   27  C14 UNL     1       9.160  20.597  19.613  1.00  0.00     0.007 A 
ENDBRANCH  21  22
ENDBRANCH   1  21
BRANCH   1  28
HETATM   28  N2  UNL     1      11.194  18.319  17.866  1.00  0.00    -0.329 N 
HETATM   29  C15 UNL     1      10.281  18.325  16.792  1.00  0.00     0.361 C 
HETATM   30  O2  UNL     1      10.151  19.402  16.155  1.00  0.00    -0.238 OA
ATOM     31  H2  UNL     1      11.310  17.454  18.394  1.00  0.00     0.165 HD
BRANCH  29  32
HETATM   32  O3  UNL     1       9.533  17.212  16.413  1.00  0.00    -0.296 OA
BRANCH  32  33
HETATM   33  C16 UNL     1       8.935  17.241  15.132  1.00  0.00     0.172 C 
HETATM   34  C17 UNL     1       9.880  16.395  14.252  1.00  0.00     0.204 C 
HETATM   35  O4  UNL     1       9.520  15.099  14.631  1.00  0.00    -0.358 OA
HETATM   36  C18 UNL     1       8.150  15.064  14.744  1.00  0.00     0.272 C 
HETATM   37  O5  UNL     1       7.751  14.338  15.880  1.00  0.00    -0.355 OA
HETATM   38  C21 UNL     1       7.674  16.482  14.993  1.00  0.00     0.147 C 
HETATM   39  C19 UNL     1       6.480  14.862  16.188  1.00  0.00     0.250 C 
HETATM   40  C20 UNL     1       6.816  16.361  16.198  1.00  0.00     0.275 C 
HETATM   41  F1  UNL     1       5.630  17.056  15.921  1.00  0.00    -0.203 F 
HETATM   42  F2  UNL     1       7.369  16.763  17.371  1.00  0.00    -0.203 F 
ENDBRANCH  32  33
ENDBRANCH  29  32
ENDBRANCH   1  28
TORSDOF 13
ENDMDL
