MODEL 8
REMARK VINA RESULT: -9.351001956      3.631      9.533
REMARK  13 active torsions:
REMARK  status: ('A' for Active; 'I' for Inactive)
REMARK    1  A    between atoms: C2_2  and  C4_4 
REMARK    2  A    between atoms: C4_4  and  N1_5 
REMARK    3  A    between atoms: N1_5  and  C5_6 
REMARK    4  A    between atoms: N1_5  and  S1_33 
REMARK    5  A    between atoms: C5_6  and  C6_7 
REMARK    6  A    between atoms: C6_7  and  O1_8 
REMARK    7  A    between atoms: C6_7  and  C7_10 
REMARK    8  A    between atoms: C7_10  and  C8_11 
REMARK    9  A    between atoms: C7_10  and  N2_18 
REMARK   10  A    between atoms: C8_11  and  C9_12 
REMARK       I    between atoms: N2_18  and  C15_20 
REMARK   11  A    between atoms: C15_20  and  O3_22 
REMARK   12  A    between atoms: O3_22  and  C16_23 
REMARK   13  A    between atoms: S1_33  and  C22_36 
ROOT
HETATM    1  C7  UNL     1      13.424  19.975  17.227  1.00  0.00     0.124 C 
ENDROOT
BRANCH   1   2
HETATM    2  C6  UNL     1      13.093  18.887  18.208  1.00  0.00     0.180 C 
BRANCH   2   3
HETATM    3  C5  UNL     1      12.108  17.910  17.700  1.00  0.00     0.115 C 
BRANCH   3   4
HETATM    4  N1  UNL     1      10.758  18.246  17.644  1.00  0.00    -0.263 N 
BRANCH   4   5
HETATM    5  C4  UNL     1      10.173  19.253  18.376  1.00  0.00     0.085 C 
BRANCH   5   6
HETATM    6  C2  UNL     1       9.577  18.800  19.681  1.00  0.00     0.017 C 
HETATM    7  C1  UNL     1      10.403  19.080  20.897  1.00  0.00     0.015 C 
HETATM    8  C3  UNL     1       8.155  19.360  19.847  1.00  0.00     0.015 C 
ENDBRANCH   5   6
ENDBRANCH   4   5
BRANCH   4   9
HETATM    9  S1  UNL     1      10.078  17.908  16.119  1.00  0.00     0.267 S 
HETATM   10  O6  UNL     1      11.030  17.430  15.084  1.00  0.00    -0.200 OA
HETATM   11  O7  UNL     1       9.564  19.258  15.588  1.00  0.00    -0.200 OA
BRANCH   9  12
HETATM   12  C22 UNL     1       8.650  16.886  16.201  1.00  0.00     0.080 A 
HETATM   13  C23 UNL     1       8.161  16.360  17.373  1.00  0.00     0.027 A 
HETATM   14  C24 UNL     1       7.030  15.565  17.381  1.00  0.00     0.028 A 
HETATM   15  C25 UNL     1       6.351  15.267  16.227  1.00  0.00     0.046 A 
HETATM   16  N3  UNL     1       5.170  14.437  16.242  1.00  0.00    -0.102 NA
HETATM   17  C26 UNL     1       6.836  15.793  15.041  1.00  0.00     0.028 A 
HETATM   18  C27 UNL     1       7.964  16.586  15.044  1.00  0.00     0.027 A 
ENDBRANCH   9  12
ENDBRANCH   4   9
ENDBRANCH   3   4
ENDBRANCH   2   3
BRANCH   2  19
HETATM   19  O1  UNL     1      14.198  18.311  18.820  1.00  0.00    -0.388 OA
ATOM     20  H1  UNL     1      15.000  18.383  18.317  1.00  0.00     0.210 HD
ENDBRANCH   2  19
ENDBRANCH   1   2
BRANCH   1  21
HETATM   21  C8  UNL     1      13.772  19.565  15.859  1.00  0.00     0.066 C 
BRANCH  21  22
HETATM   22  C9  UNL     1      14.460  20.437  14.958  1.00  0.00    -0.056 A 
HETATM   23  C10 UNL     1      15.854  20.486  14.806  1.00  0.00     0.007 A 
HETATM   24  C11 UNL     1      16.484  21.333  13.951  1.00  0.00     0.001 A 
HETATM   25  C12 UNL     1      15.742  22.194  13.186  1.00  0.00     0.000 A 
HETATM   26  C13 UNL     1      14.383  22.179  13.302  1.00  0.00     0.001 A 
HETATM   27  C14 UNL     1      13.748  21.314  14.175  1.00  0.00     0.007 A 
ENDBRANCH  21  22
ENDBRANCH   1  21
BRANCH   1  28
HETATM   28  N2  UNL     1      14.456  20.825  17.841  1.00  0.00    -0.329 N 
HETATM   29  C15 UNL     1      14.203  22.114  18.352  1.00  0.00     0.361 C 
HETATM   30  O2  UNL     1      13.026  22.546  18.265  1.00  0.00    -0.238 OA
ATOM     31  H2  UNL     1      15.406  20.460  17.902  1.00  0.00     0.165 HD
BRANCH  29  32
HETATM   32  O3  UNL     1      15.184  22.913  18.937  1.00  0.00    -0.296 OA
BRANCH  32  33
HETATM   33  C16 UNL     1      14.762  24.134  19.513  1.00  0.00     0.172 C 
HETATM   34  C17 UNL     1      14.662  23.829  21.023  1.00  0.00     0.204 C 
HETATM   35  O4  UNL     1      16.007  23.863  21.399  1.00  0.00    -0.358 OA
HETATM   36  C18 UNL     1      16.594  24.923  20.750  1.00  0.00     0.272 C 
HETATM   37  O5  UNL     1      17.866  24.579  20.260  1.00  0.00    -0.355 OA
HETATM   38  C21 UNL     1      15.763  25.223  19.518  1.00  0.00     0.147 C 
HETATM   39  C19 UNL     1      18.066  25.467  19.184  1.00  0.00     0.250 C 
HETATM   40  C20 UNL     1      16.757  25.238  18.415  1.00  0.00     0.275 C 
HETATM   41  F1  UNL     1      16.507  26.396  17.663  1.00  0.00    -0.203 F 
HETATM   42  F2  UNL     1      16.800  24.131  17.630  1.00  0.00    -0.203 F 
ENDBRANCH  32  33
ENDBRANCH  29  32
ENDBRANCH   1  28
TORSDOF 13
ENDMDL
