MODEL 15
REMARK VINA RESULT: -8.974709628      3.583      9.199
REMARK  13 active torsions:
REMARK  status: ('A' for Active; 'I' for Inactive)
REMARK    1  A    between atoms: C2_2  and  C4_4 
REMARK    2  A    between atoms: C4_4  and  N1_5 
REMARK    3  A    between atoms: N1_5  and  C5_6 
REMARK    4  A    between atoms: N1_5  and  S1_33 
REMARK    5  A    between atoms: C5_6  and  C6_7 
REMARK    6  A    between atoms: C6_7  and  O1_8 
REMARK    7  A    between atoms: C6_7  and  C7_10 
REMARK    8  A    between atoms: C7_10  and  C8_11 
REMARK    9  A    between atoms: C7_10  and  N2_18 
REMARK   10  A    between atoms: C8_11  and  C9_12 
REMARK       I    between atoms: N2_18  and  C15_20 
REMARK   11  A    between atoms: C15_20  and  O3_22 
REMARK   12  A    between atoms: O3_22  and  C16_23 
REMARK   13  A    between atoms: S1_33  and  C22_36 
ROOT
HETATM    1  C7  UNL     1      13.258  20.096  17.499  1.00  0.00     0.124 C 
ENDROOT
BRANCH   1   2
HETATM    2  C6  UNL     1      13.089  19.099  18.610  1.00  0.00     0.180 C 
BRANCH   2   3
HETATM    3  C5  UNL     1      11.759  18.456  18.632  1.00  0.00     0.115 C 
BRANCH   3   4
HETATM    4  N1  UNL     1      10.633  19.194  18.986  1.00  0.00    -0.263 N 
BRANCH   4   5
HETATM    5  C4  UNL     1      10.585  20.094  20.025  1.00  0.00     0.085 C 
BRANCH   5   6
HETATM    6  C2  UNL     1       9.794  19.621  21.214  1.00  0.00     0.017 C 
HETATM    7  C1  UNL     1       8.667  20.512  21.632  1.00  0.00     0.015 C 
HETATM    8  C3  UNL     1       9.300  18.182  20.996  1.00  0.00     0.015 C 
ENDBRANCH   5   6
ENDBRANCH   4   5
BRANCH   4   9
HETATM    9  S1  UNL     1       9.629  19.510  17.647  1.00  0.00     0.267 S 
HETATM   10  O6  UNL     1      10.022  20.672  16.810  1.00  0.00    -0.200 OA
HETATM   11  O7  UNL     1       8.261  19.895  18.238  1.00  0.00    -0.200 OA
BRANCH   9  12
HETATM   12  C22 UNL     1       9.306  18.088  16.663  1.00  0.00     0.080 A 
HETATM   13  C23 UNL     1       8.351  17.151  16.977  1.00  0.00     0.027 A 
HETATM   14  C24 UNL     1       8.137  16.052  16.166  1.00  0.00     0.028 A 
HETATM   15  C25 UNL     1       8.863  15.850  15.020  1.00  0.00     0.046 A 
HETATM   16  N3  UNL     1       8.634  14.701  14.176  1.00  0.00    -0.102 NA
HETATM   17  C26 UNL     1       9.829  16.790  14.696  1.00  0.00     0.028 A 
HETATM   18  C27 UNL     1      10.033  17.882  15.511  1.00  0.00     0.027 A 
ENDBRANCH   9  12
ENDBRANCH   4   9
ENDBRANCH   3   4
ENDBRANCH   2   3
BRANCH   2  19
HETATM   19  O1  UNL     1      14.149  18.213  18.751  1.00  0.00    -0.388 OA
ATOM     20  H1  UNL     1      14.999  18.595  18.571  1.00  0.00     0.210 HD
ENDBRANCH   2  19
ENDBRANCH   1   2
BRANCH   1  21
HETATM   21  C8  UNL     1      13.415  19.567  16.137  1.00  0.00     0.066 C 
BRANCH  21  22
HETATM   22  C9  UNL     1      14.112  20.290  15.119  1.00  0.00    -0.056 A 
HETATM   23  C10 UNL     1      13.517  21.227  14.259  1.00  0.00     0.007 A 
HETATM   24  C11 UNL     1      14.199  21.893  13.291  1.00  0.00     0.001 A 
HETATM   25  C12 UNL     1      15.538  21.656  13.126  1.00  0.00     0.000 A 
HETATM   26  C13 UNL     1      16.156  20.753  13.941  1.00  0.00     0.001 A 
HETATM   27  C14 UNL     1      15.455  20.078  14.924  1.00  0.00     0.007 A 
ENDBRANCH  21  22
ENDBRANCH   1  21
BRANCH   1  28
HETATM   28  N2  UNL     1      14.350  21.003  17.882  1.00  0.00    -0.329 N 
HETATM   29  C15 UNL     1      14.146  22.267  18.472  1.00  0.00     0.361 C 
HETATM   30  O2  UNL     1      12.957  22.623  18.670  1.00  0.00    -0.238 OA
ATOM     31  H2  UNL     1      15.309  20.700  17.713  1.00  0.00     0.165 HD
BRANCH  29  32
HETATM   32  O3  UNL     1      15.186  23.120  18.837  1.00  0.00    -0.296 OA
BRANCH  32  33
HETATM   33  C16 UNL     1      14.829  24.358  19.420  1.00  0.00     0.172 C 
HETATM   34  C17 UNL     1      14.728  24.052  20.930  1.00  0.00     0.204 C 
HETATM   35  O4  UNL     1      16.077  24.019  21.294  1.00  0.00    -0.358 OA
HETATM   36  C18 UNL     1      16.709  25.052  20.643  1.00  0.00     0.272 C 
HETATM   37  O5  UNL     1      17.958  24.649  20.140  1.00  0.00    -0.355 OA
HETATM   38  C21 UNL     1      15.881  25.397  19.420  1.00  0.00     0.147 C 
HETATM   39  C19 UNL     1      18.191  25.530  19.066  1.00  0.00     0.250 C 
HETATM   40  C20 UNL     1      16.865  25.368  18.308  1.00  0.00     0.275 C 
HETATM   41  F1  UNL     1      16.665  26.540  17.562  1.00  0.00    -0.203 F 
HETATM   42  F2  UNL     1      16.847  24.264  17.519  1.00  0.00    -0.203 F 
ENDBRANCH  32  33
ENDBRANCH  29  32
ENDBRANCH   1  28
TORSDOF 13
ENDMDL
