MODEL 2
REMARK VINA RESULT: -9.564043733      2.269      3.251
REMARK  13 active torsions:
REMARK  status: ('A' for Active; 'I' for Inactive)
REMARK    1  A    between atoms: C2_2  and  C4_4 
REMARK    2  A    between atoms: C4_4  and  N1_5 
REMARK    3  A    between atoms: N1_5  and  C5_6 
REMARK    4  A    between atoms: N1_5  and  S1_33 
REMARK    5  A    between atoms: C5_6  and  C6_7 
REMARK    6  A    between atoms: C6_7  and  O1_8 
REMARK    7  A    between atoms: C6_7  and  C7_10 
REMARK    8  A    between atoms: C7_10  and  C8_11 
REMARK    9  A    between atoms: C7_10  and  N2_18 
REMARK   10  A    between atoms: C8_11  and  C9_12 
REMARK       I    between atoms: N2_18  and  C15_20 
REMARK   11  A    between atoms: C15_20  and  O3_22 
REMARK   12  A    between atoms: O3_22  and  C16_23 
REMARK   13  A    between atoms: S1_33  and  C22_36 
ROOT
HETATM    1  C7  UNL     1      11.959  19.547  17.953  1.00  0.00     0.124 C 
ENDROOT
BRANCH   1   2
HETATM    2  C6  UNL     1      13.370  19.043  17.832  1.00  0.00     0.180 C 
BRANCH   2   3
HETATM    3  C5  UNL     1      14.367  20.115  17.632  1.00  0.00     0.115 C 
BRANCH   3   4
HETATM    4  N1  UNL     1      14.019  21.271  16.939  1.00  0.00    -0.263 N 
BRANCH   4   5
HETATM    5  C4  UNL     1      14.106  22.545  17.453  1.00  0.00     0.085 C 
BRANCH   5   6
HETATM    6  C2  UNL     1      15.057  22.680  18.610  1.00  0.00     0.017 C 
HETATM    7  C1  UNL     1      16.213  23.603  18.388  1.00  0.00     0.015 C 
HETATM    8  C3  UNL     1      14.297  23.056  19.892  1.00  0.00     0.015 C 
ENDBRANCH   5   6
ENDBRANCH   4   5
BRANCH   4   9
HETATM    9  S1  UNL     1      14.243  21.102  15.259  1.00  0.00     0.267 S 
HETATM   10  O6  UNL     1      13.011  21.187  14.436  1.00  0.00    -0.200 OA
HETATM   11  O7  UNL     1      14.756  19.665  15.054  1.00  0.00    -0.200 OA
BRANCH   9  12
HETATM   12  C22 UNL     1      15.519  22.127  14.617  1.00  0.00     0.080 A 
HETATM   13  C23 UNL     1      16.815  22.101  15.075  1.00  0.00     0.027 A 
HETATM   14  C24 UNL     1      17.780  22.928  14.532  1.00  0.00     0.028 A 
HETATM   15  C25 UNL     1      17.489  23.805  13.518  1.00  0.00     0.046 A 
HETATM   16  N3  UNL     1      18.502  24.666  12.954  1.00  0.00    -0.102 NA
HETATM   17  C26 UNL     1      16.185  23.839  13.050  1.00  0.00     0.028 A 
HETATM   18  C27 UNL     1      15.231  23.010  13.599  1.00  0.00     0.027 A 
ENDBRANCH   9  12
ENDBRANCH   4   9
ENDBRANCH   3   4
ENDBRANCH   2   3
BRANCH   2  19
HETATM   19  O1  UNL     1      13.729  18.108  18.793  1.00  0.00    -0.388 OA
ATOM     20  H1  UNL     1      13.002  17.789  19.314  1.00  0.00     0.210 HD
ENDBRANCH   2  19
ENDBRANCH   1   2
BRANCH   1  21
HETATM   21  C8  UNL     1      11.597  20.241  19.196  1.00  0.00     0.066 C 
BRANCH  21  22
HETATM   22  C9  UNL     1      10.364  19.986  19.874  1.00  0.00    -0.056 A 
HETATM   23  C10 UNL     1      10.185  18.999  20.856  1.00  0.00     0.007 A 
HETATM   24  C11 UNL     1       8.999  18.769  21.478  1.00  0.00     0.001 A 
HETATM   25  C12 UNL     1       7.907  19.526  21.147  1.00  0.00     0.000 A 
HETATM   26  C13 UNL     1       8.037  20.497  20.198  1.00  0.00     0.001 A 
HETATM   27  C14 UNL     1       9.247  20.726  19.569  1.00  0.00     0.007 A 
ENDBRANCH  21  22
ENDBRANCH   1  21
BRANCH   1  28
HETATM   28  N2  UNL     1      11.062  18.421  17.652  1.00  0.00    -0.329 N 
HETATM   29  C15 UNL     1      10.087  18.449  16.635  1.00  0.00     0.361 C 
HETATM   30  O2  UNL     1       9.992  19.505  15.959  1.00  0.00    -0.238 OA
ATOM     31  H2  UNL     1      11.151  17.572  18.211  1.00  0.00     0.165 HD
BRANCH  29  32
HETATM   32  O3  UNL     1       9.242  17.378  16.352  1.00  0.00    -0.296 OA
BRANCH  32  33
HETATM   33  C16 UNL     1       8.755  17.272  15.028  1.00  0.00     0.172 C 
HETATM   34  C17 UNL     1       9.825  16.436  14.294  1.00  0.00     0.204 C 
HETATM   35  O4  UNL     1       9.521  15.148  14.743  1.00  0.00    -0.358 OA
HETATM   36  C18 UNL     1       8.152  15.021  14.748  1.00  0.00     0.272 C 
HETATM   37  O5  UNL     1       7.708  14.351  15.900  1.00  0.00    -0.355 OA
HETATM   38  C21 UNL     1       7.564  16.415  14.847  1.00  0.00     0.147 C 
HETATM   39  C19 UNL     1       6.383  14.802  16.064  1.00  0.00     0.250 C 
HETATM   40  C20 UNL     1       6.616  16.318  15.986  1.00  0.00     0.275 C 
HETATM   41  F1  UNL     1       5.414  16.903  15.561  1.00  0.00    -0.203 F 
HETATM   42  F2  UNL     1       7.038  16.842  17.165  1.00  0.00    -0.203 F 
ENDBRANCH  32  33
ENDBRANCH  29  32
ENDBRANCH   1  28
TORSDOF 13
ENDMDL
