MODEL 5
REMARK VINA RESULT: -9.291834844      3.065      5.249
REMARK  6 active torsions:
REMARK  status: ('A' for Active; 'I' for Inactive)
REMARK    1  A    between atoms: C1_2  and  C2_4 
REMARK    2  A    between atoms: C2_4  and  C3_5 
REMARK    3  A    between atoms: C3_5  and  N1_6 
REMARK    4  A    between atoms: N1_6  and  C4_8 
REMARK    5  A    between atoms: C6_10  and  N2_11 
REMARK    6  A    between atoms: C17_24  and  C18_25 
ROOT
HETATM    1  C4  UNL     1     -23.041  21.403   2.212  1.00  0.00     0.106 A 
HETATM    2  C5  UNL     1     -24.041  22.349   2.344  1.00  0.00     0.096 A 
HETATM    3  C6  UNL     1     -24.802  22.358   3.475  1.00  0.00     0.108 A 
HETATM    4  N3  UNL     1     -24.541  21.424   4.444  1.00  0.00    -0.327 N 
ATOM      5  H3  UNL     1     -25.105  21.425   5.294  1.00  0.00     0.169 HD
HETATM    6  C17 UNL     1     -23.579  20.516   4.315  1.00  0.00     0.135 A 
HETATM    7  N5  UNL     1     -22.847  20.526   3.199  1.00  0.00    -0.327 N 
ATOM      8  H5  UNL     1     -22.107  19.832   3.095  1.00  0.00     0.169 HD
ENDROOT
BRANCH   3   9
HETATM    9  N2  UNL     1     -25.834  23.307   3.663  1.00  0.00    -0.367 N 
HETATM   10  C7  UNL     1     -25.569  24.340   4.644  1.00  0.00     0.129 C 
HETATM   11  C8  UNL     1     -26.405  24.190   5.883  1.00  0.00     0.059 C 
HETATM   12  C9  UNL     1     -27.816  23.938   5.694  1.00  0.00    -0.050 A 
HETATM   13  C10 UNL     1     -28.579  24.647   6.597  1.00  0.00     0.007 A 
HETATM   14  C14 UNL     1     -28.476  23.137   4.796  1.00  0.00    -0.050 A 
HETATM   15  C11 UNL     1     -29.962  24.572   6.618  1.00  0.00     0.001 A 
HETATM   16  C12 UNL     1     -30.594  23.757   5.703  1.00  0.00     0.001 A 
HETATM   17  C13 UNL     1     -29.874  23.042   4.797  1.00  0.00     0.007 A 
HETATM   18  C15 UNL     1     -27.948  22.281   3.735  1.00  0.00     0.059 C 
HETATM   19  C16 UNL     1     -27.008  23.108   2.847  1.00  0.00     0.129 C 
ENDBRANCH   3   9
BRANCH   1  20
HETATM   20  N1  UNL     1     -22.247  21.398   1.039  1.00  0.00    -0.376 N 
ATOM     21  H1  UNL     1     -21.546  20.670   0.902  1.00  0.00     0.161 HD
BRANCH  20  22
HETATM   22  C3  UNL     1     -22.426  22.413   0.049  1.00  0.00     0.132 C 
BRANCH  22  23
HETATM   23  C2  UNL     1     -22.247  21.853  -1.330  1.00  0.00     0.132 C 
BRANCH  23  24
HETATM   24  C1  UNL     1     -23.470  21.119  -1.733  1.00  0.00     0.174 C 
HETATM   25  O1  UNL     1     -24.352  20.801  -0.912  1.00  0.00    -0.648 OA
HETATM   26  O2  UNL     1     -23.631  20.779  -3.065  1.00  0.00    -0.648 OA
ENDBRANCH  23  24
ENDBRANCH  22  23
ENDBRANCH  20  22
ENDBRANCH   1  20
BRANCH   6  27
HETATM   27  C18 UNL     1     -23.301  19.513   5.358  1.00  0.00     0.076 A 
HETATM   28  C19 UNL     1     -23.299  18.173   5.103  1.00  0.00     0.033 A 
HETATM   29  C20 UNL     1     -23.028  17.282   6.134  1.00  0.00     0.004 A 
HETATM   30  C21 UNL     1     -22.768  17.742   7.393  1.00  0.00     0.017 A 
HETATM   31  C22 UNL     1     -22.780  19.102   7.607  1.00  0.00     0.088 A 
HETATM   32  N4  UNL     1     -23.045  19.972   6.595  1.00  0.00    -0.363 N 
ATOM     33  H4  UNL     1     -23.049  20.975   6.777  1.00  0.00     0.165 HD
ENDBRANCH   6  27
TORSDOF 6
ENDMDL
