MODEL 2
REMARK VINA RESULT: -9.560541482      2.198      4.591
REMARK  6 active torsions:
REMARK  status: ('A' for Active; 'I' for Inactive)
REMARK    1  A    between atoms: C1_2  and  C2_4 
REMARK    2  A    between atoms: C2_4  and  C3_5 
REMARK    3  A    between atoms: C3_5  and  N1_6 
REMARK    4  A    between atoms: N1_6  and  C4_8 
REMARK    5  A    between atoms: C6_10  and  N2_11 
REMARK    6  A    between atoms: C17_24  and  C18_25 
ROOT
HETATM    1  C4  UNL     1     -23.176  21.326   2.080  1.00  0.00     0.106 A 
HETATM    2  C5  UNL     1     -24.152  22.293   2.239  1.00  0.00     0.096 A 
HETATM    3  C6  UNL     1     -24.854  22.343   3.406  1.00  0.00     0.108 A 
HETATM    4  N3  UNL     1     -24.561  21.428   4.383  1.00  0.00    -0.327 N 
ATOM      5  H3  UNL     1     -25.081  21.460   5.260  1.00  0.00     0.169 HD
HETATM    6  C17 UNL     1     -23.623  20.499   4.228  1.00  0.00     0.135 A 
HETATM    7  N5  UNL     1     -22.948  20.469   3.077  1.00  0.00    -0.327 N 
ATOM      8  H5  UNL     1     -22.227  19.759   2.953  1.00  0.00     0.169 HD
ENDROOT
BRANCH   3   9
HETATM    9  N2  UNL     1     -25.859  23.316   3.622  1.00  0.00    -0.367 N 
HETATM   10  C7  UNL     1     -25.561  24.316   4.628  1.00  0.00     0.129 C 
HETATM   11  C8  UNL     1     -26.397  24.158   5.866  1.00  0.00     0.059 C 
HETATM   12  C9  UNL     1     -27.816  23.950   5.676  1.00  0.00    -0.050 A 
HETATM   13  C10 UNL     1     -28.555  24.657   6.600  1.00  0.00     0.007 A 
HETATM   14  C14 UNL     1     -28.500  23.191   4.761  1.00  0.00    -0.050 A 
HETATM   15  C11 UNL     1     -29.939  24.620   6.625  1.00  0.00     0.001 A 
HETATM   16  C12 UNL     1     -30.597  23.848   5.692  1.00  0.00     0.001 A 
HETATM   17  C13 UNL     1     -29.901  23.136   4.765  1.00  0.00     0.007 A 
HETATM   18  C15 UNL     1     -28.000  22.348   3.677  1.00  0.00     0.059 C 
HETATM   19  C16 UNL     1     -27.040  23.171   2.806  1.00  0.00     0.129 C 
ENDBRANCH   3   9
BRANCH   1  20
HETATM   20  N1  UNL     1     -22.443  21.279   0.869  1.00  0.00    -0.376 N 
ATOM     21  H1  UNL     1     -22.716  20.628   0.133  1.00  0.00     0.161 HD
BRANCH  20  22
HETATM   22  C3  UNL     1     -21.319  22.142   0.679  1.00  0.00     0.132 C 
BRANCH  22  23
HETATM   23  C2  UNL     1     -20.139  21.376   0.157  1.00  0.00     0.132 C 
BRANCH  23  24
HETATM   24  C1  UNL     1     -19.531  20.589   1.255  1.00  0.00     0.174 C 
HETATM   25  O1  UNL     1     -19.856  20.753   2.446  1.00  0.00    -0.648 OA
HETATM   26  O2  UNL     1     -18.571  19.643   0.939  1.00  0.00    -0.648 OA
ENDBRANCH  23  24
ENDBRANCH  22  23
ENDBRANCH  20  22
ENDBRANCH   1  20
BRANCH   6  27
HETATM   27  C18 UNL     1     -23.310  19.516   5.280  1.00  0.00     0.076 A 
HETATM   28  C19 UNL     1     -23.325  18.172   5.054  1.00  0.00     0.033 A 
HETATM   29  C20 UNL     1     -23.020  17.299   6.091  1.00  0.00     0.004 A 
HETATM   30  C21 UNL     1     -22.709  17.784   7.329  1.00  0.00     0.017 A 
HETATM   31  C22 UNL     1     -22.705  19.148   7.515  1.00  0.00     0.088 A 
HETATM   32  N4  UNL     1     -23.004  19.998   6.497  1.00  0.00    -0.363 N 
ATOM     33  H4  UNL     1     -22.995  21.005   6.658  1.00  0.00     0.165 HD
ENDBRANCH   6  27
TORSDOF 6
ENDMDL
