MODEL 4
REMARK VINA RESULT: -9.404790448      2.255      4.621
REMARK  6 active torsions:
REMARK  status: ('A' for Active; 'I' for Inactive)
REMARK    1  A    between atoms: C1_2  and  C2_4 
REMARK    2  A    between atoms: C2_4  and  C3_5 
REMARK    3  A    between atoms: C3_5  and  N1_6 
REMARK    4  A    between atoms: N1_6  and  C4_8 
REMARK    5  A    between atoms: C6_10  and  N2_11 
REMARK    6  A    between atoms: C17_24  and  C18_25 
ROOT
HETATM    1  C4  UNL     1     -23.275  21.995   1.663  1.00  0.00     0.106 A 
HETATM    2  C5  UNL     1     -24.188  22.991   1.959  1.00  0.00     0.096 A 
HETATM    3  C6  UNL     1     -24.891  22.924   3.124  1.00  0.00     0.108 A 
HETATM    4  N3  UNL     1     -24.662  21.865   3.965  1.00  0.00    -0.327 N 
ATOM      5  H3  UNL     1     -25.184  21.808   4.839  1.00  0.00     0.169 HD
HETATM    6  C17 UNL     1     -23.784  20.909   3.679  1.00  0.00     0.135 A 
HETATM    7  N5  UNL     1     -23.108  20.995   2.531  1.00  0.00    -0.327 N 
ATOM      8  H5  UNL     1     -22.432  20.264   2.308  1.00  0.00     0.169 HD
ENDROOT
BRANCH   3   9
HETATM    9  N2  UNL     1     -25.833  23.919   3.478  1.00  0.00    -0.367 N 
HETATM   10  C7  UNL     1     -25.585  24.604   4.730  1.00  0.00     0.129 C 
HETATM   11  C8  UNL     1     -26.583  24.242   5.794  1.00  0.00     0.059 C 
HETATM   12  C9  UNL     1     -27.977  24.246   5.412  1.00  0.00    -0.050 A 
HETATM   13  C10 UNL     1     -28.769  24.783   6.405  1.00  0.00     0.007 A 
HETATM   14  C14 UNL     1     -28.599  23.814   4.268  1.00  0.00    -0.050 A 
HETATM   15  C11 UNL     1     -30.143  24.895   6.277  1.00  0.00     0.001 A 
HETATM   16  C12 UNL     1     -30.737  24.451   5.115  1.00  0.00     0.001 A 
HETATM   17  C13 UNL     1     -29.988  23.915   4.113  1.00  0.00     0.007 A 
HETATM   18  C15 UNL     1     -28.035  23.211   3.062  1.00  0.00     0.059 C 
HETATM   19  C16 UNL     1     -26.908  24.110   2.534  1.00  0.00     0.129 C 
ENDBRANCH   3   9
BRANCH   1  20
HETATM   20  N1  UNL     1     -22.540  22.069   0.455  1.00  0.00    -0.376 N 
ATOM     21  H1  UNL     1     -23.004  21.888  -0.435  1.00  0.00     0.161 HD
BRANCH  20  22
HETATM   22  C3  UNL     1     -21.149  22.397   0.482  1.00  0.00     0.132 C 
BRANCH  22  23
HETATM   23  C2  UNL     1     -20.319  21.244   0.003  1.00  0.00     0.132 C 
BRANCH  23  24
HETATM   24  C1  UNL     1     -19.691  20.566   1.161  1.00  0.00     0.174 C 
HETATM   25  O1  UNL     1     -20.156  20.657   2.314  1.00  0.00    -0.648 OA
HETATM   26  O2  UNL     1     -18.552  19.808   0.949  1.00  0.00    -0.648 OA
ENDBRANCH  23  24
ENDBRANCH  22  23
ENDBRANCH  20  22
ENDBRANCH   1  20
BRANCH   6  27
HETATM   27  C18 UNL     1     -23.540  19.772   4.582  1.00  0.00     0.076 A 
HETATM   28  C19 UNL     1     -23.389  19.926   5.929  1.00  0.00     0.033 A 
HETATM   29  C20 UNL     1     -23.161  18.810   6.724  1.00  0.00     0.004 A 
HETATM   30  C21 UNL     1     -23.087  17.567   6.163  1.00  0.00     0.017 A 
HETATM   31  C22 UNL     1     -23.245  17.456   4.800  1.00  0.00     0.088 A 
HETATM   32  N4  UNL     1     -23.469  18.550   4.025  1.00  0.00    -0.363 N 
ATOM     33  H4  UNL     1     -23.582  18.444   3.017  1.00  0.00     0.165 HD
ENDBRANCH   6  27
TORSDOF 6
ENDMDL
