MODEL 2
REMARK VINA RESULT: -6.346522100      1.135      1.821
REMARK  4 active torsions:
REMARK  status: ('A' for Active; 'I' for Inactive)
REMARK    1  A    between atoms: C2_2  and  O1_3 
REMARK    2  A    between atoms: C4_7  and  O3_8 
REMARK    3  A    between atoms: C5_10  and  O4_11 
REMARK    4  A    between atoms: C5_10  and  O5_13 
ROOT
HETATM    1  C1  UNL     1      29.899  66.552  99.183  1.00  0.00     0.085 C 
HETATM    2  C2  UNL     1      29.297  67.058  97.920  1.00  0.00     0.218 C 
HETATM    3  O2  UNL     1      29.735  66.441  96.776  1.00  0.00    -0.348 OA
HETATM    4  C3  UNL     1      28.675  66.278  95.916  1.00  0.00     0.209 C 
HETATM    5  C4  UNL     1      27.596  67.251  96.410  1.00  0.00     0.209 C 
HETATM    6  C5  UNL     1      27.768  66.921  97.902  1.00  0.00     0.246 C 
ENDROOT
BRANCH   6   7
HETATM    7  O4  UNL     1      27.142  67.800  98.718  1.00  0.00    -0.359 OA
ATOM      8  H4  UNL     1      27.110  68.682  98.366  1.00  0.00     0.213 HD
ENDBRANCH   6   7
BRANCH   6   9
HETATM    9  O5  UNL     1      27.377  65.616  98.060  1.00  0.00    -0.359 OA
ATOM     10  H5  UNL     1      26.552  65.552  98.526  1.00  0.00     0.213 HD
ENDBRANCH   6   9
BRANCH   2  11
HETATM   11  O1  UNL     1      29.540  68.441  97.758  1.00  0.00    -0.361 OA
ATOM     12  H1  UNL     1      29.119  68.772  96.973  1.00  0.00     0.213 HD
ENDBRANCH   2  11
BRANCH   5  13
HETATM   13  O3  UNL     1      28.035  68.524  96.142  1.00  0.00    -0.388 OA
ATOM     14  H3  UNL     1      27.516  68.858  95.419  1.00  0.00     0.210 HD
ENDBRANCH   5  13
TORSDOF 4
ENDMDL
