MODEL 15
REMARK VINA RESULT: -5.042704032      1.227      2.449
REMARK  4 active torsions:
REMARK  status: ('A' for Active; 'I' for Inactive)
REMARK    1  A    between atoms: C2_2  and  O1_3 
REMARK    2  A    between atoms: C4_7  and  O3_8 
REMARK    3  A    between atoms: C5_10  and  O4_11 
REMARK    4  A    between atoms: C5_10  and  O5_13 
ROOT
HETATM    1  C1  UNL     1      29.206  65.235  99.454  1.00  0.00     0.085 C 
HETATM    2  C2  UNL     1      29.298  66.234  98.355  1.00  0.00     0.218 C 
HETATM    3  O2  UNL     1      29.265  65.714  97.087  1.00  0.00    -0.348 OA
HETATM    4  C3  UNL     1      28.517  66.538  96.279  1.00  0.00     0.209 C 
HETATM    5  C4  UNL     1      28.444  67.879  97.023  1.00  0.00     0.209 C 
HETATM    6  C5  UNL     1      28.165  67.268  98.406  1.00  0.00     0.246 C 
ENDROOT
BRANCH   6   7
HETATM    7  O4  UNL     1      28.296  68.158  99.417  1.00  0.00    -0.359 OA
ATOM      8  H4  UNL     1      28.739  68.958  99.158  1.00  0.00     0.213 HD
ENDBRANCH   6   7
BRANCH   6   9
HETATM    9  O5  UNL     1      26.933  66.671  98.326  1.00  0.00    -0.359 OA
ATOM     10  H5  UNL     1      26.702  66.466  97.428  1.00  0.00     0.213 HD
ENDBRANCH   6   9
BRANCH   2  11
HETATM   11  O1  UNL     1      30.487  66.993  98.456  1.00  0.00    -0.361 OA
ATOM     12  H1  UNL     1      30.516  67.672  97.792  1.00  0.00     0.213 HD
ENDBRANCH   2  11
BRANCH   5  13
HETATM   13  O3  UNL     1      29.696  68.440  96.985  1.00  0.00    -0.388 OA
ATOM     14  H3  UNL     1      29.589  69.382  97.056  1.00  0.00     0.210 HD
ENDBRANCH   5  13
TORSDOF 4
ENDMDL
