MODEL 1
REMARK VINA RESULT: -6.907232257      0.000      0.000
REMARK  4 active torsions:
REMARK  status: ('A' for Active; 'I' for Inactive)
REMARK    1  A    between atoms: C2_2  and  O1_3 
REMARK    2  A    between atoms: C4_7  and  O3_8 
REMARK    3  A    between atoms: C5_10  and  O4_11 
REMARK    4  A    between atoms: C5_10  and  O5_13 
ROOT
HETATM    1  C1  UNL     1      29.074  67.318  99.911  1.00  0.00     0.085 C 
HETATM    2  C2  UNL     1      28.483  67.387  98.548  1.00  0.00     0.218 C 
HETATM    3  O2  UNL     1      29.158  68.181  97.657  1.00  0.00    -0.348 OA
HETATM    4  C3  UNL     1      29.158  67.577  96.422  1.00  0.00     0.209 C 
HETATM    5  C4  UNL     1      28.033  66.535  96.479  1.00  0.00     0.209 C 
HETATM    6  C5  UNL     1      28.386  66.008  97.879  1.00  0.00     0.246 C 
ENDROOT
BRANCH   6   7
HETATM    7  O4  UNL     1      27.422  65.221  98.411  1.00  0.00    -0.359 OA
ATOM      8  H4  UNL     1      27.710  64.330  98.570  1.00  0.00     0.213 HD
ENDBRANCH   6   7
BRANCH   6   9
HETATM    9  O5  UNL     1      29.617  65.413  97.772  1.00  0.00    -0.359 OA
ATOM     10  H5  UNL     1      29.611  64.712  97.130  1.00  0.00     0.213 HD
ENDBRANCH   6   9
BRANCH   2  11
HETATM   11  O1  UNL     1      27.152  67.862  98.594  1.00  0.00    -0.361 OA
ATOM     12  H1  UNL     1      26.611  67.311  99.147  1.00  0.00     0.213 HD
ENDBRANCH   2  11
BRANCH   5  13
HETATM   13  O3  UNL     1      26.841  67.217  96.504  1.00  0.00    -0.388 OA
ATOM     14  H3  UNL     1      26.975  68.041  96.050  1.00  0.00     0.210 HD
ENDBRANCH   5  13
TORSDOF 4
ENDMDL
