MODEL 9
REMARK VINA RESULT: -5.334121474      0.960      1.007
REMARK  4 active torsions:
REMARK  status: ('A' for Active; 'I' for Inactive)
REMARK    1  A    between atoms: C2_2  and  O1_3 
REMARK    2  A    between atoms: C4_7  and  O3_8 
REMARK    3  A    between atoms: C5_10  and  O4_11 
REMARK    4  A    between atoms: C5_10  and  O5_13 
ROOT
HETATM    1  C1  UNL     1      30.105  66.431  99.301  1.00  0.00     0.085 C 
HETATM    2  C2  UNL     1      29.080  67.156  98.503  1.00  0.00     0.218 C 
HETATM    3  O2  UNL     1      29.576  67.971  97.517  1.00  0.00    -0.348 OA
HETATM    4  C3  UNL     1      28.773  67.876  96.405  1.00  0.00     0.209 C 
HETATM    5  C4  UNL     1      27.453  67.275  96.907  1.00  0.00     0.209 C 
HETATM    6  C5  UNL     1      28.104  66.204  97.797  1.00  0.00     0.246 C 
ENDROOT
BRANCH   6   7
HETATM    7  O4  UNL     1      27.230  65.611  98.642  1.00  0.00    -0.359 OA
ATOM      8  H4  UNL     1      26.330  65.883  98.505  1.00  0.00     0.213 HD
ENDBRANCH   6   7
BRANCH   6   9
HETATM    9  O5  UNL     1      28.759  65.343  96.955  1.00  0.00    -0.359 OA
ATOM     10  H5  UNL     1      28.868  65.717  96.088  1.00  0.00     0.213 HD
ENDBRANCH   6   9
BRANCH   2  11
HETATM   11  O1  UNL     1      28.267  67.963  99.330  1.00  0.00    -0.361 OA
ATOM     12  H1  UNL     1      27.363  67.950  99.038  1.00  0.00     0.213 HD
ENDBRANCH   2  11
BRANCH   5  13
HETATM   13  O3  UNL     1      26.830  68.229  97.673  1.00  0.00    -0.388 OA
ATOM     14  H3  UNL     1      25.919  68.259  97.406  1.00  0.00     0.210 HD
ENDBRANCH   5  13
TORSDOF 4
ENDMDL
