MODEL 3
REMARK VINA RESULT: -10.247717439      3.444      4.965
REMARK  15 active torsions:
REMARK  status: ('A' for Active; 'I' for Inactive)
REMARK    1  A    between atoms: C1_2  and  C2_4 
REMARK    2  A    between atoms: N2_6  and  C4_7 
REMARK    3  A    between atoms: C5_9  and  C6_10 
REMARK    4  A    between atoms: C6_10  and  O3_11 
REMARK    5  A    between atoms: O3_11  and  P1_12 
REMARK    6  A    between atoms: P1_12  and  O6_15 
REMARK    7  A    between atoms: O6_15  and  P2_16 
REMARK    8  A    between atoms: P2_16  and  O9_19 
REMARK    9  A    between atoms: O9_19  and  C7_20 
REMARK   10  A    between atoms: C7_20  and  C8_21 
REMARK   11  A    between atoms: C9_23  and  N3_24 
REMARK   12  A    between atoms: C15_37  and  O11_38 
REMARK   13  A    between atoms: C16_40  and  O12_41 
REMARK   14  A    between atoms: C17_43  and  O13_44 
REMARK   15  A    between atoms: C18_46  and  O14_47 
ROOT
HETATM    1  P2  UNL     1      41.250 -14.415  29.028  1.00  0.00     0.417 P 
HETATM    2  O7  UNL     1      41.025 -13.305  28.023  1.00  0.00    -0.624 OA
HETATM    3  O8  UNL     1      41.222 -15.874  28.228  1.00  0.00    -0.624 OA
ENDROOT
BRANCH   1   4
HETATM    4  O6  UNL     1      42.686 -14.107  29.832  1.00  0.00    -0.180 OA
BRANCH   4   5
HETATM    5  P1  UNL     1      43.255 -15.382  30.728  1.00  0.00     0.417 P 
HETATM    6  O4  UNL     1      42.095 -16.180  31.274  1.00  0.00    -0.624 OA
HETATM    7  O5  UNL     1      44.092 -16.430  29.665  1.00  0.00    -0.624 OA
BRANCH   5   8
HETATM    8  O3  UNL     1      44.335 -14.936  31.937  1.00  0.00    -0.287 OA
BRANCH   8   9
HETATM    9  C6  UNL     1      45.446 -14.379  31.355  1.00  0.00     0.216 C 
BRANCH   9  10
HETATM   10  C5  UNL     1      46.667 -15.264  31.442  1.00  0.00     0.180 C 
HETATM   11  O2  UNL     1      47.820 -14.491  31.318  1.00  0.00    -0.353 OA
HETATM   12  C4  UNL     1      48.871 -15.215  31.822  1.00  0.00     0.259 C 
HETATM   13  C18 UNL     1      48.315 -16.203  32.822  1.00  0.00     0.198 C 
HETATM   14  C17 UNL     1      46.843 -15.837  32.834  1.00  0.00     0.182 C 
BRANCH  12  15
HETATM   15  N2  UNL     1      49.836 -14.396  32.528  1.00  0.00    -0.337 N 
HETATM   16  C3  UNL     1      49.578 -14.008  33.863  1.00  0.00     0.105 A 
HETATM   17  C2  UNL     1      50.410 -13.252  34.594  1.00  0.00     0.026 A 
HETATM   18  C21 UNL     1      51.680 -12.779  33.999  1.00  0.00     0.073 A 
HETATM   19  C20 UNL     1      51.889 -13.214  32.612  1.00  0.00    -0.005 A 
HETATM   20  C19 UNL     1      51.038 -13.965  31.920  1.00  0.00     0.089 A 
BRANCH  17  21
HETATM   21  C1  UNL     1      50.063 -12.903  35.958  1.00  0.00     0.262 C 
HETATM   22  N1  UNL     1      51.050 -12.394  36.823  1.00  0.00    -0.057 NA
HETATM   23  O1  UNL     1      48.894 -13.055  36.357  1.00  0.00    -0.271 OA
ENDBRANCH  17  21
ENDBRANCH  12  15
BRANCH  13  24
HETATM   24  O14 UNL     1      48.502 -17.493  32.333  1.00  0.00    -0.388 OA
ATOM     25  H14 UNL     1      48.271 -18.116  33.011  1.00  0.00     0.210 HD
ENDBRANCH  13  24
BRANCH  14  26
HETATM   26  O13 UNL     1      46.083 -16.979  33.031  1.00  0.00    -0.390 OA
ATOM     27  H13 UNL     1      46.387 -17.490  33.772  1.00  0.00     0.210 HD
ENDBRANCH  14  26
ENDBRANCH   9  10
ENDBRANCH   8   9
ENDBRANCH   5   8
ENDBRANCH   4   5
ENDBRANCH   1   4
BRANCH   1  28
HETATM   28  O9  UNL     1      39.983 -14.279  30.170  1.00  0.00    -0.287 OA
BRANCH  28  29
HETATM   29  C7  UNL     1      40.027 -12.962  30.629  1.00  0.00     0.216 C 
BRANCH  29  30
HETATM   30  C8  UNL     1      39.337 -12.793  31.949  1.00  0.00     0.180 C 
HETATM   31  O10 UNL     1      39.865 -13.660  32.866  1.00  0.00    -0.353 OA
HETATM   32  C9  UNL     1      39.958 -13.054  34.083  1.00  0.00     0.262 C 
HETATM   33  C15 UNL     1      39.381 -11.684  34.008  1.00  0.00     0.198 C 
HETATM   34  C16 UNL     1      39.460 -11.391  32.504  1.00  0.00     0.182 C 
BRANCH  32  35
HETATM   35  N3  UNL     1      41.336 -12.979  34.559  1.00  0.00    -0.297 N 
HETATM   36  C10 UNL     1      42.029 -11.901  34.966  1.00  0.00     0.188 A 
HETATM   37  N4  UNL     1      43.268 -12.274  35.322  1.00  0.00    -0.346 N 
HETATM   38  C11 UNL     1      43.345 -13.599  35.133  1.00  0.00     0.119 A 
ATOM     39  H4  UNL     1      44.009 -11.665  35.670  1.00  0.00     0.167 HD
HETATM   40  C12 UNL     1      44.369 -14.494  35.334  1.00  0.00     0.148 A 
HETATM   41  C14 UNL     1      42.150 -14.049  34.659  1.00  0.00     0.142 A 
HETATM   42  N5  UNL     1      45.612 -14.013  35.829  1.00  0.00    -0.080 NA
HETATM   43  N6  UNL     1      44.169 -15.777  35.058  1.00  0.00    -0.339 N 
HETATM   44  C13 UNL     1      42.993 -16.209  34.594  1.00  0.00     0.183 A 
ATOM     45  H6  UNL     1      44.926 -16.445  35.203  1.00  0.00     0.167 HD
HETATM   46  N7  UNL     1      41.982 -15.351  34.392  1.00  0.00    -0.336 N 
ATOM     47  H7  UNL     1      41.087 -15.689  34.037  1.00  0.00     0.168 HD
ENDBRANCH  32  35
BRANCH  33  48
HETATM   48  O11 UNL     1      38.023 -11.713  34.392  1.00  0.00    -0.388 OA
ATOM     49  H11 UNL     1      37.478 -11.918  33.641  1.00  0.00     0.210 HD
ENDBRANCH  33  48
BRANCH  34  50
HETATM   50  O12 UNL     1      38.437 -10.573  32.083  1.00  0.00    -0.390 OA
ATOM     51  H12 UNL     1      38.394  -9.766  32.581  1.00  0.00     0.210 HD
ENDBRANCH  34  50
ENDBRANCH  29  30
ENDBRANCH  28  29
ENDBRANCH   1  28
TORSDOF 15
ENDMDL
