MODEL 1
REMARK VINA RESULT: -10.369321625      0.000      0.000
REMARK  15 active torsions:
REMARK  status: ('A' for Active; 'I' for Inactive)
REMARK    1  A    between atoms: C1_2  and  C2_4 
REMARK    2  A    between atoms: N2_6  and  C4_7 
REMARK    3  A    between atoms: C5_9  and  C6_10 
REMARK    4  A    between atoms: C6_10  and  O3_11 
REMARK    5  A    between atoms: O3_11  and  P1_12 
REMARK    6  A    between atoms: P1_12  and  O6_15 
REMARK    7  A    between atoms: O6_15  and  P2_16 
REMARK    8  A    between atoms: P2_16  and  O9_19 
REMARK    9  A    between atoms: O9_19  and  C7_20 
REMARK   10  A    between atoms: C7_20  and  C8_21 
REMARK   11  A    between atoms: C9_23  and  N3_24 
REMARK   12  A    between atoms: C15_37  and  O11_38 
REMARK   13  A    between atoms: C16_40  and  O12_41 
REMARK   14  A    between atoms: C17_43  and  O13_44 
REMARK   15  A    between atoms: C18_46  and  O14_47 
ROOT
HETATM    1  P2  UNL     1      41.682 -15.967  32.585  1.00  0.00     0.417 P 
HETATM    2  O7  UNL     1      41.037 -17.332  32.468  1.00  0.00    -0.624 OA
HETATM    3  O8  UNL     1      42.854 -16.029  33.765  1.00  0.00    -0.624 OA
ENDROOT
BRANCH   1   4
HETATM    4  O6  UNL     1      42.258 -15.532  31.074  1.00  0.00    -0.180 OA
BRANCH   4   5
HETATM    5  P1  UNL     1      43.861 -15.883  30.827  1.00  0.00     0.417 P 
HETATM    6  O4  UNL     1      44.126 -17.331  31.166  1.00  0.00    -0.624 OA
HETATM    7  O5  UNL     1      44.174 -15.724  29.152  1.00  0.00    -0.624 OA
BRANCH   5   8
HETATM    8  O3  UNL     1      44.916 -14.848  31.629  1.00  0.00    -0.287 OA
BRANCH   8   9
HETATM    9  C6  UNL     1      45.961 -14.546  30.792  1.00  0.00     0.216 C 
BRANCH   9  10
HETATM   10  C5  UNL     1      47.197 -15.370  31.067  1.00  0.00     0.180 C 
HETATM   11  O2  UNL     1      48.324 -14.550  31.048  1.00  0.00    -0.353 OA
HETATM   12  C4  UNL     1      49.334 -15.205  31.707  1.00  0.00     0.259 C 
HETATM   13  C18 UNL     1      48.700 -16.177  32.676  1.00  0.00     0.198 C 
HETATM   14  C17 UNL     1      47.223 -15.878  32.493  1.00  0.00     0.182 C 
BRANCH  12  15
HETATM   15  N2  UNL     1      50.171 -14.316  32.487  1.00  0.00    -0.337 N 
HETATM   16  C3  UNL     1      49.820 -14.021  33.824  1.00  0.00     0.105 A 
HETATM   17  C2  UNL     1      50.530 -13.209  34.621  1.00  0.00     0.026 A 
HETATM   18  C21 UNL     1      51.760 -12.570  34.101  1.00  0.00     0.073 A 
HETATM   19  C20 UNL     1      52.070 -12.915  32.708  1.00  0.00    -0.005 A 
HETATM   20  C19 UNL     1      51.337 -13.725  31.950  1.00  0.00     0.089 A 
BRANCH  17  21
HETATM   21  C1  UNL     1      50.095 -12.964  35.982  1.00  0.00     0.262 C 
HETATM   22  N1  UNL     1      48.774 -13.271  36.360  1.00  0.00    -0.057 NA
HETATM   23  O1  UNL     1      50.891 -12.485  36.809  1.00  0.00    -0.271 OA
ENDBRANCH  17  21
ENDBRANCH  12  15
BRANCH  13  24
HETATM   24  O14 UNL     1      48.997 -17.476  32.272  1.00  0.00    -0.388 OA
ATOM     25  H14 UNL     1      49.261 -17.462  31.360  1.00  0.00     0.210 HD
ENDBRANCH  13  24
BRANCH  14  26
HETATM   26  O13 UNL     1      46.491 -17.045  32.649  1.00  0.00    -0.390 OA
ATOM     27  H13 UNL     1      47.010 -17.749  33.022  1.00  0.00     0.210 HD
ENDBRANCH  14  26
ENDBRANCH   9  10
ENDBRANCH   8   9
ENDBRANCH   5   8
ENDBRANCH   4   5
ENDBRANCH   1   4
BRANCH   1  28
HETATM   28  O9  UNL     1      40.420 -14.883  32.984  1.00  0.00    -0.287 OA
BRANCH  28  29
HETATM   29  C7  UNL     1      40.855 -13.624  32.564  1.00  0.00     0.216 C 
BRANCH  29  30
HETATM   30  C8  UNL     1      39.853 -12.936  31.688  1.00  0.00     0.180 C 
HETATM   31  O10 UNL     1      40.485 -12.341  30.631  1.00  0.00    -0.353 OA
HETATM   32  C9  UNL     1      39.738 -12.481  29.500  1.00  0.00     0.262 C 
HETATM   33  C15 UNL     1      38.457 -13.164  29.825  1.00  0.00     0.198 C 
HETATM   34  C16 UNL     1      38.804 -13.878  31.137  1.00  0.00     0.182 C 
BRANCH  32  35
HETATM   35  N3  UNL     1      40.441 -13.227  28.462  1.00  0.00    -0.297 N 
HETATM   36  C10 UNL     1      41.062 -14.415  28.553  1.00  0.00     0.188 A 
HETATM   37  N4  UNL     1      41.582 -14.743  27.360  1.00  0.00    -0.346 N 
HETATM   38  C11 UNL     1      41.278 -13.744  26.517  1.00  0.00     0.119 A 
ATOM     39  H4  UNL     1      42.106 -15.589  27.136  1.00  0.00     0.167 HD
HETATM   40  C12 UNL     1      41.556 -13.556  25.184  1.00  0.00     0.148 A 
HETATM   41  C14 UNL     1      40.569 -12.796  27.190  1.00  0.00     0.142 A 
HETATM   42  N5  UNL     1      42.297 -14.553  24.491  1.00  0.00    -0.080 NA
HETATM   43  N6  UNL     1      41.127 -12.452  24.584  1.00  0.00    -0.339 N 
HETATM   44  C13 UNL     1      40.431 -11.528  25.253  1.00  0.00     0.183 A 
ATOM     45  H6  UNL     1      41.331 -12.306  23.596  1.00  0.00     0.167 HD
HETATM   46  N7  UNL     1      40.150 -11.695  26.555  1.00  0.00    -0.336 N 
ATOM     47  H7  UNL     1      39.619 -10.984  27.058  1.00  0.00     0.168 HD
ENDBRANCH  32  35
BRANCH  33  48
HETATM   48  O11 UNL     1      37.453 -12.206  30.085  1.00  0.00    -0.388 OA
ATOM     49  H11 UNL     1      37.711 -11.655  30.814  1.00  0.00     0.210 HD
ENDBRANCH  33  48
BRANCH  34  50
HETATM   50  O12 UNL     1      37.715 -13.989  31.970  1.00  0.00    -0.390 OA
ATOM     51  H12 UNL     1      37.186 -14.752  31.771  1.00  0.00     0.210 HD
ENDBRANCH  34  50
ENDBRANCH  29  30
ENDBRANCH  28  29
ENDBRANCH   1  28
TORSDOF 15
ENDMDL
