MODEL 2
REMARK VINA RESULT: -10.284186826      3.190      4.492
REMARK  15 active torsions:
REMARK  status: ('A' for Active; 'I' for Inactive)
REMARK    1  A    between atoms: C1_2  and  C2_4 
REMARK    2  A    between atoms: N2_6  and  C4_7 
REMARK    3  A    between atoms: C5_9  and  C6_10 
REMARK    4  A    between atoms: C6_10  and  O3_11 
REMARK    5  A    between atoms: O3_11  and  P1_12 
REMARK    6  A    between atoms: P1_12  and  O6_15 
REMARK    7  A    between atoms: O6_15  and  P2_16 
REMARK    8  A    between atoms: P2_16  and  O9_19 
REMARK    9  A    between atoms: O9_19  and  C7_20 
REMARK   10  A    between atoms: C7_20  and  C8_21 
REMARK   11  A    between atoms: C9_23  and  N3_24 
REMARK   12  A    between atoms: C15_37  and  O11_38 
REMARK   13  A    between atoms: C16_40  and  O12_41 
REMARK   14  A    between atoms: C17_43  and  O13_44 
REMARK   15  A    between atoms: C18_46  and  O14_47 
ROOT
HETATM    1  P2  UNL     1      41.192 -14.519  29.222  1.00  0.00     0.417 P 
HETATM    2  O7  UNL     1      40.665 -13.405  28.344  1.00  0.00    -0.624 OA
HETATM    3  O8  UNL     1      41.438 -15.871  28.282  1.00  0.00    -0.624 OA
ENDROOT
BRANCH   1   4
HETATM    4  O6  UNL     1      42.573 -13.966  29.992  1.00  0.00    -0.180 OA
BRANCH   4   5
HETATM    5  P1  UNL     1      43.571 -15.167  30.553  1.00  0.00     0.417 P 
HETATM    6  O4  UNL     1      42.743 -16.289  31.134  1.00  0.00    -0.624 OA
HETATM    7  O5  UNL     1      44.390 -15.833  29.206  1.00  0.00    -0.624 OA
BRANCH   5   8
HETATM    8  O3  UNL     1      44.743 -14.630  31.631  1.00  0.00    -0.287 OA
BRANCH   8   9
HETATM    9  C6  UNL     1      45.888 -14.338  30.931  1.00  0.00     0.216 C 
BRANCH   9  10
HETATM   10  C5  UNL     1      47.051 -15.226  31.298  1.00  0.00     0.180 C 
HETATM   11  O2  UNL     1      48.234 -14.490  31.274  1.00  0.00    -0.353 OA
HETATM   12  C4  UNL     1      49.172 -15.172  32.008  1.00  0.00     0.259 C 
HETATM   13  C18 UNL     1      48.439 -16.037  33.007  1.00  0.00     0.198 C 
HETATM   14  C17 UNL     1      46.994 -15.648  32.753  1.00  0.00     0.182 C 
BRANCH  12  15
HETATM   15  N2  UNL     1      50.045 -14.297  32.764  1.00  0.00    -0.337 N 
HETATM   16  C3  UNL     1      49.714 -13.966  34.098  1.00  0.00     0.105 A 
HETATM   17  C2  UNL     1      50.458 -13.164  34.875  1.00  0.00     0.026 A 
HETATM   18  C21 UNL     1      51.704 -12.576  34.334  1.00  0.00     0.073 A 
HETATM   19  C20 UNL     1      51.991 -12.956  32.945  1.00  0.00    -0.005 A 
HETATM   20  C19 UNL     1      51.226 -13.755  32.207  1.00  0.00     0.089 A 
BRANCH  17  21
HETATM   21  C1  UNL     1      50.042 -12.880  36.234  1.00  0.00     0.262 C 
HETATM   22  N1  UNL     1      48.723 -13.163  36.636  1.00  0.00    -0.057 NA
HETATM   23  O1  UNL     1      50.853 -12.387  37.038  1.00  0.00    -0.271 OA
ENDBRANCH  17  21
ENDBRANCH  12  15
BRANCH  13  24
HETATM   24  O14 UNL     1      48.656 -17.375  32.692  1.00  0.00    -0.388 OA
ATOM     25  H14 UNL     1      49.577 -17.500  32.499  1.00  0.00     0.210 HD
ENDBRANCH  13  24
BRANCH  14  26
HETATM   26  O13 UNL     1      46.176 -16.749  32.949  1.00  0.00    -0.390 OA
ATOM     27  H13 UNL     1      46.225 -17.080  33.839  1.00  0.00     0.210 HD
ENDBRANCH  14  26
ENDBRANCH   9  10
ENDBRANCH   8   9
ENDBRANCH   5   8
ENDBRANCH   4   5
ENDBRANCH   1   4
BRANCH   1  28
HETATM   28  O9  UNL     1      40.002 -14.775  30.424  1.00  0.00    -0.287 OA
BRANCH  28  29
HETATM   29  C7  UNL     1      38.942 -13.929  30.093  1.00  0.00     0.216 C 
BRANCH  29  30
HETATM   30  C8  UNL     1      38.591 -12.989  31.206  1.00  0.00     0.180 C 
HETATM   31  O10 UNL     1      38.778 -13.604  32.414  1.00  0.00    -0.353 OA
HETATM   32  C9  UNL     1      39.302 -12.722  33.311  1.00  0.00     0.262 C 
HETATM   33  C15 UNL     1      39.417 -11.377  32.687  1.00  0.00     0.198 C 
HETATM   34  C16 UNL     1      39.419 -11.722  31.192  1.00  0.00     0.182 C 
BRANCH  32  35
HETATM   35  N3  UNL     1      40.610 -13.146  33.803  1.00  0.00    -0.297 N 
HETATM   36  C10 UNL     1      41.616 -12.392  34.276  1.00  0.00     0.188 A 
HETATM   37  N4  UNL     1      42.644 -13.182  34.622  1.00  0.00    -0.346 N 
HETATM   38  C11 UNL     1      42.270 -14.444  34.360  1.00  0.00     0.119 A 
ATOM     39  H4  UNL     1      43.538 -12.882  35.010  1.00  0.00     0.167 HD
HETATM   40  C12 UNL     1      42.922 -15.643  34.519  1.00  0.00     0.148 A 
HETATM   41  C14 UNL     1      41.007 -14.434  33.850  1.00  0.00     0.142 A 
HETATM   42  N5  UNL     1      44.241 -15.641  35.052  1.00  0.00    -0.080 NA
HETATM   43  N6  UNL     1      42.304 -16.765  34.170  1.00  0.00    -0.339 N 
HETATM   44  C13 UNL     1      41.065 -16.746  33.672  1.00  0.00     0.183 A 
ATOM     45  H6  UNL     1      42.784 -17.658  34.284  1.00  0.00     0.167 HD
HETATM   46  N7  UNL     1      40.412 -15.585  33.510  1.00  0.00    -0.336 N 
ATOM     47  H7  UNL     1      39.466 -15.578  33.129  1.00  0.00     0.168 HD
ENDBRANCH  32  35
BRANCH  33  48
HETATM   48  O11 UNL     1      38.263 -10.614  32.972  1.00  0.00    -0.388 OA
ATOM     49  H11 UNL     1      37.487 -11.154  32.882  1.00  0.00     0.210 HD
ENDBRANCH  33  48
BRANCH  34  50
HETATM   50  O12 UNL     1      38.842 -10.732  30.431  1.00  0.00    -0.390 OA
ATOM     51  H12 UNL     1      39.429  -9.998  30.292  1.00  0.00     0.210 HD
ENDBRANCH  34  50
ENDBRANCH  29  30
ENDBRANCH  28  29
ENDBRANCH   1  28
TORSDOF 15
ENDMDL
