MODEL 11
REMARK VINA RESULT: -9.849447547      1.676     10.140
REMARK  15 active torsions:
REMARK  status: ('A' for Active; 'I' for Inactive)
REMARK    1  A    between atoms: C1_2  and  C2_4 
REMARK    2  A    between atoms: N2_6  and  C4_7 
REMARK    3  A    between atoms: C5_9  and  C6_10 
REMARK    4  A    between atoms: C6_10  and  O3_11 
REMARK    5  A    between atoms: O3_11  and  P1_12 
REMARK    6  A    between atoms: P1_12  and  O6_15 
REMARK    7  A    between atoms: O6_15  and  P2_16 
REMARK    8  A    between atoms: P2_16  and  O9_19 
REMARK    9  A    between atoms: O9_19  and  C7_20 
REMARK   10  A    between atoms: C7_20  and  C8_21 
REMARK   11  A    between atoms: C9_23  and  N3_24 
REMARK   12  A    between atoms: C15_37  and  O11_38 
REMARK   13  A    between atoms: C16_40  and  O12_41 
REMARK   14  A    between atoms: C17_43  and  O13_44 
REMARK   15  A    between atoms: C18_46  and  O14_47 
ROOT
HETATM    1  P2  UNL     1      44.110 -15.162  33.849  1.00  0.00     0.417 P 
HETATM    2  O7  UNL     1      43.746 -14.037  32.903  1.00  0.00    -0.624 OA
HETATM    3  O8  UNL     1      45.095 -14.556  35.046  1.00  0.00    -0.624 OA
ENDROOT
BRANCH   1   4
HETATM    4  O6  UNL     1      42.690 -15.844  34.417  1.00  0.00    -0.180 OA
BRANCH   4   5
HETATM    5  P1  UNL     1      41.503 -16.009  33.270  1.00  0.00     0.417 P 
HETATM    6  O4  UNL     1      42.122 -16.019  31.892  1.00  0.00    -0.624 OA
HETATM    7  O5  UNL     1      40.789 -17.550  33.479  1.00  0.00    -0.624 OA
BRANCH   5   8
HETATM    8  O3  UNL     1      40.272 -14.871  33.396  1.00  0.00    -0.287 OA
BRANCH   8   9
HETATM    9  C6  UNL     1      40.758 -13.647  33.008  1.00  0.00     0.216 C 
BRANCH   9  10
HETATM   10  C5  UNL     1      40.060 -13.091  31.790  1.00  0.00     0.180 C 
HETATM   11  O2  UNL     1      40.933 -13.090  30.704  1.00  0.00    -0.353 OA
HETATM   12  C4  UNL     1      40.183 -13.002  29.558  1.00  0.00     0.259 C 
HETATM   13  C18 UNL     1      38.809 -13.556  29.861  1.00  0.00     0.198 C 
HETATM   14  C17 UNL     1      38.973 -14.023  31.295  1.00  0.00     0.182 C 
BRANCH  12  15
HETATM   15  N2  UNL     1      40.725 -13.786  28.466  1.00  0.00    -0.337 N 
HETATM   16  C3  UNL     1      40.888 -13.190  27.195  1.00  0.00     0.105 A 
HETATM   17  C2  UNL     1      41.380 -13.834  26.126  1.00  0.00     0.026 A 
HETATM   18  C21 UNL     1      41.785 -15.253  26.252  1.00  0.00     0.073 A 
HETATM   19  C20 UNL     1      41.590 -15.813  27.595  1.00  0.00    -0.005 A 
HETATM   20  C19 UNL     1      41.098 -15.139  28.630  1.00  0.00     0.089 A 
BRANCH  17  21
HETATM   21  C1  UNL     1      41.513 -13.143  24.859  1.00  0.00     0.262 C 
HETATM   22  N1  UNL     1      41.945 -11.803  24.834  1.00  0.00    -0.057 NA
HETATM   23  O1  UNL     1      41.245 -13.737  23.799  1.00  0.00    -0.271 OA
ENDBRANCH  17  21
ENDBRANCH  12  15
BRANCH  13  24
HETATM   24  O14 UNL     1      37.879 -12.525  29.777  1.00  0.00    -0.388 OA
ATOM     25  H14 UNL     1      37.112 -12.760  30.286  1.00  0.00     0.210 HD
ENDBRANCH  13  24
BRANCH  14  26
HETATM   26  O13 UNL     1      37.779 -13.848  31.978  1.00  0.00    -0.390 OA
ATOM     27  H13 UNL     1      37.856 -13.215  32.683  1.00  0.00     0.210 HD
ENDBRANCH  14  26
ENDBRANCH   9  10
ENDBRANCH   8   9
ENDBRANCH   5   8
ENDBRANCH   4   5
ENDBRANCH   1   4
BRANCH   1  28
HETATM   28  O9  UNL     1      44.901 -16.342  32.896  1.00  0.00    -0.287 OA
BRANCH  28  29
HETATM   29  C7  UNL     1      45.223 -15.706  31.696  1.00  0.00     0.216 C 
BRANCH  29  30
HETATM   30  C8  UNL     1      46.604 -16.046  31.222  1.00  0.00     0.180 C 
HETATM   31  O10 UNL     1      47.416 -14.950  31.325  1.00  0.00    -0.353 OA
HETATM   32  C9  UNL     1      48.658 -15.327  31.742  1.00  0.00     0.262 C 
HETATM   33  C15 UNL     1      48.719 -16.808  31.866  1.00  0.00     0.198 C 
HETATM   34  C16 UNL     1      47.236 -17.174  32.007  1.00  0.00     0.182 C 
BRANCH  32  35
HETATM   35  N3  UNL     1      49.022 -14.714  33.016  1.00  0.00    -0.297 N 
HETATM   36  C10 UNL     1      48.365 -14.753  34.187  1.00  0.00     0.188 A 
HETATM   37  N4  UNL     1      49.048 -14.055  35.108  1.00  0.00    -0.346 N 
HETATM   38  C11 UNL     1      50.143 -13.577  34.499  1.00  0.00     0.119 A 
ATOM     39  H4  UNL     1      48.784 -13.916  36.084  1.00  0.00     0.167 HD
HETATM   40  C12 UNL     1      51.183 -12.805  34.961  1.00  0.00     0.148 A 
HETATM   41  C14 UNL     1      50.138 -13.980  33.198  1.00  0.00     0.142 A 
HETATM   42  N5  UNL     1      51.177 -12.390  36.321  1.00  0.00    -0.080 NA
HETATM   43  N6  UNL     1      52.158 -12.469  34.125  1.00  0.00    -0.339 N 
HETATM   44  C13 UNL     1      52.145 -12.870  32.850  1.00  0.00     0.183 A 
ATOM     45  H6  UNL     1      52.931 -11.894  34.461  1.00  0.00     0.167 HD
HETATM   46  N7  UNL     1      51.139 -13.624  32.383  1.00  0.00    -0.336 N 
ATOM     47  H7  UNL     1      51.136 -13.926  31.408  1.00  0.00     0.168 HD
ENDBRANCH  32  35
BRANCH  33  48
HETATM   48  O11 UNL     1      49.211 -17.371  30.668  1.00  0.00    -0.388 OA
ATOM     49  H11 UNL     1      50.151 -17.496  30.731  1.00  0.00     0.210 HD
ENDBRANCH  33  48
BRANCH  34  50
HETATM   50  O12 UNL     1      46.954 -18.407  31.464  1.00  0.00    -0.390 OA
ATOM     51  H12 UNL     1      47.269 -18.488  30.572  1.00  0.00     0.210 HD
ENDBRANCH  34  50
ENDBRANCH  29  30
ENDBRANCH  28  29
ENDBRANCH   1  28
TORSDOF 15
ENDMDL
