MODEL 18
REMARK VINA RESULT: -6.127026171      4.758      5.470
REMARK  8 active torsions:
REMARK  status: ('A' for Active; 'I' for Inactive)
REMARK    1  A    between atoms: N1_1  and  C1_5 
REMARK    2  A    between atoms: C1_5  and  C2_6 
REMARK    3  A    between atoms: C2_6  and  C3_7 
REMARK       I    between atoms: C3_7  and  N2_9 
REMARK    4  A    between atoms: N2_9  and  C4_11 
REMARK    5  A    between atoms: C4_11  and  C5_12 
REMARK    6  A    between atoms: C5_12  and  C6_13 
REMARK    7  A    between atoms: C9_16  and  O2_17 
REMARK    8  A    between atoms: C10_19  and  O3_20 
ROOT
HETATM    1  C4  UNL     1      -4.279  -3.181  -7.753  1.00  0.00     0.127 C 
ENDROOT
BRANCH   1   2
HETATM    2  N2  UNL     1      -3.260  -4.143  -8.083  1.00  0.00    -0.361 N 
HETATM    3  C3  UNL     1      -3.021  -5.352  -7.381  1.00  0.00     0.219 C 
HETATM    4  O1  UNL     1      -3.745  -5.614  -6.391  1.00  0.00    -0.274 OA
ATOM      5  H2  UNL     1      -2.663  -3.940  -8.884  1.00  0.00     0.162 HD
BRANCH   3   6
HETATM    6  C2  UNL     1      -1.926  -6.293  -7.816  1.00  0.00     0.130 C 
BRANCH   6   7
HETATM    7  C1  UNL     1      -1.320  -5.739  -9.066  1.00  0.00     0.238 C 
BRANCH   7   8
HETATM    8  N1  UNL     1       0.086  -5.500  -8.973  1.00  0.00    -0.079 N 
ATOM      9  H13 UNL     1       0.280  -4.765  -8.292  1.00  0.00     0.274 HD
ATOM     10  H12 UNL     1       0.554  -6.284  -8.518  1.00  0.00     0.274 HD
ATOM     11  H11 UNL     1       0.530  -5.287  -9.866  1.00  0.00     0.274 HD
ENDBRANCH   7   8
ENDBRANCH   6   7
ENDBRANCH   3   6
ENDBRANCH   1   2
BRANCH   1  12
HETATM   12  C5  UNL     1      -4.061  -1.944  -8.598  1.00  0.00     0.058 C 
BRANCH  12  13
HETATM   13  C6  UNL     1      -5.335  -1.608  -9.237  1.00  0.00    -0.054 A 
HETATM   14  C7  UNL     1      -5.354  -1.125 -10.518  1.00  0.00     0.010 A 
HETATM   15  C8  UNL     1      -6.522  -0.793 -11.170  1.00  0.00     0.040 A 
HETATM   16  C9  UNL     1      -7.694  -0.967 -10.473  1.00  0.00     0.098 A 
HETATM   17  C10 UNL     1      -7.708  -1.451  -9.183  1.00  0.00     0.099 A 
HETATM   18  C11 UNL     1      -6.512  -1.777  -8.553  1.00  0.00     0.046 A 
BRANCH  16  19
HETATM   19  O2  UNL     1      -8.907  -0.654 -11.063  1.00  0.00    -0.358 OA
ATOM     20  H2  UNL     1      -9.618  -1.283 -11.054  1.00  0.00     0.217 HD
ENDBRANCH  16  19
BRANCH  17  21
HETATM   21  O3  UNL     1      -8.886  -1.630  -8.471  1.00  0.00    -0.358 OA
ATOM     22  H3  UNL     1      -9.242  -2.492  -8.288  1.00  0.00     0.217 HD
ENDBRANCH  17  21
ENDBRANCH  12  13
ENDBRANCH   1  12
TORSDOF 8
ENDMDL
