MODEL 2
REMARK VINA RESULT: -6.798746080      3.338      6.728
REMARK  8 active torsions:
REMARK  status: ('A' for Active; 'I' for Inactive)
REMARK    1  A    between atoms: N1_1  and  C1_5 
REMARK    2  A    between atoms: C1_5  and  C2_6 
REMARK    3  A    between atoms: C2_6  and  C3_7 
REMARK       I    between atoms: C3_7  and  N2_9 
REMARK    4  A    between atoms: N2_9  and  C4_11 
REMARK    5  A    between atoms: C4_11  and  C5_12 
REMARK    6  A    between atoms: C5_12  and  C6_13 
REMARK    7  A    between atoms: C9_16  and  O2_17 
REMARK    8  A    between atoms: C10_19  and  O3_20 
ROOT
HETATM    1  C4  UNL     1       0.251  -7.430  -7.496  1.00  0.00     0.127 C 
ENDROOT
BRANCH   1   2
HETATM    2  N2  UNL     1      -0.887  -6.640  -7.888  1.00  0.00    -0.361 N 
HETATM    3  C3  UNL     1      -0.941  -5.795  -9.025  1.00  0.00     0.219 C 
HETATM    4  O1  UNL     1       0.077  -5.718  -9.755  1.00  0.00    -0.274 OA
ATOM      5  H2  UNL     1      -1.720  -6.692  -7.302  1.00  0.00     0.162 HD
BRANCH   3   6
HETATM    6  C2  UNL     1      -2.190  -5.012  -9.347  1.00  0.00     0.130 C 
BRANCH   6   7
HETATM    7  C1  UNL     1      -2.293  -3.896  -8.357  1.00  0.00     0.238 C 
BRANCH   7   8
HETATM    8  N1  UNL     1      -1.108  -3.102  -8.251  1.00  0.00    -0.079 N 
ATOM      9  H13 UNL     1      -0.347  -3.648  -7.846  1.00  0.00     0.274 HD
ATOM     10  H12 UNL     1      -0.716  -2.919  -9.175  1.00  0.00     0.274 HD
ATOM     11  H11 UNL     1      -1.238  -2.231  -7.737  1.00  0.00     0.274 HD
ENDBRANCH   7   8
ENDBRANCH   6   7
ENDBRANCH   3   6
ENDBRANCH   1   2
BRANCH   1  12
HETATM   12  C5  UNL     1      -0.232  -8.817  -7.130  1.00  0.00     0.058 C 
BRANCH  12  13
HETATM   13  C6  UNL     1       0.727  -9.391  -6.185  1.00  0.00    -0.054 A 
HETATM   14  C7  UNL     1       1.396  -8.579  -5.307  1.00  0.00     0.010 A 
HETATM   15  C8  UNL     1       2.309  -9.063  -4.396  1.00  0.00     0.040 A 
HETATM   16  C9  UNL     1       2.530 -10.419  -4.397  1.00  0.00     0.098 A 
HETATM   17  C10 UNL     1       1.874 -11.263  -5.268  1.00  0.00     0.099 A 
HETATM   18  C11 UNL     1       0.959 -10.743  -6.176  1.00  0.00     0.046 A 
BRANCH  16  19
HETATM   19  O2  UNL     1       3.435 -10.978  -3.510  1.00  0.00    -0.358 OA
ATOM     20  H2  UNL     1       3.706 -11.882  -3.610  1.00  0.00     0.217 HD
ENDBRANCH  16  19
BRANCH  17  21
HETATM   21  O3  UNL     1       2.092 -12.633  -5.277  1.00  0.00    -0.358 OA
ATOM     22  H3  UNL     1       2.766 -13.036  -5.812  1.00  0.00     0.217 HD
ENDBRANCH  17  21
ENDBRANCH  12  13
ENDBRANCH   1  12
TORSDOF 8
ENDMDL
