MODEL 3
REMARK VINA RESULT: -6.730553296      2.629      3.298
REMARK  8 active torsions:
REMARK  status: ('A' for Active; 'I' for Inactive)
REMARK    1  A    between atoms: N1_1  and  C1_5 
REMARK    2  A    between atoms: C1_5  and  C2_6 
REMARK    3  A    between atoms: C2_6  and  C3_7 
REMARK       I    between atoms: C3_7  and  N2_9 
REMARK    4  A    between atoms: N2_9  and  C4_11 
REMARK    5  A    between atoms: C4_11  and  C5_12 
REMARK    6  A    between atoms: C5_12  and  C6_13 
REMARK    7  A    between atoms: C9_16  and  O2_17 
REMARK    8  A    between atoms: C10_19  and  O3_20 
ROOT
HETATM    1  C4  UNL     1       0.424  -7.586  -7.823  1.00  0.00     0.127 C 
ENDROOT
BRANCH   1   2
HETATM    2  N2  UNL     1       1.002  -7.923  -6.549  1.00  0.00    -0.361 N 
HETATM    3  C3  UNL     1       2.355  -7.706  -6.183  1.00  0.00     0.219 C 
HETATM    4  O1  UNL     1       3.120  -7.182  -7.028  1.00  0.00    -0.274 OA
ATOM      5  H2  UNL     1       0.391  -8.351  -5.854  1.00  0.00     0.162 HD
BRANCH   3   6
HETATM    6  C2  UNL     1       2.856  -8.094  -4.815  1.00  0.00     0.130 C 
BRANCH   6   7
HETATM    7  C1  UNL     1       2.031  -9.247  -4.339  1.00  0.00     0.238 C 
BRANCH   7   8
HETATM    8  N1  UNL     1       2.747 -10.482  -4.263  1.00  0.00    -0.079 N 
ATOM      9  H13 UNL     1       3.228 -10.672  -5.142  1.00  0.00     0.274 HD
ATOM     10  H12 UNL     1       3.551 -10.392  -3.642  1.00  0.00     0.274 HD
ATOM     11  H11 UNL     1       2.171 -11.279  -3.990  1.00  0.00     0.274 HD
ENDBRANCH   7   8
ENDBRANCH   6   7
ENDBRANCH   3   6
ENDBRANCH   1   2
BRANCH   1  12
HETATM   12  C5  UNL     1      -1.060  -7.880  -7.769  1.00  0.00     0.058 C 
BRANCH  12  13
HETATM   13  C6  UNL     1      -1.770  -6.690  -8.243  1.00  0.00    -0.054 A 
HETATM   14  C7  UNL     1      -2.995  -6.815  -8.843  1.00  0.00     0.010 A 
HETATM   15  C8  UNL     1      -3.708  -5.732  -9.308  1.00  0.00     0.040 A 
HETATM   16  C9  UNL     1      -3.135  -4.493  -9.145  1.00  0.00     0.098 A 
HETATM   17  C10 UNL     1      -1.904  -4.334  -8.546  1.00  0.00     0.099 A 
HETATM   18  C11 UNL     1      -1.209  -5.448  -8.087  1.00  0.00     0.046 A 
BRANCH  16  19
HETATM   19  O2  UNL     1      -3.793  -3.358  -9.588  1.00  0.00    -0.358 OA
ATOM     20  H2  UNL     1      -3.668  -3.051 -10.478  1.00  0.00     0.217 HD
ENDBRANCH  16  19
BRANCH  17  21
HETATM   21  O3  UNL     1      -1.317  -3.088  -8.377  1.00  0.00    -0.358 OA
ATOM     22  H3  UNL     1      -0.475  -2.868  -8.759  1.00  0.00     0.217 HD
ENDBRANCH  17  21
ENDBRANCH  12  13
ENDBRANCH   1  12
TORSDOF 8
ENDMDL
