MODEL 1
REMARK VINA RESULT: -6.955964986      0.000      0.000
REMARK  8 active torsions:
REMARK  status: ('A' for Active; 'I' for Inactive)
REMARK    1  A    between atoms: N1_1  and  C1_5 
REMARK    2  A    between atoms: C1_5  and  C2_6 
REMARK    3  A    between atoms: C2_6  and  C3_7 
REMARK       I    between atoms: C3_7  and  N2_9 
REMARK    4  A    between atoms: N2_9  and  C4_11 
REMARK    5  A    between atoms: C4_11  and  C5_12 
REMARK    6  A    between atoms: C5_12  and  C6_13 
REMARK    7  A    between atoms: C9_16  and  O2_17 
REMARK    8  A    between atoms: C10_19  and  O3_20 
ROOT
HETATM    1  C4  UNL     1      -0.795  -5.433  -9.268  1.00  0.00     0.127 C 
ENDROOT
BRANCH   1   2
HETATM    2  N2  UNL     1       0.328  -5.824  -8.456  1.00  0.00    -0.361 N 
HETATM    3  C3  UNL     1       0.450  -7.060  -7.772  1.00  0.00     0.219 C 
HETATM    4  O1  UNL     1      -0.490  -7.886  -7.871  1.00  0.00    -0.274 OA
ATOM      5  H2  UNL     1       1.097  -5.160  -8.367  1.00  0.00     0.162 HD
BRANCH   3   6
HETATM    6  C2  UNL     1       1.676  -7.370  -6.950  1.00  0.00     0.130 C 
BRANCH   6   7
HETATM    7  C1  UNL     1       1.533  -8.765  -6.431  1.00  0.00     0.238 C 
BRANCH   7   8
HETATM    8  N1  UNL     1       0.688  -8.874  -5.283  1.00  0.00    -0.079 N 
ATOM      9  H13 UNL     1       1.005  -9.629  -4.675  1.00  0.00     0.274 HD
ATOM     10  H12 UNL     1       0.828  -8.080  -4.658  1.00  0.00     0.274 HD
ATOM     11  H11 UNL     1      -0.302  -8.984  -5.505  1.00  0.00     0.274 HD
ENDBRANCH   7   8
ENDBRANCH   6   7
ENDBRANCH   3   6
ENDBRANCH   1   2
BRANCH   1  12
HETATM   12  C5  UNL     1      -1.781  -4.688  -8.394  1.00  0.00     0.058 C 
BRANCH  12  13
HETATM   13  C6  UNL     1      -2.951  -5.547  -8.205  1.00  0.00    -0.054 A 
HETATM   14  C7  UNL     1      -3.350  -6.393  -9.205  1.00  0.00     0.010 A 
HETATM   15  C8  UNL     1      -4.443  -7.224  -9.083  1.00  0.00     0.040 A 
HETATM   16  C9  UNL     1      -5.134  -7.173  -7.895  1.00  0.00     0.098 A 
HETATM   17  C10 UNL     1      -4.758  -6.331  -6.871  1.00  0.00     0.099 A 
HETATM   18  C11 UNL     1      -3.650  -5.505  -7.025  1.00  0.00     0.046 A 
BRANCH  16  19
HETATM   19  O2  UNL     1      -6.243  -7.979  -7.701  1.00  0.00    -0.358 OA
ATOM     20  H2  UNL     1      -6.713  -7.953  -6.876  1.00  0.00     0.217 HD
ENDBRANCH  16  19
BRANCH  17  21
HETATM   21  O3  UNL     1      -5.449  -6.273  -5.669  1.00  0.00    -0.358 OA
ATOM     22  H3  UNL     1      -5.882  -5.481  -5.371  1.00  0.00     0.217 HD
ENDBRANCH  17  21
ENDBRANCH  12  13
ENDBRANCH   1  12
TORSDOF 8
ENDMDL
