MODEL 11
REMARK VINA RESULT: -6.382291789      4.729      5.172
REMARK  8 active torsions:
REMARK  status: ('A' for Active; 'I' for Inactive)
REMARK    1  A    between atoms: N1_1  and  C1_5 
REMARK    2  A    between atoms: C1_5  and  C2_6 
REMARK    3  A    between atoms: C2_6  and  C3_7 
REMARK       I    between atoms: C3_7  and  N2_9 
REMARK    4  A    between atoms: N2_9  and  C4_11 
REMARK    5  A    between atoms: C4_11  and  C5_12 
REMARK    6  A    between atoms: C5_12  and  C6_13 
REMARK    7  A    between atoms: C9_16  and  O2_17 
REMARK    8  A    between atoms: C10_19  and  O3_20 
ROOT
HETATM    1  C4  UNL     1      -3.871  -3.445  -8.415  1.00  0.00     0.127 C 
ENDROOT
BRANCH   1   2
HETATM    2  N2  UNL     1      -2.501  -3.864  -8.554  1.00  0.00    -0.361 N 
HETATM    3  C3  UNL     1      -2.071  -5.043  -9.213  1.00  0.00     0.219 C 
HETATM    4  O1  UNL     1      -2.943  -5.791  -9.718  1.00  0.00    -0.274 OA
ATOM      5  H2  UNL     1      -1.783  -3.266  -8.146  1.00  0.00     0.162 HD
BRANCH   3   6
HETATM    6  C2  UNL     1      -0.605  -5.386  -9.304  1.00  0.00     0.130 C 
BRANCH   6   7
HETATM    7  C1  UNL     1      -0.341  -6.507  -8.351  1.00  0.00     0.238 C 
BRANCH   7   8
HETATM    8  N1  UNL     1       0.962  -6.475  -7.763  1.00  0.00    -0.079 N 
ATOM      9  H13 UNL     1       1.476  -7.327  -7.986  1.00  0.00     0.274 HD
ATOM     10  H12 UNL     1       1.552  -5.790  -8.236  1.00  0.00     0.274 HD
ATOM     11  H11 UNL     1       0.959  -6.311  -6.756  1.00  0.00     0.274 HD
ENDBRANCH   7   8
ENDBRANCH   6   7
ENDBRANCH   3   6
ENDBRANCH   1   2
BRANCH   1  12
HETATM   12  C5  UNL     1      -3.934  -1.944  -8.599  1.00  0.00     0.058 C 
BRANCH  12  13
HETATM   13  C6  UNL     1      -5.220  -1.622  -9.220  1.00  0.00    -0.054 A 
HETATM   14  C7  UNL     1      -5.266  -1.184 -10.516  1.00  0.00     0.010 A 
HETATM   15  C8  UNL     1      -6.447  -0.866 -11.152  1.00  0.00     0.040 A 
HETATM   16  C9  UNL     1      -7.604  -1.009 -10.423  1.00  0.00     0.098 A 
HETATM   17  C10 UNL     1      -7.591  -1.447  -9.116  1.00  0.00     0.099 A 
HETATM   18  C11 UNL     1      -6.383  -1.759  -8.503  1.00  0.00     0.046 A 
BRANCH  16  19
HETATM   19  O2  UNL     1      -8.828  -0.708 -10.996  1.00  0.00    -0.358 OA
ATOM     20  H2  UNL     1      -9.584  -1.255 -10.820  1.00  0.00     0.217 HD
ENDBRANCH  16  19
BRANCH  17  21
HETATM   21  O3  UNL     1      -8.753  -1.593  -8.373  1.00  0.00    -0.358 OA
ATOM     22  H3  UNL     1      -8.868  -2.296  -7.743  1.00  0.00     0.217 HD
ENDBRANCH  17  21
ENDBRANCH  12  13
ENDBRANCH   1  12
TORSDOF 8
ENDMDL
