MODEL 1
REMARK VINA RESULT: -8.800015454      0.000      0.000
REMARK  8 active torsions:
REMARK  status: ('A' for Active; 'I' for Inactive)
REMARK    1  A    between atoms: C3_4  and  C4_5 
REMARK    2  A    between atoms: C8_11  and  N3_12 
REMARK    3  A    between atoms: N4_15  and  C11_16 
REMARK    4  A    between atoms: C11_16  and  C12_17 
REMARK    5  A    between atoms: C12_17  and  N5_18 
REMARK    6  A    between atoms: C17_25  and  N7_26 
REMARK    7  A    between atoms: N7_26  and  C18_28 
REMARK    8  A    between atoms: C18_28  and  C19_29 
ROOT
HETATM    1  C4  UNL     1      15.569  -5.412  47.137  1.00  0.00    -0.024 A 
HETATM    2  C5  UNL     1      16.267  -5.378  45.957  1.00  0.00     0.014 A 
HETATM    3  C6  UNL     1      16.352  -4.177  45.251  1.00  0.00     0.032 A 
HETATM    4  C7  UNL     1      15.737  -3.040  45.742  1.00  0.00     0.063 A 
HETATM    5  N2  UNL     1      15.802  -1.864  45.080  1.00  0.00    -0.191 N 
ATOM      6  H2  UNL     1      16.322  -1.847  44.203  1.00  0.00     0.184 HD
HETATM    7  C8  UNL     1      15.244  -0.733  45.479  1.00  0.00     0.682 A 
HETATM    8  N6  UNL     1      14.558  -0.752  46.632  1.00  0.00    -0.176 N 
ATOM      9  H6  UNL     1      14.119   0.108  46.958  1.00  0.00     0.186 HD
HETATM   10  C17 UNL     1      14.426  -1.892  47.387  1.00  0.00     0.129 A 
HETATM   11  C25 UNL     1      15.019  -3.053  46.944  1.00  0.00     0.036 A 
HETATM   12  C26 UNL     1      14.960  -4.258  47.610  1.00  0.00     0.030 A 
ENDROOT
BRANCH   7  13
HETATM   13  N3  UNL     1      15.353   0.473  44.732  1.00  0.00    -0.214 N 
HETATM   14  C9  UNL     1      15.974   0.567  43.451  1.00  0.00     0.171 C 
HETATM   15  C10 UNL     1      16.067   2.024  43.029  1.00  0.00     0.293 C 
HETATM   16  N4  UNL     1      16.670   2.773  44.104  1.00  0.00     0.093 N 
HETATM   17  C15 UNL     1      15.938   2.691  45.344  1.00  0.00     0.293 C 
HETATM   18  C16 UNL     1      14.800   1.709  45.294  1.00  0.00     0.171 C 
BRANCH  16  19
HETATM   19  C11 UNL     1      16.863   4.161  43.800  1.00  0.00     0.302 C 
BRANCH  19  20
HETATM   20  C12 UNL     1      16.552   5.049  44.971  1.00  0.00     0.301 C 
BRANCH  20  21
HETATM   21  N5  UNL     1      16.773   6.427  44.745  1.00  0.00     0.081 N 
HETATM   22  C13 UNL     1      18.061   6.780  45.361  1.00  0.00     0.309 C 
HETATM   23  C14 UNL     1      15.798   7.325  45.258  1.00  0.00     0.309 C 
ENDBRANCH  20  21
ENDBRANCH  19  20
ENDBRANCH  16  19
ENDBRANCH   7  13
BRANCH  10  24
HETATM   24  N7  UNL     1      13.696  -1.862  48.590  1.00  0.00    -0.371 N 
ATOM     25  H7  UNL     1      12.756  -2.256  48.632  1.00  0.00     0.161 HD
BRANCH  24  26
HETATM   26  C18 UNL     1      14.285  -1.277  49.749  1.00  0.00     0.160 C 
BRANCH  26  27
HETATM   27  C19 UNL     1      13.736   0.044  50.098  1.00  0.00    -0.039 A 
HETATM   28  C20 UNL     1      14.484   1.156  49.739  1.00  0.00     0.009 A 
HETATM   29  C21 UNL     1      14.009   2.430  50.048  1.00  0.00     0.002 A 
HETATM   30  C22 UNL     1      12.803   2.578  50.705  1.00  0.00     0.024 A 
HETATM   31  C23 UNL     1      12.048   1.483  51.068  1.00  0.00     0.034 A 
HETATM   32 CL1  UNL     1      10.517   1.634  51.902  1.00  0.00    -0.084 Cl
HETATM   33  C24 UNL     1      12.550   0.224  50.747  1.00  0.00     0.032 A 
ENDBRANCH  26  27
ENDBRANCH  24  26
ENDBRANCH  10  24
BRANCH   1  34
HETATM   34  C3  UNL     1      15.475  -6.657  47.876  1.00  0.00    -0.010 A 
HETATM   35  C2  UNL     1      16.312  -6.832  48.952  1.00  0.00     0.106 A 
HETATM   36  N1  UNL     1      16.286  -7.960  49.694  1.00  0.00    -0.328 N 
HETATM   37  C1  UNL     1      17.198  -8.089  50.823  1.00  0.00     0.159 C 
HETATM   38  C29 UNL     1      15.418  -8.902  49.346  1.00  0.00     0.246 A 
HETATM   39  C28 UNL     1      14.551  -8.794  48.281  1.00  0.00     0.075 A 
HETATM   40  O1  UNL     1      15.389  -9.963  50.037  1.00  0.00    -0.268 OA
HETATM   41  C27 UNL     1      14.577  -7.651  47.530  1.00  0.00     0.019 A 
ENDBRANCH   1  34
TORSDOF 8
ENDMDL
