MODEL 2
REMARK VINA RESULT: -8.761879773      3.673      7.175
REMARK  8 active torsions:
REMARK  status: ('A' for Active; 'I' for Inactive)
REMARK    1  A    between atoms: C3_4  and  C4_5 
REMARK    2  A    between atoms: C8_11  and  N3_12 
REMARK    3  A    between atoms: N4_15  and  C11_16 
REMARK    4  A    between atoms: C11_16  and  C12_17 
REMARK    5  A    between atoms: C12_17  and  N5_18 
REMARK    6  A    between atoms: C17_25  and  N7_26 
REMARK    7  A    between atoms: N7_26  and  C18_28 
REMARK    8  A    between atoms: C18_28  and  C19_29 
ROOT
HETATM    1  C4  UNL     1      13.288   0.954  49.955  1.00  0.00    -0.024 A 
HETATM    2  C5  UNL     1      13.824   2.057  49.341  1.00  0.00     0.014 A 
HETATM    3  C6  UNL     1      14.678   1.879  48.250  1.00  0.00     0.032 A 
HETATM    4  C7  UNL     1      14.974   0.606  47.801  1.00  0.00     0.063 A 
HETATM    5  N2  UNL     1      15.797   0.405  46.749  1.00  0.00    -0.191 N 
ATOM      6  H2  UNL     1      16.192   1.230  46.298  1.00  0.00     0.184 HD
HETATM    7  C8  UNL     1      16.130  -0.777  46.258  1.00  0.00     0.682 A 
HETATM    8  N6  UNL     1      15.613  -1.864  46.849  1.00  0.00    -0.176 N 
ATOM      9  H6  UNL     1      15.857  -2.785  46.487  1.00  0.00     0.186 HD
HETATM   10  C17 UNL     1      14.765  -1.778  47.927  1.00  0.00     0.129 A 
HETATM   11  C25 UNL     1      14.437  -0.532  48.414  1.00  0.00     0.036 A 
HETATM   12  C26 UNL     1      13.599  -0.314  49.487  1.00  0.00     0.030 A 
ENDROOT
BRANCH   7  13
HETATM   13  N3  UNL     1      17.004  -0.918  45.143  1.00  0.00    -0.214 N 
HETATM   14  C9  UNL     1      18.421  -1.044  45.249  1.00  0.00     0.171 C 
HETATM   15  C10 UNL     1      19.048  -0.997  43.865  1.00  0.00     0.293 C 
HETATM   16  N4  UNL     1      18.545   0.166  43.176  1.00  0.00     0.093 N 
HETATM   17  C15 UNL     1      17.109   0.179  43.041  1.00  0.00     0.293 C 
HETATM   18  C16 UNL     1      16.435  -0.935  43.793  1.00  0.00     0.171 C 
BRANCH  16  19
HETATM   19  C11 UNL     1      19.110   0.350  41.871  1.00  0.00     0.302 C 
BRANCH  19  20
HETATM   20  C12 UNL     1      19.927   1.607  41.775  1.00  0.00     0.301 C 
BRANCH  20  21
HETATM   21  N5  UNL     1      20.249   2.202  43.017  1.00  0.00     0.081 N 
HETATM   22  C13 UNL     1      19.818   3.606  42.964  1.00  0.00     0.309 C 
HETATM   23  C14 UNL     1      21.618   2.192  43.396  1.00  0.00     0.309 C 
ENDBRANCH  20  21
ENDBRANCH  19  20
ENDBRANCH  16  19
ENDBRANCH   7  13
BRANCH  10  24
HETATM   24  N7  UNL     1      14.247  -2.948  48.514  1.00  0.00    -0.371 N 
ATOM     25  H7  UNL     1      13.749  -2.900  49.403  1.00  0.00     0.161 HD
BRANCH  24  26
HETATM   26  C18 UNL     1      14.426  -4.198  47.853  1.00  0.00     0.160 C 
BRANCH  26  27
HETATM   27  C19 UNL     1      15.246  -5.163  48.606  1.00  0.00    -0.039 A 
HETATM   28  C20 UNL     1      15.251  -6.475  48.158  1.00  0.00     0.009 A 
HETATM   29  C21 UNL     1      16.011  -7.427  48.837  1.00  0.00     0.002 A 
HETATM   30  C22 UNL     1      16.751  -7.060  49.945  1.00  0.00     0.024 A 
HETATM   31  C23 UNL     1      16.756  -5.759  50.402  1.00  0.00     0.034 A 
HETATM   32 CL1  UNL     1      17.680  -5.259  51.801  1.00  0.00    -0.084 Cl
HETATM   33  C24 UNL     1      15.986  -4.833  49.703  1.00  0.00     0.032 A 
ENDBRANCH  26  27
ENDBRANCH  24  26
ENDBRANCH  10  24
BRANCH   1  34
HETATM   34  C3  UNL     1      12.400   1.129  51.089  1.00  0.00    -0.010 A 
HETATM   35  C2  UNL     1      11.972   0.004  51.752  1.00  0.00     0.106 A 
HETATM   36  N1  UNL     1      11.148   0.080  52.819  1.00  0.00    -0.328 N 
HETATM   37  C1  UNL     1      10.728  -1.147  53.480  1.00  0.00     0.159 C 
HETATM   38  C29 UNL     1      10.761   1.289  53.208  1.00  0.00     0.246 A 
HETATM   39  C28 UNL     1      11.151   2.458  52.592  1.00  0.00     0.075 A 
HETATM   40  O1  UNL     1       9.987   1.368  54.208  1.00  0.00    -0.268 OA
HETATM   41  C27 UNL     1      11.986   2.380  51.512  1.00  0.00     0.019 A 
ENDBRANCH   1  34
TORSDOF 8
ENDMDL
