MODEL 3
REMARK VINA RESULT: -8.751741684      3.972      7.142
REMARK  8 active torsions:
REMARK  status: ('A' for Active; 'I' for Inactive)
REMARK    1  A    between atoms: C3_4  and  C4_5 
REMARK    2  A    between atoms: C8_11  and  N3_12 
REMARK    3  A    between atoms: N4_15  and  C11_16 
REMARK    4  A    between atoms: C11_16  and  C12_17 
REMARK    5  A    between atoms: C12_17  and  N5_18 
REMARK    6  A    between atoms: C17_25  and  N7_26 
REMARK    7  A    between atoms: N7_26  and  C18_28 
REMARK    8  A    between atoms: C18_28  and  C19_29 
ROOT
HETATM    1  C4  UNL     1      13.248   0.951  49.999  1.00  0.00    -0.024 A 
HETATM    2  C5  UNL     1      13.779   2.049  49.372  1.00  0.00     0.014 A 
HETATM    3  C6  UNL     1      14.627   1.864  48.279  1.00  0.00     0.032 A 
HETATM    4  C7  UNL     1      14.924   0.588  47.839  1.00  0.00     0.063 A 
HETATM    5  N2  UNL     1      15.741   0.379  46.785  1.00  0.00    -0.191 N 
ATOM      6  H2  UNL     1      16.133   1.201  46.324  1.00  0.00     0.184 HD
HETATM    7  C8  UNL     1      16.075  -0.807  46.302  1.00  0.00     0.682 A 
HETATM    8  N6  UNL     1      15.562  -1.889  46.906  1.00  0.00    -0.176 N 
ATOM      9  H6  UNL     1      15.807  -2.813  46.550  1.00  0.00     0.186 HD
HETATM   10  C17 UNL     1      14.720  -1.796  47.987  1.00  0.00     0.129 A 
HETATM   11  C25 UNL     1      14.392  -0.546  48.465  1.00  0.00     0.036 A 
HETATM   12  C26 UNL     1      13.560  -0.321  49.540  1.00  0.00     0.030 A 
ENDROOT
BRANCH   7  13
HETATM   13  N3  UNL     1      16.943  -0.955  45.184  1.00  0.00    -0.214 N 
HETATM   14  C9  UNL     1      18.348  -1.180  45.287  1.00  0.00     0.171 C 
HETATM   15  C10 UNL     1      18.984  -1.113  43.908  1.00  0.00     0.293 C 
HETATM   16  N4  UNL     1      18.563   0.110  43.271  1.00  0.00     0.093 N 
HETATM   17  C15 UNL     1      17.132   0.225  43.133  1.00  0.00     0.293 C 
HETATM   18  C16 UNL     1      16.381  -0.874  43.833  1.00  0.00     0.171 C 
BRANCH  16  19
HETATM   19  C11 UNL     1      19.145   0.314  41.977  1.00  0.00     0.302 C 
BRANCH  19  20
HETATM   20  C12 UNL     1      19.817   1.653  41.858  1.00  0.00     0.301 C 
BRANCH  20  21
HETATM   21  N5  UNL     1      20.246   2.213  43.084  1.00  0.00     0.081 N 
HETATM   22  C13 UNL     1      19.870   3.634  43.081  1.00  0.00     0.309 C 
HETATM   23  C14 UNL     1      21.636   2.142  43.368  1.00  0.00     0.309 C 
ENDBRANCH  20  21
ENDBRANCH  19  20
ENDBRANCH  16  19
ENDBRANCH   7  13
BRANCH  10  24
HETATM   24  N7  UNL     1      14.208  -2.961  48.587  1.00  0.00    -0.371 N 
ATOM     25  H7  UNL     1      13.409  -2.906  49.219  1.00  0.00     0.161 HD
BRANCH  24  26
HETATM   26  C18 UNL     1      14.817  -4.219  48.301  1.00  0.00     0.160 C 
BRANCH  26  27
HETATM   27  C19 UNL     1      15.663  -4.736  49.390  1.00  0.00    -0.039 A 
HETATM   28  C20 UNL     1      15.631  -4.052  50.597  1.00  0.00     0.009 A 
HETATM   29  C21 UNL     1      16.415  -4.500  51.659  1.00  0.00     0.002 A 
HETATM   30  C22 UNL     1      17.214  -5.617  51.506  1.00  0.00     0.024 A 
HETATM   31  C23 UNL     1      17.256  -6.307  50.313  1.00  0.00     0.034 A 
HETATM   32 CL1  UNL     1      18.257  -7.724  50.084  1.00  0.00    -0.084 Cl
HETATM   33  C24 UNL     1      16.463  -5.834  49.271  1.00  0.00     0.032 A 
ENDBRANCH  26  27
ENDBRANCH  24  26
ENDBRANCH  10  24
BRANCH   1  34
HETATM   34  C3  UNL     1      12.366   1.134  51.136  1.00  0.00    -0.010 A 
HETATM   35  C2  UNL     1      11.923   0.013  51.795  1.00  0.00     0.106 A 
HETATM   36  N1  UNL     1      11.103   0.096  52.864  1.00  0.00    -0.328 N 
HETATM   37  C1  UNL     1      10.666  -1.128  53.522  1.00  0.00     0.159 C 
HETATM   38  C29 UNL     1      10.734   1.309  53.260  1.00  0.00     0.246 A 
HETATM   39  C28 UNL     1      11.139   2.474  52.648  1.00  0.00     0.075 A 
HETATM   40  O1  UNL     1       9.965   1.394  54.262  1.00  0.00    -0.268 OA
HETATM   41  C27 UNL     1      11.970   2.389  51.565  1.00  0.00     0.019 A 
ENDBRANCH   1  34
TORSDOF 8
ENDMDL
