MODEL 5
REMARK VINA RESULT: -9.701405137      2.868     10.699
REMARK  15 active torsions:
REMARK  status: ('A' for Active; 'I' for Inactive)
REMARK    1  A    between atoms: O1_2  and  C2_3 
REMARK    2  A    between atoms: C5_6  and  S1_7 
REMARK    3  A    between atoms: S1_7  and  N1_10 
REMARK    4  A    between atoms: N1_10  and  C6_11 
REMARK    5  A    between atoms: N1_10  and  C10_15 
REMARK    6  A    between atoms: C6_11  and  C7_12 
REMARK    7  A    between atoms: C10_15  and  C11_16 
REMARK    8  A    between atoms: C11_16  and  O4_17 
REMARK    9  A    between atoms: C11_16  and  C12_19 
REMARK   10  A    between atoms: C12_19  and  C13_20 
REMARK   11  A    between atoms: C12_19  and  N2_27 
REMARK   12  A    between atoms: C13_20  and  C14_21 
REMARK       I    between atoms: N2_27  and  C20_29 
REMARK   13  A    between atoms: C20_29  and  O6_31 
REMARK   14  A    between atoms: O6_31  and  C21_32 
REMARK   15  A    between atoms: N3_40  and  C27_41 
ROOT
HETATM    1  C12 UNL     1      19.387  23.304  16.251  1.00  0.00     0.121 C 
ENDROOT
BRANCH   1   2
HETATM    2  C11 UNL     1      20.296  23.481  17.425  1.00  0.00     0.160 C 
BRANCH   2   3
HETATM    3  C10 UNL     1      19.946  24.590  18.354  1.00  0.00     0.174 C 
BRANCH   3   4
HETATM    4  N1  UNL     1      21.127  25.012  19.070  1.00  0.00    -0.283 N 
BRANCH   4   5
HETATM    5  S1  UNL     1      21.221  24.350  20.594  1.00  0.00     0.264 S 
HETATM    6  O2  UNL     1      19.876  24.615  21.288  1.00  0.00    -0.200 OA
HETATM    7  O3  UNL     1      21.369  22.858  20.684  1.00  0.00    -0.200 OA
BRANCH   5   8
HETATM    8  C5  UNL     1      22.395  25.149  21.636  1.00  0.00     0.080 A 
HETATM    9  C4  UNL     1      22.076  26.309  22.275  1.00  0.00     0.028 A 
HETATM   10  C3  UNL     1      23.051  26.891  23.092  1.00  0.00     0.038 A 
HETATM   11  C2  UNL     1      24.293  26.309  23.245  1.00  0.00     0.068 A 
HETATM   12  C34 UNL     1      24.573  25.118  22.569  1.00  0.00     0.038 A 
HETATM   13  C33 UNL     1      23.635  24.511  21.751  1.00  0.00     0.028 A 
BRANCH  11  14
HETATM   14  O1  UNL     1      25.240  26.908  24.061  1.00  0.00    -0.356 OA
HETATM   15  C1  UNL     1      26.386  26.179  24.424  1.00  0.00     0.210 C 
ENDBRANCH  11  14
ENDBRANCH   5   8
ENDBRANCH   4   5
BRANCH   4  16
HETATM   16  C6  UNL     1      22.262  25.195  18.275  1.00  0.00     0.080 C 
BRANCH  16  17
HETATM   17  C7  UNL     1      22.834  26.544  18.093  1.00  0.00     0.017 C 
HETATM   18  C8  UNL     1      24.165  26.720  18.790  1.00  0.00     0.015 C 
HETATM   19  C9  UNL     1      21.899  27.563  18.773  1.00  0.00     0.015 C 
ENDBRANCH  16  17
ENDBRANCH   4  16
ENDBRANCH   3   4
ENDBRANCH   2   3
BRANCH   2  20
HETATM   20  O4  UNL     1      20.499  22.244  18.031  1.00  0.00    -0.392 OA
ATOM     21  H4  UNL     1      21.002  21.622  17.519  1.00  0.00     0.210 HD
ENDBRANCH   2  20
ENDBRANCH   1   2
BRANCH   1  22
HETATM   22  C13 UNL     1      19.208  24.626  15.516  1.00  0.00     0.066 C 
BRANCH  22  23
HETATM   23  C14 UNL     1      20.393  25.376  15.160  1.00  0.00    -0.056 A 
HETATM   24  C15 UNL     1      20.433  26.755  15.122  1.00  0.00     0.007 A 
HETATM   25  C16 UNL     1      21.573  27.430  14.785  1.00  0.00     0.001 A 
HETATM   26  C17 UNL     1      22.745  26.739  14.464  1.00  0.00     0.000 A 
HETATM   27  C18 UNL     1      22.733  25.375  14.493  1.00  0.00     0.001 A 
HETATM   28  C19 UNL     1      21.575  24.701  14.836  1.00  0.00     0.007 A 
ENDBRANCH  22  23
ENDBRANCH   1  22
BRANCH   1  29
HETATM   29  N2  UNL     1      18.041  23.000  16.836  1.00  0.00    -0.329 N 
HETATM   30  C20 UNL     1      17.614  21.698  17.095  1.00  0.00     0.361 C 
HETATM   31  O5  UNL     1      18.406  20.755  16.815  1.00  0.00    -0.238 OA
ATOM     32  H2  UNL     1      17.414  23.775  17.053  1.00  0.00     0.165 HD
BRANCH  30  33
HETATM   33  O6  UNL     1      16.399  21.340  17.630  1.00  0.00    -0.298 OA
BRANCH  33  34
HETATM   34  C21 UNL     1      16.270  20.422  18.684  1.00  0.00     0.138 C 
HETATM   35  C22 UNL     1      15.752  19.090  18.222  1.00  0.00     0.061 C 
HETATM   36  C23 UNL     1      15.096  18.489  19.418  1.00  0.00     0.127 C 
HETATM   37  C24 UNL     1      15.372  19.455  20.579  1.00  0.00     0.159 C 
HETATM   38  N3  UNL     1      13.661  18.522  19.315  1.00  0.00    -0.286 N 
HETATM   39  C25 UNL     1      15.363  20.789  19.796  1.00  0.00     0.067 C 
HETATM   40  O7  UNL     1      14.246  19.318  21.394  1.00  0.00    -0.296 OA
HETATM   41  C26 UNL     1      13.198  18.757  20.659  1.00  0.00     0.368 C 
HETATM   42  O8  UNL     1      12.050  18.490  21.058  1.00  0.00    -0.238 OA
BRANCH  38  43
HETATM   43  C27 UNL     1      12.843  18.385  18.183  1.00  0.00     0.040 A 
HETATM   44  C28 UNL     1      12.386  19.548  17.545  1.00  0.00     0.030 A 
HETATM   45  C29 UNL     1      11.572  19.511  16.441  1.00  0.00     0.002 A 
HETATM   46  C30 UNL     1      11.181  18.310  15.926  1.00  0.00     0.000 A 
HETATM   47  C31 UNL     1      11.625  17.156  16.544  1.00  0.00     0.002 A 
HETATM   48  C32 UNL     1      12.451  17.171  17.667  1.00  0.00     0.030 A 
ENDBRANCH  38  43
ENDBRANCH  33  34
ENDBRANCH  30  33
ENDBRANCH   1  29
TORSDOF 15
ENDMDL
