MODEL 2
REMARK VINA RESULT: -9.795961069      2.800     10.742
REMARK  15 active torsions:
REMARK  status: ('A' for Active; 'I' for Inactive)
REMARK    1  A    between atoms: O1_2  and  C2_3 
REMARK    2  A    between atoms: C5_6  and  S1_7 
REMARK    3  A    between atoms: S1_7  and  N1_10 
REMARK    4  A    between atoms: N1_10  and  C6_11 
REMARK    5  A    between atoms: N1_10  and  C10_15 
REMARK    6  A    between atoms: C6_11  and  C7_12 
REMARK    7  A    between atoms: C10_15  and  C11_16 
REMARK    8  A    between atoms: C11_16  and  O4_17 
REMARK    9  A    between atoms: C11_16  and  C12_19 
REMARK   10  A    between atoms: C12_19  and  C13_20 
REMARK   11  A    between atoms: C12_19  and  N2_27 
REMARK   12  A    between atoms: C13_20  and  C14_21 
REMARK       I    between atoms: N2_27  and  C20_29 
REMARK   13  A    between atoms: C20_29  and  O6_31 
REMARK   14  A    between atoms: O6_31  and  C21_32 
REMARK   15  A    between atoms: N3_40  and  C27_41 
ROOT
HETATM    1  C12 UNL     1      19.438  23.442  16.584  1.00  0.00     0.121 C 
ENDROOT
BRANCH   1   2
HETATM    2  C11 UNL     1      19.995  23.863  17.907  1.00  0.00     0.160 C 
BRANCH   2   3
HETATM    3  C10 UNL     1      21.474  23.776  18.044  1.00  0.00     0.174 C 
BRANCH   3   4
HETATM    4  N1  UNL     1      21.925  24.728  19.032  1.00  0.00    -0.283 N 
BRANCH   4   5
HETATM    5  S1  UNL     1      21.824  24.135  20.584  1.00  0.00     0.264 S 
HETATM    6  O2  UNL     1      20.392  24.396  21.077  1.00  0.00    -0.200 OA
HETATM    7  O3  UNL     1      21.987  22.652  20.762  1.00  0.00    -0.200 OA
BRANCH   5   8
HETATM    8  C5  UNL     1      22.830  25.007  21.737  1.00  0.00     0.080 A 
HETATM    9  C4  UNL     1      22.381  26.156  22.316  1.00  0.00     0.028 A 
HETATM   10  C3  UNL     1      23.226  26.799  23.226  1.00  0.00     0.038 A 
HETATM   11  C2  UNL     1      24.471  26.287  23.528  1.00  0.00     0.068 A 
HETATM   12  C34 UNL     1      24.888  25.104  22.908  1.00  0.00     0.038 A 
HETATM   13  C33 UNL     1      24.080  24.439  22.000  1.00  0.00     0.028 A 
BRANCH  11  14
HETATM   14  O1  UNL     1      25.288  26.945  24.434  1.00  0.00    -0.356 OA
HETATM   15  C1  UNL     1      25.188  26.625  25.799  1.00  0.00     0.210 C 
ENDBRANCH  11  14
ENDBRANCH   5   8
ENDBRANCH   4   5
BRANCH   4  16
HETATM   16  C6  UNL     1      22.984  25.543  18.622  1.00  0.00     0.080 C 
BRANCH  16  17
HETATM   17  C7  UNL     1      22.715  26.824  17.938  1.00  0.00     0.017 C 
HETATM   18  C8  UNL     1      23.963  27.652  17.724  1.00  0.00     0.015 C 
HETATM   19  C9  UNL     1      21.825  27.686  18.852  1.00  0.00     0.015 C 
ENDBRANCH  16  17
ENDBRANCH   4  16
ENDBRANCH   3   4
ENDBRANCH   2   3
BRANCH   2  20
HETATM   20  O4  UNL     1      19.440  25.091  18.260  1.00  0.00    -0.392 OA
ATOM     21  H4  UNL     1      18.501  25.161  18.130  1.00  0.00     0.210 HD
ENDBRANCH   2  20
ENDBRANCH   1   2
BRANCH   1  22
HETATM   22  C13 UNL     1      19.136  24.662  15.725  1.00  0.00     0.066 C 
BRANCH  22  23
HETATM   23  C14 UNL     1      20.249  25.443  15.231  1.00  0.00    -0.056 A 
HETATM   24  C15 UNL     1      21.428  24.882  14.785  1.00  0.00     0.007 A 
HETATM   25  C16 UNL     1      22.458  25.652  14.319  1.00  0.00     0.001 A 
HETATM   26  C17 UNL     1      22.348  27.045  14.281  1.00  0.00     0.000 A 
HETATM   27  C18 UNL     1      21.192  27.626  14.716  1.00  0.00     0.001 A 
HETATM   28  C19 UNL     1      20.157  26.839  15.185  1.00  0.00     0.007 A 
ENDBRANCH  22  23
ENDBRANCH   1  22
BRANCH   1  29
HETATM   29  N2  UNL     1      18.100  22.842  16.892  1.00  0.00    -0.329 N 
HETATM   30  C20 UNL     1      17.921  21.474  17.100  1.00  0.00     0.361 C 
HETATM   31  O5  UNL     1      18.940  20.732  17.017  1.00  0.00    -0.238 OA
ATOM     32  H2  UNL     1      17.288  23.457  16.951  1.00  0.00     0.165 HD
BRANCH  30  33
HETATM   33  O6  UNL     1      16.730  20.852  17.387  1.00  0.00    -0.298 OA
BRANCH  33  34
HETATM   34  C21 UNL     1      16.533  20.075  18.539  1.00  0.00     0.138 C 
HETATM   35  C22 UNL     1      15.941  18.730  18.227  1.00  0.00     0.061 C 
HETATM   36  C23 UNL     1      15.237  18.315  19.474  1.00  0.00     0.127 C 
HETATM   37  C24 UNL     1      15.557  19.394  20.517  1.00  0.00     0.159 C 
HETATM   38  N3  UNL     1      13.807  18.420  19.341  1.00  0.00    -0.286 N 
HETATM   39  C25 UNL     1      15.638  20.623  19.583  1.00  0.00     0.067 C 
HETATM   40  O7  UNL     1      14.415  19.421  21.323  1.00  0.00    -0.296 OA
HETATM   41  C26 UNL     1      13.344  18.840  20.639  1.00  0.00     0.368 C 
HETATM   42  O8  UNL     1      12.177  18.690  21.046  1.00  0.00    -0.238 OA
BRANCH  38  43
HETATM   43  C27 UNL     1      12.995  18.198  18.218  1.00  0.00     0.040 A 
HETATM   44  C28 UNL     1      12.592  16.884  17.935  1.00  0.00     0.030 A 
HETATM   45  C29 UNL     1      11.809  16.571  16.853  1.00  0.00     0.002 A 
HETATM   46  C30 UNL     1      11.394  17.558  16.007  1.00  0.00     0.000 A 
HETATM   47  C31 UNL     1      11.784  18.857  16.274  1.00  0.00     0.002 A 
HETATM   48  C32 UNL     1      12.579  19.197  17.367  1.00  0.00     0.030 A 
ENDBRANCH  38  43
ENDBRANCH  33  34
ENDBRANCH  30  33
ENDBRANCH   1  29
TORSDOF 15
ENDMDL
