MODEL 6
REMARK VINA RESULT: -9.506299526      3.027      9.958
REMARK  15 active torsions:
REMARK  status: ('A' for Active; 'I' for Inactive)
REMARK    1  A    between atoms: O1_2  and  C2_3 
REMARK    2  A    between atoms: C5_6  and  S1_7 
REMARK    3  A    between atoms: S1_7  and  N1_10 
REMARK    4  A    between atoms: N1_10  and  C6_11 
REMARK    5  A    between atoms: N1_10  and  C10_15 
REMARK    6  A    between atoms: C6_11  and  C7_12 
REMARK    7  A    between atoms: C10_15  and  C11_16 
REMARK    8  A    between atoms: C11_16  and  O4_17 
REMARK    9  A    between atoms: C11_16  and  C12_19 
REMARK   10  A    between atoms: C12_19  and  C13_20 
REMARK   11  A    between atoms: C12_19  and  N2_27 
REMARK   12  A    between atoms: C13_20  and  C14_21 
REMARK       I    between atoms: N2_27  and  C20_29 
REMARK   13  A    between atoms: C20_29  and  O6_31 
REMARK   14  A    between atoms: O6_31  and  C21_32 
REMARK   15  A    between atoms: N3_40  and  C27_41 
ROOT
HETATM    1  C12 UNL     1      19.878  23.889  17.742  1.00  0.00     0.121 C 
ENDROOT
BRANCH   1   2
HETATM    2  C11 UNL     1      20.850  24.487  18.708  1.00  0.00     0.160 C 
BRANCH   2   3
HETATM    3  C10 UNL     1      22.289  24.269  18.398  1.00  0.00     0.174 C 
BRANCH   3   4
HETATM    4  N1  UNL     1      23.098  25.121  19.237  1.00  0.00    -0.283 N 
BRANCH   4   5
HETATM    5  S1  UNL     1      23.567  24.372  20.647  1.00  0.00     0.264 S 
HETATM    6  O2  UNL     1      22.524  23.285  20.952  1.00  0.00    -0.200 OA
HETATM    7  O3  UNL     1      24.862  23.611  20.620  1.00  0.00    -0.200 OA
BRANCH   5   8
HETATM    8  C5  UNL     1      23.501  25.423  22.059  1.00  0.00     0.080 A 
HETATM    9  C4  UNL     1      22.420  26.225  22.274  1.00  0.00     0.028 A 
HETATM   10  C3  UNL     1      22.428  27.033  23.415  1.00  0.00     0.038 A 
HETATM   11  C2  UNL     1      23.492  27.018  24.293  1.00  0.00     0.068 A 
HETATM   12  C34 UNL     1      24.578  26.178  24.030  1.00  0.00     0.038 A 
HETATM   13  C33 UNL     1      24.609  25.364  22.910  1.00  0.00     0.028 A 
BRANCH  11  14
HETATM   14  O1  UNL     1      23.472  27.830  25.417  1.00  0.00    -0.356 OA
HETATM   15  C1  UNL     1      24.150  27.409  26.574  1.00  0.00     0.210 C 
ENDBRANCH  11  14
ENDBRANCH   5   8
ENDBRANCH   4   5
BRANCH   4  16
HETATM   16  C6  UNL     1      23.950  25.989  18.546  1.00  0.00     0.080 C 
BRANCH  16  17
HETATM   17  C7  UNL     1      23.559  26.518  17.224  1.00  0.00     0.017 C 
HETATM   18  C8  UNL     1      24.713  26.582  16.249  1.00  0.00     0.015 C 
HETATM   19  C9  UNL     1      23.113  27.983  17.399  1.00  0.00     0.015 C 
ENDBRANCH  16  17
ENDBRANCH   4  16
ENDBRANCH   3   4
ENDBRANCH   2   3
BRANCH   2  20
HETATM   20  O4  UNL     1      20.490  25.811  18.948  1.00  0.00    -0.392 OA
ATOM     21  H4  UNL     1      19.556  25.970  19.014  1.00  0.00     0.210 HD
ENDBRANCH   2  20
ENDBRANCH   1   2
BRANCH   1  22
HETATM   22  C13 UNL     1      19.325  24.963  16.815  1.00  0.00     0.066 C 
BRANCH  22  23
HETATM   23  C14 UNL     1      20.199  25.507  15.799  1.00  0.00    -0.056 A 
HETATM   24  C15 UNL     1      21.090  24.738  15.078  1.00  0.00     0.007 A 
HETATM   25  C16 UNL     1      21.899  25.285  14.120  1.00  0.00     0.001 A 
HETATM   26  C17 UNL     1      21.849  26.654  13.840  1.00  0.00     0.000 A 
HETATM   27  C18 UNL     1      20.977  27.437  14.538  1.00  0.00     0.001 A 
HETATM   28  C19 UNL     1      20.163  26.874  15.504  1.00  0.00     0.007 A 
ENDBRANCH  22  23
ENDBRANCH   1  22
BRANCH   1  29
HETATM   29  N2  UNL     1      18.710  23.454  18.573  1.00  0.00    -0.329 N 
HETATM   30  C20 UNL     1      18.652  22.203  19.188  1.00  0.00     0.361 C 
HETATM   31  O5  UNL     1      19.631  21.423  19.021  1.00  0.00    -0.238 OA
ATOM     32  H2  UNL     1      17.927  24.097  18.694  1.00  0.00     0.165 HD
BRANCH  30  33
HETATM   33  O6  UNL     1      17.619  21.735  19.965  1.00  0.00    -0.298 OA
BRANCH  33  34
HETATM   34  C21 UNL     1      16.786  20.677  19.570  1.00  0.00     0.138 C 
HETATM   35  C22 UNL     1      17.035  20.251  18.151  1.00  0.00     0.061 C 
HETATM   36  C23 UNL     1      15.756  19.635  17.697  1.00  0.00     0.127 C 
HETATM   37  C24 UNL     1      14.840  19.612  18.929  1.00  0.00     0.159 C 
HETATM   38  N3  UNL     1      15.041  20.492  16.789  1.00  0.00    -0.286 N 
HETATM   39  C25 UNL     1      15.324  20.908  19.619  1.00  0.00     0.067 C 
HETATM   40  O7  UNL     1      13.559  19.752  18.388  1.00  0.00    -0.296 OA
HETATM   41  C26 UNL     1      13.650  20.281  17.097  1.00  0.00     0.368 C 
HETATM   42  O8  UNL     1      12.714  20.538  16.317  1.00  0.00    -0.238 OA
BRANCH  38  43
HETATM   43  C27 UNL     1      15.536  21.374  15.815  1.00  0.00     0.040 A 
HETATM   44  C28 UNL     1      15.691  20.901  14.503  1.00  0.00     0.030 A 
HETATM   45  C29 UNL     1      16.178  21.687  13.491  1.00  0.00     0.002 A 
HETATM   46  C30 UNL     1      16.531  22.981  13.744  1.00  0.00     0.000 A 
HETATM   47  C31 UNL     1      16.383  23.459  15.033  1.00  0.00     0.002 A 
HETATM   48  C32 UNL     1      15.891  22.678  16.077  1.00  0.00     0.030 A 
ENDBRANCH  38  43
ENDBRANCH  33  34
ENDBRANCH  30  33
ENDBRANCH   1  29
TORSDOF 15
ENDMDL
