MODEL 3
REMARK VINA RESULT: -9.738836230      0.134      1.222
REMARK  15 active torsions:
REMARK  status: ('A' for Active; 'I' for Inactive)
REMARK    1  A    between atoms: O1_2  and  C2_3 
REMARK    2  A    between atoms: C5_6  and  S1_7 
REMARK    3  A    between atoms: S1_7  and  N1_10 
REMARK    4  A    between atoms: N1_10  and  C6_11 
REMARK    5  A    between atoms: N1_10  and  C10_15 
REMARK    6  A    between atoms: C6_11  and  C7_12 
REMARK    7  A    between atoms: C10_15  and  C11_16 
REMARK    8  A    between atoms: C11_16  and  O4_17 
REMARK    9  A    between atoms: C11_16  and  C12_19 
REMARK   10  A    between atoms: C12_19  and  C13_20 
REMARK   11  A    between atoms: C12_19  and  N2_27 
REMARK   12  A    between atoms: C13_20  and  C14_21 
REMARK       I    between atoms: N2_27  and  C20_29 
REMARK   13  A    between atoms: C20_29  and  O6_31 
REMARK   14  A    between atoms: O6_31  and  C21_32 
REMARK   15  A    between atoms: N3_40  and  C27_41 
ROOT
HETATM    1  C12 UNL     1      17.693  23.635  18.301  1.00  0.00     0.121 C 
ENDROOT
BRANCH   1   2
HETATM    2  C11 UNL     1      16.239  23.974  18.221  1.00  0.00     0.160 C 
BRANCH   2   3
HETATM    3  C10 UNL     1      15.297  22.866  18.539  1.00  0.00     0.174 C 
BRANCH   3   4
HETATM    4  N1  UNL     1      15.688  21.678  17.819  1.00  0.00    -0.283 N 
BRANCH   4   5
HETATM    5  S1  UNL     1      15.975  20.385  18.827  1.00  0.00     0.264 S 
HETATM    6  O2  UNL     1      16.786  19.355  18.024  1.00  0.00    -0.200 OA
HETATM    7  O3  UNL     1      16.834  20.636  20.033  1.00  0.00    -0.200 OA
BRANCH   5   8
HETATM    8  C5  UNL     1      14.517  19.508  19.281  1.00  0.00     0.080 A 
HETATM    9  C4  UNL     1      14.363  19.032  20.548  1.00  0.00     0.028 A 
HETATM   10  C3  UNL     1      13.180  18.348  20.847  1.00  0.00     0.038 A 
HETATM   11  C2  UNL     1      12.203  18.162  19.890  1.00  0.00     0.068 A 
HETATM   12  C34 UNL     1      12.407  18.670  18.603  1.00  0.00     0.038 A 
HETATM   13  C33 UNL     1      13.565  19.352  18.269  1.00  0.00     0.028 A 
BRANCH  11  14
HETATM   14  O1  UNL     1      11.041  17.480  20.214  1.00  0.00    -0.356 OA
HETATM   15  C1  UNL     1      10.695  16.334  19.476  1.00  0.00     0.210 C 
ENDBRANCH  11  14
ENDBRANCH   5   8
ENDBRANCH   4   5
BRANCH   4  16
HETATM   16  C6  UNL     1      15.075  21.518  16.572  1.00  0.00     0.080 C 
BRANCH  16  17
HETATM   17  C7  UNL     1      15.882  21.563  15.336  1.00  0.00     0.017 C 
HETATM   18  C8  UNL     1      15.888  22.929  14.686  1.00  0.00     0.015 C 
HETATM   19  C9  UNL     1      15.226  20.637  14.294  1.00  0.00     0.015 C 
ENDBRANCH  16  17
ENDBRANCH   4  16
ENDBRANCH   3   4
ENDBRANCH   2   3
BRANCH   2  20
HETATM   20  O4  UNL     1      16.013  25.160  18.916  1.00  0.00    -0.392 OA
ATOM     21  H4  UNL     1      16.208  25.126  19.845  1.00  0.00     0.210 HD
ENDBRANCH   2  20
ENDBRANCH   1   2
BRANCH   1  22
HETATM   22  C13 UNL     1      18.158  23.640  19.752  1.00  0.00     0.066 C 
BRANCH  22  23
HETATM   23  C14 UNL     1      19.536  23.300  20.029  1.00  0.00    -0.056 A 
HETATM   24  C15 UNL     1      20.507  24.241  20.306  1.00  0.00     0.007 A 
HETATM   25  C16 UNL     1      21.800  23.881  20.568  1.00  0.00     0.001 A 
HETATM   26  C17 UNL     1      22.183  22.537  20.564  1.00  0.00     0.000 A 
HETATM   27  C18 UNL     1      21.243  21.586  20.294  1.00  0.00     0.001 A 
HETATM   28  C19 UNL     1      19.938  21.959  20.029  1.00  0.00     0.007 A 
ENDBRANCH  22  23
ENDBRANCH   1  22
BRANCH   1  29
HETATM   29  N2  UNL     1      18.404  24.788  17.661  1.00  0.00    -0.329 N 
HETATM   30  C20 UNL     1      19.077  24.672  16.445  1.00  0.00     0.361 C 
HETATM   31  O5  UNL     1      19.077  23.541  15.882  1.00  0.00    -0.238 OA
ATOM     32  H2  UNL     1      18.396  25.692  18.133  1.00  0.00     0.165 HD
BRANCH  30  33
HETATM   33  O6  UNL     1      19.748  25.680  15.796  1.00  0.00    -0.298 OA
BRANCH  33  34
HETATM   34  C21 UNL     1      21.104  25.591  15.444  1.00  0.00     0.138 C 
HETATM   35  C22 UNL     1      21.961  25.117  16.582  1.00  0.00     0.061 C 
HETATM   36  C23 UNL     1      23.322  25.655  16.297  1.00  0.00     0.127 C 
HETATM   37  C24 UNL     1      23.229  26.326  14.919  1.00  0.00     0.159 C 
HETATM   38  N3  UNL     1      23.654  26.757  17.161  1.00  0.00    -0.286 N 
HETATM   39  C25 UNL     1      21.771  26.833  14.991  1.00  0.00     0.067 C 
HETATM   40  O7  UNL     1      24.154  27.370  14.999  1.00  0.00    -0.296 OA
HETATM   41  C26 UNL     1      24.429  27.652  16.340  1.00  0.00     0.368 C 
HETATM   42  O8  UNL     1      25.203  28.517  16.789  1.00  0.00    -0.238 OA
BRANCH  38  43
HETATM   43  C27 UNL     1      23.309  26.976  18.504  1.00  0.00     0.040 A 
HETATM   44  C28 UNL     1      22.091  27.614  18.785  1.00  0.00     0.030 A 
HETATM   45  C29 UNL     1      21.678  27.880  20.065  1.00  0.00     0.002 A 
HETATM   46  C30 UNL     1      22.463  27.519  21.122  1.00  0.00     0.000 A 
HETATM   47  C31 UNL     1      23.665  26.889  20.859  1.00  0.00     0.002 A 
HETATM   48  C32 UNL     1      24.105  26.610  19.566  1.00  0.00     0.030 A 
ENDBRANCH  38  43
ENDBRANCH  33  34
ENDBRANCH  30  33
ENDBRANCH   1  29
TORSDOF 15
ENDMDL
