MODEL 1
REMARK VINA RESULT: -9.874858764      0.000      0.000
REMARK  15 active torsions:
REMARK  status: ('A' for Active; 'I' for Inactive)
REMARK    1  A    between atoms: O1_2  and  C2_3 
REMARK    2  A    between atoms: C5_6  and  S1_7 
REMARK    3  A    between atoms: S1_7  and  N1_10 
REMARK    4  A    between atoms: N1_10  and  C6_11 
REMARK    5  A    between atoms: N1_10  and  C10_15 
REMARK    6  A    between atoms: C6_11  and  C7_12 
REMARK    7  A    between atoms: C10_15  and  C11_16 
REMARK    8  A    between atoms: C11_16  and  O4_17 
REMARK    9  A    between atoms: C11_16  and  C12_19 
REMARK   10  A    between atoms: C12_19  and  C13_20 
REMARK   11  A    between atoms: C12_19  and  N2_27 
REMARK   12  A    between atoms: C13_20  and  C14_21 
REMARK       I    between atoms: N2_27  and  C20_29 
REMARK   13  A    between atoms: C20_29  and  O6_31 
REMARK   14  A    between atoms: O6_31  and  C21_32 
REMARK   15  A    between atoms: N3_40  and  C27_41 
ROOT
HETATM    1  C12 UNL     1      17.699  23.674  18.290  1.00  0.00     0.121 C 
ENDROOT
BRANCH   1   2
HETATM    2  C11 UNL     1      16.250  24.035  18.217  1.00  0.00     0.160 C 
BRANCH   2   3
HETATM    3  C10 UNL     1      15.293  22.935  18.518  1.00  0.00     0.174 C 
BRANCH   3   4
HETATM    4  N1  UNL     1      15.679  21.747  17.795  1.00  0.00    -0.283 N 
BRANCH   4   5
HETATM    5  S1  UNL     1      15.917  20.439  18.795  1.00  0.00     0.264 S 
HETATM    6  O2  UNL     1      16.766  19.421  18.017  1.00  0.00    -0.200 OA
HETATM    7  O3  UNL     1      16.715  20.671  20.047  1.00  0.00    -0.200 OA
BRANCH   5   8
HETATM    8  C5  UNL     1      14.438  19.555  19.163  1.00  0.00     0.080 A 
HETATM    9  C4  UNL     1      13.402  19.541  18.278  1.00  0.00     0.028 A 
HETATM   10  C3  UNL     1      12.258  18.818  18.627  1.00  0.00     0.038 A 
HETATM   11  C2  UNL     1      12.180  18.142  19.828  1.00  0.00     0.068 A 
HETATM   12  C34 UNL     1      13.270  18.186  20.704  1.00  0.00     0.038 A 
HETATM   13  C33 UNL     1      14.420  18.891  20.394  1.00  0.00     0.028 A 
BRANCH  11  14
HETATM   14  O1  UNL     1      11.033  17.433  20.149  1.00  0.00    -0.356 OA
HETATM   15  C1  UNL     1      10.696  16.300  19.387  1.00  0.00     0.210 C 
ENDBRANCH  11  14
ENDBRANCH   5   8
ENDBRANCH   4   5
BRANCH   4  16
HETATM   16  C6  UNL     1      15.094  21.612  16.532  1.00  0.00     0.080 C 
BRANCH  16  17
HETATM   17  C7  UNL     1      15.927  21.690  15.315  1.00  0.00     0.017 C 
HETATM   18  C8  UNL     1      15.871  23.046  14.648  1.00  0.00     0.015 C 
HETATM   19  C9  UNL     1      15.352  20.715  14.269  1.00  0.00     0.015 C 
ENDBRANCH  16  17
ENDBRANCH   4  16
ENDBRANCH   3   4
ENDBRANCH   2   3
BRANCH   2  20
HETATM   20  O4  UNL     1      16.041  25.212  18.930  1.00  0.00    -0.392 OA
ATOM     21  H4  UNL     1      16.449  25.242  19.788  1.00  0.00     0.210 HD
ENDBRANCH   2  20
ENDBRANCH   1   2
BRANCH   1  22
HETATM   22  C13 UNL     1      18.168  23.660  19.739  1.00  0.00     0.066 C 
BRANCH  22  23
HETATM   23  C14 UNL     1      19.523  23.237  20.015  1.00  0.00    -0.056 A 
HETATM   24  C15 UNL     1      19.897  21.912  20.111  1.00  0.00     0.007 A 
HETATM   25  C16 UNL     1      21.190  21.549  20.369  1.00  0.00     0.001 A 
HETATM   26  C17 UNL     1      22.183  22.517  20.545  1.00  0.00     0.000 A 
HETATM   27  C18 UNL     1      21.840  23.835  20.455  1.00  0.00     0.001 A 
HETATM   28  C19 UNL     1      20.530  24.192  20.194  1.00  0.00     0.007 A 
ENDBRANCH  22  23
ENDBRANCH   1  22
BRANCH   1  29
HETATM   29  N2  UNL     1      18.425  24.824  17.659  1.00  0.00    -0.329 N 
HETATM   30  C20 UNL     1      19.105  24.706  16.446  1.00  0.00     0.361 C 
HETATM   31  O5  UNL     1      19.098  23.577  15.880  1.00  0.00    -0.238 OA
ATOM     32  H2  UNL     1      18.421  25.726  18.134  1.00  0.00     0.165 HD
BRANCH  30  33
HETATM   33  O6  UNL     1      19.789  25.710  15.806  1.00  0.00    -0.298 OA
BRANCH  33  34
HETATM   34  C21 UNL     1      21.153  25.621  15.486  1.00  0.00     0.138 C 
HETATM   35  C22 UNL     1      21.984  25.156  16.648  1.00  0.00     0.061 C 
HETATM   36  C23 UNL     1      23.351  25.695  16.391  1.00  0.00     0.127 C 
HETATM   37  C24 UNL     1      23.289  26.355  15.007  1.00  0.00     0.159 C 
HETATM   38  N3  UNL     1      23.660  26.803  17.255  1.00  0.00    -0.286 N 
HETATM   39  C25 UNL     1      21.829  26.861  15.040  1.00  0.00     0.067 C 
HETATM   40  O7  UNL     1      24.210  27.402  15.102  1.00  0.00    -0.296 OA
HETATM   41  C26 UNL     1      24.453  27.693  16.447  1.00  0.00     0.368 C 
HETATM   42  O8  UNL     1      25.215  28.563  16.907  1.00  0.00    -0.238 OA
BRANCH  38  43
HETATM   43  C27 UNL     1      23.283  27.030  18.588  1.00  0.00     0.040 A 
HETATM   44  C28 UNL     1      24.150  26.609  19.608  1.00  0.00     0.030 A 
HETATM   45  C29 UNL     1      23.859  26.778  20.938  1.00  0.00     0.002 A 
HETATM   46  C30 UNL     1      22.689  27.376  21.307  1.00  0.00     0.000 A 
HETATM   47  C31 UNL     1      21.826  27.795  20.311  1.00  0.00     0.002 A 
HETATM   48  C32 UNL     1      22.101  27.633  18.955  1.00  0.00     0.030 A 
ENDBRANCH  38  43
ENDBRANCH  33  34
ENDBRANCH  30  33
ENDBRANCH   1  29
TORSDOF 15
ENDMDL
