MODEL 16
REMARK VINA RESULT: -9.210545424      1.547      2.126
REMARK  15 active torsions:
REMARK  status: ('A' for Active; 'I' for Inactive)
REMARK    1  A    between atoms: O1_2  and  C2_3 
REMARK    2  A    between atoms: C5_6  and  S1_7 
REMARK    3  A    between atoms: S1_7  and  N1_10 
REMARK    4  A    between atoms: N1_10  and  C6_11 
REMARK    5  A    between atoms: N1_10  and  C10_15 
REMARK    6  A    between atoms: C6_11  and  C7_12 
REMARK    7  A    between atoms: C10_15  and  C11_16 
REMARK    8  A    between atoms: C11_16  and  O4_17 
REMARK    9  A    between atoms: C11_16  and  C12_19 
REMARK   10  A    between atoms: C12_19  and  C13_20 
REMARK   11  A    between atoms: C12_19  and  N2_27 
REMARK   12  A    between atoms: C13_20  and  C14_21 
REMARK       I    between atoms: N2_27  and  C20_29 
REMARK   13  A    between atoms: C20_29  and  O6_31 
REMARK   14  A    between atoms: O6_31  and  C21_32 
REMARK   15  A    between atoms: N3_40  and  C27_41 
ROOT
HETATM    1  C12 UNL     1      17.967  23.115  18.685  1.00  0.00     0.121 C 
ENDROOT
BRANCH   1   2
HETATM    2  C11 UNL     1      16.750  23.914  18.344  1.00  0.00     0.160 C 
BRANCH   2   3
HETATM    3  C10 UNL     1      15.472  23.153  18.283  1.00  0.00     0.174 C 
BRANCH   3   4
HETATM    4  N1  UNL     1      15.713  21.849  17.712  1.00  0.00    -0.283 N 
BRANCH   4   5
HETATM    5  S1  UNL     1      15.572  20.626  18.831  1.00  0.00     0.264 S 
HETATM    6  O2  UNL     1      16.797  19.713  18.663  1.00  0.00    -0.200 OA
HETATM    7  O3  UNL     1      15.628  21.015  20.281  1.00  0.00    -0.200 OA
BRANCH   5   8
HETATM    8  C5  UNL     1      14.207  19.553  18.534  1.00  0.00     0.080 A 
HETATM    9  C4  UNL     1      13.022  20.051  18.082  1.00  0.00     0.028 A 
HETATM   10  C3  UNL     1      11.978  19.147  17.862  1.00  0.00     0.038 A 
HETATM   11  C2  UNL     1      12.143  17.797  18.095  1.00  0.00     0.068 A 
HETATM   12  C34 UNL     1      13.378  17.333  18.558  1.00  0.00     0.038 A 
HETATM   13  C33 UNL     1      14.436  18.197  18.789  1.00  0.00     0.028 A 
BRANCH  11  14
HETATM   14  O1  UNL     1      11.091  16.923  17.868  1.00  0.00    -0.356 OA
HETATM   15  C1  UNL     1      11.373  15.578  17.574  1.00  0.00     0.210 C 
ENDBRANCH  11  14
ENDBRANCH   5   8
ENDBRANCH   4   5
BRANCH   4  16
HETATM   16  C6  UNL     1      15.275  21.695  16.393  1.00  0.00     0.080 C 
BRANCH  16  17
HETATM   17  C7  UNL     1      16.253  21.508  15.302  1.00  0.00     0.017 C 
HETATM   18  C8  UNL     1      16.768  22.815  14.741  1.00  0.00     0.015 C 
HETATM   19  C9  UNL     1      15.538  20.829  14.119  1.00  0.00     0.015 C 
ENDBRANCH  16  17
ENDBRANCH   4  16
ENDBRANCH   3   4
ENDBRANCH   2   3
BRANCH   2  20
HETATM   20  O4  UNL     1      16.721  25.055  19.142  1.00  0.00    -0.392 OA
ATOM     21  H4  UNL     1      15.960  25.611  19.023  1.00  0.00     0.210 HD
ENDBRANCH   2  20
ENDBRANCH   1   2
BRANCH   1  22
HETATM   22  C13 UNL     1      18.455  23.466  20.085  1.00  0.00     0.066 C 
BRANCH  22  23
HETATM   23  C14 UNL     1      19.878  23.430  20.342  1.00  0.00    -0.056 A 
HETATM   24  C15 UNL     1      20.610  22.261  20.383  1.00  0.00     0.007 A 
HETATM   25  C16 UNL     1      21.956  22.265  20.624  1.00  0.00     0.001 A 
HETATM   26  C17 UNL     1      22.640  23.466  20.839  1.00  0.00     0.000 A 
HETATM   27  C18 UNL     1      21.940  24.637  20.804  1.00  0.00     0.001 A 
HETATM   28  C19 UNL     1      20.579  24.622  20.559  1.00  0.00     0.007 A 
ENDBRANCH  22  23
ENDBRANCH   1  22
BRANCH   1  29
HETATM   29  N2  UNL     1      19.039  23.614  17.764  1.00  0.00    -0.329 N 
HETATM   30  C20 UNL     1      19.783  22.761  16.948  1.00  0.00     0.361 C 
HETATM   31  O5  UNL     1      19.528  21.525  17.008  1.00  0.00    -0.238 OA
ATOM     32  H2  UNL     1      19.231  24.615  17.732  1.00  0.00     0.165 HD
BRANCH  30  33
HETATM   33  O6  UNL     1      20.776  23.142  16.079  1.00  0.00    -0.298 OA
BRANCH  33  34
HETATM   34  C21 UNL     1      20.728  24.334  15.340  1.00  0.00     0.138 C 
HETATM   35  C22 UNL     1      22.081  24.753  14.841  1.00  0.00     0.061 C 
HETATM   36  C23 UNL     1      21.991  26.231  14.662  1.00  0.00     0.127 C 
HETATM   37  C24 UNL     1      20.529  26.601  14.949  1.00  0.00     0.159 C 
HETATM   38  N3  UNL     1      22.703  26.939  15.693  1.00  0.00    -0.286 N 
HETATM   39  C25 UNL     1      20.214  25.540  16.028  1.00  0.00     0.067 C 
HETATM   40  O7  UNL     1      20.616  27.888  15.486  1.00  0.00    -0.296 OA
HETATM   41  C26 UNL     1      21.916  28.120  15.943  1.00  0.00     0.368 C 
HETATM   42  O8  UNL     1      22.358  29.153  16.478  1.00  0.00    -0.238 OA
BRANCH  38  43
HETATM   43  C27 UNL     1      23.890  26.594  16.359  1.00  0.00     0.040 A 
HETATM   44  C28 UNL     1      23.819  26.267  17.722  1.00  0.00     0.030 A 
HETATM   45  C29 UNL     1      24.928  25.930  18.455  1.00  0.00     0.002 A 
HETATM   46  C30 UNL     1      26.156  25.905  17.860  1.00  0.00     0.000 A 
HETATM   47  C31 UNL     1      26.238  26.225  16.517  1.00  0.00     0.002 A 
HETATM   48  C32 UNL     1      25.126  26.571  15.753  1.00  0.00     0.030 A 
ENDBRANCH  38  43
ENDBRANCH  33  34
ENDBRANCH  30  33
ENDBRANCH   1  29
TORSDOF 15
ENDMDL
