MODEL 1
REMARK VINA RESULT: -10.088947894      0.000      0.000
REMARK  15 active torsions:
REMARK  status: ('A' for Active; 'I' for Inactive)
REMARK    1  A    between atoms: C1_2  and  C2_4 
REMARK    2  A    between atoms: N2_8  and  C6_9 
REMARK    3  A    between atoms: C7_11  and  C8_12 
REMARK    4  A    between atoms: C8_12  and  O3_13 
REMARK    5  A    between atoms: O3_13  and  P1_14 
REMARK    6  A    between atoms: P1_14  and  O6_17 
REMARK    7  A    between atoms: O6_17  and  P2_18 
REMARK    8  A    between atoms: P2_18  and  O9_21 
REMARK    9  A    between atoms: O9_21  and  C9_22 
REMARK   10  A    between atoms: C9_22  and  C10_23 
REMARK   11  A    between atoms: C11_25  and  N3_26 
REMARK   12  A    between atoms: C17_39  and  O11_40 
REMARK   13  A    between atoms: C18_42  and  O12_43 
REMARK   14  A    between atoms: C19_45  and  O13_46 
REMARK   15  A    between atoms: C20_48  and  O14_49 
ROOT
HETATM    1  P2  UNL     1     -11.310  -7.249 -22.203  1.00  0.00     0.417 P 
HETATM    2  O7  UNL     1     -12.406  -7.913 -22.980  1.00  0.00    -0.624 OA
HETATM    3  O8  UNL     1     -10.659  -6.028 -23.272  1.00  0.00    -0.624 OA
ENDROOT
BRANCH   1   4
HETATM    4  O6  UNL     1     -11.792  -6.566 -20.824  1.00  0.00    -0.180 OA
BRANCH   4   5
HETATM    5  P1  UNL     1     -11.027  -5.188 -20.326  1.00  0.00     0.417 P 
HETATM    6  O4  UNL     1     -11.383  -3.977 -21.078  1.00  0.00    -0.624 OA
HETATM    7  O5  UNL     1      -9.287  -5.412 -20.701  1.00  0.00    -0.624 OA
BRANCH   5   8
HETATM    8  O3  UNL     1     -11.060  -5.050 -18.694  1.00  0.00    -0.287 OA
BRANCH   8   9
HETATM    9  C8  UNL     1     -12.350  -5.187 -18.136  1.00  0.00     0.216 C 
BRANCH   9  10
HETATM   10  C7  UNL     1     -12.123  -4.517 -16.746  1.00  0.00     0.180 C 
HETATM   11  O2  UNL     1     -13.341  -4.332 -16.139  1.00  0.00    -0.353 OA
HETATM   12  C6  UNL     1     -13.314  -4.757 -14.832  1.00  0.00     0.259 C 
HETATM   13  C20 UNL     1     -11.822  -4.772 -14.483  1.00  0.00     0.198 C 
HETATM   14  C19 UNL     1     -11.258  -5.285 -15.841  1.00  0.00     0.182 C 
BRANCH  12  15
HETATM   15  N2  UNL     1     -13.735  -6.173 -14.886  1.00  0.00    -0.336 N 
HETATM   16  C5  UNL     1     -13.315  -7.065 -13.986  1.00  0.00     0.093 A 
HETATM   17  C4  UNL     1     -13.640  -8.412 -14.141  1.00  0.00     0.018 A 
HETATM   18  C3  UNL     1     -14.384  -8.812 -15.214  1.00  0.00     0.019 A 
HETATM   19  C2  UNL     1     -14.795  -7.869 -16.119  1.00  0.00     0.044 A 
HETATM   20  C21 UNL     1     -14.464  -6.543 -15.946  1.00  0.00     0.110 A 
BRANCH  19  21
HETATM   21  C1  UNL     1     -15.546  -8.250 -17.300  1.00  0.00     0.266 C 
HETATM   22  N1  UNL     1     -16.943  -8.451 -17.218  1.00  0.00    -0.057 NA
HETATM   23  O1  UNL     1     -15.002  -8.423 -18.443  1.00  0.00    -0.271 OA
ENDBRANCH  19  21
ENDBRANCH  12  15
BRANCH  13  24
HETATM   24  O14 UNL     1     -11.354  -3.465 -14.362  1.00  0.00    -0.388 OA
ATOM     25  H14 UNL     1     -10.678  -3.304 -15.011  1.00  0.00     0.210 HD
ENDBRANCH  13  24
BRANCH  14  26
HETATM   26  O13 UNL     1      -9.892  -4.996 -15.937  1.00  0.00    -0.390 OA
ATOM     27  H13 UNL     1      -9.315  -5.627 -15.521  1.00  0.00     0.210 HD
ENDBRANCH  14  26
ENDBRANCH   9  10
ENDBRANCH   8   9
ENDBRANCH   5   8
ENDBRANCH   4   5
ENDBRANCH   1   4
BRANCH   1  28
HETATM   28  O9  UNL     1     -10.018  -8.397 -22.142  1.00  0.00    -0.287 OA
BRANCH  28  29
HETATM   29  C9  UNL     1      -9.377  -8.204 -23.411  1.00  0.00     0.216 C 
BRANCH  29  30
HETATM   30  C10 UNL     1      -7.974  -8.626 -23.305  1.00  0.00     0.180 C 
HETATM   31  O10 UNL     1      -7.454  -8.187 -22.055  1.00  0.00    -0.353 OA
HETATM   32  C11 UNL     1      -6.163  -8.749 -22.138  1.00  0.00     0.262 C 
HETATM   33  C17 UNL     1      -6.631 -10.226 -22.243  1.00  0.00     0.198 C 
HETATM   34  C18 UNL     1      -7.696 -10.067 -23.365  1.00  0.00     0.182 C 
BRANCH  32  35
HETATM   35  N3  UNL     1      -5.451  -8.471 -20.952  1.00  0.00    -0.297 N 
HETATM   36  C12 UNL     1      -4.524  -9.253 -20.302  1.00  0.00     0.188 A 
HETATM   37  N4  UNL     1      -4.067  -8.633 -19.214  1.00  0.00    -0.346 N 
HETATM   38  C13 UNL     1      -4.700  -7.424 -19.161  1.00  0.00     0.119 A 
ATOM     39  H4  UNL     1      -3.381  -8.992 -18.551  1.00  0.00     0.167 HD
HETATM   40  C14 UNL     1      -4.616  -6.405 -18.257  1.00  0.00     0.148 A 
HETATM   41  C16 UNL     1      -5.557  -7.347 -20.248  1.00  0.00     0.142 A 
HETATM   42  N5  UNL     1      -3.710  -6.468 -17.161  1.00  0.00    -0.080 NA
HETATM   43  N6  UNL     1      -5.381  -5.312 -18.410  1.00  0.00    -0.339 N 
HETATM   44  C15 UNL     1      -6.224  -5.217 -19.442  1.00  0.00     0.183 A 
ATOM     45  H6  UNL     1      -5.319  -4.551 -17.734  1.00  0.00     0.167 HD
HETATM   46  N7  UNL     1      -6.299  -6.238 -20.350  1.00  0.00    -0.336 N 
ATOM     47  H7  UNL     1      -6.945  -6.149 -21.135  1.00  0.00     0.168 HD
ENDBRANCH  32  35
BRANCH  33  48
HETATM   48  O11 UNL     1      -5.642 -11.104 -22.523  1.00  0.00    -0.388 OA
ATOM     49  H11 UNL     1      -5.837 -12.002 -22.282  1.00  0.00     0.210 HD
ENDBRANCH  33  48
BRANCH  34  50
HETATM   50  O12 UNL     1      -6.999 -10.366 -24.576  1.00  0.00    -0.390 OA
ATOM     51  H12 UNL     1      -6.731 -11.278 -24.569  1.00  0.00     0.210 HD
ENDBRANCH  34  50
ENDBRANCH  29  30
ENDBRANCH  28  29
ENDBRANCH   1  28
TORSDOF 15
ENDMDL
