MODEL 3
REMARK VINA RESULT: -10.012780971      3.703      5.391
REMARK  15 active torsions:
REMARK  status: ('A' for Active; 'I' for Inactive)
REMARK    1  A    between atoms: C1_2  and  C2_4 
REMARK    2  A    between atoms: N2_8  and  C6_9 
REMARK    3  A    between atoms: C7_11  and  C8_12 
REMARK    4  A    between atoms: C8_12  and  O3_13 
REMARK    5  A    between atoms: O3_13  and  P1_14 
REMARK    6  A    between atoms: P1_14  and  O6_17 
REMARK    7  A    between atoms: O6_17  and  P2_18 
REMARK    8  A    between atoms: P2_18  and  O9_21 
REMARK    9  A    between atoms: O9_21  and  C9_22 
REMARK   10  A    between atoms: C9_22  and  C10_23 
REMARK   11  A    between atoms: C11_25  and  N3_26 
REMARK   12  A    between atoms: C17_39  and  O11_40 
REMARK   13  A    between atoms: C18_42  and  O12_43 
REMARK   14  A    between atoms: C19_45  and  O13_46 
REMARK   15  A    between atoms: C20_48  and  O14_49 
ROOT
HETATM    1  P2  UNL     1     -11.239  -7.004 -22.017  1.00  0.00     0.417 P 
HETATM    2  O7  UNL     1     -10.408  -8.251 -22.071  1.00  0.00    -0.624 OA
HETATM    3  O8  UNL     1     -12.730  -7.406 -22.839  1.00  0.00    -0.624 OA
ENDROOT
BRANCH   1   4
HETATM    4  O6  UNL     1     -11.561  -6.484 -20.526  1.00  0.00    -0.180 OA
BRANCH   4   5
HETATM    5  P1  UNL     1     -10.999  -4.993 -20.081  1.00  0.00     0.417 P 
HETATM    6  O4  UNL     1     -11.478  -3.880 -20.909  1.00  0.00    -0.624 OA
HETATM    7  O5  UNL     1      -9.231  -5.008 -20.386  1.00  0.00    -0.624 OA
BRANCH   5   8
HETATM    8  O3  UNL     1     -11.113  -4.779 -18.461  1.00  0.00    -0.287 OA
BRANCH   8   9
HETATM    9  C8  UNL     1     -12.421  -4.947 -17.954  1.00  0.00     0.216 C 
BRANCH   9  10
HETATM   10  C7  UNL     1     -12.230  -4.396 -16.508  1.00  0.00     0.180 C 
HETATM   11  O2  UNL     1     -13.459  -4.303 -15.902  1.00  0.00    -0.353 OA
HETATM   12  C6  UNL     1     -13.431  -4.841 -14.637  1.00  0.00     0.259 C 
HETATM   13  C20 UNL     1     -11.943  -4.839 -14.271  1.00  0.00     0.198 C 
HETATM   14  C19 UNL     1     -11.349  -5.213 -15.662  1.00  0.00     0.182 C 
BRANCH  12  15
HETATM   15  N2  UNL     1     -13.806  -6.260 -14.821  1.00  0.00    -0.336 N 
HETATM   16  C5  UNL     1     -13.339  -7.218 -14.018  1.00  0.00     0.093 A 
HETATM   17  C4  UNL     1     -13.621  -8.555 -14.297  1.00  0.00     0.018 A 
HETATM   18  C3  UNL     1     -14.370  -8.876 -15.392  1.00  0.00     0.019 A 
HETATM   19  C2  UNL     1     -14.830  -7.866 -16.196  1.00  0.00     0.044 A 
HETATM   20  C21 UNL     1     -14.540  -6.552 -15.901  1.00  0.00     0.110 A 
BRANCH  19  21
HETATM   21  C1  UNL     1     -15.589  -8.159 -17.397  1.00  0.00     0.266 C 
HETATM   22  N1  UNL     1     -16.945  -8.542 -17.302  1.00  0.00    -0.057 NA
HETATM   23  O1  UNL     1     -15.085  -8.092 -18.570  1.00  0.00    -0.271 OA
ENDBRANCH  19  21
ENDBRANCH  12  15
BRANCH  13  24
HETATM   24  O14 UNL     1     -11.519  -3.534 -14.030  1.00  0.00    -0.388 OA
ATOM     25  H14 UNL     1     -12.256  -3.003 -13.751  1.00  0.00     0.210 HD
ENDBRANCH  13  24
BRANCH  14  26
HETATM   26  O13 UNL     1      -9.992  -4.873 -15.714  1.00  0.00    -0.390 OA
ATOM     27  H13 UNL     1      -9.396  -5.540 -15.394  1.00  0.00     0.210 HD
ENDBRANCH  14  26
ENDBRANCH   9  10
ENDBRANCH   8   9
ENDBRANCH   5   8
ENDBRANCH   4   5
ENDBRANCH   1   4
BRANCH   1  28
HETATM   28  O9  UNL     1     -10.503  -5.904 -23.131  1.00  0.00    -0.287 OA
BRANCH  28  29
HETATM   29  C9  UNL     1      -9.147  -6.369 -23.169  1.00  0.00     0.216 C 
BRANCH  29  30
HETATM   30  C10 UNL     1      -8.500  -5.848 -24.381  1.00  0.00     0.180 C 
HETATM   31  O10 UNL     1      -8.376  -6.903 -25.328  1.00  0.00    -0.353 OA
HETATM   32  C11 UNL     1      -7.815  -6.178 -26.401  1.00  0.00     0.262 C 
HETATM   33  C17 UNL     1      -9.003  -5.192 -26.574  1.00  0.00     0.198 C 
HETATM   34  C18 UNL     1      -9.177  -4.755 -25.091  1.00  0.00     0.182 C 
BRANCH  32  35
HETATM   35  N3  UNL     1      -7.636  -7.037 -27.506  1.00  0.00    -0.297 N 
HETATM   36  C12 UNL     1      -7.793  -6.759 -28.844  1.00  0.00     0.188 A 
HETATM   37  N4  UNL     1      -7.521  -7.837 -29.582  1.00  0.00    -0.346 N 
HETATM   38  C13 UNL     1      -7.172  -8.827 -28.709  1.00  0.00     0.119 A 
ATOM     39  H4  UNL     1      -7.565  -7.907 -30.598  1.00  0.00     0.167 HD
HETATM   40  C14 UNL     1      -6.812 -10.126 -28.922  1.00  0.00     0.148 A 
HETATM   41  C16 UNL     1      -7.255  -8.309 -27.426  1.00  0.00     0.142 A 
HETATM   42  N5  UNL     1      -6.691 -10.649 -30.241  1.00  0.00    -0.080 NA
HETATM   43  N6  UNL     1      -6.544 -10.925 -27.876  1.00  0.00    -0.339 N 
HETATM   44  C15 UNL     1      -6.627 -10.454 -26.628  1.00  0.00     0.183 A 
ATOM     45  H6  UNL     1      -6.276 -11.896 -28.035  1.00  0.00     0.167 HD
HETATM   46  N7  UNL     1      -6.980  -9.149 -26.420  1.00  0.00    -0.336 N 
ATOM     47  H7  UNL     1      -7.036  -8.803 -25.462  1.00  0.00     0.168 HD
ENDBRANCH  32  35
BRANCH  33  48
HETATM   48  O11 UNL     1      -8.763  -4.180 -27.437  1.00  0.00    -0.388 OA
ATOM     49  H11 UNL     1      -9.509  -3.612 -27.589  1.00  0.00     0.210 HD
ENDBRANCH  33  48
BRANCH  34  50
HETATM   50  O12 UNL     1      -8.404  -3.559 -24.970  1.00  0.00    -0.390 OA
ATOM     51  H12 UNL     1      -8.740  -2.905 -25.571  1.00  0.00     0.210 HD
ENDBRANCH  34  50
ENDBRANCH  29  30
ENDBRANCH  28  29
ENDBRANCH   1  28
TORSDOF 15
ENDMDL
