MODEL 2
REMARK VINA RESULT: -10.055513200      3.015      4.181
REMARK  15 active torsions:
REMARK  status: ('A' for Active; 'I' for Inactive)
REMARK    1  A    between atoms: C1_2  and  C2_4 
REMARK    2  A    between atoms: N2_8  and  C6_9 
REMARK    3  A    between atoms: C7_11  and  C8_12 
REMARK    4  A    between atoms: C8_12  and  O3_13 
REMARK    5  A    between atoms: O3_13  and  P1_14 
REMARK    6  A    between atoms: P1_14  and  O6_17 
REMARK    7  A    between atoms: O6_17  and  P2_18 
REMARK    8  A    between atoms: P2_18  and  O9_21 
REMARK    9  A    between atoms: O9_21  and  C9_22 
REMARK   10  A    between atoms: C9_22  and  C10_23 
REMARK   11  A    between atoms: C11_25  and  N3_26 
REMARK   12  A    between atoms: C17_39  and  O11_40 
REMARK   13  A    between atoms: C18_42  and  O12_43 
REMARK   14  A    between atoms: C19_45  and  O13_46 
REMARK   15  A    between atoms: C20_48  and  O14_49 
ROOT
HETATM    1  P2  UNL     1     -11.253  -7.119 -22.179  1.00  0.00     0.417 P 
HETATM    2  O7  UNL     1     -12.349  -7.797 -22.946  1.00  0.00    -0.624 OA
HETATM    3  O8  UNL     1     -10.695  -5.826 -23.216  1.00  0.00    -0.624 OA
ENDROOT
BRANCH   1   4
HETATM    4  O6  UNL     1     -11.712  -6.518 -20.755  1.00  0.00    -0.180 OA
BRANCH   4   5
HETATM    5  P1  UNL     1     -10.991  -5.127 -20.227  1.00  0.00     0.417 P 
HETATM    6  O4  UNL     1     -11.372  -3.915 -20.963  1.00  0.00    -0.624 OA
HETATM    7  O5  UNL     1      -9.241  -5.297 -20.585  1.00  0.00    -0.624 OA
BRANCH   5   8
HETATM    8  O3  UNL     1     -11.046  -5.017 -18.593  1.00  0.00    -0.287 OA
BRANCH   8   9
HETATM    9  C8  UNL     1     -12.348  -5.130 -18.057  1.00  0.00     0.216 C 
BRANCH   9  10
HETATM   10  C7  UNL     1     -12.128  -4.479 -16.657  1.00  0.00     0.180 C 
HETATM   11  O2  UNL     1     -13.349  -4.298 -16.056  1.00  0.00    -0.353 OA
HETATM   12  C6  UNL     1     -13.331  -4.741 -14.753  1.00  0.00     0.259 C 
HETATM   13  C20 UNL     1     -11.841  -4.763 -14.395  1.00  0.00     0.198 C 
HETATM   14  C19 UNL     1     -11.270  -5.261 -15.757  1.00  0.00     0.182 C 
BRANCH  12  15
HETATM   15  N2  UNL     1     -13.755  -6.155 -14.828  1.00  0.00    -0.336 N 
HETATM   16  C5  UNL     1     -13.336  -7.061 -13.943  1.00  0.00     0.093 A 
HETATM   17  C4  UNL     1     -13.664  -8.405 -14.119  1.00  0.00     0.018 A 
HETATM   18  C3  UNL     1     -14.409  -8.787 -15.196  1.00  0.00     0.019 A 
HETATM   19  C2  UNL     1     -14.820  -7.829 -16.086  1.00  0.00     0.044 A 
HETATM   20  C21 UNL     1     -14.486  -6.507 -15.893  1.00  0.00     0.110 A 
BRANCH  19  21
HETATM   21  C1  UNL     1     -15.574  -8.191 -17.272  1.00  0.00     0.266 C 
HETATM   22  N1  UNL     1     -16.954  -8.480 -17.174  1.00  0.00    -0.057 NA
HETATM   23  O1  UNL     1     -15.046  -8.270 -18.433  1.00  0.00    -0.271 OA
ENDBRANCH  19  21
ENDBRANCH  12  15
BRANCH  13  24
HETATM   24  O14 UNL     1     -11.370  -3.459 -14.255  1.00  0.00    -0.388 OA
ATOM     25  H14 UNL     1     -12.103  -2.862 -14.153  1.00  0.00     0.210 HD
ENDBRANCH  13  24
BRANCH  14  26
HETATM   26  O13 UNL     1      -9.902  -4.974 -15.840  1.00  0.00    -0.390 OA
ATOM     27  H13 UNL     1      -9.589  -4.318 -15.228  1.00  0.00     0.210 HD
ENDBRANCH  14  26
ENDBRANCH   9  10
ENDBRANCH   8   9
ENDBRANCH   5   8
ENDBRANCH   4   5
ENDBRANCH   1   4
BRANCH   1  28
HETATM   28  O9  UNL     1      -9.912  -8.211 -22.217  1.00  0.00    -0.287 OA
BRANCH  28  29
HETATM   29  C9  UNL     1     -10.039  -8.807 -23.515  1.00  0.00     0.216 C 
BRANCH  29  30
HETATM   30  C10 UNL     1      -8.775  -9.472 -23.858  1.00  0.00     0.180 C 
HETATM   31  O10 UNL     1      -8.057  -8.654 -24.775  1.00  0.00    -0.353 OA
HETATM   32  C11 UNL     1      -6.886  -9.429 -24.901  1.00  0.00     0.262 C 
HETATM   33  C17 UNL     1      -6.478  -9.360 -23.404  1.00  0.00     0.198 C 
HETATM   34  C18 UNL     1      -7.839  -9.752 -22.761  1.00  0.00     0.182 C 
BRANCH  32  35
HETATM   35  N3  UNL     1      -5.977  -8.773 -25.759  1.00  0.00    -0.297 N 
HETATM   36  C12 UNL     1      -4.609  -8.675 -25.648  1.00  0.00     0.188 A 
HETATM   37  N4  UNL     1      -4.105  -7.978 -26.667  1.00  0.00    -0.346 N 
HETATM   38  C13 UNL     1      -5.162  -7.627 -27.459  1.00  0.00     0.119 A 
ATOM     39  H4  UNL     1      -3.124  -7.751 -26.825  1.00  0.00     0.167 HD
HETATM   40  C14 UNL     1      -5.217  -6.906 -28.616  1.00  0.00     0.148 A 
HETATM   41  C16 UNL     1      -6.314  -8.129 -26.873  1.00  0.00     0.142 A 
HETATM   42  N5  UNL     1      -4.031  -6.422 -29.237  1.00  0.00    -0.080 NA
HETATM   43  N6  UNL     1      -6.404  -6.664 -29.195  1.00  0.00    -0.339 N 
HETATM   44  C15 UNL     1      -7.531  -7.125 -28.646  1.00  0.00     0.183 A 
ATOM     45  H6  UNL     1      -6.445  -6.124 -30.060  1.00  0.00     0.167 HD
HETATM   46  N7  UNL     1      -7.470  -7.855 -27.491  1.00  0.00    -0.336 N 
ATOM     47  H7  UNL     1      -8.338  -8.203 -27.084  1.00  0.00     0.168 HD
ENDBRANCH  32  35
BRANCH  33  48
HETATM   48  O11 UNL     1      -5.444 -10.165 -23.072  1.00  0.00    -0.388 OA
ATOM     49  H11 UNL     1      -5.433 -10.430 -22.160  1.00  0.00     0.210 HD
ENDBRANCH  33  48
BRANCH  34  50
HETATM   50  O12 UNL     1      -7.754 -11.164 -22.557  1.00  0.00    -0.390 OA
ATOM     51  H12 UNL     1      -6.953 -11.367 -22.089  1.00  0.00     0.210 HD
ENDBRANCH  34  50
ENDBRANCH  29  30
ENDBRANCH  28  29
ENDBRANCH   1  28
TORSDOF 15
ENDMDL
