MODEL 15
REMARK VINA RESULT: -9.173297838      3.435     10.545
REMARK  15 active torsions:
REMARK  status: ('A' for Active; 'I' for Inactive)
REMARK    1  A    between atoms: C1_2  and  C2_4 
REMARK    2  A    between atoms: N2_8  and  C6_9 
REMARK    3  A    between atoms: C7_11  and  C8_12 
REMARK    4  A    between atoms: C8_12  and  O3_13 
REMARK    5  A    between atoms: O3_13  and  P1_14 
REMARK    6  A    between atoms: P1_14  and  O6_17 
REMARK    7  A    between atoms: O6_17  and  P2_18 
REMARK    8  A    between atoms: P2_18  and  O9_21 
REMARK    9  A    between atoms: O9_21  and  C9_22 
REMARK   10  A    between atoms: C9_22  and  C10_23 
REMARK   11  A    between atoms: C11_25  and  N3_26 
REMARK   12  A    between atoms: C17_39  and  O11_40 
REMARK   13  A    between atoms: C18_42  and  O12_43 
REMARK   14  A    between atoms: C19_45  and  O13_46 
REMARK   15  A    between atoms: C20_48  and  O14_49 
ROOT
HETATM    1  P2  UNL     1     -10.595  -5.108 -20.394  1.00  0.00     0.417 P 
HETATM    2  O7  UNL     1      -9.880  -4.510 -19.221  1.00  0.00    -0.624 OA
HETATM    3  O8  UNL     1     -11.525  -3.797 -21.086  1.00  0.00    -0.624 OA
ENDROOT
BRANCH   1   4
HETATM    4  O6  UNL     1      -9.622  -5.738 -21.515  1.00  0.00    -0.180 OA
BRANCH   4   5
HETATM    5  P1  UNL     1     -10.273  -6.790 -22.612  1.00  0.00     0.417 P 
HETATM    6  O4  UNL     1     -11.685  -6.549 -22.937  1.00  0.00    -0.624 OA
HETATM    7  O5  UNL     1     -10.299  -8.398 -21.816  1.00  0.00    -0.624 OA
BRANCH   5   8
HETATM    8  O3  UNL     1      -9.272  -7.004 -23.891  1.00  0.00    -0.287 OA
BRANCH   8   9
HETATM    9  C8  UNL     1      -7.927  -6.664 -23.627  1.00  0.00     0.216 C 
BRANCH   9  10
HETATM   10  C7  UNL     1      -7.301  -8.088 -23.506  1.00  0.00     0.180 C 
HETATM   11  O2  UNL     1      -7.813  -8.883 -24.501  1.00  0.00    -0.353 OA
HETATM   12  C6  UNL     1      -6.815  -9.580 -25.142  1.00  0.00     0.259 C 
HETATM   13  C20 UNL     1      -5.653  -9.556 -24.143  1.00  0.00     0.198 C 
HETATM   14  C19 UNL     1      -5.835  -8.111 -23.591  1.00  0.00     0.182 C 
BRANCH  12  15
HETATM   15  N2  UNL     1      -6.406  -8.710 -26.265  1.00  0.00    -0.336 N 
HETATM   16  C5  UNL     1      -5.123  -8.448 -26.519  1.00  0.00     0.093 A 
HETATM   17  C4  UNL     1      -4.786  -7.529 -27.513  1.00  0.00     0.018 A 
HETATM   18  C3  UNL     1      -5.772  -6.901 -28.218  1.00  0.00     0.019 A 
HETATM   19  C2  UNL     1      -7.078  -7.192 -27.928  1.00  0.00     0.044 A 
HETATM   20  C21 UNL     1      -7.389  -8.104 -26.943  1.00  0.00     0.110 A 
BRANCH  19  21
HETATM   21  C1  UNL     1      -8.161  -6.516 -28.617  1.00  0.00     0.266 C 
HETATM   22  N1  UNL     1      -8.861  -5.467 -27.979  1.00  0.00    -0.057 NA
HETATM   23  O1  UNL     1      -8.532  -6.825 -29.800  1.00  0.00    -0.271 OA
ENDBRANCH  19  21
ENDBRANCH  12  15
BRANCH  13  24
HETATM   24  O14 UNL     1      -5.938 -10.397 -23.069  1.00  0.00    -0.388 OA
ATOM     25  H14 UNL     1      -5.711  -9.965 -22.253  1.00  0.00     0.210 HD
ENDBRANCH  13  24
BRANCH  14  26
HETATM   26  O13 UNL     1      -5.166  -7.973 -22.369  1.00  0.00    -0.390 OA
ATOM     27  H13 UNL     1      -4.488  -7.308 -22.352  1.00  0.00     0.210 HD
ENDBRANCH  14  26
ENDBRANCH   9  10
ENDBRANCH   8   9
ENDBRANCH   5   8
ENDBRANCH   4   5
ENDBRANCH   1   4
BRANCH   1  28
HETATM   28  O9  UNL     1     -11.835  -6.111 -19.725  1.00  0.00    -0.287 OA
BRANCH  28  29
HETATM   29  C9  UNL     1     -12.433  -5.248 -18.748  1.00  0.00     0.216 C 
BRANCH  29  30
HETATM   30  C10 UNL     1     -13.284  -6.052 -17.861  1.00  0.00     0.180 C 
HETATM   31  O10 UNL     1     -12.808  -5.923 -16.525  1.00  0.00    -0.353 OA
HETATM   32  C11 UNL     1     -13.787  -6.693 -15.862  1.00  0.00     0.262 C 
HETATM   33  C17 UNL     1     -15.000  -5.818 -16.282  1.00  0.00     0.198 C 
HETATM   34  C18 UNL     1     -14.712  -5.716 -17.807  1.00  0.00     0.182 C 
BRANCH  32  35
HETATM   35  N3  UNL     1     -13.538  -6.674 -14.473  1.00  0.00    -0.297 N 
HETATM   36  C12 UNL     1     -13.298  -5.592 -13.658  1.00  0.00     0.188 A 
HETATM   37  N4  UNL     1     -13.118  -5.986 -12.396  1.00  0.00    -0.346 N 
HETATM   38  C13 UNL     1     -13.254  -7.345 -12.391  1.00  0.00     0.119 A 
ATOM     39  H4  UNL     1     -12.918  -5.390 -11.594  1.00  0.00     0.167 HD
HETATM   40  C14 UNL     1     -13.158  -8.253 -11.377  1.00  0.00     0.148 A 
HETATM   41  C16 UNL     1     -13.511  -7.750 -13.692  1.00  0.00     0.142 A 
HETATM   42  N5  UNL     1     -12.931  -7.835 -10.035  1.00  0.00    -0.080 NA
HETATM   43  N6  UNL     1     -13.301  -9.563 -11.637  1.00  0.00    -0.339 N 
HETATM   44  C15 UNL     1     -13.538  -9.981 -12.883  1.00  0.00     0.183 A 
ATOM     45  H6  UNL     1     -13.228 -10.241 -10.879  1.00  0.00     0.167 HD
HETATM   46  N7  UNL     1     -13.641  -9.067 -13.896  1.00  0.00    -0.336 N 
ATOM     47  H7  UNL     1     -13.825  -9.401 -14.842  1.00  0.00     0.168 HD
ENDBRANCH  32  35
BRANCH  33  48
HETATM   48  O11 UNL     1     -16.202  -6.349 -15.968  1.00  0.00    -0.388 OA
ATOM     49  H11 UNL     1     -16.573  -6.903 -16.645  1.00  0.00     0.210 HD
ENDBRANCH  33  48
BRANCH  34  50
HETATM   50  O12 UNL     1     -15.472  -6.775 -18.394  1.00  0.00    -0.390 OA
ATOM     51  H12 UNL     1     -15.162  -6.934 -19.277  1.00  0.00     0.210 HD
ENDBRANCH  34  50
ENDBRANCH  29  30
ENDBRANCH  28  29
ENDBRANCH   1  28
TORSDOF 15
ENDMDL
