MODEL 2
REMARK VINA RESULT: -9.514376525      2.661      4.374
REMARK  14 active torsions:
REMARK  status: ('A' for Active; 'I' for Inactive)
REMARK    1  A    between atoms: O1_2  and  C2_3 
REMARK    2  A    between atoms: C5_6  and  S1_7 
REMARK    3  A    between atoms: S1_7  and  N1_10 
REMARK    4  A    between atoms: N1_10  and  C6_11 
REMARK    5  A    between atoms: N1_10  and  C10_15 
REMARK    6  A    between atoms: C6_11  and  C7_12 
REMARK    7  A    between atoms: C10_15  and  C11_16 
REMARK    8  A    between atoms: C11_16  and  O4_17 
REMARK    9  A    between atoms: C11_16  and  C12_19 
REMARK   10  A    between atoms: C12_19  and  C13_20 
REMARK   11  A    between atoms: C12_19  and  N2_27 
REMARK   12  A    between atoms: C13_20  and  C14_21 
REMARK       I    between atoms: N2_27  and  C20_29 
REMARK   13  A    between atoms: C20_29  and  O6_31 
REMARK   14  A    between atoms: O6_31  and  C21_32 
ROOT
HETATM    1  C12 UNL     1      14.716  22.690  17.157  1.00  0.00     0.124 C 
ENDROOT
BRANCH   1   2
HETATM    2  C11 UNL     1      15.244  23.750  18.090  1.00  0.00     0.180 C 
BRANCH   2   3
HETATM    3  C10 UNL     1      16.304  24.611  17.455  1.00  0.00     0.110 C 
BRANCH   3   4
HETATM    4  N1  UNL     1      17.612  24.095  17.465  1.00  0.00    -0.283 N 
BRANCH   4   5
HETATM    5  S1  UNL     1      18.294  23.607  16.006  1.00  0.00     0.264 S 
HETATM    6  O2  UNL     1      17.283  23.235  14.959  1.00  0.00    -0.200 OA
HETATM    7  O3  UNL     1      19.189  22.402  16.259  1.00  0.00    -0.200 OA
BRANCH   5   8
HETATM    8  C5  UNL     1      19.343  24.858  15.385  1.00  0.00     0.080 A 
HETATM    9  C4  UNL     1      18.847  26.126  15.067  1.00  0.00     0.028 A 
HETATM   10  C3  UNL     1      19.650  27.130  14.577  1.00  0.00     0.038 A 
HETATM   11  C2  UNL     1      20.995  26.923  14.376  1.00  0.00     0.068 A 
HETATM   12  C28 UNL     1      21.503  25.669  14.687  1.00  0.00     0.038 A 
HETATM   13  C27 UNL     1      20.695  24.665  15.180  1.00  0.00     0.028 A 
BRANCH  11  14
HETATM   14  O1  UNL     1      21.842  27.906  13.883  1.00  0.00    -0.356 OA
HETATM   15  C1  UNL     1      22.820  28.501  14.706  1.00  0.00     0.210 C 
ENDBRANCH  11  14
ENDBRANCH   5   8
ENDBRANCH   4   5
BRANCH   4  16
HETATM   16  C6  UNL     1      18.110  23.425  18.585  1.00  0.00     0.144 C 
BRANCH  16  17
HETATM   17  C7  UNL     1      18.988  24.389  19.399  1.00  0.00    -0.004 C 
HETATM   18  C8  UNL     1      20.421  24.019  19.117  1.00  0.00     0.011 C 
HETATM   19  C9  UNL     1      18.709  24.147  20.880  1.00  0.00     0.011 C 
ENDBRANCH  16  17
ENDBRANCH   4  16
ENDBRANCH   3   4
ENDBRANCH   2   3
BRANCH   2  20
HETATM   20  O4  UNL     1      14.136  24.469  18.528  1.00  0.00    -0.388 OA
ATOM     21  H4  UNL     1      14.253  24.856  19.387  1.00  0.00     0.210 HD
ENDBRANCH   2  20
ENDBRANCH   1   2
BRANCH   1  22
HETATM   22  C13 UNL     1      14.072  23.259  15.922  1.00  0.00     0.066 C 
BRANCH  22  23
HETATM   23  C14 UNL     1      13.569  22.109  15.127  1.00  0.00    -0.056 A 
HETATM   24  C15 UNL     1      14.493  21.308  14.489  1.00  0.00     0.007 A 
HETATM   25  C16 UNL     1      14.065  20.238  13.748  1.00  0.00     0.001 A 
HETATM   26  C17 UNL     1      12.713  19.966  13.641  1.00  0.00     0.000 A 
HETATM   27  C18 UNL     1      11.773  20.751  14.269  1.00  0.00     0.001 A 
HETATM   28  C19 UNL     1      12.225  21.821  15.010  1.00  0.00     0.007 A 
ENDBRANCH  22  23
ENDBRANCH   1  22
BRANCH   1  29
HETATM   29  N2  UNL     1      13.852  21.747  17.844  1.00  0.00    -0.329 N 
HETATM   30  C20 UNL     1      14.331  20.673  18.627  1.00  0.00     0.361 C 
HETATM   31  O5  UNL     1      15.586  20.523  18.739  1.00  0.00    -0.238 OA
ATOM     32  H2  UNL     1      12.842  21.866  17.756  1.00  0.00     0.165 HD
BRANCH  30  33
HETATM   33  O6  UNL     1      13.535  19.763  19.290  1.00  0.00    -0.298 OA
BRANCH  33  34
HETATM   34  C21 UNL     1      12.259  19.468  18.820  1.00  0.00     0.138 C 
HETATM   35  C22 UNL     1      11.726  18.268  19.615  1.00  0.00     0.060 C 
HETATM   36  C23 UNL     1      10.750  17.594  18.692  1.00  0.00     0.118 C 
HETATM   37  N3  UNL     1      11.130  16.232  18.390  1.00  0.00    -0.330 N 
HETATM   38  C25 UNL     1      10.870  18.273  17.347  1.00  0.00     0.159 C 
HETATM   39  C24 UNL     1      10.900  16.043  16.999  1.00  0.00     0.361 C 
ATOM     40  H3  UNL     1      11.493  15.541  19.046  1.00  0.00     0.165 HD
HETATM   41  O7  UNL     1      10.790  14.931  16.384  1.00  0.00    -0.238 OA
HETATM   42  O8  UNL     1      10.802  17.273  16.363  1.00  0.00    -0.296 OA
HETATM   43  C26 UNL     1      12.239  18.913  17.422  1.00  0.00     0.067 C 
ENDBRANCH  33  34
ENDBRANCH  30  33
ENDBRANCH   1  29
TORSDOF 14
ENDMDL
