MODEL 1
REMARK VINA RESULT: -9.530490787      0.000      0.000
REMARK  14 active torsions:
REMARK  status: ('A' for Active; 'I' for Inactive)
REMARK    1  A    between atoms: O1_2  and  C2_3 
REMARK    2  A    between atoms: C5_6  and  S1_7 
REMARK    3  A    between atoms: S1_7  and  N1_10 
REMARK    4  A    between atoms: N1_10  and  C6_11 
REMARK    5  A    between atoms: N1_10  and  C10_15 
REMARK    6  A    between atoms: C6_11  and  C7_12 
REMARK    7  A    between atoms: C10_15  and  C11_16 
REMARK    8  A    between atoms: C11_16  and  O4_17 
REMARK    9  A    between atoms: C11_16  and  C12_19 
REMARK   10  A    between atoms: C12_19  and  C13_20 
REMARK   11  A    between atoms: C12_19  and  N2_27 
REMARK   12  A    between atoms: C13_20  and  C14_21 
REMARK       I    between atoms: N2_27  and  C20_29 
REMARK   13  A    between atoms: C20_29  and  O6_31 
REMARK   14  A    between atoms: O6_31  and  C21_32 
ROOT
HETATM    1  C12 UNL     1      14.118  21.413  17.779  1.00  0.00     0.124 C 
ENDROOT
BRANCH   1   2
HETATM    2  C11 UNL     1      14.671  22.725  18.272  1.00  0.00     0.180 C 
BRANCH   2   3
HETATM    3  C10 UNL     1      16.148  22.663  18.562  1.00  0.00     0.110 C 
BRANCH   3   4
HETATM    4  N1  UNL     1      16.964  23.538  17.823  1.00  0.00    -0.283 N 
BRANCH   4   5
HETATM    5  S1  UNL     1      17.495  23.051  16.303  1.00  0.00     0.264 S 
HETATM    6  O2  UNL     1      16.382  22.732  15.346  1.00  0.00    -0.200 OA
HETATM    7  O3  UNL     1      18.365  21.811  16.459  1.00  0.00    -0.200 OA
BRANCH   5   8
HETATM    8  C5  UNL     1      18.529  24.275  15.608  1.00  0.00     0.080 A 
HETATM    9  C4  UNL     1      19.914  24.099  15.538  1.00  0.00     0.028 A 
HETATM   10  C3  UNL     1      20.752  25.046  14.997  1.00  0.00     0.038 A 
HETATM   11  C2  UNL     1      20.252  26.224  14.493  1.00  0.00     0.068 A 
HETATM   12  C28 UNL     1      18.879  26.415  14.555  1.00  0.00     0.038 A 
HETATM   13  C27 UNL     1      18.041  25.463  15.098  1.00  0.00     0.028 A 
BRANCH  11  14
HETATM   14  O1  UNL     1      21.060  27.208  13.938  1.00  0.00    -0.356 OA
HETATM   15  C1  UNL     1      21.575  28.256  14.729  1.00  0.00     0.210 C 
ENDBRANCH  11  14
ENDBRANCH   5   8
ENDBRANCH   4   5
BRANCH   4  16
HETATM   16  C6  UNL     1      17.813  24.442  18.468  1.00  0.00     0.144 C 
BRANCH  16  17
HETATM   17  C7  UNL     1      18.652  23.687  19.511  1.00  0.00    -0.004 C 
HETATM   18  C8  UNL     1      18.399  24.353  20.839  1.00  0.00     0.011 C 
HETATM   19  C9  UNL     1      20.124  23.867  19.154  1.00  0.00     0.011 C 
ENDBRANCH  16  17
ENDBRANCH   4  16
ENDBRANCH   3   4
ENDBRANCH   2   3
BRANCH   2  20
HETATM   20  O4  UNL     1      14.336  23.673  17.310  1.00  0.00    -0.388 OA
ATOM     21  H4  UNL     1      13.420  23.651  17.062  1.00  0.00     0.210 HD
ENDBRANCH   2  20
ENDBRANCH   1   2
BRANCH   1  22
HETATM   22  C13 UNL     1      15.042  20.251  18.028  1.00  0.00     0.066 C 
BRANCH  22  23
HETATM   23  C14 UNL     1      14.301  19.282  18.877  1.00  0.00    -0.056 A 
HETATM   24  C15 UNL     1      14.176  17.986  18.423  1.00  0.00     0.007 A 
HETATM   25  C16 UNL     1      13.501  17.065  19.180  1.00  0.00     0.001 A 
HETATM   26  C17 UNL     1      12.948  17.437  20.392  1.00  0.00     0.000 A 
HETATM   27  C18 UNL     1      13.060  18.725  20.865  1.00  0.00     0.001 A 
HETATM   28  C19 UNL     1      13.744  19.634  20.089  1.00  0.00     0.007 A 
ENDBRANCH  22  23
ENDBRANCH   1  22
BRANCH   1  29
HETATM   29  N2  UNL     1      13.693  21.491  16.393  1.00  0.00    -0.329 N 
HETATM   30  C20 UNL     1      12.576  20.797  15.877  1.00  0.00     0.361 C 
HETATM   31  O5  UNL     1      11.905  20.065  16.666  1.00  0.00    -0.238 OA
ATOM     32  H2  UNL     1      14.231  22.080  15.756  1.00  0.00     0.165 HD
BRANCH  30  33
HETATM   33  O6  UNL     1      12.150  20.851  14.566  1.00  0.00    -0.298 OA
BRANCH  33  34
HETATM   34  C21 UNL     1      11.233  19.922  14.083  1.00  0.00     0.138 C 
HETATM   35  C22 UNL     1      11.805  19.316  12.794  1.00  0.00     0.060 C 
HETATM   36  C23 UNL     1      10.603  18.896  11.997  1.00  0.00     0.118 C 
HETATM   37  N3  UNL     1      10.527  19.572  10.720  1.00  0.00    -0.330 N 
HETATM   38  C25 UNL     1       9.384  19.423  12.720  1.00  0.00     0.159 C 
HETATM   39  C24 UNL     1       9.164  19.935  10.532  1.00  0.00     0.361 C 
ATOM     40  H3  UNL     1      11.299  19.754  10.080  1.00  0.00     0.165 HD
HETATM   41  O7  UNL     1       8.600  20.249   9.432  1.00  0.00    -0.238 OA
HETATM   42  O8  UNL     1       8.492  19.902  11.746  1.00  0.00    -0.296 OA
HETATM   43  C26 UNL     1       9.960  20.536  13.567  1.00  0.00     0.067 C 
ENDBRANCH  33  34
ENDBRANCH  30  33
ENDBRANCH   1  29
TORSDOF 14
ENDMDL
