MODEL 6
REMARK VINA RESULT: -9.146104131      4.082     11.832
REMARK  14 active torsions:
REMARK  status: ('A' for Active; 'I' for Inactive)
REMARK    1  A    between atoms: O1_2  and  C2_3 
REMARK    2  A    between atoms: C5_6  and  S1_7 
REMARK    3  A    between atoms: S1_7  and  N1_10 
REMARK    4  A    between atoms: N1_10  and  C6_11 
REMARK    5  A    between atoms: N1_10  and  C10_15 
REMARK    6  A    between atoms: C6_11  and  C7_12 
REMARK    7  A    between atoms: C10_15  and  C11_16 
REMARK    8  A    between atoms: C11_16  and  O4_17 
REMARK    9  A    between atoms: C11_16  and  C12_19 
REMARK   10  A    between atoms: C12_19  and  C13_20 
REMARK   11  A    between atoms: C12_19  and  N2_27 
REMARK   12  A    between atoms: C13_20  and  C14_21 
REMARK       I    between atoms: N2_27  and  C20_29 
REMARK   13  A    between atoms: C20_29  and  O6_31 
REMARK   14  A    between atoms: O6_31  and  C21_32 
ROOT
HETATM    1  C12 UNL     1      20.014  24.772  16.092  1.00  0.00     0.124 C 
ENDROOT
BRANCH   1   2
HETATM    2  C11 UNL     1      18.760  23.979  15.833  1.00  0.00     0.180 C 
BRANCH   2   3
HETATM    3  C10 UNL     1      17.805  24.000  16.997  1.00  0.00     0.110 C 
BRANCH   3   4
HETATM    4  N1  UNL     1      17.679  22.801  17.720  1.00  0.00    -0.283 N 
BRANCH   4   5
HETATM    5  S1  UNL     1      17.175  21.419  16.903  1.00  0.00     0.264 S 
HETATM    6  O2  UNL     1      18.235  20.360  16.793  1.00  0.00    -0.200 OA
HETATM    7  O3  UNL     1      16.738  21.808  15.498  1.00  0.00    -0.200 OA
BRANCH   5   8
HETATM    8  C5  UNL     1      15.759  20.748  17.674  1.00  0.00     0.080 A 
HETATM    9  C4  UNL     1      14.480  21.236  17.390  1.00  0.00     0.028 A 
HETATM   10  C3  UNL     1      13.348  20.727  17.982  1.00  0.00     0.038 A 
HETATM   11  C2  UNL     1      13.430  19.700  18.895  1.00  0.00     0.068 A 
HETATM   12  C28 UNL     1      14.693  19.205  19.189  1.00  0.00     0.038 A 
HETATM   13  C27 UNL     1      15.826  19.717  18.592  1.00  0.00     0.028 A 
BRANCH  11  14
HETATM   14  O1  UNL     1      12.315  19.156  19.518  1.00  0.00    -0.356 OA
HETATM   15  C1  UNL     1      12.450  18.305  20.633  1.00  0.00     0.210 C 
ENDBRANCH  11  14
ENDBRANCH   5   8
ENDBRANCH   4   5
BRANCH   4  16
HETATM   16  C6  UNL     1      17.359  22.814  19.081  1.00  0.00     0.144 C 
BRANCH  16  17
HETATM   17  C7  UNL     1      18.652  22.695  19.903  1.00  0.00    -0.004 C 
HETATM   18  C8  UNL     1      18.623  21.344  20.570  1.00  0.00     0.011 C 
HETATM   19  C9  UNL     1      18.623  23.769  20.986  1.00  0.00     0.011 C 
ENDBRANCH  16  17
ENDBRANCH   4  16
ENDBRANCH   3   4
ENDBRANCH   2   3
BRANCH   2  20
HETATM   20  O4  UNL     1      18.213  24.489  14.660  1.00  0.00    -0.388 OA
ATOM     21  H4  UNL     1      18.852  24.619  13.970  1.00  0.00     0.210 HD
ENDBRANCH   2  20
ENDBRANCH   1   2
BRANCH   1  22
HETATM   22  C13 UNL     1      20.972  24.759  14.931  1.00  0.00     0.066 C 
BRANCH  22  23
HETATM   23  C14 UNL     1      21.605  26.102  14.875  1.00  0.00    -0.056 A 
HETATM   24  C15 UNL     1      20.930  27.110  14.217  1.00  0.00     0.007 A 
HETATM   25  C16 UNL     1      21.483  28.361  14.147  1.00  0.00     0.001 A 
HETATM   26  C17 UNL     1      22.711  28.610  14.733  1.00  0.00     0.000 A 
HETATM   27  C18 UNL     1      23.402  27.621  15.395  1.00  0.00     0.001 A 
HETATM   28  C19 UNL     1      22.827  26.370  15.455  1.00  0.00     0.007 A 
ENDBRANCH  22  23
ENDBRANCH   1  22
BRANCH   1  29
HETATM   29  N2  UNL     1      20.653  24.383  17.336  1.00  0.00    -0.329 N 
HETATM   30  C20 UNL     1      20.916  25.281  18.395  1.00  0.00     0.361 C 
HETATM   31  O5  UNL     1      20.575  26.495  18.253  1.00  0.00    -0.238 OA
ATOM     32  H2  UNL     1      20.928  23.407  17.453  1.00  0.00     0.165 HD
BRANCH  30  33
HETATM   33  O6  UNL     1      21.521  24.941  19.587  1.00  0.00    -0.298 OA
BRANCH  33  34
HETATM   34  C21 UNL     1      22.413  25.816  20.201  1.00  0.00     0.138 C 
HETATM   35  C22 UNL     1      23.785  25.640  19.535  1.00  0.00     0.060 C 
HETATM   36  C23 UNL     1      24.780  26.031  20.591  1.00  0.00     0.118 C 
HETATM   37  N3  UNL     1      25.675  24.947  20.931  1.00  0.00    -0.330 N 
HETATM   38  C25 UNL     1      24.009  26.235  21.874  1.00  0.00     0.159 C 
HETATM   39  C24 UNL     1      25.812  24.960  22.347  1.00  0.00     0.361 C 
ATOM     40  H3  UNL     1      26.121  24.298  20.282  1.00  0.00     0.165 HD
HETATM   41  O7  UNL     1      26.733  24.405  23.033  1.00  0.00    -0.238 OA
HETATM   42  O8  UNL     1      24.775  25.687  22.917  1.00  0.00    -0.296 OA
HETATM   43  C26 UNL     1      22.739  25.452  21.623  1.00  0.00     0.067 C 
ENDBRANCH  33  34
ENDBRANCH  30  33
ENDBRANCH   1  29
TORSDOF 14
ENDMDL
