MODEL 3
REMARK VINA RESULT: -9.390569606      2.166      6.399
REMARK  14 active torsions:
REMARK  status: ('A' for Active; 'I' for Inactive)
REMARK    1  A    between atoms: O1_2  and  C2_3 
REMARK    2  A    between atoms: C5_6  and  S1_7 
REMARK    3  A    between atoms: S1_7  and  N1_10 
REMARK    4  A    between atoms: N1_10  and  C6_11 
REMARK    5  A    between atoms: N1_10  and  C10_15 
REMARK    6  A    between atoms: C6_11  and  C7_12 
REMARK    7  A    between atoms: C10_15  and  C11_16 
REMARK    8  A    between atoms: C11_16  and  O4_17 
REMARK    9  A    between atoms: C11_16  and  C12_19 
REMARK   10  A    between atoms: C12_19  and  C13_20 
REMARK   11  A    between atoms: C12_19  and  N2_27 
REMARK   12  A    between atoms: C13_20  and  C14_21 
REMARK       I    between atoms: N2_27  and  C20_29 
REMARK   13  A    between atoms: C20_29  and  O6_31 
REMARK   14  A    between atoms: O6_31  and  C21_32 
ROOT
HETATM    1  C12 UNL     1      16.856  24.397  16.740  1.00  0.00     0.124 C 
ENDROOT
BRANCH   1   2
HETATM    2  C11 UNL     1      16.523  24.270  18.204  1.00  0.00     0.180 C 
BRANCH   2   3
HETATM    3  C10 UNL     1      17.730  24.417  19.092  1.00  0.00     0.110 C 
BRANCH   3   4
HETATM    4  N1  UNL     1      18.687  23.390  19.017  1.00  0.00    -0.283 N 
BRANCH   4   5
HETATM    5  S1  UNL     1      18.385  21.949  19.833  1.00  0.00     0.264 S 
HETATM    6  O2  UNL     1      18.292  22.106  21.324  1.00  0.00    -0.200 OA
HETATM    7  O3  UNL     1      19.503  20.964  19.522  1.00  0.00    -0.200 OA
BRANCH   5   8
HETATM    8  C5  UNL     1      16.920  21.214  19.231  1.00  0.00     0.080 A 
HETATM    9  C4  UNL     1      16.954  20.268  18.201  1.00  0.00     0.028 A 
HETATM   10  C3  UNL     1      15.816  19.673  17.708  1.00  0.00     0.038 A 
HETATM   11  C2  UNL     1      14.578  19.990  18.216  1.00  0.00     0.068 A 
HETATM   12  C28 UNL     1      14.526  20.927  19.238  1.00  0.00     0.038 A 
HETATM   13  C27 UNL     1      15.670  21.521  19.732  1.00  0.00     0.028 A 
BRANCH  11  14
HETATM   14  O1  UNL     1      13.403  19.416  17.749  1.00  0.00    -0.356 OA
HETATM   15  C1  UNL     1      12.224  19.444  18.522  1.00  0.00     0.210 C 
ENDBRANCH  11  14
ENDBRANCH   5   8
ENDBRANCH   4   5
BRANCH   4  16
HETATM   16  C6  UNL     1      20.043  23.683  18.850  1.00  0.00     0.144 C 
BRANCH  16  17
HETATM   17  C7  UNL     1      20.306  25.124  19.317  1.00  0.00    -0.004 C 
HETATM   18  C8  UNL     1      21.320  25.711  18.370  1.00  0.00     0.011 C 
HETATM   19  C9  UNL     1      20.926  25.063  20.710  1.00  0.00     0.011 C 
ENDBRANCH  16  17
ENDBRANCH   4  16
ENDBRANCH   3   4
ENDBRANCH   2   3
BRANCH   2  20
HETATM   20  O4  UNL     1      15.530  25.210  18.460  1.00  0.00    -0.388 OA
ATOM     21  H4  UNL     1      15.684  26.047  18.037  1.00  0.00     0.210 HD
ENDBRANCH   2  20
ENDBRANCH   1   2
BRANCH   1  22
HETATM   22  C13 UNL     1      17.300  25.782  16.354  1.00  0.00     0.066 C 
BRANCH  22  23
HETATM   23  C14 UNL     1      18.618  25.644  15.682  1.00  0.00    -0.056 A 
HETATM   24  C15 UNL     1      19.210  24.398  15.666  1.00  0.00     0.007 A 
HETATM   25  C16 UNL     1      20.425  24.233  15.054  1.00  0.00     0.001 A 
HETATM   26  C17 UNL     1      21.052  25.312  14.458  1.00  0.00     0.000 A 
HETATM   27  C18 UNL     1      20.481  26.564  14.462  1.00  0.00     0.001 A 
HETATM   28  C19 UNL     1      19.258  26.707  15.081  1.00  0.00     0.007 A 
ENDBRANCH  22  23
ENDBRANCH   1  22
BRANCH   1  29
HETATM   29  N2  UNL     1      15.780  23.909  15.896  1.00  0.00    -0.329 N 
HETATM   30  C20 UNL     1      15.829  22.682  15.198  1.00  0.00     0.361 C 
HETATM   31  O5  UNL     1      16.869  21.964  15.314  1.00  0.00    -0.238 OA
ATOM     32  H2  UNL     1      14.942  24.484  15.802  1.00  0.00     0.165 HD
BRANCH  30  33
HETATM   33  O6  UNL     1      14.824  22.192  14.390  1.00  0.00    -0.298 OA
BRANCH  33  34
HETATM   34  C21 UNL     1      13.792  21.430  14.930  1.00  0.00     0.138 C 
HETATM   35  C22 UNL     1      13.523  20.254  13.981  1.00  0.00     0.060 C 
HETATM   36  C23 UNL     1      12.079  19.902  14.201  1.00  0.00     0.118 C 
HETATM   37  N3  UNL     1      11.290  20.041  12.997  1.00  0.00    -0.330 N 
HETATM   38  C25 UNL     1      11.495  20.965  15.101  1.00  0.00     0.159 C 
HETATM   39  C24 UNL     1      10.065  20.654  13.381  1.00  0.00     0.361 C 
ATOM     40  H3  UNL     1      11.558  19.755  12.056  1.00  0.00     0.165 HD
HETATM   41  O7  UNL     1       8.974  20.669  12.720  1.00  0.00    -0.238 OA
HETATM   42  O8  UNL     1      10.207  21.261  14.622  1.00  0.00    -0.296 OA
HETATM   43  C26 UNL     1      12.456  22.119  14.914  1.00  0.00     0.067 C 
ENDBRANCH  33  34
ENDBRANCH  30  33
ENDBRANCH   1  29
TORSDOF 14
ENDMDL
