MODEL 5
REMARK VINA RESULT: -9.178527874      2.966      4.840
REMARK  14 active torsions:
REMARK  status: ('A' for Active; 'I' for Inactive)
REMARK    1  A    between atoms: O1_2  and  C2_3 
REMARK    2  A    between atoms: C5_6  and  S1_7 
REMARK    3  A    between atoms: S1_7  and  N1_10 
REMARK    4  A    between atoms: N1_10  and  C6_11 
REMARK    5  A    between atoms: N1_10  and  C10_15 
REMARK    6  A    between atoms: C6_11  and  C7_12 
REMARK    7  A    between atoms: C10_15  and  C11_16 
REMARK    8  A    between atoms: C11_16  and  O4_17 
REMARK    9  A    between atoms: C11_16  and  C12_19 
REMARK   10  A    between atoms: C12_19  and  C13_20 
REMARK   11  A    between atoms: C12_19  and  N2_27 
REMARK   12  A    between atoms: C13_20  and  C14_21 
REMARK       I    between atoms: N2_27  and  C20_29 
REMARK   13  A    between atoms: C20_29  and  O6_31 
REMARK   14  A    between atoms: O6_31  and  C21_32 
ROOT
HETATM    1  C12 UNL     1      15.526  23.047  17.137  1.00  0.00     0.124 C 
ENDROOT
BRANCH   1   2
HETATM    2  C11 UNL     1      15.822  24.082  18.191  1.00  0.00     0.180 C 
BRANCH   2   3
HETATM    3  C10 UNL     1      16.850  25.090  17.746  1.00  0.00     0.110 C 
BRANCH   3   4
HETATM    4  N1  UNL     1      18.180  24.639  17.694  1.00  0.00    -0.283 N 
BRANCH   4   5
HETATM    5  S1  UNL     1      18.920  24.487  16.190  1.00  0.00     0.264 S 
HETATM    6  O2  UNL     1      17.951  24.405  15.045  1.00  0.00    -0.200 OA
HETATM    7  O3  UNL     1      19.776  23.229  16.186  1.00  0.00    -0.200 OA
BRANCH   5   8
HETATM    8  C5  UNL     1      20.022  25.816  15.927  1.00  0.00     0.080 A 
HETATM    9  C4  UNL     1      20.723  25.948  14.724  1.00  0.00     0.028 A 
HETATM   10  C3  UNL     1      21.598  26.983  14.490  1.00  0.00     0.038 A 
HETATM   11  C2  UNL     1      21.821  27.947  15.445  1.00  0.00     0.068 A 
HETATM   12  C28 UNL     1      21.133  27.831  16.645  1.00  0.00     0.038 A 
HETATM   13  C27 UNL     1      20.256  26.792  16.876  1.00  0.00     0.028 A 
BRANCH  11  14
HETATM   14  O1  UNL     1      22.695  29.009  15.253  1.00  0.00    -0.356 OA
HETATM   15  C1  UNL     1      23.956  29.034  15.882  1.00  0.00     0.210 C 
ENDBRANCH  11  14
ENDBRANCH   5   8
ENDBRANCH   4   5
BRANCH   4  16
HETATM   16  C6  UNL     1      18.684  23.776  18.672  1.00  0.00     0.144 C 
BRANCH  16  17
HETATM   17  C7  UNL     1      19.502  24.590  19.687  1.00  0.00    -0.004 C 
HETATM   18  C8  UNL     1      20.955  24.300  19.409  1.00  0.00     0.011 C 
HETATM   19  C9  UNL     1      19.167  24.076  21.084  1.00  0.00     0.011 C 
ENDBRANCH  16  17
ENDBRANCH   4  16
ENDBRANCH   3   4
ENDBRANCH   2   3
BRANCH   2  20
HETATM   20  O4  UNL     1      14.599  24.652  18.530  1.00  0.00    -0.388 OA
ATOM     21  H4  UNL     1      14.683  25.476  18.996  1.00  0.00     0.210 HD
ENDBRANCH   2  20
ENDBRANCH   1   2
BRANCH   1  22
HETATM   22  C13 UNL     1      14.472  23.487  16.157  1.00  0.00     0.066 C 
BRANCH  22  23
HETATM   23  C14 UNL     1      14.272  22.365  15.203  1.00  0.00    -0.056 A 
HETATM   24  C15 UNL     1      13.085  21.666  15.263  1.00  0.00     0.007 A 
HETATM   25  C16 UNL     1      12.866  20.626  14.398  1.00  0.00     0.001 A 
HETATM   26  C17 UNL     1      13.833  20.282  13.471  1.00  0.00     0.000 A 
HETATM   27  C18 UNL     1      15.024  20.965  13.392  1.00  0.00     0.001 A 
HETATM   28  C19 UNL     1      15.224  22.008  14.270  1.00  0.00     0.007 A 
ENDBRANCH  22  23
ENDBRANCH   1  22
BRANCH   1  29
HETATM   29  N2  UNL     1      15.227  21.751  17.721  1.00  0.00    -0.329 N 
HETATM   30  C20 UNL     1      16.138  20.671  17.734  1.00  0.00     0.361 C 
HETATM   31  O5  UNL     1      17.280  20.840  17.210  1.00  0.00    -0.238 OA
ATOM     32  H2  UNL     1      14.309  21.613  18.144  1.00  0.00     0.165 HD
BRANCH  30  33
HETATM   33  O6  UNL     1      15.883  19.430  18.281  1.00  0.00    -0.298 OA
BRANCH  33  34
HETATM   34  C21 UNL     1      14.731  19.213  19.033  1.00  0.00     0.138 C 
HETATM   35  C22 UNL     1      14.474  17.701  19.081  1.00  0.00     0.060 C 
HETATM   36  C23 UNL     1      12.989  17.567  19.265  1.00  0.00     0.118 C 
HETATM   37  N3  UNL     1      12.362  16.851  18.176  1.00  0.00    -0.330 N 
HETATM   38  C25 UNL     1      12.398  18.951  19.130  1.00  0.00     0.159 C 
HETATM   39  C24 UNL     1      11.159  17.546  17.870  1.00  0.00     0.361 C 
ATOM     40  H3  UNL     1      12.714  16.010  17.717  1.00  0.00     0.165 HD
HETATM   41  O7  UNL     1      10.160  17.097  17.216  1.00  0.00    -0.238 OA
HETATM   42  O8  UNL     1      11.207  18.830  18.394  1.00  0.00    -0.296 OA
HETATM   43  C26 UNL     1      13.471  19.695  18.366  1.00  0.00     0.067 C 
ENDBRANCH  33  34
ENDBRANCH  30  33
ENDBRANCH   1  29
TORSDOF 14
ENDMDL
