MODEL 6
REMARK VINA RESULT: -7.912089097      6.283      7.595
REMARK  7 active torsions:
REMARK  status: ('A' for Active; 'I' for Inactive)
REMARK    1  A    between atoms: N1_1  and  S1_4 
REMARK    2  A    between atoms: S1_4  and  C1_7 
REMARK    3  A    between atoms: C3_9  and  N2_10 
REMARK       I    between atoms: N2_10  and  C4_12 
REMARK       I    between atoms: C4_12  and  N3_14 
REMARK    4  A    between atoms: N3_14  and  C5_16 
REMARK    5  A    between atoms: C8_19  and  C9_20 
REMARK    6  A    between atoms: C12_26  and  O4_27 
REMARK    7  A    between atoms: C13_29  and  N4_30 
ROOT
HETATM    1  C1  UNL     1      -3.094   4.197  12.839  1.00  0.00     0.084 A 
HETATM    2  C2  UNL     1      -3.603   4.730  11.689  1.00  0.00     0.057 A 
HETATM    3  C3  UNL     1      -4.226   3.962  10.773  1.00  0.00     0.073 A 
HETATM    4  C12 UNL     1      -4.339   2.579  11.032  1.00  0.00     0.126 A 
HETATM    5  C13 UNL     1      -3.840   1.996  12.174  1.00  0.00     0.139 A 
HETATM    6  C14 UNL     1      -3.208   2.833  13.089  1.00  0.00     0.064 A 
ENDROOT
BRANCH   3   7
HETATM    7  N2  UNL     1      -4.825   4.427   9.575  1.00  0.00    -0.306 N 
HETATM    8  C4  UNL     1      -5.615   5.573   9.391  1.00  0.00     0.325 C 
HETATM    9  O3  UNL     1      -5.826   6.314  10.408  1.00  0.00    -0.247 OA
HETATM   10  N3  UNL     1      -6.183   5.940   8.145  1.00  0.00    -0.309 N 
ATOM     11  H3  UNL     1      -6.032   5.320   7.350  1.00  0.00     0.170 HD
ATOM     12  H2  UNL     1      -4.662   3.859   8.744  1.00  0.00     0.171 HD
BRANCH  10  13
HETATM   13  C5  UNL     1      -6.941   7.108   7.936  1.00  0.00     0.036 A 
HETATM   14  C6  UNL     1      -6.437   8.214   7.291  1.00  0.00     0.030 A 
HETATM   15  C7  UNL     1      -7.216   9.360   7.168  1.00  0.00     0.018 A 
HETATM   16  C8  UNL     1      -8.484   9.398   7.684  1.00  0.00     0.048 A 
HETATM   17  C10 UNL     1      -9.018   8.300   8.337  1.00  0.00     0.018 A 
HETATM   18  C11 UNL     1      -8.232   7.191   8.442  1.00  0.00     0.030 A 
BRANCH  16  19
HETATM   19  C9  UNL     1      -9.403  10.585   7.607  1.00  0.00     0.417 C 
HETATM   20  F1  UNL     1      -9.012  11.566   8.491  1.00  0.00    -0.166 F 
HETATM   21  F2  UNL     1      -9.269  11.083   6.299  1.00  0.00    -0.166 F 
HETATM   22  F3  UNL     1     -10.694  10.151   7.846  1.00  0.00    -0.166 F 
ENDBRANCH  16  19
ENDBRANCH  10  13
ENDBRANCH   3   7
BRANCH   4  23
HETATM   23  O4  UNL     1      -4.973   1.811  10.103  1.00  0.00    -0.356 OA
ATOM     24  H4  UNL     1      -4.894   0.868  10.183  1.00  0.00     0.218 HD
ENDBRANCH   4  23
BRANCH   1  25
HETATM   25  S1  UNL     1      -2.362   5.146  14.125  1.00  0.00     0.256 S 
HETATM   26  O1  UNL     1      -3.465   5.900  14.859  1.00  0.00    -0.201 OA
HETATM   27  O2  UNL     1      -1.383   6.108  13.555  1.00  0.00    -0.201 OA
BRANCH  25  28
HETATM   28  N1  UNL     1      -1.566   4.095  15.273  1.00  0.00    -0.324 N 
ATOM     29  H12 UNL     1      -1.645   3.078  15.292  1.00  0.00     0.169 HD
ATOM     30  H11 UNL     1      -1.018   4.676  15.908  1.00  0.00     0.169 HD
ENDBRANCH  25  28
ENDBRANCH   1  25
BRANCH   5  31
HETATM   31  N4  UNL     1      -3.923   0.591  12.446  1.00  0.00    -0.113 N 
HETATM   32  O5  UNL     1      -3.407  -0.212  11.678  1.00  0.00    -0.532 OA
HETATM   33  O6  UNL     1      -4.569   0.171  13.575  1.00  0.00    -0.532 OA
ENDBRANCH   5  31
TORSDOF 7
ENDMDL
