MODEL 2
REMARK VINA RESULT: -8.595283325      1.459      3.334
REMARK  7 active torsions:
REMARK  status: ('A' for Active; 'I' for Inactive)
REMARK    1  A    between atoms: N1_1  and  S1_4 
REMARK    2  A    between atoms: S1_4  and  C1_7 
REMARK    3  A    between atoms: C3_9  and  N2_10 
REMARK       I    between atoms: N2_10  and  C4_12 
REMARK       I    between atoms: C4_12  and  N3_14 
REMARK    4  A    between atoms: N3_14  and  C5_16 
REMARK    5  A    between atoms: C8_19  and  C9_20 
REMARK    6  A    between atoms: C12_26  and  O4_27 
REMARK    7  A    between atoms: C13_29  and  N4_30 
ROOT
HETATM    1  C1  UNL     1      -4.380   1.745  14.217  1.00  0.00     0.084 A 
HETATM    2  C2  UNL     1      -4.248   3.104  14.242  1.00  0.00     0.057 A 
HETATM    3  C3  UNL     1      -4.074   3.816  13.110  1.00  0.00     0.073 A 
HETATM    4  C12 UNL     1      -4.028   3.115  11.885  1.00  0.00     0.126 A 
HETATM    5  C13 UNL     1      -4.153   1.747  11.810  1.00  0.00     0.139 A 
HETATM    6  C14 UNL     1      -4.333   1.060  13.006  1.00  0.00     0.064 A 
ENDROOT
BRANCH   3   7
HETATM    7  N2  UNL     1      -3.973   5.228  13.030  1.00  0.00    -0.306 N 
HETATM    8  C4  UNL     1      -3.031   6.064  13.649  1.00  0.00     0.325 C 
HETATM    9  O3  UNL     1      -2.133   5.512  14.368  1.00  0.00    -0.247 OA
HETATM   10  N3  UNL     1      -3.029   7.475  13.514  1.00  0.00    -0.309 N 
ATOM     11  H3  UNL     1      -3.772   7.903  12.963  1.00  0.00     0.170 HD
ATOM     12  H2  UNL     1      -4.672   5.694  12.451  1.00  0.00     0.171 HD
BRANCH  10  13
HETATM   13  C5  UNL     1      -2.066   8.323  14.093  1.00  0.00     0.036 A 
HETATM   14  C6  UNL     1      -2.131   8.732  15.405  1.00  0.00     0.030 A 
HETATM   15  C7  UNL     1      -1.182   9.620  15.903  1.00  0.00     0.018 A 
HETATM   16  C8  UNL     1      -0.180  10.091  15.097  1.00  0.00     0.048 A 
HETATM   17  C10 UNL     1      -0.090   9.697  13.773  1.00  0.00     0.018 A 
HETATM   18  C11 UNL     1      -1.032   8.826  13.313  1.00  0.00     0.030 A 
BRANCH  16  19
HETATM   19  C9  UNL     1       0.888  11.053  15.536  1.00  0.00     0.417 C 
HETATM   20  F1  UNL     1       2.086  10.401  15.731  1.00  0.00    -0.166 F 
HETATM   21  F2  UNL     1       1.041  11.959  14.472  1.00  0.00    -0.166 F 
HETATM   22  F3  UNL     1       0.451  11.696  16.680  1.00  0.00    -0.166 F 
ENDBRANCH  16  19
ENDBRANCH  10  13
ENDBRANCH   3   7
BRANCH   4  23
HETATM   23  O4  UNL     1      -3.855   3.843  10.748  1.00  0.00    -0.356 OA
ATOM     24  H4  UNL     1      -3.563   3.382   9.970  1.00  0.00     0.218 HD
ENDBRANCH   4  23
BRANCH   1  25
HETATM   25  S1  UNL     1      -4.712   0.760  15.634  1.00  0.00     0.256 S 
HETATM   26  O1  UNL     1      -3.540   0.892  16.601  1.00  0.00    -0.201 OA
HETATM   27  O2  UNL     1      -4.884  -0.662  15.238  1.00  0.00    -0.201 OA
BRANCH  25  28
HETATM   28  N1  UNL     1      -6.151   1.332  16.444  1.00  0.00    -0.324 N 
ATOM     29  H12 UNL     1      -6.264   1.413  17.455  1.00  0.00     0.169 HD
ATOM     30  H11 UNL     1      -6.845   1.564  15.732  1.00  0.00     0.169 HD
ENDBRANCH  25  28
ENDBRANCH   1  25
BRANCH   5  31
HETATM   31  N4  UNL     1      -4.086   1.014  10.580  1.00  0.00    -0.113 N 
HETATM   32  O5  UNL     1      -5.096   0.491  10.123  1.00  0.00    -0.532 OA
HETATM   33  O6  UNL     1      -2.889   0.924   9.926  1.00  0.00    -0.532 OA
ENDBRANCH   5  31
TORSDOF 7
ENDMDL
