MODEL 4
REMARK VINA RESULT: -8.015569126      4.635      6.098
REMARK  7 active torsions:
REMARK  status: ('A' for Active; 'I' for Inactive)
REMARK    1  A    between atoms: N1_1  and  S1_4 
REMARK    2  A    between atoms: S1_4  and  C1_7 
REMARK    3  A    between atoms: C3_9  and  N2_10 
REMARK       I    between atoms: N2_10  and  C4_12 
REMARK       I    between atoms: C4_12  and  N3_14 
REMARK    4  A    between atoms: N3_14  and  C5_16 
REMARK    5  A    between atoms: C8_19  and  C9_20 
REMARK    6  A    between atoms: C12_26  and  O4_27 
REMARK    7  A    between atoms: C13_29  and  N4_30 
ROOT
HETATM    1  C1  UNL     1      -4.259   1.652  13.933  1.00  0.00     0.084 A 
HETATM    2  C2  UNL     1      -3.922   2.948  13.665  1.00  0.00     0.057 A 
HETATM    3  C3  UNL     1      -3.688   3.368  12.405  1.00  0.00     0.073 A 
HETATM    4  C12 UNL     1      -3.799   2.426  11.359  1.00  0.00     0.126 A 
HETATM    5  C13 UNL     1      -4.132   1.110  11.580  1.00  0.00     0.139 A 
HETATM    6  C14 UNL     1      -4.366   0.728  12.898  1.00  0.00     0.064 A 
ENDROOT
BRANCH   3   7
HETATM    7  N2  UNL     1      -3.378   4.697  12.022  1.00  0.00    -0.306 N 
HETATM    8  C4  UNL     1      -4.202   5.621  11.359  1.00  0.00     0.325 C 
HETATM    9  O3  UNL     1      -5.387   5.250  11.064  1.00  0.00    -0.247 OA
HETATM   10  N3  UNL     1      -3.785   6.929  11.007  1.00  0.00    -0.309 N 
ATOM     11  H3  UNL     1      -2.825   7.198  11.220  1.00  0.00     0.170 HD
ATOM     12  H2  UNL     1      -2.441   5.023  12.258  1.00  0.00     0.171 HD
BRANCH  10  13
HETATM   13  C5  UNL     1      -4.613   7.880  10.380  1.00  0.00     0.036 A 
HETATM   14  C6  UNL     1      -4.629   8.067   9.017  1.00  0.00     0.030 A 
HETATM   15  C7  UNL     1      -5.424   9.065   8.463  1.00  0.00     0.018 A 
HETATM   16  C8  UNL     1      -6.195   9.865   9.263  1.00  0.00     0.048 A 
HETATM   17  C10 UNL     1      -6.199   9.700  10.639  1.00  0.00     0.018 A 
HETATM   18  C11 UNL     1      -5.411   8.714  11.153  1.00  0.00     0.030 A 
BRANCH  16  19
HETATM   19  C9  UNL     1      -7.083  10.970   8.765  1.00  0.00     0.417 C 
HETATM   20  F1  UNL     1      -8.315  10.480   8.393  1.00  0.00    -0.166 F 
HETATM   21  F2  UNL     1      -7.259  11.836   9.858  1.00  0.00    -0.166 F 
HETATM   22  F3  UNL     1      -6.438  11.609   7.722  1.00  0.00    -0.166 F 
ENDBRANCH  16  19
ENDBRANCH  10  13
ENDBRANCH   3   7
BRANCH   4  23
HETATM   23  O4  UNL     1      -3.564   2.860  10.091  1.00  0.00    -0.356 OA
ATOM     24  H4  UNL     1      -4.292   2.853   9.480  1.00  0.00     0.218 HD
ENDBRANCH   4  23
BRANCH   1  25
HETATM   25  S1  UNL     1      -4.678   1.053  15.531  1.00  0.00     0.256 S 
HETATM   26  O1  UNL     1      -3.485   1.263  16.456  1.00  0.00    -0.201 OA
HETATM   27  O2  UNL     1      -5.018  -0.393  15.462  1.00  0.00    -0.201 OA
BRANCH  25  28
HETATM   28  N1  UNL     1      -6.031   1.952  16.178  1.00  0.00    -0.324 N 
ATOM     29  H12 UNL     1      -6.799   2.335  15.627  1.00  0.00     0.169 HD
ATOM     30  H11 UNL     1      -5.911   2.021  17.189  1.00  0.00     0.169 HD
ENDBRANCH  25  28
ENDBRANCH   1  25
BRANCH   5  31
HETATM   31  N4  UNL     1      -4.227   0.132  10.536  1.00  0.00    -0.113 N 
HETATM   32  O5  UNL     1      -5.107   0.225   9.689  1.00  0.00    -0.532 OA
HETATM   33  O6  UNL     1      -3.317  -0.886  10.497  1.00  0.00    -0.532 OA
ENDBRANCH   5  31
TORSDOF 7
ENDMDL
