MODEL 5
REMARK VINA RESULT: -7.956333192      1.997      3.673
REMARK  7 active torsions:
REMARK  status: ('A' for Active; 'I' for Inactive)
REMARK    1  A    between atoms: N1_1  and  S1_4 
REMARK    2  A    between atoms: S1_4  and  C1_7 
REMARK    3  A    between atoms: C3_9  and  N2_10 
REMARK       I    between atoms: N2_10  and  C4_12 
REMARK       I    between atoms: C4_12  and  N3_14 
REMARK    4  A    between atoms: N3_14  and  C5_16 
REMARK    5  A    between atoms: C8_19  and  C9_20 
REMARK    6  A    between atoms: C12_26  and  O4_27 
REMARK    7  A    between atoms: C13_29  and  N4_30 
ROOT
HETATM    1  C1  UNL     1      -5.293   1.645  15.755  1.00  0.00     0.084 A 
HETATM    2  C2  UNL     1      -5.184   2.996  15.582  1.00  0.00     0.057 A 
HETATM    3  C3  UNL     1      -4.681   3.522  14.447  1.00  0.00     0.073 A 
HETATM    4  C12 UNL     1      -4.263   2.635  13.432  1.00  0.00     0.126 A 
HETATM    5  C13 UNL     1      -4.350   1.268  13.561  1.00  0.00     0.139 A 
HETATM    6  C14 UNL     1      -4.879   0.776  14.750  1.00  0.00     0.064 A 
ENDROOT
BRANCH   3   7
HETATM    7  N2  UNL     1      -4.570   4.905  14.157  1.00  0.00    -0.306 N 
HETATM    8  C4  UNL     1      -3.461   5.744  14.354  1.00  0.00     0.325 C 
HETATM    9  O3  UNL     1      -2.403   5.221  14.839  1.00  0.00    -0.247 OA
HETATM   10  N3  UNL     1      -3.460   7.127  14.041  1.00  0.00    -0.309 N 
ATOM     11  H3  UNL     1      -4.323   7.536  13.685  1.00  0.00     0.170 HD
ATOM     12  H2  UNL     1      -5.397   5.346  13.756  1.00  0.00     0.171 HD
BRANCH  10  13
HETATM   13  C5  UNL     1      -2.344   7.970  14.192  1.00  0.00     0.036 A 
HETATM   14  C6  UNL     1      -1.347   8.058  13.248  1.00  0.00     0.030 A 
HETATM   15  C7  UNL     1      -0.238   8.865  13.482  1.00  0.00     0.018 A 
HETATM   16  C8  UNL     1      -0.129   9.577  14.647  1.00  0.00     0.048 A 
HETATM   17  C10 UNL     1      -1.117   9.509  15.615  1.00  0.00     0.018 A 
HETATM   18  C11 UNL     1      -2.192   8.711  15.358  1.00  0.00     0.030 A 
BRANCH  16  19
HETATM   19  C9  UNL     1       1.026  10.472  14.997  1.00  0.00     0.417 C 
HETATM   20  F1  UNL     1       2.218   9.921  14.582  1.00  0.00    -0.166 F 
HETATM   21  F2  UNL     1       0.812  11.663  14.282  1.00  0.00    -0.166 F 
HETATM   22  F3  UNL     1       1.002  10.699  16.361  1.00  0.00    -0.166 F 
ENDBRANCH  16  19
ENDBRANCH  10  13
ENDBRANCH   3   7
BRANCH   4  23
HETATM   23  O4  UNL     1      -3.760   3.176  12.288  1.00  0.00    -0.356 OA
ATOM     24  H4  UNL     1      -3.096   2.681  11.822  1.00  0.00     0.218 HD
ENDBRANCH   4  23
BRANCH   1  25
HETATM   25  S1  UNL     1      -6.030   0.887  17.158  1.00  0.00     0.256 S 
HETATM   26  O1  UNL     1      -5.457   1.533  18.415  1.00  0.00    -0.201 OA
HETATM   27  O2  UNL     1      -5.742  -0.571  17.161  1.00  0.00    -0.201 OA
BRANCH  25  28
HETATM   28  N1  UNL     1      -7.758   1.153  17.151  1.00  0.00    -0.324 N 
ATOM     29  H12 UNL     1      -8.361   1.119  17.974  1.00  0.00     0.169 HD
ATOM     30  H11 UNL     1      -8.045   1.344  16.192  1.00  0.00     0.169 HD
ENDBRANCH  25  28
ENDBRANCH   1  25
BRANCH   5  31
HETATM   31  N4  UNL     1      -3.910   0.349  12.552  1.00  0.00    -0.113 N 
HETATM   32  O5  UNL     1      -4.566  -0.659  12.315  1.00  0.00    -0.532 OA
HETATM   33  O6  UNL     1      -2.766   0.624  11.858  1.00  0.00    -0.532 OA
ENDBRANCH   5  31
TORSDOF 7
ENDMDL
