MODEL 3
REMARK VINA RESULT: -8.064015346      5.853      8.305
REMARK  7 active torsions:
REMARK  status: ('A' for Active; 'I' for Inactive)
REMARK    1  A    between atoms: N1_1  and  S1_4 
REMARK    2  A    between atoms: S1_4  and  C1_7 
REMARK    3  A    between atoms: C3_9  and  N2_10 
REMARK       I    between atoms: N2_10  and  C4_12 
REMARK       I    between atoms: C4_12  and  N3_14 
REMARK    4  A    between atoms: N3_14  and  C5_16 
REMARK    5  A    between atoms: C8_19  and  C9_20 
REMARK    6  A    between atoms: C12_26  and  O4_27 
REMARK    7  A    between atoms: C13_29  and  N4_30 
ROOT
HETATM    1  C1  UNL     1       0.597   4.281   9.959  1.00  0.00     0.084 A 
HETATM    2  C2  UNL     1      -0.161   3.385  10.658  1.00  0.00     0.057 A 
HETATM    3  C3  UNL     1      -1.471   3.212  10.392  1.00  0.00     0.073 A 
HETATM    4  C12 UNL     1      -2.048   3.989   9.363  1.00  0.00     0.126 A 
HETATM    5  C13 UNL     1      -1.326   4.905   8.634  1.00  0.00     0.139 A 
HETATM    6  C14 UNL     1       0.023   5.044   8.947  1.00  0.00     0.064 A 
ENDROOT
BRANCH   3   7
HETATM    7  N2  UNL     1      -2.327   2.279  11.028  1.00  0.00    -0.306 N 
HETATM    8  C4  UNL     1      -2.976   2.406  12.267  1.00  0.00     0.325 C 
HETATM    9  O3  UNL     1      -2.803   3.490  12.917  1.00  0.00    -0.247 OA
HETATM   10  N3  UNL     1      -3.804   1.398  12.824  1.00  0.00    -0.309 N 
ATOM     11  H3  UNL     1      -3.905   0.525  12.308  1.00  0.00     0.170 HD
ATOM     12  H2  UNL     1      -2.492   1.408  10.525  1.00  0.00     0.171 HD
BRANCH  10  13
HETATM   13  C5  UNL     1      -4.494   1.528  14.043  1.00  0.00     0.036 A 
HETATM   14  C6  UNL     1      -4.416   0.587  15.044  1.00  0.00     0.030 A 
HETATM   15  C7  UNL     1      -5.170   0.741  16.203  1.00  0.00     0.018 A 
HETATM   16  C8  UNL     1      -5.992   1.825  16.358  1.00  0.00     0.048 A 
HETATM   17  C10 UNL     1      -6.092   2.788  15.368  1.00  0.00     0.018 A 
HETATM   18  C11 UNL     1      -5.341   2.611  14.245  1.00  0.00     0.030 A 
BRANCH  16  19
HETATM   19  C9  UNL     1      -6.848   2.082  17.567  1.00  0.00     0.417 C 
HETATM   20  F1  UNL     1      -6.106   1.991  18.723  1.00  0.00    -0.166 F 
HETATM   21  F2  UNL     1      -7.305   3.405  17.432  1.00  0.00    -0.166 F 
HETATM   22  F3  UNL     1      -7.902   1.187  17.550  1.00  0.00    -0.166 F 
ENDBRANCH  16  19
ENDBRANCH  10  13
ENDBRANCH   3   7
BRANCH   4  23
HETATM   23  O4  UNL     1      -3.371   3.805   9.099  1.00  0.00    -0.356 OA
ATOM     24  H4  UNL     1      -3.751   4.303   8.384  1.00  0.00     0.218 HD
ENDBRANCH   4  23
BRANCH   1  25
HETATM   25  S1  UNL     1       2.328   4.489  10.177  1.00  0.00     0.256 S 
HETATM   26  O1  UNL     1       3.052   3.433   9.350  1.00  0.00    -0.201 OA
HETATM   27  O2  UNL     1       2.684   4.339  11.613  1.00  0.00    -0.201 OA
BRANCH  25  28
HETATM   28  N1  UNL     1       2.825   6.063   9.602  1.00  0.00    -0.324 N 
ATOM     29  H12 UNL     1       3.593   6.237   8.953  1.00  0.00     0.169 HD
ATOM     30  H11 UNL     1       2.217   6.763  10.027  1.00  0.00     0.169 HD
ENDBRANCH  25  28
ENDBRANCH   1  25
BRANCH   5  31
HETATM   31  N4  UNL     1      -1.897   5.721   7.602  1.00  0.00    -0.113 N 
HETATM   32  O5  UNL     1      -2.835   6.466   7.861  1.00  0.00    -0.532 OA
HETATM   33  O6  UNL     1      -1.371   5.662   6.343  1.00  0.00    -0.532 OA
ENDBRANCH   5  31
TORSDOF 7
ENDMDL
