MODEL 12
REMARK VINA RESULT: -7.798187040      5.444      8.045
REMARK  6 active torsions:
REMARK  status: ('A' for Active; 'I' for Inactive)
REMARK    1  A    between atoms: N1_1  and  S1_4 
REMARK    2  A    between atoms: S1_4  and  C1_7 
REMARK    3  A    between atoms: C3_9  and  N2_10 
REMARK       I    between atoms: N2_10  and  C4_12 
REMARK       I    between atoms: C4_12  and  N3_14 
REMARK    4  A    between atoms: N3_14  and  C5_16 
REMARK    5  A    between atoms: C11_27  and  O4_28 
REMARK    6  A    between atoms: C12_30  and  N4_31 
ROOT
HETATM    1  C1  UNL     1      -0.366   4.909  10.698  1.00  0.00     0.084 A 
HETATM    2  C2  UNL     1      -1.039   3.992  11.491  1.00  0.00     0.057 A 
HETATM    3  C3  UNL     1      -2.323   3.607  11.196  1.00  0.00     0.073 A 
HETATM    4  C11 UNL     1      -2.939   4.171  10.062  1.00  0.00     0.126 A 
HETATM    5  C12 UNL     1      -2.313   5.083   9.248  1.00  0.00     0.139 A 
HETATM    6  C13 UNL     1      -1.004   5.425   9.614  1.00  0.00     0.064 A 
ENDROOT
BRANCH   3   7
HETATM    7  N2  UNL     1      -3.059   2.680  11.958  1.00  0.00    -0.306 N 
HETATM    8  C4  UNL     1      -3.743   2.921  13.185  1.00  0.00     0.325 C 
HETATM    9  O3  UNL     1      -3.708   4.051  13.656  1.00  0.00    -0.247 OA
HETATM   10  N3  UNL     1      -4.447   1.907  13.859  1.00  0.00    -0.303 N 
ATOM     11  H3  UNL     1      -4.429   0.989  13.416  1.00  0.00     0.171 HD
ATOM     12  H2  UNL     1      -3.109   1.729  11.590  1.00  0.00     0.171 HD
BRANCH  10  13
HETATM   13  C5  UNL     1      -5.171   1.986  15.057  1.00  0.00     0.120 A 
HETATM   14  C6  UNL     1      -5.950   3.024  15.477  1.00  0.00     0.188 A 
HETATM   15  F1  UNL     1      -6.185   4.118  14.738  1.00  0.00    -0.200 F 
HETATM   16  C7  UNL     1      -6.603   3.018  16.723  1.00  0.00     0.199 A 
HETATM   17  F2  UNL     1      -7.373   4.076  17.110  1.00  0.00    -0.199 F 
HETATM   18  C8  UNL     1      -6.477   1.953  17.571  1.00  0.00     0.199 A 
HETATM   19  F3  UNL     1      -7.092   1.903  18.787  1.00  0.00    -0.199 F 
HETATM   20  C9  UNL     1      -5.701   0.894  17.176  1.00  0.00     0.199 A 
HETATM   21  F4  UNL     1      -5.583  -0.163  18.036  1.00  0.00    -0.199 F 
HETATM   22  C10 UNL     1      -5.070   0.911  15.962  1.00  0.00     0.188 A 
HETATM   23  F5  UNL     1      -4.316  -0.146  15.607  1.00  0.00    -0.200 F 
ENDBRANCH  10  13
ENDBRANCH   3   7
BRANCH   4  24
HETATM   24  O4  UNL     1      -4.217   3.764   9.799  1.00  0.00    -0.356 OA
ATOM     25  H4  UNL     1      -4.310   2.959   9.304  1.00  0.00     0.218 HD
ENDBRANCH   4  24
BRANCH   1  26
HETATM   26  S1  UNL     1       1.280   5.363  11.133  1.00  0.00     0.256 S 
HETATM   27  O1  UNL     1       2.114   4.137  11.398  1.00  0.00    -0.201 OA
HETATM   28  O2  UNL     1       1.905   6.090   9.973  1.00  0.00    -0.201 OA
BRANCH  26  29
HETATM   29  N1  UNL     1       1.292   6.324  12.561  1.00  0.00    -0.324 N 
ATOM     30  H12 UNL     1       1.525   5.988  13.495  1.00  0.00     0.169 HD
ATOM     31  H11 UNL     1       1.025   7.273  12.299  1.00  0.00     0.169 HD
ENDBRANCH  26  29
ENDBRANCH   1  26
BRANCH   5  32
HETATM   32  N4  UNL     1      -2.898   5.666   8.101  1.00  0.00    -0.113 N 
HETATM   33  O5  UNL     1      -2.843   6.892   7.954  1.00  0.00    -0.532 OA
HETATM   34  O6  UNL     1      -3.513   4.902   7.173  1.00  0.00    -0.532 OA
ENDBRANCH   5  32
TORSDOF 6
ENDMDL
