MODEL 11
REMARK VINA RESULT: -7.802411504      1.838      2.825
REMARK  6 active torsions:
REMARK  status: ('A' for Active; 'I' for Inactive)
REMARK    1  A    between atoms: N1_1  and  S1_4 
REMARK    2  A    between atoms: S1_4  and  C1_7 
REMARK    3  A    between atoms: C3_9  and  N2_10 
REMARK       I    between atoms: N2_10  and  C4_12 
REMARK       I    between atoms: C4_12  and  N3_14 
REMARK    4  A    between atoms: N3_14  and  C5_16 
REMARK    5  A    between atoms: C11_27  and  O4_28 
REMARK    6  A    between atoms: C12_30  and  N4_31 
ROOT
HETATM    1  C1  UNL     1      -4.625   1.632  14.335  1.00  0.00     0.084 A 
HETATM    2  C2  UNL     1      -4.554   2.980  14.022  1.00  0.00     0.057 A 
HETATM    3  C3  UNL     1      -4.472   3.402  12.717  1.00  0.00     0.073 A 
HETATM    4  C11 UNL     1      -4.464   2.423  11.705  1.00  0.00     0.126 A 
HETATM    5  C12 UNL     1      -4.531   1.077  11.967  1.00  0.00     0.139 A 
HETATM    6  C13 UNL     1      -4.612   0.726  13.322  1.00  0.00     0.064 A 
ENDROOT
BRANCH   3   7
HETATM    7  N2  UNL     1      -4.401   4.754  12.333  1.00  0.00    -0.306 N 
HETATM    8  C4  UNL     1      -3.263   5.610  12.393  1.00  0.00     0.325 C 
HETATM    9  O3  UNL     1      -2.212   5.147  12.821  1.00  0.00    -0.247 OA
HETATM   10  N3  UNL     1      -3.314   6.953  11.980  1.00  0.00    -0.303 N 
ATOM     11  H3  UNL     1      -4.221   7.275  11.641  1.00  0.00     0.171 HD
ATOM     12  H2  UNL     1      -5.260   5.168  11.970  1.00  0.00     0.171 HD
BRANCH  10  13
HETATM   13  C5  UNL     1      -2.290   7.911  11.968  1.00  0.00     0.120 A 
HETATM   14  C6  UNL     1      -1.453   8.200  10.931  1.00  0.00     0.188 A 
HETATM   15  F1  UNL     1      -1.548   7.630   9.722  1.00  0.00    -0.200 F 
HETATM   16  C7  UNL     1      -0.425   9.156  11.040  1.00  0.00     0.199 A 
HETATM   17  F2  UNL     1       0.395   9.419   9.981  1.00  0.00    -0.199 F 
HETATM   18  C8  UNL     1      -0.229   9.838  12.208  1.00  0.00     0.199 A 
HETATM   19  F3  UNL     1       0.753  10.773  12.358  1.00  0.00    -0.199 F 
HETATM   20  C9  UNL     1      -1.056   9.569  13.267  1.00  0.00     0.199 A 
HETATM   21  F4  UNL     1      -0.846  10.258  14.429  1.00  0.00    -0.199 F 
HETATM   22  C10 UNL     1      -2.051   8.637  13.150  1.00  0.00     0.188 A 
HETATM   23  F5  UNL     1      -2.845   8.398  14.211  1.00  0.00    -0.200 F 
ENDBRANCH  10  13
ENDBRANCH   3   7
BRANCH   4  24
HETATM   24  O4  UNL     1      -4.382   2.879  10.420  1.00  0.00    -0.356 OA
ATOM     25  H4  UNL     1      -5.191   2.881   9.920  1.00  0.00     0.218 HD
ENDBRANCH   4  24
BRANCH   1  26
HETATM   26  S1  UNL     1      -4.724   1.157  16.029  1.00  0.00     0.256 S 
HETATM   27  O1  UNL     1      -5.118  -0.292  16.149  1.00  0.00    -0.201 OA
HETATM   28  O2  UNL     1      -3.364   1.306  16.655  1.00  0.00    -0.201 OA
BRANCH  26  29
HETATM   29  N1  UNL     1      -5.906   2.092  16.858  1.00  0.00    -0.324 N 
ATOM     30  H12 UNL     1      -6.407   2.890  16.467  1.00  0.00     0.169 HD
ATOM     31  H11 UNL     1      -6.007   1.705  17.797  1.00  0.00     0.169 HD
ENDBRANCH  26  29
ENDBRANCH   1  26
BRANCH   5  32
HETATM   32  N4  UNL     1      -4.528   0.067  10.978  1.00  0.00    -0.113 N 
HETATM   33  O5  UNL     1      -4.155  -1.071  11.280  1.00  0.00    -0.532 OA
HETATM   34  O6  UNL     1      -4.926   0.334   9.716  1.00  0.00    -0.532 OA
ENDBRANCH   5  32
TORSDOF 6
ENDMDL
