MODEL 7
REMARK VINA RESULT: -8.060476812      1.599      1.838
REMARK  6 active torsions:
REMARK  status: ('A' for Active; 'I' for Inactive)
REMARK    1  A    between atoms: N1_1  and  S1_4 
REMARK    2  A    between atoms: S1_4  and  C1_7 
REMARK    3  A    between atoms: C3_9  and  N2_10 
REMARK       I    between atoms: N2_10  and  C4_12 
REMARK       I    between atoms: C4_12  and  N3_14 
REMARK    4  A    between atoms: N3_14  and  C5_16 
REMARK    5  A    between atoms: C11_27  and  O4_28 
REMARK    6  A    between atoms: C12_30  and  N4_31 
ROOT
HETATM    1  C1  UNL     1      -4.523   1.621  14.445  1.00  0.00     0.084 A 
HETATM    2  C2  UNL     1      -4.232   2.962  14.252  1.00  0.00     0.057 A 
HETATM    3  C3  UNL     1      -4.027   3.470  12.993  1.00  0.00     0.073 A 
HETATM    4  C11 UNL     1      -4.123   2.587  11.900  1.00  0.00     0.126 A 
HETATM    5  C12 UNL     1      -4.408   1.251  12.041  1.00  0.00     0.139 A 
HETATM    6  C13 UNL     1      -4.603   0.809  13.357  1.00  0.00     0.064 A 
ENDROOT
BRANCH   3   7
HETATM    7  N2  UNL     1      -3.732   4.821  12.730  1.00  0.00    -0.306 N 
HETATM    8  C4  UNL     1      -2.701   5.609  13.318  1.00  0.00     0.325 C 
HETATM    9  O3  UNL     1      -1.969   5.081  14.148  1.00  0.00    -0.247 OA
HETATM   10  N3  UNL     1      -2.503   6.959  12.975  1.00  0.00    -0.303 N 
ATOM     11  H3  UNL     1      -3.151   7.337  12.285  1.00  0.00     0.171 HD
ATOM     12  H2  UNL     1      -4.323   5.288  12.042  1.00  0.00     0.171 HD
BRANCH  10  13
HETATM   13  C5  UNL     1      -1.537   7.856  13.452  1.00  0.00     0.120 A 
HETATM   14  C6  UNL     1      -1.597   8.590  14.600  1.00  0.00     0.188 A 
HETATM   15  F1  UNL     1      -2.597   8.493  15.488  1.00  0.00    -0.200 F 
HETATM   16  C7  UNL     1      -0.587   9.498  14.965  1.00  0.00     0.199 A 
HETATM   17  F2  UNL     1      -0.681  10.216  16.122  1.00  0.00    -0.199 F 
HETATM   18  C8  UNL     1       0.509   9.679  14.168  1.00  0.00     0.199 A 
HETATM   19  F3  UNL     1       1.513  10.548  14.482  1.00  0.00    -0.199 F 
HETATM   20  C9  UNL     1       0.597   8.955  13.007  1.00  0.00     0.199 A 
HETATM   21  F4  UNL     1       1.699   9.148  12.220  1.00  0.00    -0.199 F 
HETATM   22  C10 UNL     1      -0.391   8.075  12.662  1.00  0.00     0.188 A 
HETATM   23  F5  UNL     1      -0.272   7.381  11.515  1.00  0.00    -0.200 F 
ENDBRANCH  10  13
ENDBRANCH   3   7
BRANCH   4  24
HETATM   24  O4  UNL     1      -3.914   3.128  10.663  1.00  0.00    -0.356 OA
ATOM     25  H4  UNL     1      -4.554   2.912   9.994  1.00  0.00     0.218 HD
ENDBRANCH   4  24
BRANCH   1  26
HETATM   26  S1  UNL     1      -4.771   1.031  16.087  1.00  0.00     0.256 S 
HETATM   27  O1  UNL     1      -5.187  -0.416  16.071  1.00  0.00    -0.201 OA
HETATM   28  O2  UNL     1      -3.468   1.115  16.834  1.00  0.00    -0.201 OA
BRANCH  26  29
HETATM   29  N1  UNL     1      -6.011   1.925  16.876  1.00  0.00    -0.324 N 
ATOM     30  H12 UNL     1      -6.973   2.014  16.549  1.00  0.00     0.169 HD
ATOM     31  H11 UNL     1      -5.608   2.340  17.716  1.00  0.00     0.169 HD
ENDBRANCH  26  29
ENDBRANCH   1  26
BRANCH   5  32
HETATM   32  N4  UNL     1      -4.515   0.338  10.968  1.00  0.00    -0.113 N 
HETATM   33  O5  UNL     1      -4.891   0.747   9.864  1.00  0.00    -0.532 OA
HETATM   34  O6  UNL     1      -4.214  -0.967  11.137  1.00  0.00    -0.532 OA
ENDBRANCH   5  32
TORSDOF 6
ENDMDL
