MODEL 6
REMARK VINA RESULT: -8.113922031      1.633      2.380
REMARK  6 active torsions:
REMARK  status: ('A' for Active; 'I' for Inactive)
REMARK    1  A    between atoms: N1_1  and  S1_4 
REMARK    2  A    between atoms: S1_4  and  C1_7 
REMARK    3  A    between atoms: C3_9  and  N2_10 
REMARK       I    between atoms: N2_10  and  C4_12 
REMARK       I    between atoms: C4_12  and  N3_14 
REMARK    4  A    between atoms: N3_14  and  C5_16 
REMARK    5  A    between atoms: C11_27  and  O4_28 
REMARK    6  A    between atoms: C12_30  and  N4_31 
ROOT
HETATM    1  C1  UNL     1      -4.615   1.562  14.524  1.00  0.00     0.084 A 
HETATM    2  C2  UNL     1      -4.363   2.909  14.317  1.00  0.00     0.057 A 
HETATM    3  C3  UNL     1      -4.143   3.405  13.055  1.00  0.00     0.073 A 
HETATM    4  C11 UNL     1      -4.183   2.502  11.975  1.00  0.00     0.126 A 
HETATM    5  C12 UNL     1      -4.427   1.160  12.131  1.00  0.00     0.139 A 
HETATM    6  C13 UNL     1      -4.642   0.732  13.448  1.00  0.00     0.064 A 
ENDROOT
BRANCH   3   7
HETATM    7  N2  UNL     1      -3.886   4.760  12.778  1.00  0.00    -0.306 N 
HETATM    8  C4  UNL     1      -2.792   5.544  13.247  1.00  0.00     0.325 C 
HETATM    9  O3  UNL     1      -1.963   5.007  13.972  1.00  0.00    -0.247 OA
HETATM   10  N3  UNL     1      -2.640   6.899  12.901  1.00  0.00    -0.303 N 
ATOM     11  H3  UNL     1      -3.369   7.284  12.301  1.00  0.00     0.171 HD
ATOM     12  H2  UNL     1      -4.557   5.235  12.174  1.00  0.00     0.171 HD
BRANCH  10  13
HETATM   13  C5  UNL     1      -1.626   7.794  13.269  1.00  0.00     0.120 A 
HETATM   14  C6  UNL     1      -0.490   8.075  12.569  1.00  0.00     0.188 A 
HETATM   15  F1  UNL     1      -0.219   7.562  11.361  1.00  0.00    -0.200 F 
HETATM   16  C7  UNL     1       0.490   8.962  13.051  1.00  0.00     0.199 A 
HETATM   17  F2  UNL     1       1.616   9.219  12.324  1.00  0.00    -0.199 F 
HETATM   18  C8  UNL     1       0.334   9.583  14.259  1.00  0.00     0.199 A 
HETATM   19  F3  UNL     1       1.256  10.451  14.766  1.00  0.00    -0.199 F 
HETATM   20  C9  UNL     1      -0.799   9.321  14.985  1.00  0.00     0.199 A 
HETATM   21  F4  UNL     1      -0.940   9.948  16.192  1.00  0.00    -0.199 F 
HETATM   22  C10 UNL     1      -1.745   8.456  14.507  1.00  0.00     0.188 A 
HETATM   23  F5  UNL     1      -2.845   8.221  15.247  1.00  0.00    -0.200 F 
ENDBRANCH  10  13
ENDBRANCH   3   7
BRANCH   4  24
HETATM   24  O4  UNL     1      -3.960   3.030  10.734  1.00  0.00    -0.356 OA
ATOM     25  H4  UNL     1      -4.714   3.404  10.293  1.00  0.00     0.218 HD
ENDBRANCH   4  24
BRANCH   1  26
HETATM   26  S1  UNL     1      -4.886   0.990  16.169  1.00  0.00     0.256 S 
HETATM   27  O1  UNL     1      -5.387  -0.430  16.158  1.00  0.00    -0.201 OA
HETATM   28  O2  UNL     1      -3.574   0.998  16.906  1.00  0.00    -0.201 OA
BRANCH  26  29
HETATM   29  N1  UNL     1      -6.065   1.957  16.966  1.00  0.00    -0.324 N 
ATOM     30  H12 UNL     1      -6.918   1.606  17.402  1.00  0.00     0.169 HD
ATOM     31  H11 UNL     1      -5.754   2.928  16.920  1.00  0.00     0.169 HD
ENDBRANCH  26  29
ENDBRANCH   1  26
BRANCH   5  32
HETATM   32  N4  UNL     1      -4.477   0.227  11.070  1.00  0.00    -0.113 N 
HETATM   33  O5  UNL     1      -4.158  -0.948  11.286  1.00  0.00    -0.532 OA
HETATM   34  O6  UNL     1      -4.866   0.604   9.834  1.00  0.00    -0.532 OA
ENDBRANCH   5  32
TORSDOF 6
ENDMDL
