MODEL 9
REMARK VINA RESULT: -7.990206352      5.178      7.036
REMARK  6 active torsions:
REMARK  status: ('A' for Active; 'I' for Inactive)
REMARK    1  A    between atoms: N1_1  and  S1_4 
REMARK    2  A    between atoms: S1_4  and  C1_7 
REMARK    3  A    between atoms: C3_9  and  N2_10 
REMARK       I    between atoms: N2_10  and  C4_12 
REMARK       I    between atoms: C4_12  and  N3_14 
REMARK    4  A    between atoms: N3_14  and  C5_16 
REMARK    5  A    between atoms: C11_27  and  O4_28 
REMARK    6  A    between atoms: C12_30  and  N4_31 
ROOT
HETATM    1  C1  UNL     1      -3.093   4.136  13.073  1.00  0.00     0.084 A 
HETATM    2  C2  UNL     1      -3.482   4.742  11.888  1.00  0.00     0.057 A 
HETATM    3  C3  UNL     1      -4.118   4.029  10.902  1.00  0.00     0.073 A 
HETATM    4  C11 UNL     1      -4.365   2.661  11.130  1.00  0.00     0.126 A 
HETATM    5  C12 UNL     1      -3.997   2.018  12.287  1.00  0.00     0.139 A 
HETATM    6  C13 UNL     1      -3.354   2.813  13.244  1.00  0.00     0.064 A 
ENDROOT
BRANCH   3   7
HETATM    7  N2  UNL     1      -4.541   4.584   9.680  1.00  0.00    -0.306 N 
HETATM    8  C4  UNL     1      -5.244   5.808   9.487  1.00  0.00     0.325 C 
HETATM    9  O3  UNL     1      -5.526   6.477  10.474  1.00  0.00    -0.247 OA
HETATM   10  N3  UNL     1      -5.618   6.262   8.209  1.00  0.00    -0.303 N 
ATOM     11  H3  UNL     1      -5.359   5.653   7.433  1.00  0.00     0.171 HD
ATOM     12  H2  UNL     1      -4.319   4.051   8.839  1.00  0.00     0.171 HD
BRANCH  10  13
HETATM   13  C5  UNL     1      -6.298   7.436   7.855  1.00  0.00     0.120 A 
HETATM   14  C6  UNL     1      -5.774   8.527   7.228  1.00  0.00     0.188 A 
HETATM   15  F1  UNL     1      -4.507   8.594   6.793  1.00  0.00    -0.200 F 
HETATM   16  C7  UNL     1      -6.538   9.677   6.956  1.00  0.00     0.199 A 
HETATM   17  F2  UNL     1      -5.979  10.752   6.328  1.00  0.00    -0.199 F 
HETATM   18  C8  UNL     1      -7.855   9.740   7.317  1.00  0.00     0.199 A 
HETATM   19  F3  UNL     1      -8.634  10.832   7.073  1.00  0.00    -0.199 F 
HETATM   20  C9  UNL     1      -8.410   8.657   7.948  1.00  0.00     0.199 A 
HETATM   21  F4  UNL     1      -9.728   8.735   8.305  1.00  0.00    -0.199 F 
HETATM   22  C10 UNL     1      -7.657   7.545   8.208  1.00  0.00     0.188 A 
HETATM   23  F5  UNL     1      -8.235   6.500   8.830  1.00  0.00    -0.200 F 
ENDBRANCH  10  13
ENDBRANCH   3   7
BRANCH   4  24
HETATM   24  O4  UNL     1      -5.000   1.983  10.128  1.00  0.00    -0.356 OA
ATOM     25  H4  UNL     1      -5.778   1.496  10.374  1.00  0.00     0.218 HD
ENDBRANCH   4  24
BRANCH   1  26
HETATM   26  S1  UNL     1      -2.278   5.108  14.297  1.00  0.00     0.256 S 
HETATM   27  O1  UNL     1      -1.193   5.944  13.671  1.00  0.00    -0.201 OA
HETATM   28  O2  UNL     1      -3.276   6.052  14.910  1.00  0.00    -0.201 OA
BRANCH  26  29
HETATM   29  N1  UNL     1      -1.545   4.103  15.486  1.00  0.00    -0.324 N 
ATOM     30  H12 UNL     1      -0.637   3.648  15.395  1.00  0.00     0.169 HD
ATOM     31  H11 UNL     1      -2.181   4.050  16.283  1.00  0.00     0.169 HD
ENDBRANCH  26  29
ENDBRANCH   1  26
BRANCH   5  32
HETATM   32  N4  UNL     1      -4.232   0.649  12.551  1.00  0.00    -0.113 N 
HETATM   33  O5  UNL     1      -4.529   0.300  13.699  1.00  0.00    -0.532 OA
HETATM   34  O6  UNL     1      -4.134  -0.272  11.570  1.00  0.00    -0.532 OA
ENDBRANCH   5  32
TORSDOF 6
ENDMDL
