MODEL 16
REMARK VINA RESULT: -7.684560419      1.914      2.419
REMARK  6 active torsions:
REMARK  status: ('A' for Active; 'I' for Inactive)
REMARK    1  A    between atoms: N1_1  and  S1_4 
REMARK    2  A    between atoms: S1_4  and  C1_7 
REMARK    3  A    between atoms: C3_9  and  N2_10 
REMARK       I    between atoms: N2_10  and  C4_12 
REMARK       I    between atoms: C4_12  and  N3_14 
REMARK    4  A    between atoms: N3_14  and  C5_16 
REMARK    5  A    between atoms: C11_27  and  O4_28 
REMARK    6  A    between atoms: C12_30  and  N4_31 
ROOT
HETATM    1  C1  UNL     1      -4.625   1.647  14.305  1.00  0.00     0.084 A 
HETATM    2  C2  UNL     1      -4.546   2.995  13.990  1.00  0.00     0.057 A 
HETATM    3  C3  UNL     1      -4.464   3.415  12.686  1.00  0.00     0.073 A 
HETATM    4  C11 UNL     1      -4.463   2.435  11.674  1.00  0.00     0.126 A 
HETATM    5  C12 UNL     1      -4.539   1.089  11.937  1.00  0.00     0.139 A 
HETATM    6  C13 UNL     1      -4.620   0.740  13.292  1.00  0.00     0.064 A 
ENDROOT
BRANCH   3   7
HETATM    7  N2  UNL     1      -4.384   4.766  12.300  1.00  0.00    -0.306 N 
HETATM    8  C4  UNL     1      -3.241   5.615  12.361  1.00  0.00     0.325 C 
HETATM    9  O3  UNL     1      -2.194   5.147  12.792  1.00  0.00    -0.247 OA
HETATM   10  N3  UNL     1      -3.284   6.958  11.946  1.00  0.00    -0.303 N 
ATOM     11  H3  UNL     1      -4.188   7.285  11.606  1.00  0.00     0.171 HD
ATOM     12  H2  UNL     1      -5.240   5.184  11.935  1.00  0.00     0.171 HD
BRANCH  10  13
HETATM   13  C5  UNL     1      -2.255   7.910  11.935  1.00  0.00     0.120 A 
HETATM   14  C6  UNL     1      -1.951   8.799  12.924  1.00  0.00     0.188 A 
HETATM   15  F1  UNL     1      -2.581   8.833  14.107  1.00  0.00    -0.200 F 
HETATM   16  C7  UNL     1      -0.918   9.746  12.793  1.00  0.00     0.199 A 
HETATM   17  F2  UNL     1      -0.644  10.620  13.803  1.00  0.00    -0.199 F 
HETATM   18  C8  UNL     1      -0.171   9.807  11.650  1.00  0.00     0.199 A 
HETATM   19  F3  UNL     1       0.840  10.707  11.479  1.00  0.00    -0.199 F 
HETATM   20  C9  UNL     1      -0.452   8.926  10.639  1.00  0.00     0.199 A 
HETATM   21  F4  UNL     1       0.303   9.001   9.501  1.00  0.00    -0.199 F 
HETATM   22  C10 UNL     1      -1.459   8.010  10.777  1.00  0.00     0.188 A 
HETATM   23  F5  UNL     1      -1.708   7.160   9.763  1.00  0.00    -0.200 F 
ENDBRANCH  10  13
ENDBRANCH   3   7
BRANCH   4  24
HETATM   24  O4  UNL     1      -4.381   2.890  10.388  1.00  0.00    -0.356 OA
ATOM     25  H4  UNL     1      -4.998   2.517   9.768  1.00  0.00     0.218 HD
ENDBRANCH   4  24
BRANCH   1  26
HETATM   26  S1  UNL     1      -4.725   1.174  16.000  1.00  0.00     0.256 S 
HETATM   27  O1  UNL     1      -5.115  -0.276  16.121  1.00  0.00    -0.201 OA
HETATM   28  O2  UNL     1      -3.366   1.328  16.626  1.00  0.00    -0.201 OA
BRANCH  26  29
HETATM   29  N1  UNL     1      -5.911   2.107  16.826  1.00  0.00    -0.324 N 
ATOM     30  H12 UNL     1      -6.191   1.977  17.798  1.00  0.00     0.169 HD
ATOM     31  H11 UNL     1      -6.273   2.800  16.171  1.00  0.00     0.169 HD
ENDBRANCH  26  29
ENDBRANCH   1  26
BRANCH   5  32
HETATM   32  N4  UNL     1      -4.545   0.079  10.949  1.00  0.00    -0.113 N 
HETATM   33  O5  UNL     1      -4.962   0.347   9.816  1.00  0.00    -0.532 OA
HETATM   34  O6  UNL     1      -4.105  -1.165  11.228  1.00  0.00    -0.532 OA
ENDBRANCH   5  32
TORSDOF 6
ENDMDL
