MODEL 10
REMARK VINA RESULT: -7.945442793      5.229      6.969
REMARK  6 active torsions:
REMARK  status: ('A' for Active; 'I' for Inactive)
REMARK    1  A    between atoms: N1_1  and  S1_4 
REMARK    2  A    between atoms: S1_4  and  C1_7 
REMARK    3  A    between atoms: C3_9  and  N2_10 
REMARK       I    between atoms: N2_10  and  C4_12 
REMARK       I    between atoms: C4_12  and  N3_14 
REMARK    4  A    between atoms: N3_14  and  C5_16 
REMARK    5  A    between atoms: C11_27  and  O4_28 
REMARK    6  A    between atoms: C12_30  and  N4_31 
ROOT
HETATM    1  C1  UNL     1      -3.181   4.129  13.116  1.00  0.00     0.084 A 
HETATM    2  C2  UNL     1      -3.552   4.743  11.930  1.00  0.00     0.057 A 
HETATM    3  C3  UNL     1      -4.153   4.031  10.921  1.00  0.00     0.073 A 
HETATM    4  C11 UNL     1      -4.383   2.657  11.127  1.00  0.00     0.126 A 
HETATM    5  C12 UNL     1      -4.031   2.005  12.284  1.00  0.00     0.139 A 
HETATM    6  C13 UNL     1      -3.423   2.799  13.266  1.00  0.00     0.064 A 
ENDROOT
BRANCH   3   7
HETATM    7  N2  UNL     1      -4.557   4.595   9.696  1.00  0.00    -0.306 N 
HETATM    8  C4  UNL     1      -5.287   5.803   9.502  1.00  0.00     0.325 C 
HETATM    9  O3  UNL     1      -5.614   6.449  10.491  1.00  0.00    -0.247 OA
HETATM   10  N3  UNL     1      -5.638   6.267   8.221  1.00  0.00    -0.303 N 
ATOM     11  H3  UNL     1      -5.342   5.678   7.443  1.00  0.00     0.171 HD
ATOM     12  H2  UNL     1      -4.298   4.081   8.854  1.00  0.00     0.171 HD
BRANCH  10  13
HETATM   13  C5  UNL     1      -6.339   7.428   7.867  1.00  0.00     0.120 A 
HETATM   14  C6  UNL     1      -7.621   7.746   8.205  1.00  0.00     0.188 A 
HETATM   15  F1  UNL     1      -8.384   6.990   9.007  1.00  0.00    -0.200 F 
HETATM   16  C7  UNL     1      -8.246   8.925   7.758  1.00  0.00     0.199 A 
HETATM   17  F2  UNL     1      -9.532   9.209   8.116  1.00  0.00    -0.199 F 
HETATM   18  C8  UNL     1      -7.578   9.807   6.956  1.00  0.00     0.199 A 
HETATM   19  F3  UNL     1      -8.143  10.961   6.500  1.00  0.00    -0.199 F 
HETATM   20  C9  UNL     1      -6.287   9.515   6.599  1.00  0.00     0.199 A 
HETATM   21  F4  UNL     1      -5.632  10.406   5.795  1.00  0.00    -0.199 F 
HETATM   22  C10 UNL     1      -5.689   8.365   7.040  1.00  0.00     0.188 A 
HETATM   23  F5  UNL     1      -4.420   8.110   6.670  1.00  0.00    -0.200 F 
ENDBRANCH  10  13
ENDBRANCH   3   7
BRANCH   4  24
HETATM   24  O4  UNL     1      -4.983   1.982  10.102  1.00  0.00    -0.356 OA
ATOM     25  H4  UNL     1      -5.702   1.406  10.339  1.00  0.00     0.218 HD
ENDBRANCH   4  24
BRANCH   1  26
HETATM   26  S1  UNL     1      -2.410   5.098  14.370  1.00  0.00     0.256 S 
HETATM   27  O1  UNL     1      -1.397   6.035  13.766  1.00  0.00    -0.201 OA
HETATM   28  O2  UNL     1      -3.458   5.942  15.043  1.00  0.00    -0.201 OA
BRANCH  26  29
HETATM   29  N1  UNL     1      -1.588   4.094  15.500  1.00  0.00    -0.324 N 
ATOM     30  H12 UNL     1      -1.143   4.415  16.359  1.00  0.00     0.169 HD
ATOM     31  H11 UNL     1      -1.629   3.136  15.152  1.00  0.00     0.169 HD
ENDBRANCH  26  29
ENDBRANCH   1  26
BRANCH   5  32
HETATM   32  N4  UNL     1      -4.249   0.630  12.526  1.00  0.00    -0.113 N 
HETATM   33  O5  UNL     1      -4.510   0.255  13.674  1.00  0.00    -0.532 OA
HETATM   34  O6  UNL     1      -4.174  -0.269  11.523  1.00  0.00    -0.532 OA
ENDBRANCH   5  32
TORSDOF 6
ENDMDL
