MODEL 7
REMARK VINA RESULT: -11.089627566      4.282      8.003
REMARK  7 active torsions:
REMARK  status: ('A' for Active; 'I' for Inactive)
REMARK    1  A    between atoms: C1_2  and  C2_3 
REMARK       I    between atoms: C1_2  and  N1_10 
REMARK    2  A    between atoms: C2_3  and  C3_4 
REMARK    3  A    between atoms: N1_10  and  C9_12 
REMARK    4  A    between atoms: C9_12  and  C10_13 
REMARK    5  A    between atoms: C9_12  and  C11_19 
REMARK       I    between atoms: C10_13  and  N2_15 
REMARK    6  A    between atoms: N2_15  and  O3_17 
REMARK    7  A    between atoms: C14_22  and  C15_23 
ROOT
HETATM    1  C9  UNL     1      15.158   9.923  11.344  1.00  0.00     0.212 C 
ENDROOT
BRANCH   1   2
HETATM    2  N1  UNL     1      14.916  10.839  12.478  1.00  0.00    -0.344 N 
HETATM    3  C1  UNL     1      13.651  11.453  12.595  1.00  0.00     0.218 C 
HETATM    4  O1  UNL     1      12.767  11.217  11.750  1.00  0.00    -0.274 OA
ATOM      5  H1  UNL     1      15.649  11.024  13.162  1.00  0.00     0.163 HD
BRANCH   3   6
HETATM    6  C2  UNL     1      13.387  12.371  13.718  1.00  0.00     0.107 C 
BRANCH   6   7
HETATM    7  C3  UNL     1      12.573  11.704  14.813  1.00  0.00    -0.006 C 
HETATM    8  C4  UNL     1      13.310  10.519  15.327  1.00  0.00     0.005 C 
HETATM    9  C5  UNL     1      13.632  10.725  16.791  1.00  0.00     0.000 C 
HETATM   10  C6  UNL     1      12.278  10.812  17.513  1.00  0.00     0.000 C 
HETATM   11  C7  UNL     1      11.583  12.089  17.080  1.00  0.00     0.000 C 
HETATM   12  C8  UNL     1      12.281  12.705  15.884  1.00  0.00     0.005 C 
ENDBRANCH   6   7
ENDBRANCH   3   6
ENDBRANCH   1   2
BRANCH   1  13
HETATM   13  C10 UNL     1      16.359  10.381  10.616  1.00  0.00     0.268 C 
HETATM   14  O2  UNL     1      17.430  10.700  11.193  1.00  0.00    -0.269 OA
HETATM   15  N2  UNL     1      16.313  10.474   9.202  1.00  0.00    -0.235 N 
ATOM     16  H2  UNL     1      15.463  10.229   8.694  1.00  0.00     0.197 HD
BRANCH  15  17
HETATM   17  O3  UNL     1      17.421  10.893   8.534  1.00  0.00    -0.287 OA
ATOM     18  H3  UNL     1      17.395  11.727   8.079  1.00  0.00     0.244 HD
ENDBRANCH  15  17
ENDBRANCH   1  13
BRANCH   1  19
HETATM   19  C11 UNL     1      15.295   8.590  11.957  1.00  0.00    -0.026 A 
HETATM   20  C12 UNL     1      14.946   8.287  13.249  1.00  0.00     0.010 A 
HETATM   21  C13 UNL     1      15.132   6.979  13.717  1.00  0.00     0.013 A 
HETATM   22  C14 UNL     1      15.654   5.975  12.931  1.00  0.00    -0.026 A 
HETATM   23  C21 UNL     1      15.998   6.297  11.636  1.00  0.00     0.013 A 
HETATM   24  C22 UNL     1      15.816   7.583  11.173  1.00  0.00     0.010 A 
BRANCH  22  25
HETATM   25  C15 UNL     1      15.832   4.611  13.465  1.00  0.00    -0.020 A 
HETATM   26  C16 UNL     1      15.487   4.320  14.766  1.00  0.00     0.058 A 
HETATM   27  C17 UNL     1      15.642   3.057  15.285  1.00  0.00     0.158 A 
HETATM   28  F1  UNL     1      15.283   2.831  16.583  1.00  0.00    -0.203 F 
HETATM   29  C18 UNL     1      16.153   2.047  14.499  1.00  0.00     0.193 A 
HETATM   30  F2  UNL     1      16.307   0.788  15.016  1.00  0.00    -0.200 F 
HETATM   31  C19 UNL     1      16.491   2.351  13.204  1.00  0.00     0.158 A 
HETATM   32  F3  UNL     1      16.993   1.361  12.427  1.00  0.00    -0.203 F 
HETATM   33  C20 UNL     1      16.341   3.612  12.671  1.00  0.00     0.058 A 
ENDBRANCH  22  25
ENDBRANCH   1  19
TORSDOF 7
ENDMDL
