MODEL 8
REMARK VINA RESULT: -11.088148630      4.297      8.011
REMARK  7 active torsions:
REMARK  status: ('A' for Active; 'I' for Inactive)
REMARK    1  A    between atoms: C1_2  and  C2_3 
REMARK       I    between atoms: C1_2  and  N1_10 
REMARK    2  A    between atoms: C2_3  and  C3_4 
REMARK    3  A    between atoms: N1_10  and  C9_12 
REMARK    4  A    between atoms: C9_12  and  C10_13 
REMARK    5  A    between atoms: C9_12  and  C11_19 
REMARK       I    between atoms: C10_13  and  N2_15 
REMARK    6  A    between atoms: N2_15  and  O3_17 
REMARK    7  A    between atoms: C14_22  and  C15_23 
ROOT
HETATM    1  C9  UNL     1      15.159   9.927  11.331  1.00  0.00     0.212 C 
ENDROOT
BRANCH   1   2
HETATM    2  N1  UNL     1      14.915  10.848  12.460  1.00  0.00    -0.344 N 
HETATM    3  C1  UNL     1      13.641  11.440  12.588  1.00  0.00     0.218 C 
HETATM    4  O1  UNL     1      12.751  11.181  11.756  1.00  0.00    -0.274 OA
ATOM      5  H1  UNL     1      15.653  11.053  13.133  1.00  0.00     0.163 HD
BRANCH   3   6
HETATM    6  C2  UNL     1      13.374  12.363  13.706  1.00  0.00     0.107 C 
BRANCH   6   7
HETATM    7  C3  UNL     1      12.565  11.697  14.807  1.00  0.00    -0.006 C 
HETATM    8  C4  UNL     1      13.300  10.508  15.312  1.00  0.00     0.005 C 
HETATM    9  C5  UNL     1      13.635  10.709  16.774  1.00  0.00     0.000 C 
HETATM   10  C6  UNL     1      12.288  10.802  17.508  1.00  0.00     0.000 C 
HETATM   11  C7  UNL     1      11.595  12.083  17.083  1.00  0.00     0.000 C 
HETATM   12  C8  UNL     1      12.286  12.698  15.882  1.00  0.00     0.005 C 
ENDBRANCH   6   7
ENDBRANCH   3   6
ENDBRANCH   1   2
BRANCH   1  13
HETATM   13  C10 UNL     1      16.366  10.379  10.607  1.00  0.00     0.268 C 
HETATM   14  O2  UNL     1      17.435  10.696  11.187  1.00  0.00    -0.269 OA
HETATM   15  N2  UNL     1      16.326  10.468   9.192  1.00  0.00    -0.235 N 
ATOM     16  H2  UNL     1      15.477  10.225   8.681  1.00  0.00     0.197 HD
BRANCH  15  17
HETATM   17  O3  UNL     1      17.437  10.882   8.527  1.00  0.00    -0.287 OA
ATOM     18  H3  UNL     1      17.430  10.885   7.577  1.00  0.00     0.244 HD
ENDBRANCH  15  17
ENDBRANCH   1  13
BRANCH   1  19
HETATM   19  C11 UNL     1      15.290   8.597  11.950  1.00  0.00    -0.026 A 
HETATM   20  C12 UNL     1      14.936   8.299  13.242  1.00  0.00     0.010 A 
HETATM   21  C13 UNL     1      15.116   6.994  13.716  1.00  0.00     0.013 A 
HETATM   22  C14 UNL     1      15.637   5.985  12.936  1.00  0.00    -0.026 A 
HETATM   23  C21 UNL     1      15.987   6.300  11.641  1.00  0.00     0.013 A 
HETATM   24  C22 UNL     1      15.811   7.584  11.172  1.00  0.00     0.010 A 
BRANCH  22  25
HETATM   25  C15 UNL     1      15.809   4.622  13.476  1.00  0.00    -0.020 A 
HETATM   26  C16 UNL     1      16.326   3.618  12.687  1.00  0.00     0.058 A 
HETATM   27  C17 UNL     1      16.496   2.342  13.169  1.00  0.00     0.158 A 
HETATM   28  F1  UNL     1      17.014   1.390  12.338  1.00  0.00    -0.203 F 
HETATM   29  C18 UNL     1      16.146   2.043  14.467  1.00  0.00     0.193 A 
HETATM   30  F2  UNL     1      16.315   0.771  14.947  1.00  0.00    -0.200 F 
HETATM   31  C19 UNL     1      15.632   3.053  15.241  1.00  0.00     0.158 A 
HETATM   32  F3  UNL     1      15.285   2.763  16.519  1.00  0.00    -0.203 F 
HETATM   33  C20 UNL     1      15.456   4.336  14.773  1.00  0.00     0.058 A 
ENDBRANCH  22  25
ENDBRANCH   1  19
TORSDOF 7
ENDMDL
