MODEL 5
REMARK VINA RESULT: -11.571855071      0.859      1.130
REMARK  7 active torsions:
REMARK  status: ('A' for Active; 'I' for Inactive)
REMARK    1  A    between atoms: C1_2  and  C2_3 
REMARK       I    between atoms: C1_2  and  N1_10 
REMARK    2  A    between atoms: C2_3  and  C3_4 
REMARK    3  A    between atoms: N1_10  and  C9_12 
REMARK    4  A    between atoms: C9_12  and  C10_13 
REMARK    5  A    between atoms: C9_12  and  C11_19 
REMARK       I    between atoms: C10_13  and  N2_15 
REMARK    6  A    between atoms: N2_15  and  O3_17 
REMARK    7  A    between atoms: C14_22  and  C15_23 
ROOT
HETATM    1  C9  UNL     1      14.483  10.794  12.595  1.00  0.00     0.212 C 
ENDROOT
BRANCH   1   2
HETATM    2  N1  UNL     1      14.523   9.330  12.398  1.00  0.00    -0.344 N 
HETATM    3  C1  UNL     1      15.776   8.683  12.385  1.00  0.00     0.218 C 
HETATM    4  O1  UNL     1      16.818   9.347  12.536  1.00  0.00    -0.274 OA
ATOM      5  H1  UNL     1      13.662   8.799  12.275  1.00  0.00     0.163 HD
BRANCH   3   6
HETATM    6  C2  UNL     1      15.840   7.223  12.190  1.00  0.00     0.107 C 
BRANCH   6   7
HETATM    7  C3  UNL     1      15.923   6.479  13.512  1.00  0.00    -0.006 C 
HETATM    8  C4  UNL     1      14.550   6.207  14.014  1.00  0.00     0.005 C 
HETATM    9  C5  UNL     1      14.333   4.712  14.097  1.00  0.00     0.000 C 
HETATM   10  C6  UNL     1      15.346   4.196  15.132  1.00  0.00     0.000 C 
HETATM   11  C7  UNL     1      16.742   4.360  14.563  1.00  0.00     0.000 C 
HETATM   12  C8  UNL     1      16.721   5.230  13.322  1.00  0.00     0.005 C 
ENDBRANCH   6   7
ENDBRANCH   3   6
ENDBRANCH   1   2
BRANCH   1  13
HETATM   13  C10 UNL     1      13.558  11.377  11.600  1.00  0.00     0.268 C 
HETATM   14  O2  UNL     1      12.315  11.195  11.631  1.00  0.00    -0.269 OA
HETATM   15  N2  UNL     1      14.087  12.179  10.557  1.00  0.00    -0.235 N 
ATOM     16  H2  UNL     1      15.091  12.349  10.492  1.00  0.00     0.197 HD
BRANCH  15  17
HETATM   17  O3  UNL     1      13.235  12.717   9.644  1.00  0.00    -0.287 OA
ATOM     18  H3  UNL     1      13.564  13.370   9.037  1.00  0.00     0.244 HD
ENDBRANCH  15  17
ENDBRANCH   1  13
BRANCH   1  19
HETATM   19  C11 UNL     1      14.058  10.977  13.993  1.00  0.00    -0.026 A 
HETATM   20  C12 UNL     1      13.874   9.956  14.892  1.00  0.00     0.010 A 
HETATM   21  C13 UNL     1      13.460  10.260  16.196  1.00  0.00     0.013 A 
HETATM   22  C14 UNL     1      13.228  11.550  16.620  1.00  0.00    -0.026 A 
HETATM   23  C21 UNL     1      13.418  12.563  15.705  1.00  0.00     0.013 A 
HETATM   24  C22 UNL     1      13.825  12.266  14.422  1.00  0.00     0.010 A 
BRANCH  22  25
HETATM   25  C15 UNL     1      12.794  11.825  18.003  1.00  0.00    -0.020 A 
HETATM   26  C16 UNL     1      13.515  12.684  18.804  1.00  0.00     0.058 A 
HETATM   27  C17 UNL     1      13.130  12.957  20.094  1.00  0.00     0.158 A 
HETATM   28  F1  UNL     1      13.886  13.816  20.838  1.00  0.00    -0.203 F 
HETATM   29  C18 UNL     1      11.999  12.366  20.616  1.00  0.00     0.193 A 
HETATM   30  F2  UNL     1      11.615  12.638  21.902  1.00  0.00    -0.200 F 
HETATM   31  C19 UNL     1      11.291  11.513  19.806  1.00  0.00     0.158 A 
HETATM   32  F3  UNL     1      10.178  10.930  20.315  1.00  0.00    -0.203 F 
HETATM   33  C20 UNL     1      11.665  11.231  18.512  1.00  0.00     0.058 A 
ENDBRANCH  22  25
ENDBRANCH   1  19
TORSDOF 7
ENDMDL
