MODEL 2
REMARK VINA RESULT: -11.825778539      0.035      1.495
REMARK  7 active torsions:
REMARK  status: ('A' for Active; 'I' for Inactive)
REMARK    1  A    between atoms: C1_2  and  C2_3 
REMARK       I    between atoms: C1_2  and  N1_10 
REMARK    2  A    between atoms: C2_3  and  C3_4 
REMARK    3  A    between atoms: N1_10  and  C9_12 
REMARK    4  A    between atoms: C9_12  and  C10_13 
REMARK    5  A    between atoms: C9_12  and  C11_19 
REMARK       I    between atoms: C10_13  and  N2_15 
REMARK    6  A    between atoms: N2_15  and  O3_17 
REMARK    7  A    between atoms: C14_22  and  C15_23 
ROOT
HETATM    1  C9  UNL     1      14.557  10.706  12.505  1.00  0.00     0.212 C 
ENDROOT
BRANCH   1   2
HETATM    2  N1  UNL     1      14.902   9.273  12.409  1.00  0.00    -0.344 N 
HETATM    3  C1  UNL     1      16.261   8.908  12.319  1.00  0.00     0.218 C 
HETATM    4  O1  UNL     1      17.141   9.789  12.320  1.00  0.00    -0.274 OA
ATOM      5  H1  UNL     1      14.171   8.562  12.408  1.00  0.00     0.163 HD
BRANCH   3   6
HETATM    6  C2  UNL     1      16.629   7.483  12.222  1.00  0.00     0.107 C 
BRANCH   6   7
HETATM    7  C3  UNL     1      15.471   6.574  12.601  1.00  0.00    -0.006 C 
HETATM    8  C4  UNL     1      15.655   5.245  11.961  1.00  0.00     0.005 C 
HETATM    9  C5  UNL     1      15.796   4.187  13.034  1.00  0.00     0.000 C 
HETATM   10  C6  UNL     1      14.464   4.183  13.801  1.00  0.00     0.000 C 
HETATM   11  C7  UNL     1      14.339   5.493  14.554  1.00  0.00     0.000 C 
HETATM   12  C8  UNL     1      15.386   6.486  14.090  1.00  0.00     0.005 C 
ENDBRANCH   6   7
ENDBRANCH   3   6
ENDBRANCH   1   2
BRANCH   1  13
HETATM   13  C10 UNL     1      13.524  11.011  11.493  1.00  0.00     0.268 C 
HETATM   14  O2  UNL     1      13.492  10.465  10.361  1.00  0.00    -0.269 OA
HETATM   15  N2  UNL     1      12.520  11.964  11.801  1.00  0.00    -0.235 N 
ATOM     16  H2  UNL     1      12.511  12.434  12.706  1.00  0.00     0.197 HD
BRANCH  15  17
HETATM   17  O3  UNL     1      11.568  12.241  10.869  1.00  0.00    -0.287 OA
ATOM     18  H3  UNL     1      11.795  12.794  10.131  1.00  0.00     0.244 HD
ENDBRANCH  15  17
ENDBRANCH   1  13
BRANCH   1  19
HETATM   19  C11 UNL     1      14.114  10.898  13.896  1.00  0.00    -0.026 A 
HETATM   20  C12 UNL     1      13.861   9.879  14.781  1.00  0.00     0.010 A 
HETATM   21  C13 UNL     1      13.437  10.192  16.079  1.00  0.00     0.013 A 
HETATM   22  C14 UNL     1      13.261  11.488  16.511  1.00  0.00    -0.026 A 
HETATM   23  C21 UNL     1      13.520  12.498  15.611  1.00  0.00     0.013 A 
HETATM   24  C22 UNL     1      13.938  12.194  14.333  1.00  0.00     0.010 A 
BRANCH  22  25
HETATM   25  C15 UNL     1      12.813  11.772  17.889  1.00  0.00    -0.020 A 
HETATM   26  C16 UNL     1      11.669  11.188  18.386  1.00  0.00     0.058 A 
HETATM   27  C17 UNL     1      11.233  11.436  19.665  1.00  0.00     0.158 A 
HETATM   28  F1  UNL     1      10.091  10.828  20.100  1.00  0.00    -0.203 F 
HETATM   29  C18 UNL     1      11.946  12.286  20.483  1.00  0.00     0.193 A 
HETATM   30  F2  UNL     1      11.511  12.533  21.759  1.00  0.00    -0.200 F 
HETATM   31  C19 UNL     1      13.084  12.860  19.975  1.00  0.00     0.158 A 
HETATM   32  F3  UNL     1      13.788  13.697  20.776  1.00  0.00    -0.203 F 
HETATM   33  C20 UNL     1      13.532  12.621  18.695  1.00  0.00     0.058 A 
ENDBRANCH  22  25
ENDBRANCH   1  19
TORSDOF 7
ENDMDL
