MODEL 9
REMARK VINA RESULT: -10.813373850      4.283      8.082
REMARK  7 active torsions:
REMARK  status: ('A' for Active; 'I' for Inactive)
REMARK    1  A    between atoms: C1_2  and  C2_3 
REMARK       I    between atoms: C1_2  and  N1_10 
REMARK    2  A    between atoms: C2_3  and  C3_4 
REMARK    3  A    between atoms: N1_10  and  C9_12 
REMARK    4  A    between atoms: C9_12  and  C10_13 
REMARK    5  A    between atoms: C9_12  and  C11_19 
REMARK       I    between atoms: C10_13  and  N2_15 
REMARK    6  A    between atoms: N2_15  and  O3_17 
REMARK    7  A    between atoms: C14_22  and  C15_23 
ROOT
HETATM    1  C9  UNL     1      15.074   9.638  11.472  1.00  0.00     0.212 C 
ENDROOT
BRANCH   1   2
HETATM    2  N1  UNL     1      14.283  10.292  12.533  1.00  0.00    -0.344 N 
HETATM    3  C1  UNL     1      13.361  11.296  12.170  1.00  0.00     0.218 C 
HETATM    4  O1  UNL     1      13.231  11.614  10.973  1.00  0.00    -0.274 OA
ATOM      5  H1  UNL     1      14.400  10.023  13.510  1.00  0.00     0.163 HD
BRANCH   3   6
HETATM    6  C2  UNL     1      12.561  11.964  13.213  1.00  0.00     0.107 C 
BRANCH   6   7
HETATM    7  C3  UNL     1      13.206  11.844  14.583  1.00  0.00    -0.006 C 
HETATM    8  C4  UNL     1      12.653  12.890  15.484  1.00  0.00     0.005 C 
HETATM    9  C5  UNL     1      11.938  12.228  16.641  1.00  0.00     0.000 C 
HETATM   10  C6  UNL     1      13.013  11.439  17.407  1.00  0.00     0.000 C 
HETATM   11  C7  UNL     1      13.485  10.295  16.530  1.00  0.00     0.000 C 
HETATM   12  C8  UNL     1      12.986  10.462  15.108  1.00  0.00     0.005 C 
ENDBRANCH   6   7
ENDBRANCH   3   6
ENDBRANCH   1   2
BRANCH   1  13
HETATM   13  C10 UNL     1      16.309  10.421  11.254  1.00  0.00     0.268 C 
HETATM   14  O2  UNL     1      17.065  10.781  12.191  1.00  0.00    -0.269 OA
HETATM   15  N2  UNL     1      16.664  10.791   9.932  1.00  0.00    -0.235 N 
ATOM     16  H2  UNL     1      16.076  10.523   9.143  1.00  0.00     0.197 HD
BRANCH  15  17
HETATM   17  O3  UNL     1      17.801  11.510   9.733  1.00  0.00    -0.287 OA
ATOM     18  H3  UNL     1      17.851  12.095   8.987  1.00  0.00     0.244 HD
ENDBRANCH  15  17
ENDBRANCH   1  13
BRANCH   1  19
HETATM   19  C11 UNL     1      15.307   8.268  11.962  1.00  0.00    -0.026 A 
HETATM   20  C12 UNL     1      15.910   7.272  11.236  1.00  0.00     0.010 A 
HETATM   21  C13 UNL     1      16.067   6.006  11.814  1.00  0.00     0.013 A 
HETATM   22  C14 UNL     1      15.640   5.713  13.090  1.00  0.00    -0.026 A 
HETATM   23  C21 UNL     1      15.037   6.724  13.805  1.00  0.00     0.013 A 
HETATM   24  C22 UNL     1      14.881   7.971  13.239  1.00  0.00     0.010 A 
BRANCH  22  25
HETATM   25  C15 UNL     1      15.827   4.364  13.660  1.00  0.00    -0.020 A 
HETATM   26  C16 UNL     1      16.462   3.381  12.933  1.00  0.00     0.058 A 
HETATM   27  C17 UNL     1      16.649   2.118  13.443  1.00  0.00     0.158 A 
HETATM   28  F1  UNL     1      17.285   1.187  12.674  1.00  0.00    -0.203 F 
HETATM   29  C18 UNL     1      16.197   1.812  14.708  1.00  0.00     0.193 A 
HETATM   30  F2  UNL     1      16.384   0.554  15.217  1.00  0.00    -0.200 F 
HETATM   31  C19 UNL     1      15.567   2.802  15.421  1.00  0.00     0.158 A 
HETATM   32  F3  UNL     1      15.121   2.505  16.666  1.00  0.00    -0.203 F 
HETATM   33  C20 UNL     1      15.373   4.071  14.923  1.00  0.00     0.058 A 
ENDBRANCH  22  25
ENDBRANCH   1  19
TORSDOF 7
ENDMDL
