MODEL 1
REMARK VINA RESULT: -11.861056674      0.000      0.000
REMARK  7 active torsions:
REMARK  status: ('A' for Active; 'I' for Inactive)
REMARK    1  A    between atoms: C1_2  and  C2_3 
REMARK       I    between atoms: C1_2  and  N1_10 
REMARK    2  A    between atoms: C2_3  and  C3_4 
REMARK    3  A    between atoms: N1_10  and  C9_12 
REMARK    4  A    between atoms: C9_12  and  C10_13 
REMARK    5  A    between atoms: C9_12  and  C11_19 
REMARK       I    between atoms: C10_13  and  N2_15 
REMARK    6  A    between atoms: N2_15  and  O3_17 
REMARK    7  A    between atoms: C14_22  and  C15_23 
ROOT
HETATM    1  C9  UNL     1      14.571  10.691  12.509  1.00  0.00     0.212 C 
ENDROOT
BRANCH   1   2
HETATM    2  N1  UNL     1      14.914   9.258  12.413  1.00  0.00    -0.344 N 
HETATM    3  C1  UNL     1      16.274   8.891  12.331  1.00  0.00     0.218 C 
HETATM    4  O1  UNL     1      17.155   9.771  12.339  1.00  0.00    -0.274 OA
ATOM      5  H1  UNL     1      14.183   8.547  12.407  1.00  0.00     0.163 HD
BRANCH   3   6
HETATM    6  C2  UNL     1      16.640   7.466  12.235  1.00  0.00     0.107 C 
BRANCH   6   7
HETATM    7  C3  UNL     1      15.481   6.558  12.612  1.00  0.00    -0.006 C 
HETATM    8  C4  UNL     1      15.665   5.228  11.972  1.00  0.00     0.005 C 
HETATM    9  C5  UNL     1      15.803   4.170  13.044  1.00  0.00     0.000 C 
HETATM   10  C6  UNL     1      14.470   4.167  13.809  1.00  0.00     0.000 C 
HETATM   11  C7  UNL     1      14.345   5.477  14.563  1.00  0.00     0.000 C 
HETATM   12  C8  UNL     1      15.394   6.470  14.101  1.00  0.00     0.005 C 
ENDBRANCH   6   7
ENDBRANCH   3   6
ENDBRANCH   1   2
BRANCH   1  13
HETATM   13  C10 UNL     1      13.543  10.998  11.492  1.00  0.00     0.268 C 
HETATM   14  O2  UNL     1      13.512  10.448  10.362  1.00  0.00    -0.269 OA
HETATM   15  N2  UNL     1      12.544  11.958  11.792  1.00  0.00    -0.235 N 
ATOM     16  H2  UNL     1      12.534  12.432  12.695  1.00  0.00     0.197 HD
BRANCH  15  17
HETATM   17  O3  UNL     1      11.598  12.238  10.856  1.00  0.00    -0.287 OA
ATOM     18  H3  UNL     1      11.019  12.978  10.994  1.00  0.00     0.244 HD
ENDBRANCH  15  17
ENDBRANCH   1  13
BRANCH   1  19
HETATM   19  C11 UNL     1      14.120  10.881  13.898  1.00  0.00    -0.026 A 
HETATM   20  C12 UNL     1      13.875   9.863  14.784  1.00  0.00     0.010 A 
HETATM   21  C13 UNL     1      13.442  10.175  16.080  1.00  0.00     0.013 A 
HETATM   22  C14 UNL     1      13.251  11.470  16.508  1.00  0.00    -0.026 A 
HETATM   23  C21 UNL     1      13.502  12.480  15.606  1.00  0.00     0.013 A 
HETATM   24  C22 UNL     1      13.928  12.176  14.331  1.00  0.00     0.010 A 
BRANCH  22  25
HETATM   25  C15 UNL     1      12.795  11.753  17.883  1.00  0.00    -0.020 A 
HETATM   26  C16 UNL     1      13.507  12.611  18.693  1.00  0.00     0.058 A 
HETATM   27  C17 UNL     1      13.101  12.890  19.975  1.00  0.00     0.158 A 
HETATM   28  F1  UNL     1      13.850  13.749  20.728  1.00  0.00    -0.203 F 
HETATM   29  C18 UNL     1      11.959  12.307  20.480  1.00  0.00     0.193 A 
HETATM   30  F2  UNL     1      11.555  12.586  21.759  1.00  0.00    -0.200 F 
HETATM   31  C19 UNL     1      11.260  11.455  19.662  1.00  0.00     0.158 A 
HETATM   32  F3  UNL     1      10.136  10.880  20.154  1.00  0.00    -0.203 F 
HETATM   33  C20 UNL     1      11.654  11.166  18.375  1.00  0.00     0.058 A 
ENDBRANCH  22  25
ENDBRANCH   1  19
TORSDOF 7
ENDMDL
