MODEL 1
REMARK VINA RESULT: -8.674758423      0.000      0.000
REMARK  6 active torsions:
REMARK  status: ('A' for Active; 'I' for Inactive)
REMARK    1  A    between atoms: C4_4  and  N1_5 
REMARK       I    between atoms: N1_5  and  C5_7 
REMARK       I    between atoms: C5_7  and  N2_9 
REMARK    2  A    between atoms: N2_9  and  C6_11 
REMARK    3  A    between atoms: C8_13  and  S1_14 
REMARK    4  A    between atoms: S1_14  and  N3_15 
REMARK    5  A    between atoms: C10_21  and  N4_22 
REMARK    6  A    between atoms: C11_25  and  O6_26 
ROOT
HETATM    1  C6  UNL     1      -4.762   4.450  13.841  1.00  0.00     0.073 A 
HETATM    2  C7  UNL     1      -4.750   3.454  14.776  1.00  0.00     0.057 A 
HETATM    3  C8  UNL     1      -4.533   2.109  14.441  1.00  0.00     0.084 A 
HETATM    4  C9  UNL     1      -4.322   1.745  13.133  1.00  0.00     0.064 A 
HETATM    5  C10 UNL     1      -4.331   2.733  12.181  1.00  0.00     0.139 A 
HETATM    6  C11 UNL     1      -4.549   4.072  12.521  1.00  0.00     0.126 A 
ENDROOT
BRANCH   1   7
HETATM    7  N2  UNL     1      -4.975   5.800  14.126  1.00  0.00    -0.306 N 
HETATM    8  C5  UNL     1      -4.001   6.846  14.126  1.00  0.00     0.325 C 
HETATM    9  N1  UNL     1      -4.372   8.182  14.440  1.00  0.00    -0.309 N 
HETATM   10  O1  UNL     1      -2.816   6.580  13.849  1.00  0.00    -0.247 OA
ATOM     11  H1  UNL     1      -5.353   8.356  14.658  1.00  0.00     0.170 HD
ATOM     12  H2  UNL     1      -5.930   6.069  14.360  1.00  0.00     0.171 HD
BRANCH   9  13
HETATM   13  C4  UNL     1      -3.501   9.281  14.474  1.00  0.00     0.037 A 
HETATM   14  C3  UNL     1      -2.214   9.297  14.892  1.00  0.00     0.039 A 
HETATM   15  C2  UNL     1      -1.420  10.453  14.876  1.00  0.00    -0.021 A 
HETATM   16  C1  UNL     1      -0.006  10.402  15.352  1.00  0.00     0.051 C 
HETATM   17  C14 UNL     1      -1.944  11.632  14.423  1.00  0.00     0.122 A 
HETATM   18  C13 UNL     1      -3.251  11.658  13.987  1.00  0.00     0.045 A 
HETATM   19  F1  UNL     1      -1.157  12.740  14.416  1.00  0.00    -0.206 F 
HETATM   20  C12 UNL     1      -4.008  10.509  14.014  1.00  0.00     0.032 A 
ENDBRANCH   9  13
ENDBRANCH   1   7
BRANCH   6  21
HETATM   21  O6  UNL     1      -4.532   4.959  11.470  1.00  0.00    -0.356 OA
ATOM     22  H6  UNL     1      -5.237   5.570  11.287  1.00  0.00     0.218 HD
ENDBRANCH   6  21
BRANCH   3  23
HETATM   23  S1  UNL     1      -4.529   0.883  15.685  1.00  0.00     0.256 S 
HETATM   24  O2  UNL     1      -4.572  -0.495  15.099  1.00  0.00    -0.201 OA
HETATM   25  O3  UNL     1      -3.312   1.025  16.578  1.00  0.00    -0.201 OA
BRANCH  23  26
HETATM   26  N3  UNL     1      -5.920   1.086  16.688  1.00  0.00    -0.324 N 
ATOM     27  H32 UNL     1      -5.973   0.809  17.668  1.00  0.00     0.169 HD
ATOM     28  H31 UNL     1      -6.666   1.521  16.144  1.00  0.00     0.169 HD
ENDBRANCH  23  26
ENDBRANCH   3  23
BRANCH   5  29
HETATM   29  N4  UNL     1      -4.113   2.365  10.821  1.00  0.00    -0.113 N 
HETATM   30  O4  UNL     1      -4.824   1.477  10.306  1.00  0.00    -0.532 OA
HETATM   31  O5  UNL     1      -3.151   2.941  10.032  1.00  0.00    -0.532 OA
ENDBRANCH   5  29
TORSDOF 6
ENDMDL
