MODEL 15
REMARK VINA RESULT: -7.797289403      4.370      5.446
REMARK  6 active torsions:
REMARK  status: ('A' for Active; 'I' for Inactive)
REMARK    1  A    between atoms: C4_4  and  N1_5 
REMARK       I    between atoms: N1_5  and  C5_7 
REMARK       I    between atoms: C5_7  and  N2_9 
REMARK    2  A    between atoms: N2_9  and  C6_11 
REMARK    3  A    between atoms: C8_13  and  S1_14 
REMARK    4  A    between atoms: S1_14  and  N3_15 
REMARK    5  A    between atoms: C10_21  and  N4_22 
REMARK    6  A    between atoms: C11_25  and  O6_26 
ROOT
HETATM    1  C6  UNL     1      -4.292   1.871  11.679  1.00  0.00     0.073 A 
HETATM    2  C7  UNL     1      -4.470   2.058  13.021  1.00  0.00     0.057 A 
HETATM    3  C8  UNL     1      -4.364   1.011  13.948  1.00  0.00     0.084 A 
HETATM    4  C9  UNL     1      -4.072  -0.263  13.525  1.00  0.00     0.064 A 
HETATM    5  C10 UNL     1      -3.890  -0.469  12.181  1.00  0.00     0.139 A 
HETATM    6  C11 UNL     1      -3.998   0.580  11.261  1.00  0.00     0.126 A 
ENDROOT
BRANCH   1   7
HETATM    7  N2  UNL     1      -4.388   2.881  10.720  1.00  0.00    -0.306 N 
HETATM    8  C5  UNL     1      -3.330   3.704  10.223  1.00  0.00     0.325 C 
HETATM    9  N1  UNL     1      -3.586   4.697   9.239  1.00  0.00    -0.309 N 
HETATM   10  O1  UNL     1      -2.175   3.545  10.659  1.00  0.00    -0.247 OA
ATOM     11  H1  UNL     1      -4.545   4.792   8.907  1.00  0.00     0.170 HD
ATOM     12  H2  UNL     1      -5.316   3.051  10.331  1.00  0.00     0.171 HD
BRANCH   9  13
HETATM   13  C4  UNL     1      -2.626   5.559   8.686  1.00  0.00     0.037 A 
HETATM   14  C3  UNL     1      -1.823   5.322   7.623  1.00  0.00     0.039 A 
HETATM   15  C2  UNL     1      -0.899   6.259   7.141  1.00  0.00    -0.021 A 
HETATM   16  C1  UNL     1      -0.043   5.934   5.961  1.00  0.00     0.051 C 
HETATM   17  C14 UNL     1      -0.780   7.475   7.753  1.00  0.00     0.122 A 
HETATM   18  C13 UNL     1      -1.580   7.757   8.839  1.00  0.00     0.045 A 
HETATM   19  F1  UNL     1       0.122   8.369   7.269  1.00  0.00    -0.206 F 
HETATM   20  C12 UNL     1      -2.480   6.819   9.292  1.00  0.00     0.032 A 
ENDBRANCH   9  13
ENDBRANCH   1   7
BRANCH   6  21
HETATM   21  O6  UNL     1      -3.792   0.235   9.946  1.00  0.00    -0.356 OA
ATOM     22  H6  UNL     1      -3.255   0.742   9.348  1.00  0.00     0.218 HD
ENDBRANCH   6  21
BRANCH   3  23
HETATM   23  S1  UNL     1      -4.603   1.318  15.651  1.00  0.00     0.256 S 
HETATM   24  O2  UNL     1      -5.276   0.163  16.327  1.00  0.00    -0.201 OA
HETATM   25  O3  UNL     1      -3.285   1.618  16.335  1.00  0.00    -0.201 OA
BRANCH  23  26
HETATM   26  N3  UNL     1      -5.603   2.712  15.843  1.00  0.00    -0.324 N 
ATOM     27  H32 UNL     1      -6.067   2.977  16.712  1.00  0.00     0.169 HD
ATOM     28  H31 UNL     1      -5.651   3.217  14.957  1.00  0.00     0.169 HD
ENDBRANCH  23  26
ENDBRANCH   3  23
BRANCH   5  29
HETATM   29  N4  UNL     1      -3.587  -1.788  11.732  1.00  0.00    -0.113 N 
HETATM   30  O4  UNL     1      -4.519  -2.547  11.392  1.00  0.00    -0.532 OA
HETATM   31  O5  UNL     1      -2.309  -2.278  11.652  1.00  0.00    -0.532 OA
ENDBRANCH   5  29
TORSDOF 6
ENDMDL
