MODEL 4
REMARK VINA RESULT: -8.353663626      1.650      2.039
REMARK  6 active torsions:
REMARK  status: ('A' for Active; 'I' for Inactive)
REMARK    1  A    between atoms: C4_4  and  N1_5 
REMARK       I    between atoms: N1_5  and  C5_7 
REMARK       I    between atoms: C5_7  and  N2_9 
REMARK    2  A    between atoms: N2_9  and  C6_11 
REMARK    3  A    between atoms: C8_13  and  S1_14 
REMARK    4  A    between atoms: S1_14  and  N3_15 
REMARK    5  A    between atoms: C10_21  and  N4_22 
REMARK    6  A    between atoms: C11_25  and  O6_26 
ROOT
HETATM    1  C6  UNL     1      -3.877   3.231  12.406  1.00  0.00     0.073 A 
HETATM    2  C7  UNL     1      -4.128   2.893  13.706  1.00  0.00     0.057 A 
HETATM    3  C8  UNL     1      -4.252   1.560  14.127  1.00  0.00     0.084 A 
HETATM    4  C9  UNL     1      -4.124   0.533  13.225  1.00  0.00     0.064 A 
HETATM    5  C10 UNL     1      -3.871   0.854  11.915  1.00  0.00     0.139 A 
HETATM    6  C11 UNL     1      -3.749   2.184  11.501  1.00  0.00     0.126 A 
ENDROOT
BRANCH   1   7
HETATM    7  N2  UNL     1      -3.745   4.540  11.941  1.00  0.00    -0.306 N 
HETATM    8  C5  UNL     1      -3.704   5.735  12.724  1.00  0.00     0.325 C 
HETATM    9  N1  UNL     1      -3.566   7.005  12.101  1.00  0.00    -0.309 N 
HETATM   10  O1  UNL     1      -3.792   5.658  13.964  1.00  0.00    -0.247 OA
ATOM     11  H1  UNL     1      -3.495   7.023  11.084  1.00  0.00     0.170 HD
ATOM     12  H2  UNL     1      -3.671   4.657  10.930  1.00  0.00     0.171 HD
BRANCH   9  13
HETATM   13  C4  UNL     1      -3.518   8.237  12.771  1.00  0.00     0.037 A 
HETATM   14  C3  UNL     1      -2.482   8.752  13.474  1.00  0.00     0.039 A 
HETATM   15  C2  UNL     1      -2.533  10.005  14.102  1.00  0.00    -0.021 A 
HETATM   16  C1  UNL     1      -1.353  10.514  14.862  1.00  0.00     0.051 C 
HETATM   17  C14 UNL     1      -3.668  10.762  14.017  1.00  0.00     0.122 A 
HETATM   18  C13 UNL     1      -4.745  10.275  13.310  1.00  0.00     0.045 A 
HETATM   19  F1  UNL     1      -3.695  11.974  14.633  1.00  0.00    -0.206 F 
HETATM   20  C12 UNL     1      -4.669   9.042  12.704  1.00  0.00     0.032 A 
ENDBRANCH   9  13
ENDBRANCH   1   7
BRANCH   6  21
HETATM   21  O6  UNL     1      -3.496   2.365  10.162  1.00  0.00    -0.356 OA
ATOM     22  H6  UNL     1      -3.176   1.677   9.590  1.00  0.00     0.218 HD
ENDBRANCH   6  21
BRANCH   3  23
HETATM   23  S1  UNL     1      -4.573   1.196  15.805  1.00  0.00     0.256 S 
HETATM   24  O2  UNL     1      -4.910  -0.251  15.998  1.00  0.00    -0.201 OA
HETATM   25  O3  UNL     1      -3.390   1.570  16.675  1.00  0.00    -0.201 OA
BRANCH  23  26
HETATM   26  N3  UNL     1      -5.917   2.137  16.345  1.00  0.00    -0.324 N 
ATOM     27  H32 UNL     1      -5.842   3.058  16.778  1.00  0.00     0.169 HD
ATOM     28  H31 UNL     1      -6.781   1.627  16.162  1.00  0.00     0.169 HD
ENDBRANCH  23  26
ENDBRANCH   3  23
BRANCH   5  29
HETATM   29  N4  UNL     1      -3.736  -0.206  10.972  1.00  0.00    -0.113 N 
HETATM   30  O4  UNL     1      -3.333  -1.323  11.360  1.00  0.00    -0.532 OA
HETATM   31  O5  UNL     1      -4.029  -0.067   9.639  1.00  0.00    -0.532 OA
ENDBRANCH   5  29
TORSDOF 6
ENDMDL
