MODEL 5
REMARK VINA RESULT: -8.190872683      1.468      1.540
REMARK  6 active torsions:
REMARK  status: ('A' for Active; 'I' for Inactive)
REMARK    1  A    between atoms: C4_4  and  N1_5 
REMARK       I    between atoms: N1_5  and  C5_7 
REMARK       I    between atoms: C5_7  and  N2_9 
REMARK    2  A    between atoms: N2_9  and  C6_11 
REMARK    3  A    between atoms: C8_13  and  S1_14 
REMARK    4  A    between atoms: S1_14  and  N3_15 
REMARK    5  A    between atoms: C10_21  and  N4_22 
REMARK    6  A    between atoms: C11_25  and  O6_26 
ROOT
HETATM    1  C6  UNL     1      -5.280   4.177  14.657  1.00  0.00     0.073 A 
HETATM    2  C7  UNL     1      -5.650   3.461  15.762  1.00  0.00     0.057 A 
HETATM    3  C8  UNL     1      -5.450   2.077  15.864  1.00  0.00     0.084 A 
HETATM    4  C9  UNL     1      -4.863   1.383  14.834  1.00  0.00     0.064 A 
HETATM    5  C10 UNL     1      -4.485   2.085  13.718  1.00  0.00     0.139 A 
HETATM    6  C11 UNL     1      -4.687   3.466  13.622  1.00  0.00     0.126 A 
ENDROOT
BRANCH   1   7
HETATM    7  N2  UNL     1      -5.459   5.553  14.510  1.00  0.00    -0.306 N 
HETATM    8  C5  UNL     1      -4.454   6.567  14.576  1.00  0.00     0.325 C 
HETATM    9  N1  UNL     1      -4.793   7.937  14.405  1.00  0.00    -0.309 N 
HETATM   10  O1  UNL     1      -3.270   6.243  14.786  1.00  0.00    -0.247 OA
ATOM     11  H1  UNL     1      -5.773   8.158  14.232  1.00  0.00     0.170 HD
ATOM     12  H2  UNL     1      -6.413   5.871  14.336  1.00  0.00     0.171 HD
BRANCH   9  13
HETATM   13  C4  UNL     1      -3.890   9.010  14.453  1.00  0.00     0.037 A 
HETATM   14  C3  UNL     1      -2.588   8.972  14.820  1.00  0.00     0.039 A 
HETATM   15  C2  UNL     1      -1.764  10.107  14.825  1.00  0.00    -0.021 A 
HETATM   16  C1  UNL     1      -0.334   9.996  15.240  1.00  0.00     0.051 C 
HETATM   17  C14 UNL     1      -2.272  11.319  14.448  1.00  0.00     0.122 A 
HETATM   18  C13 UNL     1      -3.593  11.400  14.068  1.00  0.00     0.045 A 
HETATM   19  F1  UNL     1      -1.455  12.405  14.461  1.00  0.00    -0.206 F 
HETATM   20  C12 UNL     1      -4.381  10.270  14.072  1.00  0.00     0.032 A 
ENDBRANCH   9  13
ENDBRANCH   1   7
BRANCH   6  21
HETATM   21  O6  UNL     1      -4.262   4.045  12.449  1.00  0.00    -0.356 OA
ATOM     22  H6  UNL     1      -3.532   3.717  11.936  1.00  0.00     0.218 HD
ENDBRANCH   6  21
BRANCH   3  23
HETATM   23  S1  UNL     1      -5.946   1.221  17.304  1.00  0.00     0.256 S 
HETATM   24  O2  UNL     1      -7.276   0.557  17.117  1.00  0.00    -0.201 OA
HETATM   25  O3  UNL     1      -4.908   0.192  17.705  1.00  0.00    -0.201 OA
BRANCH  23  26
HETATM   26  N3  UNL     1      -6.082   2.340  18.612  1.00  0.00    -0.324 N 
ATOM     27  H32 UNL     1      -5.913   2.110  19.591  1.00  0.00     0.169 HD
ATOM     28  H31 UNL     1      -6.355   3.253  18.247  1.00  0.00     0.169 HD
ENDBRANCH  23  26
ENDBRANCH   3  23
BRANCH   5  29
HETATM   29  N4  UNL     1      -3.875   1.373  12.644  1.00  0.00    -0.113 N 
HETATM   30  O4  UNL     1      -4.494   0.433  12.103  1.00  0.00    -0.532 OA
HETATM   31  O5  UNL     1      -2.625   1.668  12.162  1.00  0.00    -0.532 OA
ENDBRANCH   5  29
TORSDOF 6
ENDMDL
