MODEL 11
REMARK VINA RESULT: -8.022718702      4.654      5.293
REMARK  6 active torsions:
REMARK  status: ('A' for Active; 'I' for Inactive)
REMARK    1  A    between atoms: C4_4  and  N1_5 
REMARK       I    between atoms: N1_5  and  C5_7 
REMARK       I    between atoms: C5_7  and  N2_9 
REMARK    2  A    between atoms: N2_9  and  C6_11 
REMARK    3  A    between atoms: C8_13  and  S1_14 
REMARK    4  A    between atoms: S1_14  and  N3_15 
REMARK    5  A    between atoms: C10_21  and  N4_22 
REMARK    6  A    between atoms: C11_25  and  O6_26 
ROOT
HETATM    1  C6  UNL     1      -2.924   3.444  12.406  1.00  0.00     0.073 A 
HETATM    2  C7  UNL     1      -3.210   2.955  13.651  1.00  0.00     0.057 A 
HETATM    3  C8  UNL     1      -4.123   1.911  13.858  1.00  0.00     0.084 A 
HETATM    4  C9  UNL     1      -4.773   1.337  12.794  1.00  0.00     0.064 A 
HETATM    5  C10 UNL     1      -4.499   1.815  11.537  1.00  0.00     0.139 A 
HETATM    6  C11 UNL     1      -3.587   2.857  11.337  1.00  0.00     0.126 A 
ENDROOT
BRANCH   1   7
HETATM    7  N2  UNL     1      -2.025   4.481  12.151  1.00  0.00    -0.306 N 
HETATM    8  C5  UNL     1      -0.628   4.363  11.874  1.00  0.00     0.325 C 
HETATM    9  N1  UNL     1       0.163   5.519  11.633  1.00  0.00    -0.309 N 
HETATM   10  O1  UNL     1      -0.102   3.234  11.846  1.00  0.00    -0.247 OA
ATOM     11  H1  UNL     1      -0.307   6.423  11.663  1.00  0.00     0.170 HD
ATOM     12  H2  UNL     1      -2.407   5.426  12.164  1.00  0.00     0.171 HD
BRANCH   9  13
HETATM   13  C4  UNL     1       1.539   5.519  11.356  1.00  0.00     0.037 A 
HETATM   14  C3  UNL     1       2.548   5.835  12.202  1.00  0.00     0.039 A 
HETATM   15  C2  UNL     1       3.898   5.793  11.827  1.00  0.00    -0.021 A 
HETATM   16  C1  UNL     1       4.963   6.155  12.810  1.00  0.00     0.051 C 
HETATM   17  C14 UNL     1       4.242   5.421  10.558  1.00  0.00     0.122 A 
HETATM   18  C13 UNL     1       3.245   5.090   9.667  1.00  0.00     0.045 A 
HETATM   19  F1  UNL     1       5.557   5.387  10.217  1.00  0.00    -0.206 F 
HETATM   20  C12 UNL     1       1.926   5.139  10.060  1.00  0.00     0.032 A 
ENDBRANCH   9  13
ENDBRANCH   1   7
BRANCH   6  21
HETATM   21  O6  UNL     1      -3.406   3.239  10.028  1.00  0.00    -0.356 OA
ATOM     22  H6  UNL     1      -3.586   2.673   9.286  1.00  0.00     0.218 HD
ENDBRANCH   6  21
BRANCH   3  23
HETATM   23  S1  UNL     1      -4.443   1.332  15.475  1.00  0.00     0.256 S 
HETATM   24  O2  UNL     1      -4.756  -0.133  15.482  1.00  0.00    -0.201 OA
HETATM   25  O3  UNL     1      -3.268   1.613  16.391  1.00  0.00    -0.201 OA
BRANCH  23  26
HETATM   26  N3  UNL     1      -5.804   2.176  16.123  1.00  0.00    -0.324 N 
ATOM     27  H32 UNL     1      -6.775   1.973  15.890  1.00  0.00     0.169 HD
ATOM     28  H31 UNL     1      -5.477   2.899  16.765  1.00  0.00     0.169 HD
ENDBRANCH  23  26
ENDBRANCH   3  23
BRANCH   5  29
HETATM   29  N4  UNL     1      -5.169   1.224  10.426  1.00  0.00    -0.113 N 
HETATM   30  O4  UNL     1      -4.670   0.222   9.873  1.00  0.00    -0.532 OA
HETATM   31  O5  UNL     1      -6.351   1.703   9.921  1.00  0.00    -0.532 OA
ENDBRANCH   5  29
TORSDOF 6
ENDMDL
