MODEL 1
REMARK VINA RESULT: -9.168948379      0.000      0.000
REMARK  3 active torsions:
REMARK  status: ('A' for Active; 'I' for Inactive)
REMARK    1  A    between atoms: C2_5  and  N3_6 
REMARK    2  A    between atoms: N3_6  and  C3_8 
REMARK    3  A    between atoms: C7_12  and  C8_13 
ROOT
HETATM    1  N1  UNL     1       7.958 -30.659  13.128  1.00  0.00    -0.063 NA
HETATM    2  C1  UNL     1       8.504 -29.649  13.981  1.00  0.00     0.194 A 
HETATM    3  N2  UNL     1       9.296 -28.690  13.485  1.00  0.00    -0.317 N 
ATOM      4  H2  UNL     1       9.493 -28.707  12.484  1.00  0.00     0.170 HD
HETATM    5  C2  UNL     1       9.848 -27.708  14.211  1.00  0.00     0.105 A 
HETATM    6  C6  UNL     1       9.555 -27.717  15.579  1.00  0.00     0.078 A 
HETATM    7  C7  UNL     1       8.747 -28.683  16.122  1.00  0.00     0.050 A 
HETATM    8  N4  UNL     1       8.247 -29.620  15.300  1.00  0.00    -0.330 N 
ATOM      9  H4  UNL     1       7.646 -30.344  15.695  1.00  0.00     0.168 HD
ENDROOT
BRANCH   7  10
HETATM   10  C8  UNL     1       8.468 -28.656  17.545  1.00  0.00     0.014 A 
HETATM   11  C9  UNL     1       8.820 -29.638  18.427  1.00  0.00     0.015 A 
HETATM   12  C10 UNL     1       8.534 -29.572  19.776  1.00  0.00     0.003 A 
HETATM   13  C11 UNL     1       7.876 -28.484  20.253  1.00  0.00     0.026 A 
HETATM   14  C12 UNL     1       7.500 -27.464  19.397  1.00  0.00     0.056 A 
HETATM   15 CL1  UNL     1       6.651 -26.059  20.014  1.00  0.00    -0.083 Cl
HETATM   16  C13 UNL     1       7.789 -27.540  18.058  1.00  0.00     0.068 A 
HETATM   17 CL2  UNL     1       7.342 -26.287  16.928  1.00  0.00    -0.082 Cl
ENDBRANCH   7  10
BRANCH   5  18
HETATM   18  N3  UNL     1      10.681 -26.714  13.679  1.00  0.00    -0.372 N 
ATOM     19  H3  UNL     1      10.911 -26.765  12.687  1.00  0.00     0.161 HD
BRANCH  18  20
HETATM   20  C3  UNL     1      11.229 -25.632  14.440  1.00  0.00     0.083 A 
HETATM   21  C4  UNL     1      10.497 -24.351  14.585  1.00  0.00     0.027 A 
HETATM   22  C5  UNL     1      11.693 -24.422  13.635  1.00  0.00     0.027 A 
ENDBRANCH  18  20
ENDBRANCH   5  18
TORSDOF 3
ENDMDL
