MODEL 3
REMARK VINA RESULT: -8.019866442      3.485      6.154
REMARK  3 active torsions:
REMARK  status: ('A' for Active; 'I' for Inactive)
REMARK    1  A    between atoms: C2_5  and  N3_6 
REMARK    2  A    between atoms: N3_6  and  C3_8 
REMARK    3  A    between atoms: C7_12  and  C8_13 
ROOT
HETATM    1  N1  UNL     1       3.480 -29.611  19.308  1.00  0.00    -0.063 NA
HETATM    2  C1  UNL     1       4.751 -28.986  19.499  1.00  0.00     0.194 A 
HETATM    3  N2  UNL     1       5.023 -28.317  20.627  1.00  0.00    -0.317 N 
ATOM      4  H2  UNL     1       4.293 -28.272  21.339  1.00  0.00     0.170 HD
HETATM    5  C2  UNL     1       6.185 -27.704  20.886  1.00  0.00     0.105 A 
HETATM    6  C6  UNL     1       7.160 -27.788  19.886  1.00  0.00     0.078 A 
HETATM    7  C7  UNL     1       6.918 -28.464  18.718  1.00  0.00     0.050 A 
HETATM    8  N4  UNL     1       5.716 -29.043  18.564  1.00  0.00    -0.330 N 
ATOM      9  H4  UNL     1       5.526 -29.548  17.698  1.00  0.00     0.168 HD
ENDROOT
BRANCH   7  10
HETATM   10  C8  UNL     1       7.957 -28.527  17.708  1.00  0.00     0.014 A 
HETATM   11  C9  UNL     1       8.725 -29.626  17.448  1.00  0.00     0.015 A 
HETATM   12  C10 UNL     1       9.705 -29.642  16.476  1.00  0.00     0.003 A 
HETATM   13  C11 UNL     1       9.918 -28.520  15.742  1.00  0.00     0.026 A 
HETATM   14  C12 UNL     1       9.163 -27.383  15.968  1.00  0.00     0.056 A 
HETATM   15 CL1  UNL     1       9.437 -25.935  15.019  1.00  0.00    -0.083 Cl
HETATM   16  C13 UNL     1       8.192 -27.378  16.938  1.00  0.00     0.068 A 
HETATM   17 CL2  UNL     1       7.207 -25.976  17.272  1.00  0.00    -0.082 Cl
ENDBRANCH   7  10
BRANCH   5  18
HETATM   18  N3  UNL     1       6.453 -27.001  22.069  1.00  0.00    -0.372 N 
ATOM     19  H3  UNL     1       7.023 -27.462  22.778  1.00  0.00     0.161 HD
BRANCH  18  20
HETATM   20  C3  UNL     1       5.977 -25.679  22.345  1.00  0.00     0.083 A 
HETATM   21  C4  UNL     1       6.318 -24.543  21.457  1.00  0.00     0.027 A 
HETATM   22  C5  UNL     1       7.031 -24.676  22.803  1.00  0.00     0.027 A 
ENDBRANCH  18  20
ENDBRANCH   5  18
TORSDOF 3
ENDMDL
