MODEL 2
REMARK VINA RESULT: -9.134775338      1.451      1.917
REMARK  3 active torsions:
REMARK  status: ('A' for Active; 'I' for Inactive)
REMARK    1  A    between atoms: C2_5  and  N3_6 
REMARK    2  A    between atoms: N3_6  and  C3_8 
REMARK    3  A    between atoms: C7_12  and  C8_13 
ROOT
HETATM    1  N1  UNL     1       8.210 -30.522  13.351  1.00  0.00    -0.063 NA
HETATM    2  C1  UNL     1       8.595 -29.324  14.030  1.00  0.00     0.194 A 
HETATM    3  N2  UNL     1       9.487 -28.486  13.485  1.00  0.00    -0.317 N 
ATOM      4  H2  UNL     1       9.877 -28.735  12.575  1.00  0.00     0.170 HD
HETATM    5  C2  UNL     1       9.903 -27.346  14.051  1.00  0.00     0.105 A 
HETATM    6  C6  UNL     1       9.346 -27.039  15.297  1.00  0.00     0.078 A 
HETATM    7  C7  UNL     1       8.430 -27.873  15.885  1.00  0.00     0.050 A 
HETATM    8  N4  UNL     1       8.085 -28.992  15.228  1.00  0.00    -0.330 N 
ATOM      9  H4  UNL     1       7.404 -29.619  15.658  1.00  0.00     0.168 HD
ENDROOT
BRANCH   7  10
HETATM   10  C8  UNL     1       7.877 -27.518  17.178  1.00  0.00     0.014 A 
HETATM   11  C9  UNL     1       7.237 -26.343  17.456  1.00  0.00     0.015 A 
HETATM   12  C10 UNL     1       6.726 -26.045  18.703  1.00  0.00     0.003 A 
HETATM   13  C11 UNL     1       6.861 -26.956  19.701  1.00  0.00     0.026 A 
HETATM   14  C12 UNL     1       7.501 -28.159  19.467  1.00  0.00     0.056 A 
HETATM   15 CL1  UNL     1       7.675 -29.335  20.756  1.00  0.00    -0.083 Cl
HETATM   16  C13 UNL     1       8.007 -28.446  18.223  1.00  0.00     0.068 A 
HETATM   17 CL2  UNL     1       8.825 -29.945  17.865  1.00  0.00    -0.082 Cl
ENDBRANCH   7  10
BRANCH   5  18
HETATM   18  N3  UNL     1      10.843 -26.482  13.472  1.00  0.00    -0.372 N 
ATOM     19  H3  UNL     1      11.168 -26.694  12.529  1.00  0.00     0.161 HD
BRANCH  18  20
HETATM   20  C3  UNL     1      11.374 -25.320  14.119  1.00  0.00     0.083 A 
HETATM   21  C4  UNL     1      10.485 -24.229  14.583  1.00  0.00     0.027 A 
HETATM   22  C5  UNL     1      11.315 -24.025  13.315  1.00  0.00     0.027 A 
ENDBRANCH  18  20
ENDBRANCH   5  18
TORSDOF 3
ENDMDL
