MODEL 5
REMARK VINA RESULT: -7.712208741      3.823      6.527
REMARK  3 active torsions:
REMARK  status: ('A' for Active; 'I' for Inactive)
REMARK    1  A    between atoms: C2_5  and  N3_6 
REMARK    2  A    between atoms: N3_6  and  C3_8 
REMARK    3  A    between atoms: C7_12  and  C8_13 
ROOT
HETATM    1  N1  UNL     1       3.507 -29.490  19.409  1.00  0.00    -0.063 NA
HETATM    2  C1  UNL     1       4.713 -28.737  19.568  1.00  0.00     0.194 A 
HETATM    3  N2  UNL     1       5.014 -28.168  20.743  1.00  0.00    -0.317 N 
ATOM      4  H2  UNL     1       4.356 -28.293  21.513  1.00  0.00     0.170 HD
HETATM    5  C2  UNL     1       6.119 -27.448  20.978  1.00  0.00     0.105 A 
HETATM    6  C6  UNL     1       6.997 -27.300  19.899  1.00  0.00     0.078 A 
HETATM    7  C7  UNL     1       6.721 -27.869  18.681  1.00  0.00     0.050 A 
HETATM    8  N4  UNL     1       5.583 -28.570  18.558  1.00  0.00    -0.330 N 
ATOM      9  H4  UNL     1       5.369 -28.996  17.656  1.00  0.00     0.168 HD
ENDROOT
BRANCH   7  10
HETATM   10  C8  UNL     1       7.658 -27.691  17.588  1.00  0.00     0.014 A 
HETATM   11  C9  UNL     1       7.881 -26.511  16.938  1.00  0.00     0.015 A 
HETATM   12  C10 UNL     1       8.784 -26.386  15.900  1.00  0.00     0.003 A 
HETATM   13  C11 UNL     1       9.484 -27.481  15.506  1.00  0.00     0.026 A 
HETATM   14  C12 UNL     1       9.292 -28.697  16.136  1.00  0.00     0.056 A 
HETATM   15 CL1  UNL     1      10.197 -30.110  15.627  1.00  0.00    -0.083 Cl
HETATM   16  C13 UNL     1       8.392 -28.810  17.166  1.00  0.00     0.068 A 
HETATM   17 CL2  UNL     1       8.104 -30.316  18.000  1.00  0.00    -0.082 Cl
ENDBRANCH   7  10
BRANCH   5  18
HETATM   18  N3  UNL     1       6.418 -26.853  22.211  1.00  0.00    -0.372 N 
ATOM     19  H3  UNL     1       7.021 -27.366  22.854  1.00  0.00     0.161 HD
BRANCH  18  20
HETATM   20  C3  UNL     1       5.932 -25.572  22.625  1.00  0.00     0.083 A 
HETATM   21  C4  UNL     1       6.051 -24.387  21.743  1.00  0.00     0.027 A 
HETATM   22  C5  UNL     1       6.998 -24.525  22.935  1.00  0.00     0.027 A 
ENDBRANCH  18  20
ENDBRANCH   5  18
TORSDOF 3
ENDMDL
