MODEL 4
REMARK VINA RESULT: -7.892657220      3.690      6.693
REMARK  3 active torsions:
REMARK  status: ('A' for Active; 'I' for Inactive)
REMARK    1  A    between atoms: C2_5  and  N3_6 
REMARK    2  A    between atoms: N3_6  and  C3_8 
REMARK    3  A    between atoms: C7_12  and  C8_13 
ROOT
HETATM    1  N1  UNL     1       6.771 -26.966  21.646  1.00  0.00    -0.063 NA
HETATM    2  C1  UNL     1       6.609 -27.846  20.531  1.00  0.00     0.194 A 
HETATM    3  N2  UNL     1       5.574 -28.694  20.473  1.00  0.00    -0.317 N 
ATOM      4  H2  UNL     1       4.911 -28.686  21.249  1.00  0.00     0.170 HD
HETATM    5  C2  UNL     1       5.347 -29.550  19.468  1.00  0.00     0.105 A 
HETATM    6  C6  UNL     1       6.277 -29.531  18.423  1.00  0.00     0.078 A 
HETATM    7  C7  UNL     1       7.350 -28.677  18.448  1.00  0.00     0.050 A 
HETATM    8  N4  UNL     1       7.480 -27.860  19.506  1.00  0.00    -0.330 N 
ATOM      9  H4  UNL     1       8.275 -27.222  19.534  1.00  0.00     0.168 HD
ENDROOT
BRANCH   7  10
HETATM   10  C8  UNL     1       8.291 -28.689  17.344  1.00  0.00     0.014 A 
HETATM   11  C9  UNL     1       9.014 -29.779  16.950  1.00  0.00     0.015 A 
HETATM   12  C10 UNL     1       9.901 -29.747  15.892  1.00  0.00     0.003 A 
HETATM   13  C11 UNL     1      10.065 -28.584  15.210  1.00  0.00     0.026 A 
HETATM   14  C12 UNL     1       9.354 -27.455  15.574  1.00  0.00     0.056 A 
HETATM   15 CL1  UNL     1       9.566 -25.954  14.693  1.00  0.00    -0.083 Cl
HETATM   16  C13 UNL     1       8.475 -27.497  16.627  1.00  0.00     0.068 A 
HETATM   17 CL2  UNL     1       7.550 -26.108  17.135  1.00  0.00    -0.082 Cl
ENDBRANCH   7  10
BRANCH   5  18
HETATM   18  N3  UNL     1       4.262 -30.436  19.424  1.00  0.00    -0.372 N 
ATOM     19  H3  UNL     1       4.430 -31.408  19.683  1.00  0.00     0.161 HD
BRANCH  18  20
HETATM   20  C3  UNL     1       2.934 -30.063  19.039  1.00  0.00     0.083 A 
HETATM   21  C4  UNL     1       2.657 -28.739  18.434  1.00  0.00     0.027 A 
HETATM   22  C5  UNL     1       2.272 -28.986  19.892  1.00  0.00     0.027 A 
ENDBRANCH  18  20
ENDBRANCH   5  18
TORSDOF 3
ENDMDL
