MODEL 2
REMARK VINA RESULT: -11.472432951      0.986      1.093
REMARK  4 active torsions:
REMARK  status: ('A' for Active; 'I' for Inactive)
REMARK    1  A    between atoms: N1_2  and  C2_5 
REMARK    2  A    between atoms: C2_5  and  C3_6 
REMARK    3  A    between atoms: C8_11  and  C9_12 
REMARK    4  A    between atoms: C14_22  and  C15_23 
REMARK       I    between atoms: C15_23  and  N5_25 
ROOT
HETATM    1  C9  UNL     1     -33.835  -9.629 -27.408  1.00  0.00    -0.024 A 
HETATM    2  C10 UNL     1     -35.161  -9.817 -27.588  1.00  0.00     0.014 A 
HETATM    3  C11 UNL     1     -35.935 -10.636 -26.756  1.00  0.00     0.031 A 
HETATM    4  C12 UNL     1     -35.261 -11.274 -25.694  1.00  0.00     0.047 A 
HETATM    5  N2  UNL     1     -35.989 -11.972 -24.820  1.00  0.00    -0.330 N 
ATOM      6  H2  UNL     1     -36.988 -12.094 -24.986  1.00  0.00     0.168 HD
HETATM    7  C13 UNL     1     -35.424 -12.522 -23.715  1.00  0.00     0.193 A 
HETATM    8  N3  UNL     1     -36.173 -13.233 -22.735  1.00  0.00    -0.063 NA
HETATM    9  N4  UNL     1     -34.123 -12.330 -23.565  1.00  0.00    -0.325 N 
ATOM     10  H4  UNL     1     -33.693 -12.742 -22.737  1.00  0.00     0.169 HD
HETATM   11  C14 UNL     1     -33.311 -11.647 -24.391  1.00  0.00     0.116 A 
HETATM   12  C24 UNL     1     -33.903 -11.089 -25.497  1.00  0.00     0.024 A 
HETATM   13  C25 UNL     1     -33.201 -10.290 -26.322  1.00  0.00     0.028 A 
ENDROOT
BRANCH   1  14
HETATM   14  C8  UNL     1     -32.938  -8.811 -28.208  1.00  0.00    -0.018 A 
HETATM   15  C3  UNL     1     -32.592  -7.503 -27.873  1.00  0.00    -0.022 A 
HETATM   16  C4  UNL     1     -31.962  -6.654 -28.821  1.00  0.00     0.010 A 
HETATM   17  C5  UNL     1     -31.691  -7.157 -30.077  1.00  0.00     0.001 A 
HETATM   18  C6  UNL     1     -32.012  -8.386 -30.390  1.00  0.00     0.001 A 
HETATM   19  C7  UNL     1     -32.630  -9.258 -29.492  1.00  0.00     0.013 A 
BRANCH  15  20
HETATM   20  C2  UNL     1     -32.538  -7.175 -26.446  1.00  0.00     0.271 C 
BRANCH  20  21
HETATM   21  N1  UNL     1     -31.340  -6.648 -25.885  1.00  0.00    -0.075 N 
HETATM   22  C1  UNL     1     -30.549  -7.817 -25.457  1.00  0.00     0.267 C 
ATOM     23  H12 UNL     1     -31.502  -5.969 -25.140  1.00  0.00     0.277 HD
ATOM     24  H11 UNL     1     -30.836  -6.022 -26.514  1.00  0.00     0.277 HD
ENDBRANCH  20  21
ENDBRANCH  15  20
ENDBRANCH   1  14
BRANCH  11  25
HETATM   25  C15 UNL     1     -31.945 -11.469 -23.976  1.00  0.00     0.279 C 
HETATM   26  O1  UNL     1     -31.515 -10.496 -23.325  1.00  0.00    -0.265 OA
HETATM   27  N5  UNL     1     -30.952 -12.465 -24.292  1.00  0.00    -0.297 N 
HETATM   28  C16 UNL     1     -29.616 -12.388 -23.953  1.00  0.00     0.112 A 
HETATM   29  C23 UNL     1     -31.111 -13.651 -24.864  1.00  0.00     0.112 A 
HETATM   30  C17 UNL     1     -28.995 -13.538 -24.327  1.00  0.00    -0.009 A 
HETATM   31  C18 UNL     1     -27.664 -14.019 -24.167  1.00  0.00     0.014 A 
HETATM   32  C22 UNL     1     -29.920 -14.344 -24.895  1.00  0.00    -0.009 A 
HETATM   33  C19 UNL     1     -27.328 -15.300 -24.578  1.00  0.00     0.001 A 
HETATM   34  C20 UNL     1     -28.327 -16.108 -25.155  1.00  0.00     0.001 A 
HETATM   35  C21 UNL     1     -29.587 -15.637 -25.313  1.00  0.00     0.014 A 
ENDBRANCH  11  25
TORSDOF 4
ENDMDL
