MODEL 13
REMARK VINA RESULT: -10.102546220      2.925      7.298
REMARK  4 active torsions:
REMARK  status: ('A' for Active; 'I' for Inactive)
REMARK    1  A    between atoms: N1_2  and  C2_5 
REMARK    2  A    between atoms: C2_5  and  C3_6 
REMARK    3  A    between atoms: C8_11  and  C9_12 
REMARK    4  A    between atoms: C14_22  and  C15_23 
REMARK       I    between atoms: C15_23  and  N5_25 
ROOT
HETATM    1  C9  UNL     1     -29.134 -10.939 -23.116  1.00  0.00    -0.024 A 
HETATM    2  C10 UNL     1     -28.890 -10.698 -21.809  1.00  0.00     0.014 A 
HETATM    3  C11 UNL     1     -29.089  -9.445 -21.215  1.00  0.00     0.031 A 
HETATM    4  C12 UNL     1     -29.570  -8.418 -22.053  1.00  0.00     0.047 A 
HETATM    5  N2  UNL     1     -29.876  -7.245 -21.493  1.00  0.00    -0.330 N 
ATOM      6  H2  UNL     1     -29.678  -7.097 -20.504  1.00  0.00     0.168 HD
HETATM    7  C13 UNL     1     -30.444  -6.248 -22.218  1.00  0.00     0.193 A 
HETATM    8  N3  UNL     1     -30.827  -5.000 -21.649  1.00  0.00    -0.063 NA
HETATM    9  N4  UNL     1     -30.667  -6.506 -23.497  1.00  0.00    -0.325 N 
ATOM     10  H4  UNL     1     -31.093  -5.760 -24.046  1.00  0.00     0.169 HD
HETATM   11  C14 UNL     1     -30.392  -7.652 -24.145  1.00  0.00     0.116 A 
HETATM   12  C24 UNL     1     -29.827  -8.652 -23.393  1.00  0.00     0.024 A 
HETATM   13  C25 UNL     1     -29.621  -9.874 -23.919  1.00  0.00     0.028 A 
ENDROOT
BRANCH   1  14
HETATM   14  C8  UNL     1     -28.957 -12.191 -23.835  1.00  0.00    -0.018 A 
HETATM   15  C3  UNL     1     -30.021 -12.985 -24.261  1.00  0.00    -0.022 A 
HETATM   16  C4  UNL     1     -29.802 -14.321 -24.689  1.00  0.00     0.010 A 
HETATM   17  C5  UNL     1     -28.512 -14.811 -24.683  1.00  0.00     0.001 A 
HETATM   18  C6  UNL     1     -27.514 -14.064 -24.288  1.00  0.00     0.001 A 
HETATM   19  C7  UNL     1     -27.679 -12.745 -23.861  1.00  0.00     0.013 A 
BRANCH  15  20
HETATM   20  C2  UNL     1     -31.263 -12.295 -24.618  1.00  0.00     0.271 C 
BRANCH  20  21
HETATM   21  N1  UNL     1     -32.493 -13.013 -24.636  1.00  0.00    -0.075 N 
HETATM   22  C1  UNL     1     -33.036 -12.911 -23.268  1.00  0.00     0.267 C 
ATOM     23  H12 UNL     1     -32.400 -13.973 -24.967  1.00  0.00     0.277 HD
ATOM     24  H11 UNL     1     -33.140 -12.696 -25.357  1.00  0.00     0.277 HD
ENDBRANCH  20  21
ENDBRANCH  15  20
ENDBRANCH   1  14
BRANCH  11  25
HETATM   25  C15 UNL     1     -30.820  -7.755 -25.514  1.00  0.00     0.279 C 
HETATM   26  O1  UNL     1     -30.198  -7.301 -26.496  1.00  0.00    -0.265 OA
HETATM   27  N5  UNL     1     -32.046  -8.437 -25.845  1.00  0.00    -0.297 N 
HETATM   28  C16 UNL     1     -32.554  -8.584 -27.120  1.00  0.00     0.112 A 
HETATM   29  C23 UNL     1     -32.863  -9.118 -25.052  1.00  0.00     0.112 A 
HETATM   30  C17 UNL     1     -33.671  -9.357 -27.069  1.00  0.00    -0.009 A 
HETATM   31  C18 UNL     1     -34.540  -9.874 -28.071  1.00  0.00     0.014 A 
HETATM   32  C22 UNL     1     -33.875  -9.707 -25.779  1.00  0.00    -0.009 A 
HETATM   33  C19 UNL     1     -35.574 -10.731 -27.728  1.00  0.00     0.001 A 
HETATM   34  C20 UNL     1     -35.743 -11.076 -26.372  1.00  0.00     0.001 A 
HETATM   35  C21 UNL     1     -34.918 -10.570 -25.425  1.00  0.00     0.014 A 
ENDBRANCH  11  25
TORSDOF 4
ENDMDL
