MODEL 3
REMARK VINA RESULT: -11.218529746      1.799      2.291
REMARK  4 active torsions:
REMARK  status: ('A' for Active; 'I' for Inactive)
REMARK    1  A    between atoms: N1_2  and  C2_5 
REMARK    2  A    between atoms: C2_5  and  C3_6 
REMARK    3  A    between atoms: C8_11  and  C9_12 
REMARK    4  A    between atoms: C14_22  and  C15_23 
REMARK       I    between atoms: C15_23  and  N5_25 
ROOT
HETATM    1  C9  UNL     1     -32.179  -8.173 -27.052  1.00  0.00    -0.024 A 
HETATM    2  C10 UNL     1     -33.477  -7.945 -27.355  1.00  0.00     0.014 A 
HETATM    3  C11 UNL     1     -34.533  -8.649 -26.763  1.00  0.00     0.031 A 
HETATM    4  C12 UNL     1     -34.184  -9.630 -25.812  1.00  0.00     0.047 A 
HETATM    5  N2  UNL     1     -35.170 -10.239 -25.151  1.00  0.00    -0.330 N 
ATOM      6  H2  UNL     1     -36.138 -10.043 -25.405  1.00  0.00     0.168 HD
HETATM    7  C13 UNL     1     -34.907 -11.114 -24.146  1.00  0.00     0.193 A 
HETATM    8  N3  UNL     1     -35.929 -11.749 -23.386  1.00  0.00    -0.063 NA
HETATM    9  N4  UNL     1     -33.629 -11.325 -23.873  1.00  0.00    -0.325 N 
ATOM     10  H4  UNL     1     -33.426 -11.983 -23.120  1.00  0.00     0.169 HD
HETATM   11  C14 UNL     1     -32.573 -10.762 -24.485  1.00  0.00     0.116 A 
HETATM   12  C24 UNL     1     -32.860  -9.872 -25.490  1.00  0.00     0.024 A 
HETATM   13  C25 UNL     1     -31.878  -9.168 -26.085  1.00  0.00     0.028 A 
ENDROOT
BRANCH   1  14
HETATM   14  C8  UNL     1     -31.010  -7.510 -27.606  1.00  0.00    -0.018 A 
HETATM   15  C3  UNL     1     -30.370  -7.935 -28.768  1.00  0.00    -0.022 A 
HETATM   16  C4  UNL     1     -29.078  -7.449 -29.104  1.00  0.00     0.010 A 
HETATM   17  C5  UNL     1     -28.477  -6.539 -28.259  1.00  0.00     0.001 A 
HETATM   18  C6  UNL     1     -29.081  -6.137 -27.170  1.00  0.00     0.001 A 
HETATM   19  C7  UNL     1     -30.350  -6.585 -26.799  1.00  0.00     0.013 A 
BRANCH  15  20
HETATM   20  C2  UNL     1     -31.205  -8.565 -29.794  1.00  0.00     0.271 C 
BRANCH  20  21
HETATM   21  N1  UNL     1     -31.580  -7.828 -30.954  1.00  0.00    -0.075 N 
HETATM   22  C1  UNL     1     -33.055  -7.845 -30.979  1.00  0.00     0.267 C 
ATOM     23  H12 UNL     1     -31.153  -8.174 -31.813  1.00  0.00     0.277 HD
ATOM     24  H11 UNL     1     -31.181  -6.890 -30.987  1.00  0.00     0.277 HD
ENDBRANCH  20  21
ENDBRANCH  15  20
ENDBRANCH   1  14
BRANCH  11  25
HETATM   25  C15 UNL     1     -31.269 -11.052 -23.951  1.00  0.00     0.279 C 
HETATM   26  O1  UNL     1     -30.661 -10.347 -23.121  1.00  0.00    -0.265 OA
HETATM   27  N5  UNL     1     -30.565 -12.243 -24.356  1.00  0.00    -0.297 N 
HETATM   28  C16 UNL     1     -29.309 -12.610 -23.916  1.00  0.00     0.112 A 
HETATM   29  C23 UNL     1     -30.982 -13.241 -25.124  1.00  0.00     0.112 A 
HETATM   30  C17 UNL     1     -28.996 -13.830 -24.429  1.00  0.00    -0.009 A 
HETATM   31  C18 UNL     1     -27.881 -14.698 -24.256  1.00  0.00     0.014 A 
HETATM   32  C22 UNL     1     -30.038 -14.243 -25.184  1.00  0.00    -0.009 A 
HETATM   33  C19 UNL     1     -27.871 -15.952 -24.847  1.00  0.00     0.001 A 
HETATM   34  C20 UNL     1     -28.984 -16.344 -25.617  1.00  0.00     0.001 A 
HETATM   35  C21 UNL     1     -30.035 -15.507 -25.785  1.00  0.00     0.014 A 
ENDBRANCH  11  25
TORSDOF 4
ENDMDL
