MODEL 9
REMARK VINA RESULT: -10.187011341      2.380      7.250
REMARK  4 active torsions:
REMARK  status: ('A' for Active; 'I' for Inactive)
REMARK    1  A    between atoms: N1_2  and  C2_5 
REMARK    2  A    between atoms: C2_5  and  C3_6 
REMARK    3  A    between atoms: C8_11  and  C9_12 
REMARK    4  A    between atoms: C14_22  and  C15_23 
REMARK       I    between atoms: C15_23  and  N5_25 
ROOT
HETATM    1  C9  UNL     1     -31.224 -11.976 -24.248  1.00  0.00    -0.024 A 
HETATM    2  C10 UNL     1     -32.167 -12.863 -23.858  1.00  0.00     0.014 A 
HETATM    3  C11 UNL     1     -33.469 -12.868 -24.375  1.00  0.00     0.031 A 
HETATM    4  C12 UNL     1     -33.767 -11.888 -25.345  1.00  0.00     0.047 A 
HETATM    5  N2  UNL     1     -34.962 -11.937 -25.936  1.00  0.00    -0.330 N 
ATOM      6  H2  UNL     1     -35.650 -12.619 -25.619  1.00  0.00     0.168 HD
HETATM    7  C13 UNL     1     -35.278 -11.094 -26.953  1.00  0.00     0.193 A 
HETATM    8  N3  UNL     1     -36.524 -11.143 -27.641  1.00  0.00    -0.063 NA
HETATM    9  N4  UNL     1     -34.340 -10.231 -27.311  1.00  0.00    -0.325 N 
ATOM     10  H4  UNL     1     -34.573  -9.594 -28.074  1.00  0.00     0.169 HD
HETATM   11  C14 UNL     1     -33.114 -10.107 -26.774  1.00  0.00     0.116 A 
HETATM   12  C24 UNL     1     -32.810 -10.975 -25.755  1.00  0.00     0.024 A 
HETATM   13  C25 UNL     1     -31.571 -11.010 -25.229  1.00  0.00     0.028 A 
ENDROOT
BRANCH   1  14
HETATM   14  C8  UNL     1     -29.852 -11.876 -23.776  1.00  0.00    -0.018 A 
HETATM   15  C3  UNL     1     -29.266 -10.675 -23.379  1.00  0.00    -0.022 A 
HETATM   16  C4  UNL     1     -27.860 -10.575 -23.211  1.00  0.00     0.010 A 
HETATM   17  C5  UNL     1     -27.089 -11.697 -23.439  1.00  0.00     0.001 A 
HETATM   18  C6  UNL     1     -27.640 -12.825 -23.807  1.00  0.00     0.001 A 
HETATM   19  C7  UNL     1     -29.017 -12.972 -23.983  1.00  0.00     0.013 A 
BRANCH  15  20
HETATM   20  C2  UNL     1     -30.149  -9.672 -22.778  1.00  0.00     0.271 C 
BRANCH  20  21
HETATM   21  N1  UNL     1     -29.630  -8.755 -21.820  1.00  0.00    -0.075 N 
HETATM   22  C1  UNL     1     -29.919  -7.410 -22.355  1.00  0.00     0.267 C 
ATOM     23  H12 UNL     1     -28.644  -8.904 -21.603  1.00  0.00     0.277 HD
ATOM     24  H11 UNL     1     -29.987  -8.904 -20.876  1.00  0.00     0.277 HD
ENDBRANCH  20  21
ENDBRANCH  15  20
ENDBRANCH   1  14
BRANCH  11  25
HETATM   25  C15 UNL     1     -32.213  -9.172 -27.393  1.00  0.00     0.279 C 
HETATM   26  O1  UNL     1     -31.185  -9.481 -28.028  1.00  0.00    -0.265 OA
HETATM   27  N5  UNL     1     -32.472  -7.755 -27.323  1.00  0.00    -0.297 N 
HETATM   28  C16 UNL     1     -31.669  -6.775 -27.870  1.00  0.00     0.112 A 
HETATM   29  C23 UNL     1     -33.526  -7.122 -26.827  1.00  0.00     0.112 A 
HETATM   30  C17 UNL     1     -32.262  -5.564 -27.694  1.00  0.00    -0.009 A 
HETATM   31  C18 UNL     1     -31.919  -4.245 -28.108  1.00  0.00     0.014 A 
HETATM   32  C22 UNL     1     -33.432  -5.765 -27.047  1.00  0.00    -0.009 A 
HETATM   33  C19 UNL     1     -32.779  -3.187 -27.859  1.00  0.00     0.001 A 
HETATM   34  C20 UNL     1     -33.991  -3.445 -27.191  1.00  0.00     0.001 A 
HETATM   35  C21 UNL     1     -34.304  -4.700 -26.791  1.00  0.00     0.014 A 
ENDBRANCH  11  25
TORSDOF 4
ENDMDL
