MODEL 8
REMARK VINA RESULT: -10.320069744      1.793      1.888
REMARK  4 active torsions:
REMARK  status: ('A' for Active; 'I' for Inactive)
REMARK    1  A    between atoms: N1_2  and  C2_5 
REMARK    2  A    between atoms: C2_5  and  C3_6 
REMARK    3  A    between atoms: C8_11  and  C9_12 
REMARK    4  A    between atoms: C14_22  and  C15_23 
REMARK       I    between atoms: C15_23  and  N5_25 
ROOT
HETATM    1  C9  UNL     1     -32.339  -8.395 -27.284  1.00  0.00    -0.024 A 
HETATM    2  C10 UNL     1     -33.644  -8.216 -27.590  1.00  0.00     0.014 A 
HETATM    3  C11 UNL     1     -34.680  -8.898 -26.940  1.00  0.00     0.031 A 
HETATM    4  C12 UNL     1     -34.302  -9.801 -25.924  1.00  0.00     0.047 A 
HETATM    5  N2  UNL     1     -35.270 -10.381 -25.211  1.00  0.00    -0.330 N 
ATOM      6  H2  UNL     1     -36.244 -10.224 -25.469  1.00  0.00     0.168 HD
HETATM    7  C13 UNL     1     -34.979 -11.176 -24.150  1.00  0.00     0.193 A 
HETATM    8  N3  UNL     1     -35.982 -11.777 -23.336  1.00  0.00    -0.063 NA
HETATM    9  N4  UNL     1     -33.695 -11.341 -23.874  1.00  0.00    -0.325 N 
ATOM     10  H4  UNL     1     -33.472 -11.939 -23.079  1.00  0.00     0.169 HD
HETATM   11  C14 UNL     1     -32.656 -10.802 -24.535  1.00  0.00     0.116 A 
HETATM   12  C24 UNL     1     -32.970  -9.992 -25.598  1.00  0.00     0.024 A 
HETATM   13  C25 UNL     1     -32.008  -9.312 -26.252  1.00  0.00     0.028 A 
ENDROOT
BRANCH   1  14
HETATM   14  C8  UNL     1     -31.189  -7.750 -27.895  1.00  0.00    -0.018 A 
HETATM   15  C3  UNL     1     -30.724  -6.494 -27.512  1.00  0.00    -0.022 A 
HETATM   16  C4  UNL     1     -29.797  -5.785 -28.321  1.00  0.00     0.010 A 
HETATM   17  C5  UNL     1     -29.359  -6.374 -29.490  1.00  0.00     0.001 A 
HETATM   18  C6  UNL     1     -29.793  -7.555 -29.847  1.00  0.00     0.001 A 
HETATM   19  C7  UNL     1     -30.702  -8.290 -29.085  1.00  0.00     0.013 A 
BRANCH  15  20
HETATM   20  C2  UNL     1     -30.906  -6.118 -26.107  1.00  0.00     0.271 C 
BRANCH  20  21
HETATM   21  N1  UNL     1     -29.811  -5.588 -25.367  1.00  0.00    -0.075 N 
HETATM   22  C1  UNL     1     -29.747  -6.380 -24.124  1.00  0.00     0.267 C 
ATOM     23  H12 UNL     1     -29.873  -4.583 -25.208  1.00  0.00     0.277 HD
ATOM     24  H11 UNL     1     -28.934  -5.576 -25.889  1.00  0.00     0.277 HD
ENDBRANCH  20  21
ENDBRANCH  15  20
ENDBRANCH   1  14
BRANCH  11  25
HETATM   25  C15 UNL     1     -31.342 -11.026 -23.995  1.00  0.00     0.279 C 
HETATM   26  O1  UNL     1     -30.759 -10.271 -23.191  1.00  0.00    -0.265 OA
HETATM   27  N5  UNL     1     -30.595 -12.204 -24.360  1.00  0.00    -0.297 N 
HETATM   28  C16 UNL     1     -29.327 -12.510 -23.911  1.00  0.00     0.112 A 
HETATM   29  C23 UNL     1     -30.978 -13.242 -25.093  1.00  0.00     0.112 A 
HETATM   30  C17 UNL     1     -28.970 -13.735 -24.382  1.00  0.00    -0.009 A 
HETATM   31  C18 UNL     1     -27.824 -14.556 -24.182  1.00  0.00     0.014 A 
HETATM   32  C22 UNL     1     -29.998 -14.211 -25.120  1.00  0.00    -0.009 A 
HETATM   33  C19 UNL     1     -27.770 -15.828 -24.730  1.00  0.00     0.001 A 
HETATM   34  C20 UNL     1     -28.869 -16.286 -25.483  1.00  0.00     0.001 A 
HETATM   35  C21 UNL     1     -29.949 -15.493 -25.677  1.00  0.00     0.014 A 
ENDBRANCH  11  25
TORSDOF 4
ENDMDL
