MODEL 7
REMARK VINA RESULT: -10.766809107      2.448      7.472
REMARK  4 active torsions:
REMARK  status: ('A' for Active; 'I' for Inactive)
REMARK    1  A    between atoms: N1_2  and  C2_5 
REMARK    2  A    between atoms: C2_5  and  C3_6 
REMARK    3  A    between atoms: C8_11  and  C9_12 
REMARK    4  A    between atoms: C14_22  and  C15_23 
REMARK       I    between atoms: C15_23  and  N5_25 
ROOT
HETATM    1  C9  UNL     1     -28.887 -12.337 -23.771  1.00  0.00    -0.024 A 
HETATM    2  C10 UNL     1     -27.919 -11.980 -22.897  1.00  0.00     0.014 A 
HETATM    3  C11 UNL     1     -27.869 -10.720 -22.288  1.00  0.00     0.031 A 
HETATM    4  C12 UNL     1     -28.896  -9.813 -22.627  1.00  0.00     0.047 A 
HETATM    5  N2  UNL     1     -28.938  -8.647 -21.981  1.00  0.00    -0.330 N 
ATOM      6  H2  UNL     1     -28.192  -8.409 -21.328  1.00  0.00     0.168 HD
HETATM    7  C13 UNL     1     -29.958  -7.772 -22.177  1.00  0.00     0.193 A 
HETATM    8  N3  UNL     1     -30.065  -6.538 -21.474  1.00  0.00    -0.063 NA
HETATM    9  N4  UNL     1     -30.889  -8.141 -23.042  1.00  0.00    -0.325 N 
ATOM     10  H4  UNL     1     -31.656  -7.487 -23.195  1.00  0.00     0.169 HD
HETATM   11  C14 UNL     1     -30.927  -9.290 -23.739  1.00  0.00     0.116 A 
HETATM   12  C24 UNL     1     -29.894 -10.167 -23.518  1.00  0.00     0.024 A 
HETATM   13  C25 UNL     1     -29.900 -11.392 -24.079  1.00  0.00     0.028 A 
ENDROOT
BRANCH   1  14
HETATM   14  C8  UNL     1     -29.031 -13.608 -24.463  1.00  0.00    -0.018 A 
HETATM   15  C3  UNL     1     -30.265 -14.206 -24.712  1.00  0.00    -0.022 A 
HETATM   16  C4  UNL     1     -30.343 -15.564 -25.119  1.00  0.00     0.010 A 
HETATM   17  C5  UNL     1     -29.170 -16.274 -25.272  1.00  0.00     0.001 A 
HETATM   18  C6  UNL     1     -28.012 -15.710 -25.042  1.00  0.00     0.001 A 
HETATM   19  C7  UNL     1     -27.885 -14.379 -24.642  1.00  0.00     0.013 A 
BRANCH  15  20
HETATM   20  C2  UNL     1     -31.407 -13.312 -24.922  1.00  0.00     0.271 C 
BRANCH  20  21
HETATM   21  N1  UNL     1     -32.724 -13.761 -24.618  1.00  0.00    -0.075 N 
HETATM   22  C1  UNL     1     -32.978 -13.344 -23.226  1.00  0.00     0.267 C 
ATOM     23  H12 UNL     1     -32.862 -14.759 -24.777  1.00  0.00     0.277 HD
ATOM     24  H11 UNL     1     -33.429 -13.433 -25.278  1.00  0.00     0.277 HD
ENDBRANCH  20  21
ENDBRANCH  15  20
ENDBRANCH   1  14
BRANCH  11  25
HETATM   25  C15 UNL     1     -32.094  -9.536 -24.545  1.00  0.00     0.279 C 
HETATM   26  O1  UNL     1     -33.174  -9.991 -24.120  1.00  0.00    -0.265 OA
HETATM   27  N5  UNL     1     -32.082  -9.238 -25.955  1.00  0.00    -0.297 N 
HETATM   28  C16 UNL     1     -33.139  -9.444 -26.818  1.00  0.00     0.112 A 
HETATM   29  C23 UNL     1     -31.139  -8.645 -26.676  1.00  0.00     0.112 A 
HETATM   30  C17 UNL     1     -32.810  -8.966 -28.048  1.00  0.00    -0.009 A 
HETATM   31  C18 UNL     1     -33.530  -8.858 -29.271  1.00  0.00     0.014 A 
HETATM   32  C22 UNL     1     -31.561  -8.455 -27.974  1.00  0.00    -0.009 A 
HETATM   33  C19 UNL     1     -32.959  -8.229 -30.367  1.00  0.00     0.001 A 
HETATM   34  C20 UNL     1     -31.658  -7.702 -30.241  1.00  0.00     0.001 A 
HETATM   35  C21 UNL     1     -30.978  -7.820 -29.076  1.00  0.00     0.014 A 
ENDBRANCH  11  25
TORSDOF 4
ENDMDL
