MODEL 1
REMARK VINA RESULT: -11.957448671      0.000      0.000
REMARK  4 active torsions:
REMARK  status: ('A' for Active; 'I' for Inactive)
REMARK    1  A    between atoms: N1_2  and  C2_5 
REMARK    2  A    between atoms: C2_5  and  C3_6 
REMARK    3  A    between atoms: C8_11  and  C9_12 
REMARK    4  A    between atoms: C14_22  and  C15_23 
REMARK       I    between atoms: C15_23  and  N5_25 
ROOT
HETATM    1  C9  UNL     1     -33.574  -9.567 -27.532  1.00  0.00    -0.024 A 
HETATM    2  C10 UNL     1     -34.898  -9.712 -27.765  1.00  0.00     0.014 A 
HETATM    3  C11 UNL     1     -35.734 -10.491 -26.954  1.00  0.00     0.031 A 
HETATM    4  C12 UNL     1     -35.127 -11.134 -25.855  1.00  0.00     0.047 A 
HETATM    5  N2  UNL     1     -35.915 -11.792 -25.002  1.00  0.00    -0.330 N 
ATOM      6  H2  UNL     1     -36.910 -11.881 -25.208  1.00  0.00     0.168 HD
HETATM    7  C13 UNL     1     -35.415 -12.343 -23.866  1.00  0.00     0.193 A 
HETATM    8  N3  UNL     1     -36.229 -13.012 -22.908  1.00  0.00    -0.063 NA
HETATM    9  N4  UNL     1     -34.116 -12.193 -23.665  1.00  0.00    -0.325 N 
ATOM     10  H4  UNL     1     -33.734 -12.607 -22.814  1.00  0.00     0.169 HD
HETATM   11  C14 UNL     1     -33.247 -11.553 -24.466  1.00  0.00     0.116 A 
HETATM   12  C24 UNL     1     -33.773 -10.993 -25.604  1.00  0.00     0.024 A 
HETATM   13  C25 UNL     1     -33.009 -10.232 -26.412  1.00  0.00     0.028 A 
ENDROOT
BRANCH   1  14
HETATM   14  C8  UNL     1     -32.617  -8.794 -28.307  1.00  0.00    -0.018 A 
HETATM   15  C3  UNL     1     -32.908  -7.546 -28.855  1.00  0.00    -0.022 A 
HETATM   16  C4  UNL     1     -32.059  -6.970 -29.837  1.00  0.00     0.010 A 
HETATM   17  C5  UNL     1     -30.936  -7.669 -30.228  1.00  0.00     0.001 A 
HETATM   18  C6  UNL     1     -30.661  -8.838 -29.709  1.00  0.00     0.001 A 
HETATM   19  C7  UNL     1     -31.463  -9.444 -28.741  1.00  0.00     0.013 A 
BRANCH  15  20
HETATM   20  C2  UNL     1     -33.860  -6.705 -28.124  1.00  0.00     0.271 C 
BRANCH  20  21
HETATM   21  N1  UNL     1     -33.436  -6.006 -26.958  1.00  0.00    -0.075 N 
HETATM   22  C1  UNL     1     -34.463  -6.278 -25.933  1.00  0.00     0.267 C 
ATOM     23  H12 UNL     1     -33.270  -5.012 -27.115  1.00  0.00     0.277 HD
ATOM     24  H11 UNL     1     -32.490  -6.243 -26.661  1.00  0.00     0.277 HD
ENDBRANCH  20  21
ENDBRANCH  15  20
ENDBRANCH   1  14
BRANCH  11  25
HETATM   25  C15 UNL     1     -31.894 -11.416 -23.997  1.00  0.00     0.279 C 
HETATM   26  O1  UNL     1     -31.469 -10.472 -23.301  1.00  0.00    -0.265 OA
HETATM   27  N5  UNL     1     -30.909 -12.421 -24.310  1.00  0.00    -0.297 N 
HETATM   28  C16 UNL     1     -29.585 -12.382 -23.921  1.00  0.00     0.112 A 
HETATM   29  C23 UNL     1     -31.069 -13.586 -24.924  1.00  0.00     0.112 A 
HETATM   30  C17 UNL     1     -28.973 -13.533 -24.308  1.00  0.00    -0.009 A 
HETATM   31  C18 UNL     1     -27.658 -14.045 -24.116  1.00  0.00     0.014 A 
HETATM   32  C22 UNL     1     -29.892 -14.302 -24.934  1.00  0.00    -0.009 A 
HETATM   33  C19 UNL     1     -27.332 -15.319 -24.555  1.00  0.00     0.001 A 
HETATM   34  C20 UNL     1     -28.325 -16.088 -25.192  1.00  0.00     0.001 A 
HETATM   35  C21 UNL     1     -29.569 -15.588 -25.381  1.00  0.00     0.014 A 
ENDBRANCH  11  25
TORSDOF 4
ENDMDL
