MODEL 8
REMARK VINA RESULT: -9.031616150      2.559      3.023
REMARK  4 active torsions:
REMARK  status: ('A' for Active; 'I' for Inactive)
REMARK    1  A    between atoms: N1_1  and  S1_4 
REMARK    2  A    between atoms: S1_4  and  C1_7 
REMARK    3  A    between atoms: C4_10  and  C5_11 
REMARK    4  A    between atoms: C9_19  and  C10_20 
ROOT
HETATM    1  C5  UNL     1       8.373  15.573 -47.857  1.00  0.00    -0.009 A 
HETATM    2  C6  UNL     1       8.576  14.393 -48.518  1.00  0.00     0.102 A 
HETATM    3  N2  UNL     1       7.812  13.321 -48.292  1.00  0.00    -0.351 N 
ATOM      4  H2  UNL     1       7.990  12.456 -48.803  1.00  0.00     0.166 HD
HETATM    5  C7  UNL     1       6.808  13.372 -47.397  1.00  0.00     0.116 A 
HETATM    6  N3  UNL     1       5.907  12.478 -46.977  1.00  0.00    -0.351 N 
ATOM      7  H3  UNL     1       5.836  11.516 -47.310  1.00  0.00     0.166 HD
HETATM    8  C8  UNL     1       5.109  13.034 -46.052  1.00  0.00     0.103 A 
HETATM    9  C9  UNL     1       5.493  14.358 -45.846  1.00  0.00     0.005 A 
HETATM   10  C15 UNL     1       6.567  14.560 -46.700  1.00  0.00     0.021 A 
HETATM   11  C16 UNL     1       7.346  15.662 -46.927  1.00  0.00     0.029 A 
ENDROOT
BRANCH   1  12
HETATM   12  C4  UNL     1       9.192  16.763 -48.083  1.00  0.00    -0.025 A 
HETATM   13  C3  UNL     1      10.261  16.783 -48.949  1.00  0.00     0.014 A 
HETATM   14  C2  UNL     1      10.991  17.961 -49.107  1.00  0.00     0.026 A 
HETATM   15  C1  UNL     1      10.676  19.116 -48.418  1.00  0.00     0.079 A 
HETATM   16  C18 UNL     1       9.605  19.089 -47.553  1.00  0.00     0.026 A 
HETATM   17  C17 UNL     1       8.877  17.916 -47.396  1.00  0.00     0.014 A 
BRANCH  15  18
HETATM   18  S1  UNL     1      11.629  20.587 -48.649  1.00  0.00     0.256 S 
HETATM   19  O1  UNL     1      11.653  20.907 -50.116  1.00  0.00    -0.201 OA
HETATM   20  O2  UNL     1      13.044  20.324 -48.200  1.00  0.00    -0.201 OA
BRANCH  18  21
HETATM   21  N1  UNL     1      10.993  21.876 -47.707  1.00  0.00    -0.324 N 
ATOM     22  H12 UNL     1       9.993  22.056 -47.614  1.00  0.00     0.169 HD
ATOM     23  H11 UNL     1      11.725  22.429 -47.261  1.00  0.00     0.169 HD
ENDBRANCH  18  21
ENDBRANCH  15  18
ENDBRANCH   1  12
BRANCH   9  24
HETATM   24  C10 UNL     1       4.901  15.322 -44.941  1.00  0.00    -0.008 A 
HETATM   25  C11 UNL     1       4.882  15.085 -43.583  1.00  0.00     0.015 A 
HETATM   26  C12 UNL     1       4.318  15.990 -42.694  1.00  0.00     0.018 A 
HETATM   27  C13 UNL     1       3.761  17.157 -43.170  1.00  0.00     0.087 A 
HETATM   28  N4  UNL     1       3.787  17.373 -44.492  1.00  0.00    -0.374 N 
HETATM   29  C14 UNL     1       4.331  16.503 -45.357  1.00  0.00     0.100 A 
ATOM     30  H4  UNL     1       3.377  18.233 -44.855  1.00  0.00     0.164 HD
ENDBRANCH   9  24
TORSDOF 4
ENDMDL
