MODEL 14
REMARK VINA RESULT: -8.806736361      2.720      3.217
REMARK  4 active torsions:
REMARK  status: ('A' for Active; 'I' for Inactive)
REMARK    1  A    between atoms: N1_1  and  S1_4 
REMARK    2  A    between atoms: S1_4  and  C1_7 
REMARK    3  A    between atoms: C4_10  and  C5_11 
REMARK    4  A    between atoms: C9_19  and  C10_20 
ROOT
HETATM    1  C5  UNL     1       8.185  15.416 -47.775  1.00  0.00    -0.009 A 
HETATM    2  C6  UNL     1       8.289  14.174 -48.339  1.00  0.00     0.102 A 
HETATM    3  N2  UNL     1       7.451  13.184 -48.016  1.00  0.00    -0.351 N 
ATOM      4  H2  UNL     1       7.556  12.270 -48.455  1.00  0.00     0.166 HD
HETATM    5  C7  UNL     1       6.471  13.384 -47.116  1.00  0.00     0.116 A 
HETATM    6  N3  UNL     1       5.514  12.597 -46.613  1.00  0.00    -0.351 N 
ATOM      7  H3  UNL     1       5.366  11.619 -46.864  1.00  0.00     0.166 HD
HETATM    8  C8  UNL     1       4.776  13.285 -45.727  1.00  0.00     0.103 A 
HETATM    9  C9  UNL     1       5.261  14.589 -45.636  1.00  0.00     0.005 A 
HETATM   10  C15 UNL     1       6.331  14.640 -46.517  1.00  0.00     0.021 A 
HETATM   11  C16 UNL     1       7.185  15.657 -46.843  1.00  0.00     0.029 A 
ENDROOT
BRANCH   1  12
HETATM   12  C4  UNL     1       9.086  16.519 -48.108  1.00  0.00    -0.025 A 
HETATM   13  C3  UNL     1      10.173  16.373 -48.939  1.00  0.00     0.014 A 
HETATM   14  C2  UNL     1      10.983  17.477 -49.206  1.00  0.00     0.026 A 
HETATM   15  C1  UNL     1      10.729  18.720 -48.661  1.00  0.00     0.079 A 
HETATM   16  C18 UNL     1       9.639  18.860 -47.829  1.00  0.00     0.026 A 
HETATM   17  C17 UNL     1       8.832  17.760 -47.564  1.00  0.00     0.014 A 
BRANCH  15  18
HETATM   18  S1  UNL     1      11.782  20.092 -49.026  1.00  0.00     0.256 S 
HETATM   19  O1  UNL     1      11.346  21.257 -48.183  1.00  0.00    -0.201 OA
HETATM   20  O2  UNL     1      11.608  20.466 -50.475  1.00  0.00    -0.201 OA
BRANCH  18  21
HETATM   21  N1  UNL     1      13.430  19.679 -48.767  1.00  0.00    -0.324 N 
ATOM     22  H12 UNL     1      14.167  20.377 -48.655  1.00  0.00     0.169 HD
ATOM     23  H11 UNL     1      13.578  18.671 -48.739  1.00  0.00     0.169 HD
ENDBRANCH  18  21
ENDBRANCH  15  18
ENDBRANCH   1  12
BRANCH   9  24
HETATM   24  C10 UNL     1       4.758  15.665 -44.807  1.00  0.00    -0.008 A 
HETATM   25  C11 UNL     1       4.730  15.535 -43.434  1.00  0.00     0.015 A 
HETATM   26  C12 UNL     1       4.250  16.549 -42.617  1.00  0.00     0.018 A 
HETATM   27  C13 UNL     1       3.788  17.719 -43.181  1.00  0.00     0.087 A 
HETATM   28  N4  UNL     1       3.822  17.830 -44.515  1.00  0.00    -0.374 N 
HETATM   29  C14 UNL     1       4.285  16.855 -45.312  1.00  0.00     0.100 A 
ATOM     30  H4  UNL     1       3.482  18.692 -44.943  1.00  0.00     0.164 HD
ENDBRANCH   9  24
TORSDOF 4
ENDMDL
