MODEL 9
REMARK VINA RESULT: -9.019818647      2.787      3.269
REMARK  4 active torsions:
REMARK  status: ('A' for Active; 'I' for Inactive)
REMARK    1  A    between atoms: N1_1  and  S1_4 
REMARK    2  A    between atoms: S1_4  and  C1_7 
REMARK    3  A    between atoms: C4_10  and  C5_11 
REMARK    4  A    between atoms: C9_19  and  C10_20 
ROOT
HETATM    1  C5  UNL     1       8.355  15.463 -47.870  1.00  0.00    -0.009 A 
HETATM    2  C6  UNL     1       8.515  14.267 -48.517  1.00  0.00     0.102 A 
HETATM    3  N2  UNL     1       7.715  13.225 -48.275  1.00  0.00    -0.351 N 
ATOM      4  H2  UNL     1       7.862  12.348 -48.775  1.00  0.00     0.166 HD
HETATM    5  C7  UNL     1       6.716  13.323 -47.379  1.00  0.00     0.116 A 
HETATM    6  N3  UNL     1       5.785  12.466 -46.946  1.00  0.00    -0.351 N 
ATOM      7  H3  UNL     1       5.680  11.503 -47.266  1.00  0.00     0.166 HD
HETATM    8  C8  UNL     1       5.009  13.062 -46.027  1.00  0.00     0.103 A 
HETATM    9  C9  UNL     1       5.439  14.374 -45.838  1.00  0.00     0.005 A 
HETATM   10  C15 UNL     1       6.518  14.528 -46.697  1.00  0.00     0.021 A 
HETATM   11  C16 UNL     1       7.334  15.599 -46.939  1.00  0.00     0.029 A 
ENDROOT
BRANCH   1  12
HETATM   12  C4  UNL     1       9.214  16.620 -48.113  1.00  0.00    -0.025 A 
HETATM   13  C3  UNL     1       8.962  17.865 -47.584  1.00  0.00     0.014 A 
HETATM   14  C2  UNL     1       9.833  18.917 -47.865  1.00  0.00     0.026 A 
HETATM   15  C1  UNL     1      10.948  18.751 -48.663  1.00  0.00     0.079 A 
HETATM   16  C18 UNL     1      11.195  17.503 -49.190  1.00  0.00     0.026 A 
HETATM   17  C17 UNL     1      10.328  16.454 -48.910  1.00  0.00     0.014 A 
BRANCH  15  18
HETATM   18  S1  UNL     1      12.026  20.113 -48.994  1.00  0.00     0.256 S 
HETATM   19  O1  UNL     1      11.767  20.588 -50.395  1.00  0.00    -0.201 OA
HETATM   20  O2  UNL     1      13.452  19.634 -48.914  1.00  0.00    -0.201 OA
BRANCH  18  21
HETATM   21  N1  UNL     1      11.807  21.358 -47.829  1.00  0.00    -0.324 N 
ATOM     22  H12 UNL     1      12.119  22.318 -47.977  1.00  0.00     0.169 HD
ATOM     23  H11 UNL     1      11.335  21.025 -46.989  1.00  0.00     0.169 HD
ENDBRANCH  18  21
ENDBRANCH  15  18
ENDBRANCH   1  12
BRANCH   9  24
HETATM   24  C10 UNL     1       4.883  15.370 -44.945  1.00  0.00    -0.008 A 
HETATM   25  C11 UNL     1       4.839  15.142 -43.586  1.00  0.00     0.015 A 
HETATM   26  C12 UNL     1       4.309  16.077 -42.708  1.00  0.00     0.018 A 
HETATM   27  C13 UNL     1       3.811  17.266 -43.196  1.00  0.00     0.087 A 
HETATM   28  N4  UNL     1       3.860  17.472 -44.518  1.00  0.00    -0.374 N 
HETATM   29  C14 UNL     1       4.372  16.573 -45.373  1.00  0.00     0.100 A 
ATOM     30  H4  UNL     1       3.494  18.348 -44.891  1.00  0.00     0.164 HD
ENDBRANCH   9  24
TORSDOF 4
ENDMDL
