MODEL 5
REMARK VINA RESULT: -9.171551953      2.681      4.695
REMARK  4 active torsions:
REMARK  status: ('A' for Active; 'I' for Inactive)
REMARK    1  A    between atoms: N1_1  and  S1_4 
REMARK    2  A    between atoms: S1_4  and  C1_7 
REMARK    3  A    between atoms: C4_10  and  C5_11 
REMARK    4  A    between atoms: C9_19  and  C10_20 
ROOT
HETATM    1  C5  UNL     1       4.322  17.602 -44.101  1.00  0.00    -0.009 A 
HETATM    2  C6  UNL     1       3.206  17.216 -43.409  1.00  0.00     0.102 A 
HETATM    3  N2  UNL     1       2.741  15.965 -43.469  1.00  0.00    -0.351 N 
ATOM      4  H2  UNL     1       1.907  15.710 -42.940  1.00  0.00     0.166 HD
HETATM    5  C7  UNL     1       3.363  15.038 -44.220  1.00  0.00     0.116 A 
HETATM    6  N3  UNL     1       3.128  13.745 -44.463  1.00  0.00    -0.351 N 
ATOM      7  H3  UNL     1       2.355  13.205 -44.070  1.00  0.00     0.166 HD
HETATM    8  C8  UNL     1       4.059  13.260 -45.300  1.00  0.00     0.103 A 
HETATM    9  C9  UNL     1       4.956  14.274 -45.630  1.00  0.00     0.005 A 
HETATM   10  C15 UNL     1       4.507  15.392 -44.943  1.00  0.00     0.021 A 
HETATM   11  C16 UNL     1       4.989  16.671 -44.886  1.00  0.00     0.029 A 
ENDROOT
BRANCH   1  12
HETATM   12  C4  UNL     1       4.854  18.962 -44.056  1.00  0.00    -0.025 A 
HETATM   13  C3  UNL     1       6.200  19.242 -44.112  1.00  0.00     0.014 A 
HETATM   14  C2  UNL     1       6.626  20.569 -44.063  1.00  0.00     0.026 A 
HETATM   15  C1  UNL     1       5.736  21.620 -43.958  1.00  0.00     0.079 A 
HETATM   16  C18 UNL     1       4.389  21.334 -43.902  1.00  0.00     0.026 A 
HETATM   17  C17 UNL     1       3.965  20.011 -43.952  1.00  0.00     0.014 A 
BRANCH  15  18
HETATM   18  S1  UNL     1       6.319  23.288 -43.899  1.00  0.00     0.256 S 
HETATM   19  O1  UNL     1       6.379  23.816 -45.304  1.00  0.00    -0.201 OA
HETATM   20  O2  UNL     1       7.715  23.295 -43.332  1.00  0.00    -0.201 OA
BRANCH  18  21
HETATM   21  N1  UNL     1       5.317  24.246 -42.882  1.00  0.00    -0.324 N 
ATOM     22  H12 UNL     1       4.417  24.620 -43.183  1.00  0.00     0.169 HD
ATOM     23  H11 UNL     1       5.726  24.391 -41.960  1.00  0.00     0.169 HD
ENDBRANCH  18  21
ENDBRANCH  15  18
ENDBRANCH   1  12
BRANCH   9  24
HETATM   24  C10 UNL     1       6.113  14.186 -46.498  1.00  0.00    -0.008 A 
HETATM   25  C11 UNL     1       7.106  15.141 -46.437  1.00  0.00     0.015 A 
HETATM   26  C12 UNL     1       8.223  15.083 -47.258  1.00  0.00     0.018 A 
HETATM   27  C13 UNL     1       8.353  14.049 -48.161  1.00  0.00     0.087 A 
HETATM   28  N4  UNL     1       7.380  13.130 -48.209  1.00  0.00    -0.374 N 
HETATM   29  C14 UNL     1       6.298  13.179 -47.417  1.00  0.00     0.100 A 
ATOM     30  H4  UNL     1       7.466  12.361 -48.873  1.00  0.00     0.164 HD
ENDBRANCH   9  24
TORSDOF 4
ENDMDL
