MODEL 10
REMARK VINA RESULT: -8.905504533      3.897      4.345
REMARK  4 active torsions:
REMARK  status: ('A' for Active; 'I' for Inactive)
REMARK    1  A    between atoms: N1_1  and  S1_4 
REMARK    2  A    between atoms: S1_4  and  C1_7 
REMARK    3  A    between atoms: C4_10  and  C5_11 
REMARK    4  A    between atoms: C9_19  and  C10_20 
ROOT
HETATM    1  C5  UNL     1       5.353  17.638 -44.523  1.00  0.00    -0.009 A 
HETATM    2  C6  UNL     1       6.589  17.566 -45.106  1.00  0.00     0.102 A 
HETATM    3  N2  UNL     1       7.042  16.434 -45.654  1.00  0.00    -0.351 N 
ATOM      4  H2  UNL     1       7.968  16.415 -46.080  1.00  0.00     0.166 HD
HETATM    5  C7  UNL     1       6.286  15.321 -45.648  1.00  0.00     0.116 A 
HETATM    6  N3  UNL     1       6.477  14.080 -46.109  1.00  0.00    -0.351 N 
ATOM      7  H3  UNL     1       7.317  13.756 -46.588  1.00  0.00     0.166 HD
HETATM    8  C8  UNL     1       5.398  13.325 -45.847  1.00  0.00     0.103 A 
HETATM    9  C9  UNL     1       4.445  14.095 -45.183  1.00  0.00     0.005 A 
HETATM   10  C15 UNL     1       5.016  15.353 -45.062  1.00  0.00     0.021 A 
HETATM   11  C16 UNL     1       4.547  16.508 -44.500  1.00  0.00     0.029 A 
ENDROOT
BRANCH   1  12
HETATM   12  C4  UNL     1       4.831  18.861 -43.916  1.00  0.00    -0.025 A 
HETATM   13  C3  UNL     1       5.593  19.690 -43.126  1.00  0.00     0.014 A 
HETATM   14  C2  UNL     1       5.017  20.839 -42.585  1.00  0.00     0.026 A 
HETATM   15  C1  UNL     1       3.698  21.175 -42.815  1.00  0.00     0.079 A 
HETATM   16  C18 UNL     1       2.939  20.341 -43.607  1.00  0.00     0.026 A 
HETATM   17  C17 UNL     1       3.513  19.196 -44.147  1.00  0.00     0.014 A 
BRANCH  15  18
HETATM   18  S1  UNL     1       3.007  22.641 -42.109  1.00  0.00     0.256 S 
HETATM   19  O1  UNL     1       4.070  23.703 -42.095  1.00  0.00    -0.201 OA
HETATM   20  O2  UNL     1       2.610  22.354 -40.684  1.00  0.00    -0.201 OA
BRANCH  18  21
HETATM   21  N1  UNL     1       1.605  23.131 -42.974  1.00  0.00    -0.324 N 
ATOM     22  H12 UNL     1       1.584  23.952 -43.578  1.00  0.00     0.169 HD
ATOM     23  H11 UNL     1       0.813  22.510 -42.811  1.00  0.00     0.169 HD
ENDBRANCH  18  21
ENDBRANCH  15  18
ENDBRANCH   1  12
BRANCH   9  24
HETATM   24  C10 UNL     1       3.137  13.680 -44.720  1.00  0.00    -0.008 A 
HETATM   25  C11 UNL     1       2.388  12.784 -45.454  1.00  0.00     0.015 A 
HETATM   26  C12 UNL     1       1.130  12.372 -45.036  1.00  0.00     0.018 A 
HETATM   27  C13 UNL     1       0.607  12.865 -43.860  1.00  0.00     0.087 A 
HETATM   28  N4  UNL     1       1.346  13.734 -43.158  1.00  0.00    -0.374 N 
HETATM   29  C14 UNL     1       2.563  14.137 -43.556  1.00  0.00     0.100 A 
ATOM     30  H4  UNL     1       0.968  14.106 -42.287  1.00  0.00     0.164 HD
ENDBRANCH   9  24
TORSDOF 4
ENDMDL
