MODEL 11
REMARK VINA RESULT: -8.902174711      4.141      4.577
REMARK  4 active torsions:
REMARK  status: ('A' for Active; 'I' for Inactive)
REMARK    1  A    between atoms: N1_1  and  S1_4 
REMARK    2  A    between atoms: S1_4  and  C1_7 
REMARK    3  A    between atoms: C4_10  and  C5_11 
REMARK    4  A    between atoms: C9_19  and  C10_20 
ROOT
HETATM    1  C5  UNL     1       5.824  18.584 -44.287  1.00  0.00    -0.009 A 
HETATM    2  C6  UNL     1       7.083  18.691 -44.810  1.00  0.00     0.102 A 
HETATM    3  N2  UNL     1       7.693  17.654 -45.390  1.00  0.00    -0.351 N 
ATOM      4  H2  UNL     1       8.633  17.767 -45.771  1.00  0.00     0.166 HD
HETATM    5  C7  UNL     1       7.079  16.460 -45.476  1.00  0.00     0.116 A 
HETATM    6  N3  UNL     1       7.439  15.277 -45.987  1.00  0.00    -0.351 N 
ATOM      7  H3  UNL     1       8.332  15.082 -46.440  1.00  0.00     0.166 HD
HETATM    8  C8  UNL     1       6.450  14.386 -45.816  1.00  0.00     0.103 A 
HETATM    9  C9  UNL     1       5.382  15.000 -45.163  1.00  0.00     0.005 A 
HETATM   10  C15 UNL     1       5.790  16.308 -44.953  1.00  0.00     0.021 A 
HETATM   11  C16 UNL     1       5.160  17.367 -44.359  1.00  0.00     0.029 A 
ENDROOT
BRANCH   1  12
HETATM   12  C4  UNL     1       5.131  19.701 -43.647  1.00  0.00    -0.025 A 
HETATM   13  C3  UNL     1       5.763  20.601 -42.821  1.00  0.00     0.014 A 
HETATM   14  C2  UNL     1       5.028  21.640 -42.249  1.00  0.00     0.026 A 
HETATM   15  C1  UNL     1       3.677  21.797 -42.487  1.00  0.00     0.079 A 
HETATM   16  C18 UNL     1       3.049  20.892 -43.315  1.00  0.00     0.026 A 
HETATM   17  C17 UNL     1       3.781  19.858 -43.884  1.00  0.00     0.014 A 
BRANCH  15  18
HETATM   18  S1  UNL     1       2.783  23.127 -41.742  1.00  0.00     0.256 S 
HETATM   19  O1  UNL     1       3.742  24.257 -41.492  1.00  0.00    -0.201 OA
HETATM   20  O2  UNL     1       2.242  22.666 -40.413  1.00  0.00    -0.201 OA
BRANCH  18  21
HETATM   21  N1  UNL     1       1.459  23.600 -42.731  1.00  0.00    -0.324 N 
ATOM     22  H12 UNL     1       1.110  24.557 -42.772  1.00  0.00     0.169 HD
ATOM     23  H11 UNL     1       1.075  22.820 -43.263  1.00  0.00     0.169 HD
ENDBRANCH  18  21
ENDBRANCH  15  18
ENDBRANCH   1  12
BRANCH   9  24
HETATM   24  C10 UNL     1       4.115  14.407 -44.787  1.00  0.00    -0.008 A 
HETATM   25  C11 UNL     1       3.575  13.380 -45.532  1.00  0.00     0.015 A 
HETATM   26  C12 UNL     1       2.362  12.796 -45.195  1.00  0.00     0.018 A 
HETATM   27  C13 UNL     1       1.671  13.248 -44.092  1.00  0.00     0.087 A 
HETATM   28  N4  UNL     1       2.207  14.246 -43.378  1.00  0.00    -0.374 N 
HETATM   29  C14 UNL     1       3.380  14.814 -43.697  1.00  0.00     0.100 A 
ATOM     30  H4  UNL     1       1.704  14.588 -42.560  1.00  0.00     0.164 HD
ENDBRANCH   9  24
TORSDOF 4
ENDMDL
