MODEL 5
REMARK VINA RESULT: -9.158232358      2.773     11.338
REMARK  6 active torsions:
REMARK  status: ('A' for Active; 'I' for Inactive)
REMARK       I    between atoms: C1_2  and  N1_3 
REMARK       I    between atoms: C1_2  and  N3_13 
REMARK    1  A    between atoms: N1_3  and  C2_5 
REMARK    2  A    between atoms: C2_5  and  C3_6 
REMARK    3  A    between atoms: C3_6  and  N2_7 
REMARK    4  A    between atoms: N3_13  and  C8_15 
REMARK    5  A    between atoms: C17_26  and  N5_27 
REMARK       I    between atoms: N5_27  and  C18_29 
REMARK    6  A    between atoms: C18_29  and  C19_31 
ROOT
HETATM    1  C8  UNL     1       7.550 -15.497  46.979  1.00  0.00     0.037 A 
HETATM    2  C9  UNL     1       6.721 -14.457  47.298  1.00  0.00     0.029 A 
HETATM    3  C10 UNL     1       5.425 -14.361  46.779  1.00  0.00     0.003 A 
HETATM    4  C11 UNL     1       4.947 -15.316  45.931  1.00  0.00     0.014 A 
HETATM    5  C12 UNL     1       5.762 -16.401  45.575  1.00  0.00    -0.007 A 
HETATM    6  C13 UNL     1       5.213 -17.384  44.678  1.00  0.00     0.043 A 
HETATM    7  C14 UNL     1       5.929 -18.476  44.279  1.00  0.00     0.033 A 
HETATM    8  C15 UNL     1       5.459 -19.450  43.424  1.00  0.00     0.035 A 
HETATM    9  C16 UNL     1       4.156 -19.335  42.914  1.00  0.00     0.068 A 
HETATM   10  N4  UNL     1       3.565 -20.159  42.105  1.00  0.00    -0.334 N 
ATOM     11  H4  UNL     1       4.058 -20.990  41.777  1.00  0.00     0.168 HD
HETATM   12  C17 UNL     1       2.326 -19.926  41.703  1.00  0.00     0.153 A 
HETATM   13  S1  UNL     1       1.963 -18.462  42.505  1.00  0.00    -0.034 SA
HETATM   14  C22 UNL     1       3.453 -18.234  43.325  1.00  0.00     0.105 A 
HETATM   15  N6  UNL     1       3.958 -17.289  44.176  1.00  0.00    -0.348 N 
ATOM     16  H6  UNL     1       3.376 -16.494  44.440  1.00  0.00     0.166 HD
HETATM   17  C23 UNL     1       7.019 -16.459  46.101  1.00  0.00     0.043 A 
ENDROOT
BRANCH   1  18
HETATM   18  N3  UNL     1       8.861 -15.653  47.445  1.00  0.00    -0.309 N 
HETATM   19  C1  UNL     1       9.302 -16.637  48.350  1.00  0.00     0.320 C 
HETATM   20  O1  UNL     1       8.500 -17.470  48.822  1.00  0.00    -0.247 OA
HETATM   21  N1  UNL     1      10.697 -16.700  48.748  1.00  0.00    -0.341 N 
ATOM     22  H1  UNL     1      11.376 -16.031  48.383  1.00  0.00     0.164 HD
ATOM     23  H3  UNL     1       9.558 -14.995  47.099  1.00  0.00     0.170 HD
BRANCH  21  24
HETATM   24  C2  UNL     1      11.096 -17.725  49.667  1.00  0.00     0.154 C 
BRANCH  24  25
HETATM   25  C3  UNL     1      11.738 -18.907  49.046  1.00  0.00     0.292 C 
BRANCH  25  26
HETATM   26  N2  UNL     1      10.957 -20.071  48.865  1.00  0.00     0.094 N 
HETATM   27  C4  UNL     1      10.269 -20.220  47.620  1.00  0.00     0.298 C 
HETATM   28  C5  UNL     1       9.433 -21.503  47.676  1.00  0.00     0.198 C 
HETATM   29  O2  UNL     1       8.513 -21.429  48.729  1.00  0.00    -0.388 OA
HETATM   30  C6  UNL     1       9.250 -21.468  49.910  1.00  0.00     0.198 C 
HETATM   31  C7  UNL     1      10.024 -20.170  50.003  1.00  0.00     0.298 C 
ENDBRANCH  25  26
ENDBRANCH  24  25
ENDBRANCH  21  24
ENDBRANCH   1  18
BRANCH  12  32
HETATM   32  N5  UNL     1       1.509 -20.717  40.816  1.00  0.00    -0.306 N 
HETATM   33  C18 UNL     1       1.502 -22.114  40.837  1.00  0.00     0.234 C 
HETATM   34  O3  UNL     1       2.249 -22.725  41.676  1.00  0.00    -0.272 OA
ATOM     35  H5  UNL     1       0.911 -20.235  40.144  1.00  0.00     0.171 HD
BRANCH  33  36
HETATM   36  C19 UNL     1       0.639 -22.864  39.896  1.00  0.00     0.123 A 
HETATM   37  C20 UNL     1      -0.567 -22.252  39.352  1.00  0.00    -0.012 A 
HETATM   38  C21 UNL     1      -0.718 -23.255  40.325  1.00  0.00    -0.012 A 
ENDBRANCH  33  36
ENDBRANCH  12  32
TORSDOF 6
ENDMDL
