MODEL 8
REMARK VINA RESULT: -9.125618164      1.125      1.429
REMARK  6 active torsions:
REMARK  status: ('A' for Active; 'I' for Inactive)
REMARK       I    between atoms: C1_2  and  N1_3 
REMARK       I    between atoms: C1_2  and  N3_13 
REMARK    1  A    between atoms: N1_3  and  C2_5 
REMARK    2  A    between atoms: C2_5  and  C3_6 
REMARK    3  A    between atoms: C3_6  and  N2_7 
REMARK    4  A    between atoms: N3_13  and  C8_15 
REMARK    5  A    between atoms: C17_26  and  N5_27 
REMARK       I    between atoms: N5_27  and  C18_29 
REMARK    6  A    between atoms: C18_29  and  C19_31 
ROOT
HETATM    1  C8  UNL     1       2.474 -16.721  43.059  1.00  0.00     0.037 A 
HETATM    2  C9  UNL     1       2.039 -15.442  43.274  1.00  0.00     0.029 A 
HETATM    3  C10 UNL     1       2.721 -14.564  44.125  1.00  0.00     0.003 A 
HETATM    4  C11 UNL     1       3.853 -14.967  44.770  1.00  0.00     0.014 A 
HETATM    5  C12 UNL     1       4.336 -16.270  44.580  1.00  0.00    -0.007 A 
HETATM    6  C13 UNL     1       5.535 -16.648  45.282  1.00  0.00     0.043 A 
HETATM    7  C14 UNL     1       6.082 -17.893  45.155  1.00  0.00     0.033 A 
HETATM    8  C15 UNL     1       7.226 -18.313  45.799  1.00  0.00     0.035 A 
HETATM    9  C16 UNL     1       7.895 -17.417  46.649  1.00  0.00     0.068 A 
HETATM   10  N4  UNL     1       8.978 -17.652  47.324  1.00  0.00    -0.334 N 
ATOM     11  H4  UNL     1       9.425 -18.567  47.265  1.00  0.00     0.168 HD
HETATM   12  C17 UNL     1       9.504 -16.710  48.091  1.00  0.00     0.153 A 
HETATM   13  S1  UNL     1       8.417 -15.413  47.854  1.00  0.00    -0.034 SA
HETATM   14  C22 UNL     1       7.332 -16.174  46.763  1.00  0.00     0.105 A 
HETATM   15  N6  UNL     1       6.193 -15.797  46.105  1.00  0.00    -0.348 N 
ATOM     16  H6  UNL     1       5.831 -14.853  46.237  1.00  0.00     0.166 HD
HETATM   17  C23 UNL     1       3.644 -17.095  43.744  1.00  0.00     0.043 A 
ENDROOT
BRANCH   1  18
HETATM   18  N3  UNL     1       1.839 -17.658  42.236  1.00  0.00    -0.309 N 
HETATM   19  C1  UNL     1       2.005 -19.055  42.297  1.00  0.00     0.320 C 
HETATM   20  O1  UNL     1       2.779 -19.566  43.132  1.00  0.00    -0.247 OA
HETATM   21  N1  UNL     1       1.277 -19.923  41.388  1.00  0.00    -0.341 N 
ATOM     22  H1  UNL     1       0.640 -19.537  40.691  1.00  0.00     0.164 HD
ATOM     23  H3  UNL     1       1.200 -17.297  41.528  1.00  0.00     0.170 HD
BRANCH  21  24
HETATM   24  C2  UNL     1       1.476 -21.339  41.496  1.00  0.00     0.154 C 
BRANCH  24  25
HETATM   25  C3  UNL     1       0.481 -22.168  40.778  1.00  0.00     0.292 C 
BRANCH  25  26
HETATM   26  N2  UNL     1       0.492 -22.147  39.365  1.00  0.00     0.094 N 
HETATM   27  C4  UNL     1      -0.572 -21.457  38.703  1.00  0.00     0.298 C 
HETATM   28  C5  UNL     1      -0.398 -21.631  37.190  1.00  0.00     0.198 C 
HETATM   29  O2  UNL     1      -0.426 -22.990  36.858  1.00  0.00    -0.388 OA
HETATM   30  C6  UNL     1       0.732 -23.557  37.386  1.00  0.00     0.198 C 
HETATM   31  C7  UNL     1       0.596 -23.542  38.894  1.00  0.00     0.298 C 
ENDBRANCH  25  26
ENDBRANCH  24  25
ENDBRANCH  21  24
ENDBRANCH   1  18
BRANCH  12  32
HETATM   32  N5  UNL     1      10.690 -16.779  48.908  1.00  0.00    -0.306 N 
HETATM   33  C18 UNL     1      11.030 -17.911  49.655  1.00  0.00     0.234 C 
HETATM   34  O3  UNL     1      10.261 -18.931  49.618  1.00  0.00    -0.272 OA
ATOM     35  H5  UNL     1      11.307 -15.968  48.941  1.00  0.00     0.171 HD
BRANCH  33  36
HETATM   36  C19 UNL     1      12.264 -17.913  50.473  1.00  0.00     0.123 A 
HETATM   37  C20 UNL     1      12.852 -19.169  50.922  1.00  0.00    -0.012 A 
HETATM   38  C21 UNL     1      12.194 -18.371  51.874  1.00  0.00    -0.012 A 
ENDBRANCH  33  36
ENDBRANCH  12  32
TORSDOF 6
ENDMDL
