MODEL 1
REMARK VINA RESULT: -9.348873571      0.000      0.000
REMARK  6 active torsions:
REMARK  status: ('A' for Active; 'I' for Inactive)
REMARK       I    between atoms: C1_2  and  N1_3 
REMARK       I    between atoms: C1_2  and  N3_13 
REMARK    1  A    between atoms: N1_3  and  C2_5 
REMARK    2  A    between atoms: C2_5  and  C3_6 
REMARK    3  A    between atoms: C3_6  and  N2_7 
REMARK    4  A    between atoms: N3_13  and  C8_15 
REMARK    5  A    between atoms: C17_26  and  N5_27 
REMARK       I    between atoms: N5_27  and  C18_29 
REMARK    6  A    between atoms: C18_29  and  C19_31 
ROOT
HETATM    1  C8  UNL     1       2.578 -17.321  43.430  1.00  0.00     0.037 A 
HETATM    2  C9  UNL     1       2.365 -15.986  43.226  1.00  0.00     0.029 A 
HETATM    3  C10 UNL     1       3.218 -15.012  43.758  1.00  0.00     0.003 A 
HETATM    4  C11 UNL     1       4.301 -15.375  44.504  1.00  0.00     0.014 A 
HETATM    5  C12 UNL     1       4.559 -16.734  44.740  1.00  0.00    -0.007 A 
HETATM    6  C13 UNL     1       5.714 -17.067  45.532  1.00  0.00     0.043 A 
HETATM    7  C14 UNL     1       6.048 -18.361  45.810  1.00  0.00     0.033 A 
HETATM    8  C15 UNL     1       7.139 -18.743  46.560  1.00  0.00     0.035 A 
HETATM    9  C16 UNL     1       7.983 -17.751  47.086  1.00  0.00     0.068 A 
HETATM   10  N4  UNL     1       9.045 -17.940  47.807  1.00  0.00    -0.334 N 
ATOM     11  H4  UNL     1       9.337 -18.889  48.043  1.00  0.00     0.168 HD
HETATM   12  C17 UNL     1       9.752 -16.906  48.238  1.00  0.00     0.153 A 
HETATM   13  S1  UNL     1       8.876 -15.587  47.595  1.00  0.00    -0.034 SA
HETATM   14  C22 UNL     1       7.633 -16.460  46.796  1.00  0.00     0.105 A 
HETATM   15  N6  UNL     1       6.538 -16.123  46.047  1.00  0.00    -0.348 N 
ATOM     16  H6  UNL     1       6.339 -15.139  45.870  1.00  0.00     0.166 HD
HETATM   17  C23 UNL     1       3.704 -17.651  44.205  1.00  0.00     0.043 A 
ENDROOT
BRANCH   1  18
HETATM   18  N3  UNL     1       1.763 -18.349  42.943  1.00  0.00    -0.309 N 
HETATM   19  C1  UNL     1       2.098 -19.251  41.916  1.00  0.00     0.320 C 
HETATM   20  O1  UNL     1       3.204 -19.175  41.341  1.00  0.00    -0.247 OA
HETATM   21  N1  UNL     1       1.163 -20.286  41.509  1.00  0.00    -0.341 N 
ATOM     22  H1  UNL     1       0.250 -20.371  41.957  1.00  0.00     0.164 HD
ATOM     23  H3  UNL     1       0.843 -18.454  43.371  1.00  0.00     0.170 HD
BRANCH  21  24
HETATM   24  C2  UNL     1       1.556 -21.183  40.463  1.00  0.00     0.154 C 
BRANCH  24  25
HETATM   25  C3  UNL     1       0.463 -22.013  39.907  1.00  0.00     0.292 C 
BRANCH  25  26
HETATM   26  N2  UNL     1      -0.666 -21.355  39.368  1.00  0.00     0.094 N 
HETATM   27  C4  UNL     1      -1.820 -22.148  39.078  1.00  0.00     0.298 C 
HETATM   28  C5  UNL     1      -2.881 -21.246  38.436  1.00  0.00     0.198 C 
HETATM   29  O2  UNL     1      -2.379 -20.678  37.260  1.00  0.00    -0.388 OA
HETATM   30  C6  UNL     1      -1.379 -19.785  37.640  1.00  0.00     0.198 C 
HETATM   31  C7  UNL     1      -0.224 -20.603  38.178  1.00  0.00     0.298 C 
ENDBRANCH  25  26
ENDBRANCH  24  25
ENDBRANCH  21  24
ENDBRANCH   1  18
BRANCH  12  32
HETATM   32  N5  UNL     1      10.949 -16.913  49.041  1.00  0.00    -0.306 N 
HETATM   33  C18 UNL     1      11.273 -17.961  49.908  1.00  0.00     0.234 C 
HETATM   34  O3  UNL     1      10.480 -18.959  49.998  1.00  0.00    -0.272 OA
ATOM     35  H5  UNL     1      11.586 -16.120  48.973  1.00  0.00     0.171 HD
BRANCH  33  36
HETATM   36  C19 UNL     1      12.521 -17.902  50.704  1.00  0.00     0.123 A 
HETATM   37  C20 UNL     1      12.532 -18.339  52.094  1.00  0.00    -0.012 A 
HETATM   38  C21 UNL     1      12.604 -16.959  51.836  1.00  0.00    -0.012 A 
ENDBRANCH  33  36
ENDBRANCH  12  32
TORSDOF 6
ENDMDL
