MODEL 11
REMARK VINA RESULT: -9.004323210      2.673     12.872
REMARK  6 active torsions:
REMARK  status: ('A' for Active; 'I' for Inactive)
REMARK       I    between atoms: C1_2  and  N1_3 
REMARK       I    between atoms: C1_2  and  N3_13 
REMARK    1  A    between atoms: N1_3  and  C2_5 
REMARK    2  A    between atoms: C2_5  and  C3_6 
REMARK    3  A    between atoms: C3_6  and  N2_7 
REMARK    4  A    between atoms: N3_13  and  C8_15 
REMARK    5  A    between atoms: C17_26  and  N5_27 
REMARK       I    between atoms: N5_27  and  C18_29 
REMARK    6  A    between atoms: C18_29  and  C19_31 
ROOT
HETATM    1  C8  UNL     1       7.649 -15.541  47.057  1.00  0.00     0.037 A 
HETATM    2  C9  UNL     1       6.836 -14.486  47.364  1.00  0.00     0.029 A 
HETATM    3  C10 UNL     1       5.548 -14.367  46.829  1.00  0.00     0.003 A 
HETATM    4  C11 UNL     1       5.064 -15.314  45.976  1.00  0.00     0.014 A 
HETATM    5  C12 UNL     1       5.862 -16.415  45.632  1.00  0.00    -0.007 A 
HETATM    6  C13 UNL     1       5.306 -17.388  44.729  1.00  0.00     0.043 A 
HETATM    7  C14 UNL     1       6.008 -18.494  44.341  1.00  0.00     0.033 A 
HETATM    8  C15 UNL     1       5.530 -19.460  43.481  1.00  0.00     0.035 A 
HETATM    9  C16 UNL     1       4.236 -19.321  42.955  1.00  0.00     0.068 A 
HETATM   10  N4  UNL     1       3.640 -20.136  42.139  1.00  0.00    -0.334 N 
ATOM     11  H4  UNL     1       4.121 -20.977  41.818  1.00  0.00     0.168 HD
HETATM   12  C17 UNL     1       2.410 -19.880  41.721  1.00  0.00     0.153 A 
HETATM   13  S1  UNL     1       2.065 -18.409  42.517  1.00  0.00    -0.034 SA
HETATM   14  C22 UNL     1       3.548 -18.207  43.355  1.00  0.00     0.105 A 
HETATM   15  N6  UNL     1       4.060 -17.270  44.212  1.00  0.00    -0.348 N 
ATOM     16  H6  UNL     1       3.489 -16.465  44.467  1.00  0.00     0.166 HD
HETATM   17  C23 UNL     1       7.111 -16.495  46.173  1.00  0.00     0.043 A 
ENDROOT
BRANCH   1  18
HETATM   18  N3  UNL     1       8.950 -15.722  47.540  1.00  0.00    -0.309 N 
HETATM   19  C1  UNL     1       9.386 -16.779  48.361  1.00  0.00     0.320 C 
HETATM   20  O1  UNL     1       8.587 -17.663  48.734  1.00  0.00    -0.247 OA
HETATM   21  N1  UNL     1      10.773 -16.857  48.787  1.00  0.00    -0.341 N 
ATOM     22  H1  UNL     1      11.449 -16.148  48.503  1.00  0.00     0.164 HD
ATOM     23  H3  UNL     1       9.645 -15.025  47.273  1.00  0.00     0.170 HD
BRANCH  21  24
HETATM   24  C2  UNL     1      11.167 -17.958  49.618  1.00  0.00     0.154 C 
BRANCH  24  25
HETATM   25  C3  UNL     1      12.513 -17.835  50.222  1.00  0.00     0.292 C 
BRANCH  25  26
HETATM   26  N2  UNL     1      12.921 -16.564  50.687  1.00  0.00     0.094 N 
HETATM   27  C4  UNL     1      14.194 -16.076  50.253  1.00  0.00     0.298 C 
HETATM   28  C5  UNL     1      14.458 -14.730  50.937  1.00  0.00     0.198 C 
HETATM   29  O2  UNL     1      14.453 -14.891  52.328  1.00  0.00    -0.388 OA
HETATM   30  C6  UNL     1      13.142 -15.190  52.693  1.00  0.00     0.198 C 
HETATM   31  C7  UNL     1      12.829 -16.572  52.160  1.00  0.00     0.298 C 
ENDBRANCH  25  26
ENDBRANCH  24  25
ENDBRANCH  21  24
ENDBRANCH   1  18
BRANCH  12  32
HETATM   32  N5  UNL     1       1.590 -20.657  40.824  1.00  0.00    -0.306 N 
HETATM   33  C18 UNL     1       1.564 -22.055  40.841  1.00  0.00     0.234 C 
HETATM   34  O3  UNL     1       2.295 -22.678  41.684  1.00  0.00    -0.272 OA
ATOM     35  H5  UNL     1       1.005 -20.166  40.150  1.00  0.00     0.171 HD
BRANCH  33  36
HETATM   36  C19 UNL     1       0.698 -22.789  39.890  1.00  0.00     0.123 A 
HETATM   37  C20 UNL     1      -0.426 -22.122  39.246  1.00  0.00    -0.012 A 
HETATM   38  C21 UNL     1      -0.706 -23.055  40.259  1.00  0.00    -0.012 A 
ENDBRANCH  33  36
ENDBRANCH  12  32
TORSDOF 6
ENDMDL
