MODEL 14
REMARK VINA RESULT: -8.864435840      3.566     11.082
REMARK  6 active torsions:
REMARK  status: ('A' for Active; 'I' for Inactive)
REMARK       I    between atoms: C1_2  and  N1_3 
REMARK       I    between atoms: C1_2  and  N3_13 
REMARK    1  A    between atoms: N1_3  and  C2_5 
REMARK    2  A    between atoms: C2_5  and  C3_6 
REMARK    3  A    between atoms: C3_6  and  N2_7 
REMARK    4  A    between atoms: N3_13  and  C8_15 
REMARK    5  A    between atoms: C17_26  and  N5_27 
REMARK       I    between atoms: N5_27  and  C18_29 
REMARK    6  A    between atoms: C18_29  and  C19_31 
ROOT
HETATM    1  C8  UNL     1       4.251 -15.277  45.418  1.00  0.00     0.037 A 
HETATM    2  C9  UNL     1       3.404 -14.361  44.860  1.00  0.00     0.029 A 
HETATM    3  C10 UNL     1       2.499 -14.711  43.851  1.00  0.00     0.003 A 
HETATM    4  C11 UNL     1       2.438 -15.994  43.392  1.00  0.00     0.014 A 
HETATM    5  C12 UNL     1       3.288 -16.969  43.935  1.00  0.00    -0.007 A 
HETATM    6  C13 UNL     1       3.185 -18.309  43.419  1.00  0.00     0.043 A 
HETATM    7  C14 UNL     1       3.968 -19.324  43.889  1.00  0.00     0.033 A 
HETATM    8  C15 UNL     1       3.916 -20.625  43.437  1.00  0.00     0.035 A 
HETATM    9  C16 UNL     1       3.002 -20.956  42.423  1.00  0.00     0.068 A 
HETATM   10  N4  UNL     1       2.826 -22.125  41.890  1.00  0.00    -0.334 N 
ATOM     11  H4  UNL     1       3.387 -22.917  42.206  1.00  0.00     0.168 HD
HETATM   12  C17 UNL     1       1.923 -22.295  40.937  1.00  0.00     0.153 A 
HETATM   13  S1  UNL     1       1.278 -20.721  40.776  1.00  0.00    -0.034 SA
HETATM   14  C22 UNL     1       2.226 -19.925  41.965  1.00  0.00     0.105 A 
HETATM   15  N6  UNL     1       2.310 -18.645  42.442  1.00  0.00    -0.348 N 
ATOM     16  H6  UNL     1       1.698 -17.928  42.053  1.00  0.00     0.166 HD
HETATM   17  C23 UNL     1       4.155 -16.588  44.916  1.00  0.00     0.043 A 
ENDROOT
BRANCH   1  18
HETATM   18  N3  UNL     1       5.190 -15.000  46.418  1.00  0.00    -0.309 N 
HETATM   19  C1  UNL     1       6.533 -15.422  46.428  1.00  0.00     0.320 C 
HETATM   20  O1  UNL     1       6.987 -16.115  45.494  1.00  0.00    -0.247 OA
HETATM   21  N1  UNL     1       7.412 -15.057  47.526  1.00  0.00    -0.341 N 
ATOM     22  H1  UNL     1       7.070 -14.495  48.306  1.00  0.00     0.164 HD
ATOM     23  H3  UNL     1       4.873 -14.443  47.211  1.00  0.00     0.170 HD
BRANCH  21  24
HETATM   24  C2  UNL     1       8.773 -15.506  47.484  1.00  0.00     0.154 C 
BRANCH  24  25
HETATM   25  C3  UNL     1       9.069 -16.681  48.336  1.00  0.00     0.292 C 
BRANCH  25  26
HETATM   26  N2  UNL     1       9.301 -17.923  47.701  1.00  0.00     0.094 N 
HETATM   27  C4  UNL     1       8.191 -18.814  47.560  1.00  0.00     0.298 C 
HETATM   28  C5  UNL     1       8.688 -20.115  46.921  1.00  0.00     0.198 C 
HETATM   29  O2  UNL     1       9.674 -20.697  47.725  1.00  0.00    -0.388 OA
HETATM   30  C6  UNL     1      10.786 -19.860  47.667  1.00  0.00     0.198 C 
HETATM   31  C7  UNL     1      10.427 -18.580  48.392  1.00  0.00     0.298 C 
ENDBRANCH  25  26
ENDBRANCH  24  25
ENDBRANCH  21  24
ENDBRANCH   1  18
BRANCH  12  32
HETATM   32  N5  UNL     1       1.585 -23.506  40.231  1.00  0.00    -0.306 N 
HETATM   33  C18 UNL     1       2.528 -24.489  39.919  1.00  0.00     0.234 C 
HETATM   34  O3  UNL     1       3.744 -24.316  40.272  1.00  0.00    -0.272 OA
ATOM     35  H5  UNL     1       0.616 -23.651  39.947  1.00  0.00     0.171 HD
BRANCH  33  36
HETATM   36  C19 UNL     1       2.111 -25.709  39.190  1.00  0.00     0.123 A 
HETATM   37  C20 UNL     1       0.747 -26.210  39.306  1.00  0.00    -0.012 A 
HETATM   38  C21 UNL     1       1.769 -26.921  39.959  1.00  0.00    -0.012 A 
ENDBRANCH  33  36
ENDBRANCH  12  32
TORSDOF 6
ENDMDL
