MODEL 2
REMARK VINA RESULT: -8.677728817      0.520      1.002
REMARK  6 active torsions:
REMARK  status: ('A' for Active; 'I' for Inactive)
REMARK    1  A    between atoms: O1_2  and  C2_3 
REMARK    2  A    between atoms: C4_5  and  N1_6 
REMARK    3  A    between atoms: C12_15  and  N3_16 
REMARK    4  A    between atoms: N3_16  and  C13_18 
REMARK    5  A    between atoms: C15_23  and  C16_24 
REMARK    6  A    between atoms: C16_24  and  C17_26 
ROOT
HETATM    1  N3  UNL     1       1.936 -28.950  -9.071  1.00  0.00    -0.334 N 
ATOM      2  H3  UNL     1       1.279 -28.575  -8.386  1.00  0.00     0.168 HD
ENDROOT
BRANCH   1   3
HETATM    3  C12 UNL     1       2.295 -30.318  -8.990  1.00  0.00     0.068 A 
HETATM    4  C2  UNL     1       1.450 -31.267  -9.591  1.00  0.00     0.097 A 
HETATM    5  C3  UNL     1       1.744 -32.606  -9.536  1.00  0.00     0.068 A 
HETATM    6  C4  UNL     1       2.858 -33.093  -8.904  1.00  0.00     0.033 A 
HETATM    7  C10 UNL     1       3.682 -32.172  -8.320  1.00  0.00     0.032 A 
HETATM    8  C11 UNL     1       3.412 -30.803  -8.357  1.00  0.00     0.035 A 
BRANCH   4   9
HETATM    9  O1  UNL     1       0.324 -30.827 -10.233  1.00  0.00    -0.354 OA
HETATM   10  C1  UNL     1      -0.950 -31.240  -9.824  1.00  0.00     0.210 C 
ENDBRANCH   4   9
BRANCH   6  11
HETATM   11  N1  UNL     1       3.184 -34.489  -8.831  1.00  0.00    -0.377 N 
HETATM   12  C5  UNL     1       2.138 -35.393  -9.170  1.00  0.00     0.153 C 
HETATM   13  C6  UNL     1       2.445 -36.833  -9.024  1.00  0.00     0.291 C 
HETATM   14  N2  UNL     1       3.857 -37.080  -9.178  1.00  0.00     0.087 N 
HETATM   15  C7  UNL     1       4.054 -38.514  -9.057  1.00  0.00     0.310 C 
HETATM   16  C8  UNL     1       4.500 -36.370  -8.084  1.00  0.00     0.291 C 
HETATM   17  C9  UNL     1       4.493 -34.917  -8.436  1.00  0.00     0.153 C 
ENDBRANCH   6  11
ENDBRANCH   1   3
BRANCH   1  18
HETATM   18  C13 UNL     1       2.450 -28.087 -10.059  1.00  0.00     0.151 A 
HETATM   19  N4  UNL     1       2.171 -26.854 -10.408  1.00  0.00    -0.324 N 
HETATM   20  C14 UNL     1       2.785 -26.260 -11.368  1.00  0.00     0.139 A 
ATOM     21  H4  UNL     1       1.444 -26.350  -9.900  1.00  0.00     0.169 HD
HETATM   22  N5  UNL     1       2.481 -24.900 -11.756  1.00  0.00    -0.081 NA
HETATM   23  C15 UNL     1       3.767 -26.969 -12.036  1.00  0.00     0.100 A 
HETATM   24  S1  UNL     1       3.713 -28.458 -11.201  1.00  0.00    -0.046 SA
BRANCH  23  25
HETATM   25  C16 UNL     1       4.585 -26.524 -13.150  1.00  0.00     0.202 C 
HETATM   26  O2  UNL     1       4.083 -26.549 -14.300  1.00  0.00    -0.286 OA
BRANCH  25  27
HETATM   27  C17 UNL     1       5.933 -26.062 -12.978  1.00  0.00     0.015 A 
HETATM   28  C18 UNL     1       6.845 -26.635 -12.138  1.00  0.00     0.015 A 
HETATM   29  C19 UNL     1       8.135 -26.124 -12.051  1.00  0.00     0.001 A 
HETATM   30  C20 UNL     1       8.540 -25.049 -12.785  1.00  0.00     0.000 A 
HETATM   31  C21 UNL     1       7.627 -24.467 -13.633  1.00  0.00     0.001 A 
HETATM   32  C22 UNL     1       6.349 -24.958 -13.732  1.00  0.00     0.015 A 
ENDBRANCH  25  27
ENDBRANCH  23  25
ENDBRANCH   1  18
TORSDOF 6
ENDMDL
