MODEL 1
REMARK VINA RESULT: -8.681153764      0.000      0.000
REMARK  6 active torsions:
REMARK  status: ('A' for Active; 'I' for Inactive)
REMARK    1  A    between atoms: O1_2  and  C2_3 
REMARK    2  A    between atoms: C4_5  and  N1_6 
REMARK    3  A    between atoms: C12_15  and  N3_16 
REMARK    4  A    between atoms: N3_16  and  C13_18 
REMARK    5  A    between atoms: C15_23  and  C16_24 
REMARK    6  A    between atoms: C16_24  and  C17_26 
ROOT
HETATM    1  N3  UNL     1       1.743 -28.546  -9.394  1.00  0.00    -0.334 N 
ATOM      2  H3  UNL     1       0.987 -28.177  -8.818  1.00  0.00     0.168 HD
ENDROOT
BRANCH   1   3
HETATM    3  C12 UNL     1       2.174 -29.879  -9.180  1.00  0.00     0.068 A 
HETATM    4  C2  UNL     1       1.494 -30.915  -9.844  1.00  0.00     0.097 A 
HETATM    5  C3  UNL     1       1.863 -32.224  -9.667  1.00  0.00     0.068 A 
HETATM    6  C4  UNL     1       2.896 -32.597  -8.848  1.00  0.00     0.033 A 
HETATM    7  C10 UNL     1       3.559 -31.591  -8.203  1.00  0.00     0.032 A 
HETATM    8  C11 UNL     1       3.210 -30.249  -8.360  1.00  0.00     0.035 A 
BRANCH   4   9
HETATM    9  O1  UNL     1       0.454 -30.590 -10.672  1.00  0.00    -0.354 OA
HETATM   10  C1  UNL     1      -0.859 -30.969 -10.367  1.00  0.00     0.210 C 
ENDBRANCH   4   9
BRANCH   6  11
HETATM   11  N1  UNL     1       3.297 -33.960  -8.644  1.00  0.00    -0.377 N 
HETATM   12  C5  UNL     1       2.282 -34.943  -8.819  1.00  0.00     0.153 C 
HETATM   13  C6  UNL     1       2.670 -36.342  -8.538  1.00  0.00     0.291 C 
HETATM   14  N2  UNL     1       4.082 -36.541  -8.751  1.00  0.00     0.087 N 
HETATM   15  C7  UNL     1       4.359 -37.943  -8.488  1.00  0.00     0.310 C 
HETATM   16  C8  UNL     1       4.748 -35.687  -7.781  1.00  0.00     0.291 C 
HETATM   17  C9  UNL     1       4.647 -34.283  -8.286  1.00  0.00     0.153 C 
ENDBRANCH   6  11
ENDBRANCH   1   3
BRANCH   1  18
HETATM   18  C13 UNL     1       2.317 -27.710 -10.373  1.00  0.00     0.151 A 
HETATM   19  N4  UNL     1       2.132 -26.454 -10.703  1.00  0.00    -0.324 N 
HETATM   20  C14 UNL     1       2.785 -25.894 -11.657  1.00  0.00     0.139 A 
ATOM     21  H4  UNL     1       1.447 -25.904 -10.184  1.00  0.00     0.169 HD
HETATM   22  N5  UNL     1       2.585 -24.510 -12.024  1.00  0.00    -0.081 NA
HETATM   23  C15 UNL     1       3.709 -26.667 -12.339  1.00  0.00     0.100 A 
HETATM   24  S1  UNL     1       3.544 -28.159 -11.526  1.00  0.00    -0.046 SA
BRANCH  23  25
HETATM   25  C16 UNL     1       4.554 -26.269 -13.451  1.00  0.00     0.202 C 
HETATM   26  O2  UNL     1       4.072 -26.317 -14.608  1.00  0.00    -0.286 OA
BRANCH  25  27
HETATM   27  C17 UNL     1       5.908 -25.828 -13.268  1.00  0.00     0.015 A 
HETATM   28  C18 UNL     1       6.481 -24.789 -13.942  1.00  0.00     0.015 A 
HETATM   29  C19 UNL     1       7.798 -24.426 -13.684  1.00  0.00     0.001 A 
HETATM   30  C20 UNL     1       8.562 -25.079 -12.763  1.00  0.00     0.000 A 
HETATM   31  C21 UNL     1       7.992 -26.127 -12.079  1.00  0.00     0.001 A 
HETATM   32  C22 UNL     1       6.693 -26.499 -12.322  1.00  0.00     0.015 A 
ENDBRANCH  25  27
ENDBRANCH  23  25
ENDBRANCH   1  18
TORSDOF 6
ENDMDL
