MODEL 3
REMARK VINA RESULT: -8.610282841      0.881      1.512
REMARK  6 active torsions:
REMARK  status: ('A' for Active; 'I' for Inactive)
REMARK    1  A    between atoms: O1_2  and  C2_3 
REMARK    2  A    between atoms: C4_5  and  N1_6 
REMARK    3  A    between atoms: C12_15  and  N3_16 
REMARK    4  A    between atoms: N3_16  and  C13_18 
REMARK    5  A    between atoms: C15_23  and  C16_24 
REMARK    6  A    between atoms: C16_24  and  C17_26 
ROOT
HETATM    1  N3  UNL     1       2.175 -29.027  -8.803  1.00  0.00    -0.334 N 
ATOM      2  H3  UNL     1       1.643 -28.623  -8.032  1.00  0.00     0.168 HD
ENDROOT
BRANCH   1   3
HETATM    3  C12 UNL     1       2.446 -30.417  -8.788  1.00  0.00     0.068 A 
HETATM    4  C2  UNL     1       1.359 -31.309  -8.812  1.00  0.00     0.097 A 
HETATM    5  C3  UNL     1       1.563 -32.665  -8.790  1.00  0.00     0.068 A 
HETATM    6  C4  UNL     1       2.812 -33.225  -8.744  1.00  0.00     0.033 A 
HETATM    7  C10 UNL     1       3.869 -32.360  -8.721  1.00  0.00     0.032 A 
HETATM    8  C11 UNL     1       3.699 -30.976  -8.742  1.00  0.00     0.035 A 
BRANCH   4   9
HETATM    9  O1  UNL     1       0.091 -30.795  -8.858  1.00  0.00    -0.354 OA
HETATM   10  C1  UNL     1      -1.010 -31.550  -8.435  1.00  0.00     0.210 C 
ENDBRANCH   4   9
BRANCH   6  11
HETATM   11  N1  UNL     1       3.049 -34.641  -8.716  1.00  0.00    -0.377 N 
HETATM   12  C5  UNL     1       4.364 -35.047  -8.349  1.00  0.00     0.153 C 
HETATM   13  C6  UNL     1       4.635 -36.501  -8.390  1.00  0.00     0.291 C 
HETATM   14  N2  UNL     1       3.427 -37.260  -8.179  1.00  0.00     0.087 N 
HETATM   15  C7  UNL     1       3.798 -38.664  -8.199  1.00  0.00     0.310 C 
HETATM   16  C8  UNL     1       2.558 -36.932  -9.298  1.00  0.00     0.291 C 
HETATM   17  C9  UNL     1       2.005 -35.566  -9.043  1.00  0.00     0.153 C 
ENDBRANCH   6  11
ENDBRANCH   1   3
BRANCH   1  18
HETATM   18  C13 UNL     1       2.611 -28.179  -9.841  1.00  0.00     0.151 A 
HETATM   19  N4  UNL     1       2.221 -27.000 -10.263  1.00  0.00    -0.324 N 
HETATM   20  C14 UNL     1       2.781 -26.409 -11.256  1.00  0.00     0.139 A 
ATOM     21  H4  UNL     1       1.447 -26.537  -9.785  1.00  0.00     0.169 HD
HETATM   22  N5  UNL     1       2.354 -25.109 -11.724  1.00  0.00    -0.081 NA
HETATM   23  C15 UNL     1       3.829 -27.062 -11.881  1.00  0.00     0.100 A 
HETATM   24  S1  UNL     1       3.909 -28.497 -10.959  1.00  0.00    -0.046 SA
BRANCH  23  25
HETATM   25  C16 UNL     1       4.608 -26.609 -13.020  1.00  0.00     0.202 C 
HETATM   26  O2  UNL     1       4.078 -26.658 -14.156  1.00  0.00    -0.286 OA
BRANCH  25  27
HETATM   27  C17 UNL     1       5.949 -26.114 -12.886  1.00  0.00     0.015 A 
HETATM   28  C18 UNL     1       6.893 -26.653 -12.060  1.00  0.00     0.015 A 
HETATM   29  C19 UNL     1       8.173 -26.112 -12.011  1.00  0.00     0.001 A 
HETATM   30  C20 UNL     1       8.535 -25.039 -12.770  1.00  0.00     0.000 A 
HETATM   31  C21 UNL     1       7.590 -24.490 -13.604  1.00  0.00     0.001 A 
HETATM   32  C22 UNL     1       6.321 -25.012 -13.666  1.00  0.00     0.015 A 
ENDBRANCH  25  27
ENDBRANCH  23  25
ENDBRANCH   1  18
TORSDOF 6
ENDMDL
