MODEL 3
REMARK VINA RESULT: -9.031828717      1.083      1.174
REMARK  8 active torsions:
REMARK  status: ('A' for Active; 'I' for Inactive)
REMARK    1  A    between atoms: C2_2  and  C3_3 
REMARK       I    between atoms: C3_3  and  N1_5 
REMARK    2  A    between atoms: N1_5  and  C4_7 
REMARK    3  A    between atoms: C7_10  and  C8_11 
REMARK    4  A    between atoms: C8_11  and  C9_13 
REMARK    5  A    between atoms: C10_15  and  N2_16 
REMARK    6  A    between atoms: N2_16  and  C11_18 
REMARK    7  A    between atoms: C14_21  and  N3_22 
REMARK    8  A    between atoms: C21_30  and  O3_31 
ROOT
HETATM    1  C9  UNL     1      -7.294 106.026 274.246  1.00  0.00     0.100 A 
HETATM    2  S1  UNL     1      -7.195 106.955 272.817  1.00  0.00    -0.046 SA
HETATM    3  C10 UNL     1      -7.021 108.524 273.528  1.00  0.00     0.151 A 
HETATM    4  N5  UNL     1      -7.050 108.226 274.810  1.00  0.00    -0.324 N 
ATOM      5  H5  UNL     1      -6.964 108.973 275.500  1.00  0.00     0.169 HD
HETATM    6  C23 UNL     1      -7.183 107.008 275.210  1.00  0.00     0.139 A 
HETATM    7  N6  UNL     1      -7.219 106.646 276.618  1.00  0.00    -0.081 NA
ENDROOT
BRANCH   3   8
HETATM    8  N2  UNL     1      -6.885 109.766 272.845  1.00  0.00    -0.334 N 
ATOM      9  H2  UNL     1      -7.736 110.317 272.733  1.00  0.00     0.168 HD
BRANCH   8  10
HETATM   10  C11 UNL     1      -5.720 110.312 272.312  1.00  0.00     0.068 A 
HETATM   11  C12 UNL     1      -5.287 109.996 271.050  1.00  0.00     0.035 A 
HETATM   12  C13 UNL     1      -4.109 110.552 270.519  1.00  0.00     0.032 A 
HETATM   13  C14 UNL     1      -3.340 111.429 271.228  1.00  0.00     0.033 A 
HETATM   14  C20 UNL     1      -3.786 111.743 272.504  1.00  0.00     0.068 A 
HETATM   15  C21 UNL     1      -4.932 111.212 273.038  1.00  0.00     0.097 A 
BRANCH  13  16
HETATM   16  N3  UNL     1      -2.143 112.026 270.768  1.00  0.00    -0.377 N 
HETATM   17  C15 UNL     1      -1.534 111.630 269.532  1.00  0.00     0.153 C 
HETATM   18  C16 UNL     1      -0.057 111.352 269.722  1.00  0.00     0.291 C 
HETATM   19  N4  UNL     1       0.575 112.284 270.620  1.00  0.00     0.087 N 
HETATM   20  C17 UNL     1       1.885 112.588 270.055  1.00  0.00     0.310 C 
HETATM   21  C18 UNL     1      -0.232 113.460 270.749  1.00  0.00     0.291 C 
HETATM   22  C19 UNL     1      -1.478 113.081 271.534  1.00  0.00     0.153 C 
ENDBRANCH  13  16
BRANCH  15  23
HETATM   23  O3  UNL     1      -5.363 111.538 274.316  1.00  0.00    -0.354 OA
HETATM   24  C22 UNL     1      -4.570 111.134 275.411  1.00  0.00     0.210 C 
ENDBRANCH  15  23
ENDBRANCH   8  10
ENDBRANCH   3   8
BRANCH   1  25
HETATM   25  C8  UNL     1      -7.434 104.590 274.458  1.00  0.00     0.202 C 
HETATM   26  O2  UNL     1      -8.578 104.092 274.635  1.00  0.00    -0.286 OA
BRANCH  25  27
HETATM   27  C7  UNL     1      -6.283 103.728 274.470  1.00  0.00     0.016 A 
HETATM   28  C6  UNL     1      -4.989 104.231 274.302  1.00  0.00     0.018 A 
HETATM   29  C5  UNL     1      -3.905 103.395 274.336  1.00  0.00     0.030 A 
HETATM   30  C4  UNL     1      -4.015 102.017 274.536  1.00  0.00     0.034 A 
HETATM   31  C25 UNL     1      -5.285 101.546 274.697  1.00  0.00     0.030 A 
HETATM   32  C24 UNL     1      -6.413 102.384 274.666  1.00  0.00     0.018 A 
BRANCH  30  33
HETATM   33  N1  UNL     1      -2.845 101.232 274.553  1.00  0.00    -0.327 N 
HETATM   34  C3  UNL     1      -1.805 101.238 273.610  1.00  0.00     0.221 C 
HETATM   35  O1  UNL     1      -1.835 101.979 272.628  1.00  0.00    -0.273 OA
ATOM     36  H1  UNL     1      -2.742 100.589 275.337  1.00  0.00     0.169 HD
BRANCH  34  37
HETATM   37  C2  UNL     1      -0.611 100.331 273.772  1.00  0.00     0.098 C 
HETATM   38  C1  UNL     1       0.396 100.572 272.697  1.00  0.00     0.014 C 
ENDBRANCH  34  37
ENDBRANCH  30  33
ENDBRANCH  25  27
ENDBRANCH   1  25
TORSDOF 8
ENDMDL
