MODEL 1
REMARK VINA RESULT: -9.245766009      0.000      0.000
REMARK  8 active torsions:
REMARK  status: ('A' for Active; 'I' for Inactive)
REMARK    1  A    between atoms: C2_2  and  C3_3 
REMARK       I    between atoms: C3_3  and  N1_5 
REMARK    2  A    between atoms: N1_5  and  C4_7 
REMARK    3  A    between atoms: C7_10  and  C8_11 
REMARK    4  A    between atoms: C8_11  and  C9_13 
REMARK    5  A    between atoms: C10_15  and  N2_16 
REMARK    6  A    between atoms: N2_16  and  C11_18 
REMARK    7  A    between atoms: C14_21  and  N3_22 
REMARK    8  A    between atoms: C21_30  and  O3_31 
ROOT
HETATM    1  C9  UNL     1      -7.177 105.974 274.242  1.00  0.00     0.100 A 
HETATM    2  S1  UNL     1      -6.883 106.897 272.836  1.00  0.00    -0.046 SA
HETATM    3  C10 UNL     1      -6.827 108.471 273.555  1.00  0.00     0.151 A 
HETATM    4  N5  UNL     1      -7.037 108.180 274.822  1.00  0.00    -0.324 N 
ATOM      5  H5  UNL     1      -7.059 108.931 275.511  1.00  0.00     0.169 HD
HETATM    6  C23 UNL     1      -7.215 106.963 275.206  1.00  0.00     0.139 A 
HETATM    7  N6  UNL     1      -7.451 106.608 276.596  1.00  0.00    -0.081 NA
ENDROOT
BRANCH   3   8
HETATM    8  N2  UNL     1      -6.605 109.711 272.890  1.00  0.00    -0.334 N 
ATOM      9  H2  UNL     1      -7.363 110.392 272.936  1.00  0.00     0.168 HD
BRANCH   8  10
HETATM   10  C11 UNL     1      -5.469 110.098 272.184  1.00  0.00     0.068 A 
HETATM   11  C12 UNL     1      -5.546 110.591 270.907  1.00  0.00     0.035 A 
HETATM   12  C13 UNL     1      -4.393 110.979 270.201  1.00  0.00     0.032 A 
HETATM   13  C14 UNL     1      -3.146 110.885 270.746  1.00  0.00     0.033 A 
HETATM   14  C20 UNL     1      -3.077 110.386 272.039  1.00  0.00     0.068 A 
HETATM   15  C21 UNL     1      -4.189 110.003 272.743  1.00  0.00     0.097 A 
BRANCH  13  16
HETATM   16  N3  UNL     1      -1.940 111.249 270.100  1.00  0.00    -0.377 N 
HETATM   17  C15 UNL     1      -1.870 111.410 268.677  1.00  0.00     0.153 C 
HETATM   18  C16 UNL     1      -0.690 110.651 268.105  1.00  0.00     0.291 C 
HETATM   19  N4  UNL     1       0.481 110.728 268.941  1.00  0.00     0.087 N 
HETATM   20  C17 UNL     1       1.623 110.882 268.047  1.00  0.00     0.310 C 
HETATM   21  C18 UNL     1       0.363 111.833 269.845  1.00  0.00     0.291 C 
HETATM   22  C19 UNL     1      -0.713 111.484 270.861  1.00  0.00     0.153 C 
ENDBRANCH  13  16
BRANCH  15  23
HETATM   23  O3  UNL     1      -4.102 109.506 274.035  1.00  0.00    -0.354 OA
HETATM   24  C22 UNL     1      -3.306 108.363 274.258  1.00  0.00     0.210 C 
ENDBRANCH  15  23
ENDBRANCH   8  10
ENDBRANCH   3   8
BRANCH   1  25
HETATM   25  C8  UNL     1      -7.334 104.539 274.441  1.00  0.00     0.202 C 
HETATM   26  O2  UNL     1      -8.483 104.051 274.606  1.00  0.00    -0.286 OA
BRANCH  25  27
HETATM   27  C7  UNL     1      -6.191 103.664 274.454  1.00  0.00     0.016 A 
HETATM   28  C6  UNL     1      -4.900 104.143 274.212  1.00  0.00     0.018 A 
HETATM   29  C5  UNL     1      -3.823 103.297 274.248  1.00  0.00     0.030 A 
HETATM   30  C4  UNL     1      -3.939 101.933 274.521  1.00  0.00     0.034 A 
HETATM   31  C25 UNL     1      -5.207 101.486 274.754  1.00  0.00     0.030 A 
HETATM   32  C24 UNL     1      -6.326 102.334 274.723  1.00  0.00     0.018 A 
BRANCH  30  33
HETATM   33  N1  UNL     1      -2.777 101.136 274.535  1.00  0.00    -0.327 N 
HETATM   34  C3  UNL     1      -1.706 101.183 273.628  1.00  0.00     0.221 C 
HETATM   35  O1  UNL     1      -1.696 101.976 272.689  1.00  0.00    -0.273 OA
ATOM     36  H1  UNL     1      -2.707 100.450 275.286  1.00  0.00     0.169 HD
BRANCH  34  37
HETATM   37  C2  UNL     1      -0.526 100.256 273.781  1.00  0.00     0.098 C 
HETATM   38  C1  UNL     1       0.458 100.454 272.676  1.00  0.00     0.014 C 
ENDBRANCH  34  37
ENDBRANCH  30  33
ENDBRANCH  25  27
ENDBRANCH   1  25
TORSDOF 8
ENDMDL
