MODEL 2
REMARK VINA RESULT: -9.171735246      1.186      1.854
REMARK  8 active torsions:
REMARK  status: ('A' for Active; 'I' for Inactive)
REMARK    1  A    between atoms: C2_2  and  C3_3 
REMARK       I    between atoms: C3_3  and  N1_5 
REMARK    2  A    between atoms: N1_5  and  C4_7 
REMARK    3  A    between atoms: C7_10  and  C8_11 
REMARK    4  A    between atoms: C8_11  and  C9_13 
REMARK    5  A    between atoms: C10_15  and  N2_16 
REMARK    6  A    between atoms: N2_16  and  C11_18 
REMARK    7  A    between atoms: C14_21  and  N3_22 
REMARK    8  A    between atoms: C21_30  and  O3_31 
ROOT
HETATM    1  C9  UNL     1      -7.237 105.893 274.332  1.00  0.00     0.100 A 
HETATM    2  S1  UNL     1      -6.998 106.856 272.943  1.00  0.00    -0.046 SA
HETATM    3  C10 UNL     1      -6.952 108.412 273.700  1.00  0.00     0.151 A 
HETATM    4  N5  UNL     1      -7.123 108.085 274.964  1.00  0.00    -0.324 N 
ATOM      5  H5  UNL     1      -7.141 108.818 275.673  1.00  0.00     0.169 HD
HETATM    6  C23 UNL     1      -7.268 106.856 275.321  1.00  0.00     0.139 A 
HETATM    7  N6  UNL     1      -7.460 106.461 276.708  1.00  0.00    -0.081 NA
ENDROOT
BRANCH   3   8
HETATM    8  N2  UNL     1      -6.772 109.672 273.061  1.00  0.00    -0.334 N 
ATOM      9  H2  UNL     1      -7.499 110.370 273.221  1.00  0.00     0.168 HD
BRANCH   8  10
HETATM   10  C11 UNL     1      -5.713 110.059 272.243  1.00  0.00     0.068 A 
HETATM   11  C12 UNL     1      -4.458 109.527 272.387  1.00  0.00     0.035 A 
HETATM   12  C13 UNL     1      -3.395 109.923 271.556  1.00  0.00     0.032 A 
HETATM   13  C14 UNL     1      -3.556 110.853 270.570  1.00  0.00     0.033 A 
HETATM   14  C20 UNL     1      -4.829 111.386 270.431  1.00  0.00     0.068 A 
HETATM   15  C21 UNL     1      -5.878 111.011 271.231  1.00  0.00     0.097 A 
BRANCH  13  16
HETATM   16  N3  UNL     1      -2.537 111.307 269.698  1.00  0.00    -0.377 N 
HETATM   17  C15 UNL     1      -1.326 110.564 269.509  1.00  0.00     0.153 C 
HETATM   18  C16 UNL     1      -0.113 111.462 269.654  1.00  0.00     0.291 C 
HETATM   19  N4  UNL     1      -0.311 112.764 269.070  1.00  0.00     0.087 N 
HETATM   20  C17 UNL     1       0.941 113.121 268.412  1.00  0.00     0.310 C 
HETATM   21  C18 UNL     1      -1.402 112.722 268.144  1.00  0.00     0.291 C 
HETATM   22  C19 UNL     1      -2.683 112.553 268.947  1.00  0.00     0.153 C 
ENDBRANCH  13  16
BRANCH  15  23
HETATM   23  O3  UNL     1      -7.145 111.555 271.077  1.00  0.00    -0.354 OA
HETATM   24  C22 UNL     1      -7.350 112.893 271.473  1.00  0.00     0.210 C 
ENDBRANCH  15  23
ENDBRANCH   8  10
ENDBRANCH   3   8
BRANCH   1  25
HETATM   25  C8  UNL     1      -7.362 104.450 274.499  1.00  0.00     0.202 C 
HETATM   26  O2  UNL     1      -8.500 103.932 274.646  1.00  0.00    -0.286 OA
BRANCH  25  27
HETATM   27  C7  UNL     1      -6.199 103.602 274.499  1.00  0.00     0.016 A 
HETATM   28  C6  UNL     1      -4.938 104.088 274.140  1.00  0.00     0.018 A 
HETATM   29  C5  UNL     1      -3.841 103.269 274.165  1.00  0.00     0.030 A 
HETATM   30  C4  UNL     1      -3.905 101.925 274.542  1.00  0.00     0.034 A 
HETATM   31  C25 UNL     1      -5.144 101.471 274.889  1.00  0.00     0.030 A 
HETATM   32  C24 UNL     1      -6.284 102.291 274.870  1.00  0.00     0.018 A 
BRANCH  30  33
HETATM   33  N1  UNL     1      -2.725 101.156 274.536  1.00  0.00    -0.327 N 
HETATM   34  C3  UNL     1      -1.682 101.209 273.598  1.00  0.00     0.221 C 
HETATM   35  O1  UNL     1      -1.718 101.983 272.643  1.00  0.00    -0.273 OA
ATOM     36  H1  UNL     1      -2.617 100.486 275.298  1.00  0.00     0.169 HD
BRANCH  34  37
HETATM   37  C2  UNL     1      -0.477 100.312 273.733  1.00  0.00     0.098 C 
HETATM   38  C1  UNL     1       0.440 100.465 272.565  1.00  0.00     0.014 C 
ENDBRANCH  34  37
ENDBRANCH  30  33
ENDBRANCH  25  27
ENDBRANCH   1  25
TORSDOF 8
ENDMDL
