MODEL 2
REMARK VINA RESULT: -11.033431173      2.075      5.383
REMARK  3 active torsions:
REMARK  status: ('A' for Active; 'I' for Inactive)
REMARK    1  A    between atoms: C9_12  and  C10_13 
REMARK    2  A    between atoms: N4_23  and  C16_24 
REMARK    3  A    between atoms: C21_30  and  C22_31 
ROOT
HETATM    1  O1  UNL     1       1.024 -26.278 -14.486  1.00  0.00    -0.268 OA
HETATM    2  C1  UNL     1       2.224 -25.933 -14.361  1.00  0.00     0.252 A 
HETATM    3  C2  UNL     1       2.748 -24.884 -15.044  1.00  0.00     0.076 A 
HETATM    4  C3  UNL     1       4.059 -24.537 -14.885  1.00  0.00     0.020 A 
HETATM    5  C4  UNL     1       4.813 -25.279 -14.022  1.00  0.00     0.008 A 
HETATM    6  C5  UNL     1       6.139 -24.977 -13.830  1.00  0.00     0.102 A 
HETATM    7  N1  UNL     1       6.917 -25.670 -13.007  1.00  0.00    -0.364 N 
ATOM      8  H1  UNL     1       7.896 -25.408 -12.897  1.00  0.00     0.165 HD
HETATM    9  C6  UNL     1       6.427 -26.710 -12.321  1.00  0.00     0.044 A 
HETATM   10  C7  UNL     1       7.261 -27.425 -11.471  1.00  0.00     0.031 A 
HETATM   11  C8  UNL     1       6.771 -28.487 -10.777  1.00  0.00     0.014 A 
HETATM   12  C9  UNL     1       5.463 -28.869 -10.899  1.00  0.00    -0.022 A 
HETATM   13  C13 UNL     1       4.617 -28.152 -11.754  1.00  0.00     0.028 A 
HETATM   14  C14 UNL     1       5.102 -27.093 -12.447  1.00  0.00     0.020 A 
HETATM   15  C15 UNL     1       4.259 -26.370 -13.314  1.00  0.00     0.067 A 
HETATM   16  N4  UNL     1       2.985 -26.693 -13.477  1.00  0.00    -0.277 N 
ENDROOT
BRANCH  16  17
HETATM   17  C16 UNL     1       2.236 -27.726 -12.860  1.00  0.00     0.058 A 
HETATM   18  C17 UNL     1       2.037 -28.949 -13.456  1.00  0.00     0.034 A 
HETATM   19  C18 UNL     1       1.196 -29.856 -12.895  1.00  0.00     0.044 A 
HETATM   20  C19 UNL     1       0.513 -29.601 -11.726  1.00  0.00     0.117 A 
HETATM   21  F1  UNL     1      -0.328 -30.539 -11.187  1.00  0.00    -0.206 F 
HETATM   22  C20 UNL     1       0.718 -28.374 -11.136  1.00  0.00     0.060 A 
HETATM   23  C21 UNL     1       1.559 -27.427 -11.667  1.00  0.00     0.078 A 
BRANCH  23  24
HETATM   24  C22 UNL     1       1.724 -26.118 -10.974  1.00  0.00     0.419 C 
HETATM   25  F2  UNL     1       0.899 -26.180  -9.839  1.00  0.00    -0.166 F 
HETATM   26  F3  UNL     1       2.983 -25.906 -10.475  1.00  0.00    -0.166 F 
HETATM   27  F4  UNL     1       1.267 -25.046 -11.689  1.00  0.00    -0.166 F 
ENDBRANCH  23  24
ENDBRANCH  16  17
BRANCH  12  28
HETATM   28  C10 UNL     1       4.982 -30.015 -10.130  1.00  0.00     0.008 A 
HETATM   29  C11 UNL     1       3.804 -30.150  -9.432  1.00  0.00     0.120 A 
HETATM   30  N2  UNL     1       3.773 -31.368  -8.871  1.00  0.00    -0.311 N 
HETATM   31  N3  UNL     1       4.902 -32.001  -9.201  1.00  0.00    -0.311 N 
ATOM     32  H2  UNL     1       3.020 -31.745  -8.295  1.00  0.00     0.186 HD
HETATM   33  C12 UNL     1       5.653 -31.200  -9.965  1.00  0.00     0.120 A 
ATOM     34  H3  UNL     1       5.154 -32.948  -8.915  1.00  0.00     0.186 HD
ENDBRANCH  12  28
TORSDOF 3
ENDMDL
