MODEL 1
REMARK VINA RESULT: -11.337494370      0.000      0.000
REMARK  3 active torsions:
REMARK  status: ('A' for Active; 'I' for Inactive)
REMARK    1  A    between atoms: C9_12  and  C10_13 
REMARK    2  A    between atoms: N4_23  and  C16_24 
REMARK    3  A    between atoms: C21_30  and  C22_31 
ROOT
HETATM    1  O1  UNL     1      -0.114 -28.541 -10.191  1.00  0.00    -0.268 OA
HETATM    2  C1  UNL     1       1.020 -29.031  -9.972  1.00  0.00     0.252 A 
HETATM    3  C2  UNL     1       1.207 -30.053  -9.099  1.00  0.00     0.076 A 
HETATM    4  C3  UNL     1       2.456 -30.563  -8.883  1.00  0.00     0.020 A 
HETATM    5  C4  UNL     1       3.496 -30.009  -9.572  1.00  0.00     0.008 A 
HETATM    6  C5  UNL     1       4.773 -30.480  -9.388  1.00  0.00     0.102 A 
HETATM    7  N1  UNL     1       5.819 -29.973 -10.029  1.00  0.00    -0.364 N 
ATOM      8  H1  UNL     1       6.749 -30.356  -9.860  1.00  0.00     0.165 HD
HETATM    9  C6  UNL     1       5.665 -28.965 -10.896  1.00  0.00     0.044 A 
HETATM   10  C7  UNL     1       6.774 -28.446 -11.551  1.00  0.00     0.031 A 
HETATM   11  C8  UNL     1       6.625 -27.417 -12.426  1.00  0.00     0.014 A 
HETATM   12  C9  UNL     1       5.393 -26.877 -12.679  1.00  0.00    -0.022 A 
HETATM   13  C13 UNL     1       4.270 -27.396 -12.023  1.00  0.00     0.028 A 
HETATM   14  C14 UNL     1       4.416 -28.422 -11.149  1.00  0.00     0.020 A 
HETATM   15  C15 UNL     1       3.292 -28.945 -10.481  1.00  0.00     0.067 A 
HETATM   16  N4  UNL     1       2.075 -28.463 -10.681  1.00  0.00    -0.277 N 
ENDROOT
BRANCH  16  17
HETATM   17  C16 UNL     1       1.653 -27.425 -11.549  1.00  0.00     0.058 A 
HETATM   18  C17 UNL     1       1.542 -26.118 -11.134  1.00  0.00     0.034 A 
HETATM   19  C18 UNL     1       0.999 -25.183 -11.956  1.00  0.00     0.044 A 
HETATM   20  C19 UNL     1       0.541 -25.490 -13.218  1.00  0.00     0.117 A 
HETATM   21  F1  UNL     1      -0.001 -24.521 -14.021  1.00  0.00    -0.206 F 
HETATM   22  C20 UNL     1       0.656 -26.801 -13.624  1.00  0.00     0.060 A 
HETATM   23  C21 UNL     1       1.198 -27.780 -12.828  1.00  0.00     0.078 A 
BRANCH  23  24
HETATM   24  C22 UNL     1       1.282 -29.178 -13.335  1.00  0.00     0.419 C 
HETATM   25  F2  UNL     1       0.947 -29.111 -14.698  1.00  0.00    -0.166 F 
HETATM   26  F3  UNL     1       2.549 -29.703 -13.317  1.00  0.00    -0.166 F 
HETATM   27  F4  UNL     1       0.365 -30.028 -12.784  1.00  0.00    -0.166 F 
ENDBRANCH  23  24
ENDBRANCH  16  17
BRANCH  12  28
HETATM   28  C10 UNL     1       5.282 -25.774 -13.631  1.00  0.00     0.008 A 
HETATM   29  C11 UNL     1       4.149 -25.242 -14.205  1.00  0.00     0.120 A 
HETATM   30  N2  UNL     1       4.510 -24.242 -15.023  1.00  0.00    -0.311 N 
HETATM   31  N3  UNL     1       5.840 -24.132 -14.976  1.00  0.00    -0.311 N 
ATOM     32  H2  UNL     1       3.879 -23.667 -15.582  1.00  0.00     0.186 HD
HETATM   33  C12 UNL     1       6.333 -25.051 -14.137  1.00  0.00     0.120 A 
ATOM     34  H3  UNL     1       6.395 -23.453 -15.497  1.00  0.00     0.186 HD
ENDBRANCH  12  28
TORSDOF 3
ENDMDL
