MODEL 5
REMARK VINA RESULT: -9.973675046      2.285      5.488
REMARK  3 active torsions:
REMARK  status: ('A' for Active; 'I' for Inactive)
REMARK    1  A    between atoms: C9_12  and  C10_13 
REMARK    2  A    between atoms: N4_23  and  C16_24 
REMARK    3  A    between atoms: C21_30  and  C22_31 
ROOT
HETATM    1  O1  UNL     1       2.319 -26.578 -14.593  1.00  0.00    -0.268 OA
HETATM    2  C1  UNL     1       3.494 -26.672 -14.164  1.00  0.00     0.252 A 
HETATM    3  C2  UNL     1       4.518 -25.963 -14.704  1.00  0.00     0.076 A 
HETATM    4  C3  UNL     1       5.786 -26.090 -14.213  1.00  0.00     0.020 A 
HETATM    5  C4  UNL     1       5.981 -26.949 -13.170  1.00  0.00     0.008 A 
HETATM    6  C5  UNL     1       7.237 -27.118 -12.642  1.00  0.00     0.102 A 
HETATM    7  N1  UNL     1       7.481 -27.944 -11.632  1.00  0.00    -0.364 N 
ATOM      8  H1  UNL     1       8.432 -28.037 -11.274  1.00  0.00     0.165 HD
HETATM    9  C6  UNL     1       6.492 -28.656 -11.080  1.00  0.00     0.044 A 
HETATM   10  C7  UNL     1       6.771 -29.519 -10.028  1.00  0.00     0.031 A 
HETATM   11  C8  UNL     1       5.771 -30.251  -9.468  1.00  0.00     0.014 A 
HETATM   12  C9  UNL     1       4.484 -30.153  -9.922  1.00  0.00    -0.022 A 
HETATM   13  C13 UNL     1       4.195 -29.285 -10.982  1.00  0.00     0.028 A 
HETATM   14  C14 UNL     1       5.190 -28.554 -11.542  1.00  0.00     0.020 A 
HETATM   15  C15 UNL     1       4.909 -27.682 -12.612  1.00  0.00     0.067 A 
HETATM   16  N4  UNL     1       3.684 -27.547 -13.098  1.00  0.00    -0.277 N 
ENDROOT
BRANCH  16  17
HETATM   17  C16 UNL     1       2.480 -28.168 -12.681  1.00  0.00     0.058 A 
HETATM   18  C17 UNL     1       2.042 -29.358 -13.212  1.00  0.00     0.034 A 
HETATM   19  C18 UNL     1       0.817 -29.843 -12.887  1.00  0.00     0.044 A 
HETATM   20  C19 UNL     1      -0.033 -29.181 -12.028  1.00  0.00     0.117 A 
HETATM   21  F1  UNL     1      -1.264 -29.700 -11.721  1.00  0.00    -0.206 F 
HETATM   22  C20 UNL     1       0.414 -27.991 -11.501  1.00  0.00     0.060 A 
HETATM   23  C21 UNL     1       1.646 -27.462 -11.800  1.00  0.00     0.078 A 
BRANCH  23  24
HETATM   24  C22 UNL     1       2.056 -26.164 -11.195  1.00  0.00     0.419 C 
HETATM   25  F2  UNL     1       1.224 -25.983 -10.078  1.00  0.00    -0.166 F 
HETATM   26  F3  UNL     1       3.328 -26.165 -10.682  1.00  0.00    -0.166 F 
HETATM   27  F4  UNL     1       1.824 -25.078 -11.992  1.00  0.00    -0.166 F 
ENDBRANCH  23  24
ENDBRANCH  16  17
BRANCH  12  28
HETATM   28  C10 UNL     1       3.443 -30.958  -9.286  1.00  0.00     0.008 A 
HETATM   29  C11 UNL     1       3.428 -32.313  -9.045  1.00  0.00     0.120 A 
HETATM   30  N2  UNL     1       2.273 -32.631  -8.442  1.00  0.00    -0.311 N 
HETATM   31  N3  UNL     1       1.563 -31.508  -8.298  1.00  0.00    -0.311 N 
ATOM     32  H2  UNL     1       1.988 -33.564  -8.145  1.00  0.00     0.186 HD
HETATM   33  C12 UNL     1       2.251 -30.479  -8.803  1.00  0.00     0.120 A 
ATOM     34  H3  UNL     1       0.638 -31.446  -7.870  1.00  0.00     0.186 HD
ENDBRANCH  12  28
TORSDOF 3
ENDMDL
