MODEL 4
REMARK VINA RESULT: -10.151041843      1.711      5.000
REMARK  3 active torsions:
REMARK  status: ('A' for Active; 'I' for Inactive)
REMARK    1  A    between atoms: C9_12  and  C10_13 
REMARK    2  A    between atoms: N4_23  and  C16_24 
REMARK    3  A    between atoms: C21_30  and  C22_31 
ROOT
HETATM    1  O1  UNL     1       0.061 -25.570 -13.338  1.00  0.00    -0.268 OA
HETATM    2  C1  UNL     1       1.255 -25.494 -13.716  1.00  0.00     0.252 A 
HETATM    3  C2  UNL     1       1.653 -24.621 -14.676  1.00  0.00     0.076 A 
HETATM    4  C3  UNL     1       2.962 -24.566 -15.065  1.00  0.00     0.020 A 
HETATM    5  C4  UNL     1       3.842 -25.415 -14.457  1.00  0.00     0.008 A 
HETATM    6  C5  UNL     1       5.167 -25.405 -14.816  1.00  0.00     0.102 A 
HETATM    7  N1  UNL     1       6.062 -26.213 -14.260  1.00  0.00    -0.364 N 
ATOM      8  H1  UNL     1       7.037 -26.169 -14.559  1.00  0.00     0.165 HD
HETATM    9  C6  UNL     1       5.698 -27.085 -13.312  1.00  0.00     0.044 A 
HETATM   10  C7  UNL     1       6.650 -27.925 -12.749  1.00  0.00     0.031 A 
HETATM   11  C8  UNL     1       6.284 -28.818 -11.791  1.00  0.00     0.014 A 
HETATM   12  C9  UNL     1       4.987 -28.906 -11.365  1.00  0.00    -0.022 A 
HETATM   13  C13 UNL     1       4.022 -28.061 -11.928  1.00  0.00     0.028 A 
HETATM   14  C14 UNL     1       4.383 -27.170 -12.883  1.00  0.00     0.020 A 
HETATM   15  C15 UNL     1       3.418 -26.321 -13.458  1.00  0.00     0.067 A 
HETATM   16  N4  UNL     1       2.146 -26.361 -13.090  1.00  0.00    -0.277 N 
ENDROOT
BRANCH  16  17
HETATM   17  C16 UNL     1       1.522 -27.172 -12.109  1.00  0.00     0.058 A 
HETATM   18  C17 UNL     1       1.469 -26.813 -10.783  1.00  0.00     0.034 A 
HETATM   19  C18 UNL     1       0.989 -27.683  -9.857  1.00  0.00     0.044 A 
HETATM   20  C19 UNL     1       0.541 -28.942 -10.193  1.00  0.00     0.117 A 
HETATM   21  F1  UNL     1       0.063 -29.795  -9.233  1.00  0.00    -0.206 F 
HETATM   22  C20 UNL     1       0.599 -29.292 -11.523  1.00  0.00     0.060 A 
HETATM   23  C21 UNL     1       1.076 -28.446 -12.494  1.00  0.00     0.078 A 
BRANCH  23  24
HETATM   24  C22 UNL     1       1.113 -28.900 -13.912  1.00  0.00     0.419 C 
HETATM   25  F2  UNL     1      -0.228 -29.046 -14.302  1.00  0.00    -0.166 F 
HETATM   26  F3  UNL     1       1.626 -27.971 -14.782  1.00  0.00    -0.166 F 
HETATM   27  F4  UNL     1       1.673 -30.134 -14.089  1.00  0.00    -0.166 F 
ENDBRANCH  23  24
ENDBRANCH  16  17
BRANCH  12  28
HETATM   28  C10 UNL     1       4.643 -29.879 -10.331  1.00  0.00     0.008 A 
HETATM   29  C11 UNL     1       3.603 -29.846  -9.429  1.00  0.00     0.120 A 
HETATM   30  N2  UNL     1       3.665 -30.943  -8.660  1.00  0.00    -0.311 N 
HETATM   31  N3  UNL     1       4.719 -31.663  -9.056  1.00  0.00    -0.311 N 
ATOM     32  H2  UNL     1       3.022 -31.185  -7.906  1.00  0.00     0.186 HD
HETATM   33  C12 UNL     1       5.329 -31.038 -10.069  1.00  0.00     0.120 A 
ATOM     34  H3  UNL     1       5.013 -32.552  -8.649  1.00  0.00     0.186 HD
ENDBRANCH  12  28
TORSDOF 3
ENDMDL
