MODEL 3
REMARK VINA RESULT: -10.171288148      1.083      1.337
REMARK  3 active torsions:
REMARK  status: ('A' for Active; 'I' for Inactive)
REMARK    1  A    between atoms: C9_12  and  C10_13 
REMARK    2  A    between atoms: N4_23  and  C16_24 
REMARK    3  A    between atoms: C21_30  and  C22_31 
ROOT
HETATM    1  O1  UNL     1       0.206 -29.036  -9.264  1.00  0.00    -0.268 OA
HETATM    2  C1  UNL     1       1.408 -29.373  -9.393  1.00  0.00     0.252 A 
HETATM    3  C2  UNL     1       1.976 -30.328  -8.616  1.00  0.00     0.076 A 
HETATM    4  C3  UNL     1       3.289 -30.669  -8.782  1.00  0.00     0.020 A 
HETATM    5  C4  UNL     1       3.997 -30.016  -9.750  1.00  0.00     0.008 A 
HETATM    6  C5  UNL     1       5.322 -30.316  -9.954  1.00  0.00     0.102 A 
HETATM    7  N1  UNL     1       6.056 -29.707 -10.877  1.00  0.00    -0.364 N 
ATOM      8  H1  UNL     1       7.037 -29.964 -10.993  1.00  0.00     0.165 HD
HETATM    9  C6  UNL     1       5.522 -28.760 -11.658  1.00  0.00     0.044 A 
HETATM   10  C7  UNL     1       6.311 -28.132 -12.613  1.00  0.00     0.031 A 
HETATM   11  C8  UNL     1       5.776 -27.164 -13.404  1.00  0.00     0.014 A 
HETATM   12  C9  UNL     1       4.464 -26.793 -13.278  1.00  0.00    -0.022 A 
HETATM   13  C13 UNL     1       3.663 -27.423 -12.318  1.00  0.00     0.028 A 
HETATM   14  C14 UNL     1       4.194 -28.388 -11.528  1.00  0.00     0.020 A 
HETATM   15  C15 UNL     1       3.396 -29.022 -10.555  1.00  0.00     0.067 A 
HETATM   16  N4  UNL     1       2.122 -28.704 -10.384  1.00  0.00    -0.277 N 
ENDROOT
BRANCH  16  17
HETATM   17  C16 UNL     1       1.331 -27.761 -11.086  1.00  0.00     0.058 A 
HETATM   18  C17 UNL     1       1.167 -26.467 -10.650  1.00  0.00     0.034 A 
HETATM   19  C18 UNL     1       0.288 -25.641 -11.273  1.00  0.00     0.044 A 
HETATM   20  C19 UNL     1      -0.468 -26.049 -12.350  1.00  0.00     0.117 A 
HETATM   21  F1  UNL     1      -1.346 -25.188 -12.956  1.00  0.00    -0.206 F 
HETATM   22  C20 UNL     1      -0.297 -27.345 -12.779  1.00  0.00     0.060 A 
HETATM   23  C21 UNL     1       0.579 -28.216 -12.181  1.00  0.00     0.078 A 
BRANCH  23  24
HETATM   24  C22 UNL     1       0.703 -29.607 -12.698  1.00  0.00     0.419 C 
HETATM   25  F2  UNL     1      -0.161 -29.682 -13.803  1.00  0.00    -0.166 F 
HETATM   26  F3  UNL     1       1.942 -29.905 -13.207  1.00  0.00    -0.166 F 
HETATM   27  F4  UNL     1       0.259 -30.568 -11.832  1.00  0.00    -0.166 F 
ENDBRANCH  23  24
ENDBRANCH  16  17
BRANCH  12  28
HETATM   28  C10 UNL     1       3.934 -25.750 -14.153  1.00  0.00     0.008 A 
HETATM   29  C11 UNL     1       4.594 -25.007 -15.106  1.00  0.00     0.120 A 
HETATM   30  N2  UNL     1       3.721 -24.160 -15.672  1.00  0.00    -0.311 N 
HETATM   31  N3  UNL     1       2.530 -24.353 -15.098  1.00  0.00    -0.311 N 
ATOM     32  H2  UNL     1       3.930 -23.487 -16.409  1.00  0.00     0.186 HD
HETATM   33  C12 UNL     1       2.633 -25.313 -14.173  1.00  0.00     0.120 A 
ATOM     34  H3  UNL     1       1.675 -23.847 -15.330  1.00  0.00     0.186 HD
ENDBRANCH  12  28
TORSDOF 3
ENDMDL
