MODEL 3
REMARK VINA RESULT: -5.894399475      1.074      2.945
REMARK  9 active torsions:
REMARK  status: ('A' for Active; 'I' for Inactive)
REMARK    1  A    between atoms: C4_4  and  C5_5 
REMARK    2  A    between atoms: C5_5  and  C6_6 
REMARK    3  A    between atoms: C6_6  and  C7_7 
REMARK    4  A    between atoms: C7_7  and  C9_9 
REMARK    5  A    between atoms: C9_9  and  C10_10 
REMARK    6  A    between atoms: C10_10  and  C11_11 
REMARK    7  A    between atoms: C11_11  and  C12_12 
REMARK    8  A    between atoms: C14_14  and  C15_15 
REMARK    9  A    between atoms: C15_15  and  O1_16 
ROOT
HETATM    1  C9  UNL     1      76.318 395.942 117.570  1.00  0.00    -0.001 C 
ENDROOT
BRANCH   1   2
HETATM    2  C7  UNL     1      77.291 396.327 118.318  1.00  0.00    -0.084 C 
HETATM    3  C8  UNL     1      77.178 397.361 119.348  1.00  0.00     0.043 C 
BRANCH   2   4
HETATM    4  C6  UNL     1      78.683 395.720 118.136  1.00  0.00     0.037 C 
BRANCH   4   5
HETATM    5  C5  UNL     1      78.824 394.537 119.062  1.00  0.00     0.031 C 
BRANCH   5   6
HETATM    6  C4  UNL     1      79.268 393.386 118.194  1.00  0.00    -0.024 C 
HETATM    7  C2  UNL     1      79.105 392.136 118.564  1.00  0.00    -0.091 C 
HETATM    8  C1  UNL     1      78.470 391.833 119.863  1.00  0.00     0.042 C 
HETATM    9  C3  UNL     1      79.548 391.033 117.694  1.00  0.00     0.042 C 
ENDBRANCH   5   6
ENDBRANCH   4   5
ENDBRANCH   2   4
ENDBRANCH   1   2
BRANCH   1  10
HETATM   10  C10 UNL     1      75.872 394.665 117.113  1.00  0.00    -0.022 C 
BRANCH  10  11
HETATM   11  C11 UNL     1      75.397 393.536 117.901  1.00  0.00     0.060 C 
BRANCH  11  12
HETATM   12  C12 UNL     1      75.762 392.194 117.435  1.00  0.00    -0.082 C 
HETATM   13  C13 UNL     1      76.448 392.043 116.086  1.00  0.00     0.043 C 
HETATM   14  C14 UNL     1      75.560 391.048 118.066  1.00  0.00     0.001 C 
BRANCH  14  15
HETATM   15  C15 UNL     1      75.976 389.743 117.493  1.00  0.00     0.191 C 
BRANCH  15  16
HETATM   16  O1  UNL     1      76.675 389.066 118.505  1.00  0.00    -0.397 OA
ATOM     17  H1  UNL     1      77.368 388.578 118.076  1.00  0.00     0.209 HD
ENDBRANCH  15  16
ENDBRANCH  14  15
ENDBRANCH  11  12
ENDBRANCH  10  11
ENDBRANCH   1  10
TORSDOF 9
ENDMDL
