MODEL 2
REMARK VINA RESULT: -5.925881978      2.305      5.492
REMARK  9 active torsions:
REMARK  status: ('A' for Active; 'I' for Inactive)
REMARK    1  A    between atoms: C4_4  and  C5_5 
REMARK    2  A    between atoms: C5_5  and  C6_6 
REMARK    3  A    between atoms: C6_6  and  C7_7 
REMARK    4  A    between atoms: C7_7  and  C9_9 
REMARK    5  A    between atoms: C9_9  and  C10_10 
REMARK    6  A    between atoms: C10_10  and  C11_11 
REMARK    7  A    between atoms: C11_11  and  C12_12 
REMARK    8  A    between atoms: C14_14  and  C15_15 
REMARK    9  A    between atoms: C15_15  and  O1_16 
ROOT
HETATM    1  C9  UNL     1      75.535 391.135 118.165  1.00  0.00    -0.001 C 
ENDROOT
BRANCH   1   2
HETATM    2  C7  UNL     1      76.094 390.394 117.275  1.00  0.00    -0.084 C 
HETATM    3  C8  UNL     1      76.332 388.958 117.432  1.00  0.00     0.043 C 
BRANCH   2   4
HETATM    4  C6  UNL     1      76.590 391.011 115.967  1.00  0.00     0.037 C 
BRANCH   4   5
HETATM    5  C5  UNL     1      78.098 390.968 115.946  1.00  0.00     0.031 C 
BRANCH   5   6
HETATM    6  C4  UNL     1      78.555 392.294 116.498  1.00  0.00    -0.024 C 
HETATM    7  C2  UNL     1      79.118 392.396 117.681  1.00  0.00    -0.091 C 
HETATM    8  C1  UNL     1      79.317 391.187 118.505  1.00  0.00     0.042 C 
HETATM    9  C3  UNL     1      79.555 393.706 118.193  1.00  0.00     0.042 C 
ENDBRANCH   5   6
ENDBRANCH   4   5
ENDBRANCH   2   4
ENDBRANCH   1   2
BRANCH   1  10
HETATM   10  C10 UNL     1      75.404 392.548 118.331  1.00  0.00    -0.022 C 
BRANCH  10  11
HETATM   11  C11 UNL     1      76.011 393.401 119.343  1.00  0.00     0.060 C 
BRANCH  11  12
HETATM   12  C12 UNL     1      76.343 394.775 118.949  1.00  0.00    -0.082 C 
HETATM   13  C13 UNL     1      76.131 395.199 117.505  1.00  0.00     0.043 C 
HETATM   14  C14 UNL     1      76.826 395.732 119.725  1.00  0.00     0.001 C 
BRANCH  14  15
HETATM   15  C15 UNL     1      77.126 397.093 119.212  1.00  0.00     0.191 C 
BRANCH  15  16
HETATM   16  O1  UNL     1      78.525 397.206 119.172  1.00  0.00    -0.397 OA
ATOM     17  H1  UNL     1      78.717 398.019 118.720  1.00  0.00     0.209 HD
ENDBRANCH  15  16
ENDBRANCH  14  15
ENDBRANCH  11  12
ENDBRANCH  10  11
ENDBRANCH   1  10
TORSDOF 9
ENDMDL
