MODEL 1
REMARK VINA RESULT: -5.948681767      0.000      0.000
REMARK  9 active torsions:
REMARK  status: ('A' for Active; 'I' for Inactive)
REMARK    1  A    between atoms: C4_4  and  C5_5 
REMARK    2  A    between atoms: C5_5  and  C6_6 
REMARK    3  A    between atoms: C6_6  and  C7_7 
REMARK    4  A    between atoms: C7_7  and  C9_9 
REMARK    5  A    between atoms: C9_9  and  C10_10 
REMARK    6  A    between atoms: C10_10  and  C11_11 
REMARK    7  A    between atoms: C11_11  and  C12_12 
REMARK    8  A    between atoms: C14_14  and  C15_15 
REMARK    9  A    between atoms: C15_15  and  O1_16 
ROOT
HETATM    1  C9  UNL     1      78.587 395.995 117.707  1.00  0.00    -0.001 C 
ENDROOT
BRANCH   1   2
HETATM    2  C7  UNL     1      77.562 396.394 118.373  1.00  0.00    -0.084 C 
HETATM    3  C8  UNL     1      77.635 397.250 119.559  1.00  0.00     0.043 C 
BRANCH   2   4
HETATM    4  C6  UNL     1      76.160 395.947 117.961  1.00  0.00     0.037 C 
BRANCH   4   5
HETATM    5  C5  UNL     1      75.753 394.768 118.810  1.00  0.00     0.031 C 
BRANCH   5   6
HETATM    6  C4  UNL     1      75.553 393.621 117.852  1.00  0.00    -0.024 C 
HETATM    7  C2  UNL     1      75.667 392.369 118.236  1.00  0.00    -0.091 C 
HETATM    8  C1  UNL     1      75.998 392.061 119.641  1.00  0.00     0.042 C 
HETATM    9  C3  UNL     1      75.465 391.270 117.277  1.00  0.00     0.042 C 
ENDBRANCH   5   6
ENDBRANCH   4   5
ENDBRANCH   2   4
ENDBRANCH   1   2
BRANCH   1  10
HETATM   10  C10 UNL     1      79.157 394.711 117.451  1.00  0.00    -0.022 C 
BRANCH  10  11
HETATM   11  C11 UNL     1      79.355 393.606 118.380  1.00  0.00     0.060 C 
BRANCH  11  12
HETATM   12  C12 UNL     1      79.137 392.251 117.864  1.00  0.00    -0.082 C 
HETATM   13  C13 UNL     1      78.811 392.066 116.391  1.00  0.00     0.043 C 
HETATM   14  C14 UNL     1      79.189 391.119 118.549  1.00  0.00     0.001 C 
BRANCH  14  15
HETATM   15  C15 UNL     1      78.949 389.798 117.916  1.00  0.00     0.191 C 
BRANCH  15  16
HETATM   16  O1  UNL     1      77.959 389.161 118.682  1.00  0.00    -0.397 OA
ATOM     17  H1  UNL     1      77.123 389.454 118.341  1.00  0.00     0.209 HD
ENDBRANCH  15  16
ENDBRANCH  14  15
ENDBRANCH  11  12
ENDBRANCH  10  11
ENDBRANCH   1  10
TORSDOF 9
ENDMDL
