MODEL 4
REMARK VINA RESULT: -8.766320667      3.088      5.364
REMARK  2 active torsions:
REMARK  status: ('A' for Active; 'I' for Inactive)
REMARK    1  A    between atoms: O1_2  and  C2_3 
REMARK    2  A    between atoms: C10_11  and  C11_12 
ROOT
HETATM    1  C2  UNL     1     -17.027 -34.777 -11.614  1.00  0.00     0.124 C 
HETATM    2  C3  UNL     1     -17.000 -36.198 -12.069  1.00  0.00     0.033 C 
HETATM    3  C4  UNL     1     -16.533 -37.175 -11.039  1.00  0.00     0.015 C 
HETATM    4  C5  UNL     1     -17.151 -37.048  -9.702  1.00  0.00    -0.004 C 
HETATM    5  C6  UNL     1     -16.074 -37.355  -8.667  1.00  0.00     0.051 C 
HETATM    6  C7  UNL     1     -15.947 -38.838  -8.895  1.00  0.00    -0.048 A 
HETATM    7  C8  UNL     1     -14.868 -39.684  -8.730  1.00  0.00     0.009 A 
HETATM    8  C9  UNL     1     -14.979 -41.040  -9.007  1.00  0.00     0.013 A 
HETATM    9  C10 UNL     1     -16.178 -41.557  -9.451  1.00  0.00    -0.023 A 
HETATM   10  C15 UNL     1     -17.257 -40.700  -9.614  1.00  0.00     0.022 A 
HETATM   11  C16 UNL     1     -17.154 -39.334  -9.338  1.00  0.00    -0.020 A 
HETATM   12  C17 UNL     1     -18.086 -38.193  -9.404  1.00  0.00     0.091 C 
HETATM   13  C18 UNL     1     -18.730 -38.063  -8.043  1.00  0.00     0.215 C 
HETATM   14  O2  UNL     1     -19.980 -38.721  -8.309  1.00  0.00    -0.322 OA
HETATM   15  C19 UNL     1     -20.213 -38.649  -9.676  1.00  0.00     0.228 C 
HETATM   16  N3  UNL     1     -21.525 -38.893 -10.231  1.00  0.00    -0.056 NA
HETATM   17  N4  UNL     1     -19.143 -38.347 -10.330  1.00  0.00    -0.342 N 
ATOM     18  H4  UNL     1     -19.073 -38.238 -11.342  1.00  0.00     0.164 HD
HETATM   19  C20 UNL     1     -17.720 -35.708  -9.374  1.00  0.00     0.019 C 
HETATM   20  C21 UNL     1     -17.107 -34.577 -10.145  1.00  0.00     0.011 C 
HETATM   21  C22 UNL     1     -17.898 -33.317  -9.858  1.00  0.00     0.012 C 
ENDROOT
BRANCH   1  22
HETATM   22  O1  UNL     1     -15.883 -34.106 -12.070  1.00  0.00    -0.390 OA
HETATM   23  C1  UNL     1     -14.752 -34.492 -11.358  1.00  0.00     0.202 C 
ENDBRANCH   1  22
BRANCH   9  24
HETATM   24  C11 UNL     1     -16.343 -42.981  -9.755  1.00  0.00     0.005 A 
HETATM   25  C12 UNL     1     -16.499 -43.405 -11.066  1.00  0.00     0.102 A 
HETATM   26  N1  UNL     1     -16.650 -44.710 -11.352  1.00  0.00    -0.361 N 
HETATM   27  C13 UNL     1     -16.653 -45.635 -10.373  1.00  0.00     0.180 A 
ATOM     28  H1  UNL     1     -16.764 -45.004 -12.322  1.00  0.00     0.166 HD
HETATM   29  N2  UNL     1     -16.504 -45.245  -9.097  1.00  0.00    -0.361 N 
HETATM   30  C14 UNL     1     -16.349 -43.942  -8.766  1.00  0.00     0.102 A 
ATOM     31  H2  UNL     1     -16.506 -45.948  -8.359  1.00  0.00     0.166 HD
ENDBRANCH   9  24
TORSDOF 2
ENDMDL
