MODEL 2
REMARK VINA RESULT: -9.009855489      3.814      8.205
REMARK  2 active torsions:
REMARK  status: ('A' for Active; 'I' for Inactive)
REMARK    1  A    between atoms: O1_2  and  C2_3 
REMARK    2  A    between atoms: C10_11  and  C11_12 
ROOT
HETATM    1  C2  UNL     1     -25.270 -43.180 -10.043  1.00  0.00     0.124 C 
HETATM    2  C3  UNL     1     -24.044 -42.758 -10.785  1.00  0.00     0.033 C 
HETATM    3  C4  UNL     1     -23.418 -41.496 -10.289  1.00  0.00     0.015 C 
HETATM    4  C5  UNL     1     -23.223 -41.402  -8.827  1.00  0.00    -0.004 C 
HETATM    5  C6  UNL     1     -23.479 -39.955  -8.421  1.00  0.00     0.051 C 
HETATM    6  C7  UNL     1     -22.247 -39.325  -9.016  1.00  0.00    -0.048 A 
HETATM    7  C8  UNL     1     -22.036 -38.050  -9.505  1.00  0.00     0.009 A 
HETATM    8  C9  UNL     1     -20.799 -37.682 -10.016  1.00  0.00     0.013 A 
HETATM    9  C10 UNL     1     -19.764 -38.592 -10.040  1.00  0.00    -0.023 A 
HETATM   10  C15 UNL     1     -19.984 -39.870  -9.548  1.00  0.00     0.022 A 
HETATM   11  C16 UNL     1     -21.226 -40.250  -9.031  1.00  0.00    -0.020 A 
HETATM   12  C17 UNL     1     -21.766 -41.491  -8.447  1.00  0.00     0.091 C 
HETATM   13  C18 UNL     1     -21.561 -41.409  -6.952  1.00  0.00     0.215 C 
HETATM   14  O2  UNL     1     -20.377 -42.214  -6.830  1.00  0.00    -0.322 OA
HETATM   15  C19 UNL     1     -20.330 -43.064  -7.927  1.00  0.00     0.228 C 
HETATM   16  N3  UNL     1     -19.477 -44.231  -7.940  1.00  0.00    -0.056 NA
HETATM   17  N4  UNL     1     -21.117 -42.674  -8.871  1.00  0.00    -0.342 N 
ATOM     18  H4  UNL     1     -21.250 -43.140  -9.769  1.00  0.00     0.164 HD
HETATM   19  C20 UNL     1     -24.113 -42.265  -7.996  1.00  0.00     0.019 C 
HETATM   20  C21 UNL     1     -25.402 -42.641  -8.667  1.00  0.00     0.011 C 
HETATM   21  C22 UNL     1     -26.114 -43.659  -7.800  1.00  0.00     0.012 C 
ENDROOT
BRANCH   1  22
HETATM   22  O1  UNL     1     -26.415 -42.799 -10.757  1.00  0.00    -0.390 OA
HETATM   23  C1  UNL     1     -26.320 -43.158 -12.098  1.00  0.00     0.202 C 
ENDBRANCH   1  22
BRANCH   9  24
HETATM   24  C11 UNL     1     -18.442 -38.248 -10.571  1.00  0.00     0.005 A 
HETATM   25  C12 UNL     1     -18.199 -36.982 -11.082  1.00  0.00     0.102 A 
HETATM   26  N1  UNL     1     -16.988 -36.660 -11.570  1.00  0.00    -0.361 N 
HETATM   27  C13 UNL     1     -15.984 -37.557 -11.573  1.00  0.00     0.180 A 
ATOM     28  H1  UNL     1     -16.828 -35.724 -11.942  1.00  0.00     0.166 HD
HETATM   29  N2  UNL     1     -16.199 -38.788 -11.082  1.00  0.00    -0.361 N 
HETATM   30  C14 UNL     1     -17.401 -39.154 -10.582  1.00  0.00     0.102 A 
ATOM     31  H2  UNL     1     -15.436 -39.465 -11.087  1.00  0.00     0.166 HD
ENDBRANCH   9  24
TORSDOF 2
ENDMDL
