MODEL 1
REMARK VINA RESULT: -10.797278254      0.000      0.000
REMARK  2 active torsions:
REMARK  status: ('A' for Active; 'I' for Inactive)
REMARK    1  A    between atoms: O1_2  and  C2_3 
REMARK    2  A    between atoms: C10_11  and  C11_12 
ROOT
HETATM    1  C2  UNL     1     -16.778 -34.161 -10.172  1.00  0.00     0.124 C 
HETATM    2  C3  UNL     1     -17.490 -34.649  -8.954  1.00  0.00     0.033 C 
HETATM    3  C4  UNL     1     -18.530 -35.690  -9.214  1.00  0.00     0.015 C 
HETATM    4  C5  UNL     1     -18.118 -36.811 -10.084  1.00  0.00    -0.004 C 
HETATM    5  C6  UNL     1     -19.319 -37.192 -10.943  1.00  0.00     0.051 C 
HETATM    6  C7  UNL     1     -20.176 -37.824  -9.878  1.00  0.00    -0.048 A 
HETATM    7  C8  UNL     1     -21.550 -37.919  -9.769  1.00  0.00     0.009 A 
HETATM    8  C9  UNL     1     -22.133 -38.556  -8.681  1.00  0.00     0.013 A 
HETATM    9  C10 UNL     1     -21.339 -39.103  -7.695  1.00  0.00    -0.023 A 
HETATM   10  C15 UNL     1     -19.961 -39.002  -7.813  1.00  0.00     0.022 A 
HETATM   11  C16 UNL     1     -19.365 -38.363  -8.904  1.00  0.00    -0.020 A 
HETATM   12  C17 UNL     1     -17.973 -38.098  -9.312  1.00  0.00     0.091 C 
HETATM   13  C18 UNL     1     -17.540 -39.247 -10.194  1.00  0.00     0.215 C 
HETATM   14  O2  UNL     1     -16.801 -40.019  -9.233  1.00  0.00    -0.322 OA
HETATM   15  C19 UNL     1     -16.390 -39.156  -8.226  1.00  0.00     0.228 C 
HETATM   16  N3  UNL     1     -15.344 -39.525  -7.299  1.00  0.00    -0.056 NA
HETATM   17  N4  UNL     1     -17.045 -38.046  -8.247  1.00  0.00    -0.342 N 
ATOM     18  H4  UNL     1     -16.915 -37.263  -7.605  1.00  0.00     0.164 HD
HETATM   19  C20 UNL     1     -16.978 -36.533 -11.006  1.00  0.00     0.019 C 
HETATM   20  C21 UNL     1     -16.797 -35.081 -11.337  1.00  0.00     0.011 C 
HETATM   21  C22 UNL     1     -15.508 -34.924 -12.115  1.00  0.00     0.012 C 
ENDROOT
BRANCH   1  22
HETATM   22  O1  UNL     1     -17.328 -32.940 -10.590  1.00  0.00    -0.390 OA
HETATM   23  C1  UNL     1     -17.525 -32.078  -9.516  1.00  0.00     0.202 C 
ENDBRANCH   1  22
BRANCH   9  24
HETATM   24  C11 UNL     1     -21.911 -39.784  -6.530  1.00  0.00     0.005 A 
HETATM   25  C12 UNL     1     -21.599 -41.109  -6.270  1.00  0.00     0.102 A 
HETATM   26  N1  UNL     1     -22.120 -41.740  -5.203  1.00  0.00    -0.361 N 
HETATM   27  C13 UNL     1     -22.955 -41.100  -4.363  1.00  0.00     0.180 A 
ATOM     28  H1  UNL     1     -21.879 -42.716  -5.027  1.00  0.00     0.166 HD
HETATM   29  N2  UNL     1     -23.270 -39.817  -4.598  1.00  0.00    -0.361 N 
HETATM   30  C14 UNL     1     -22.769 -39.144  -5.659  1.00  0.00     0.102 A 
ATOM     31  H2  UNL     1     -23.903 -39.336  -3.959  1.00  0.00     0.166 HD
ENDBRANCH   9  24
TORSDOF 2
ENDMDL
