MODEL 3
REMARK VINA RESULT: -8.971204615      2.908      7.280
REMARK  2 active torsions:
REMARK  status: ('A' for Active; 'I' for Inactive)
REMARK    1  A    between atoms: O1_2  and  C2_3 
REMARK    2  A    between atoms: C10_11  and  C11_12 
ROOT
HETATM    1  C2  UNL     1     -14.681 -42.298  -8.550  1.00  0.00     0.124 C 
HETATM    2  C3  UNL     1     -14.672 -40.847  -8.197  1.00  0.00     0.033 C 
HETATM    3  C4  UNL     1     -15.160 -39.938  -9.277  1.00  0.00     0.015 C 
HETATM    4  C5  UNL     1     -16.430 -40.328  -9.924  1.00  0.00    -0.004 C 
HETATM    5  C6  UNL     1     -16.321 -39.972 -11.403  1.00  0.00     0.051 C 
HETATM    6  C7  UNL     1     -16.391 -38.472 -11.287  1.00  0.00    -0.048 A 
HETATM    7  C8  UNL     1     -15.852 -37.483 -12.086  1.00  0.00     0.009 A 
HETATM    8  C9  UNL     1     -16.045 -36.141 -11.784  1.00  0.00     0.013 A 
HETATM    9  C10 UNL     1     -16.784 -35.784 -10.675  1.00  0.00    -0.023 A 
HETATM   10  C15 UNL     1     -17.322 -36.784  -9.878  1.00  0.00     0.022 A 
HETATM   11  C16 UNL     1     -17.132 -38.137 -10.175  1.00  0.00    -0.020 A 
HETATM   12  C17 UNL     1     -17.560 -39.401  -9.550  1.00  0.00     0.091 C 
HETATM   13  C18 UNL     1     -18.865 -39.802 -10.199  1.00  0.00     0.215 C 
HETATM   14  O2  UNL     1     -19.781 -39.337  -9.195  1.00  0.00    -0.322 OA
HETATM   15  C19 UNL     1     -19.095 -39.281  -7.990  1.00  0.00     0.228 C 
HETATM   16  N3  UNL     1     -19.794 -39.196  -6.727  1.00  0.00    -0.056 NA
HETATM   17  N4  UNL     1     -17.817 -39.317  -8.162  1.00  0.00    -0.342 N 
ATOM     18  H4  UNL     1     -17.113 -39.289  -7.424  1.00  0.00     0.164 HD
HETATM   19  C20 UNL     1     -16.787 -41.775  -9.836  1.00  0.00     0.019 C 
HETATM   20  C21 UNL     1     -15.611 -42.685  -9.641  1.00  0.00     0.011 C 
HETATM   21  C22 UNL     1     -16.126 -44.085  -9.380  1.00  0.00     0.012 C 
ENDROOT
BRANCH   1  22
HETATM   22  O1  UNL     1     -13.394 -42.706  -8.928  1.00  0.00    -0.390 OA
HETATM   23  C1  UNL     1     -12.736 -43.344  -7.882  1.00  0.00     0.202 C 
ENDBRANCH   1  22
BRANCH   9  24
HETATM   24  C11 UNL     1     -17.014 -34.382 -10.317  1.00  0.00     0.005 A 
HETATM   25  C12 UNL     1     -18.225 -33.988  -9.770  1.00  0.00     0.102 A 
HETATM   26  N1  UNL     1     -18.443 -32.703  -9.439  1.00  0.00    -0.361 N 
HETATM   27  C13 UNL     1     -17.492 -31.770  -9.632  1.00  0.00     0.180 A 
ATOM     28  H1  UNL     1     -19.341 -32.431  -9.038  1.00  0.00     0.166 HD
HETATM   29  N2  UNL     1     -16.312 -32.131 -10.161  1.00  0.00    -0.361 N 
HETATM   30  C14 UNL     1     -16.051 -33.412 -10.508  1.00  0.00     0.102 A 
ATOM     31  H2  UNL     1     -15.594 -31.421 -10.305  1.00  0.00     0.166 HD
ENDBRANCH   9  24
TORSDOF 2
ENDMDL
