MODEL 5
REMARK VINA RESULT: -9.582578551      3.937      5.130
REMARK  2 active torsions:
REMARK  status: ('A' for Active; 'I' for Inactive)
REMARK    1  A    between atoms: O1_2  and  C2_3 
REMARK    2  A    between atoms: C12_13  and  C13_14 
ROOT
HETATM    1  C2  UNL     1     -16.475 -33.614  -9.731  1.00  0.00     0.120 C 
HETATM    2  C3  UNL     1     -17.071 -34.841  -9.115  1.00  0.00     0.033 C 
HETATM    3  C4  UNL     1     -16.365 -36.117  -9.536  1.00  0.00     0.015 C 
HETATM    4  C5  UNL     1     -16.376 -36.272 -11.025  1.00  0.00    -0.004 C 
HETATM    5  C6  UNL     1     -16.173 -34.958 -11.735  1.00  0.00     0.015 C 
HETATM    6  C7  UNL     1     -15.449 -34.039 -10.763  1.00  0.00     0.033 C 
HETATM    7  C8  UNL     1     -17.727 -36.895 -11.407  1.00  0.00     0.051 C 
HETATM    8  C9  UNL     1     -17.469 -38.325 -11.012  1.00  0.00    -0.048 A 
HETATM    9  C10 UNL     1     -18.350 -39.323 -10.646  1.00  0.00     0.009 A 
HETATM   10  C11 UNL     1     -17.875 -40.580 -10.317  1.00  0.00     0.013 A 
HETATM   11  C12 UNL     1     -16.525 -40.873 -10.343  1.00  0.00    -0.024 A 
HETATM   12  C19 UNL     1     -15.665 -39.864 -10.711  1.00  0.00     0.022 A 
HETATM   13  C20 UNL     1     -16.117 -38.582 -11.050  1.00  0.00    -0.020 A 
HETATM   14  C21 UNL     1     -15.442 -37.344 -11.473  1.00  0.00     0.090 C 
HETATM   15  C22 UNL     1     -15.326 -37.367 -12.981  1.00  0.00     0.215 C 
HETATM   16  O2  UNL     1     -14.061 -36.759 -13.152  1.00  0.00    -0.322 OA
HETATM   17  C23 UNL     1     -13.340 -36.880 -11.961  1.00  0.00     0.228 C 
HETATM   18  N2  UNL     1     -11.935 -36.644 -11.930  1.00  0.00    -0.056 NA
HETATM   19  N3  UNL     1     -14.109 -37.215 -10.978  1.00  0.00    -0.342 N 
ATOM     20  H3  UNL     1     -13.815 -37.363 -10.013  1.00  0.00     0.164 HD
ENDROOT
BRANCH  11  21
HETATM   21  C13 UNL     1     -16.068 -42.213  -9.988  1.00  0.00    -0.010 A 
HETATM   22  C14 UNL     1     -15.448 -42.483  -8.787  1.00  0.00     0.100 A 
HETATM   23  N1  UNL     1     -15.026 -43.732  -8.465  1.00  0.00    -0.374 N 
HETATM   24  C15 UNL     1     -15.196 -44.771  -9.311  1.00  0.00     0.094 A 
ATOM     25  H1  UNL     1     -14.572 -43.890  -7.565  1.00  0.00     0.164 HD
HETATM   26  C16 UNL     1     -15.805 -44.547 -10.511  1.00  0.00    -0.046 A 
HETATM   27  C17 UNL     1     -16.014 -45.657 -11.473  1.00  0.00     0.049 C 
HETATM   28  C18 UNL     1     -16.245 -43.270 -10.858  1.00  0.00     0.021 A 
ENDBRANCH  11  21
BRANCH   1  29
HETATM   29  O1  UNL     1     -17.495 -32.962 -10.435  1.00  0.00    -0.391 OA
HETATM   30  C1  UNL     1     -18.693 -33.140  -9.759  1.00  0.00     0.202 C 
ENDBRANCH   1  29
TORSDOF 2
ENDMDL
