MODEL 8
REMARK VINA RESULT: -9.344188370      3.084      7.592
REMARK  2 active torsions:
REMARK  status: ('A' for Active; 'I' for Inactive)
REMARK    1  A    between atoms: O1_2  and  C2_3 
REMARK    2  A    between atoms: C12_13  and  C13_14 
ROOT
HETATM    1  C2  UNL     1     -17.877 -44.226  -7.421  1.00  0.00     0.120 C 
HETATM    2  C3  UNL     1     -16.806 -43.281  -7.870  1.00  0.00     0.033 C 
HETATM    3  C4  UNL     1     -17.327 -41.881  -8.138  1.00  0.00     0.015 C 
HETATM    4  C5  UNL     1     -18.416 -41.899  -9.166  1.00  0.00    -0.004 C 
HETATM    5  C6  UNL     1     -19.327 -43.090  -9.009  1.00  0.00     0.015 C 
HETATM    6  C7  UNL     1     -19.220 -43.537  -7.559  1.00  0.00     0.033 C 
HETATM    7  C8  UNL     1     -17.739 -41.910 -10.545  1.00  0.00     0.051 C 
HETATM    8  C9  UNL     1     -17.333 -40.463 -10.640  1.00  0.00    -0.048 A 
HETATM    9  C10 UNL     1     -16.316 -39.866 -11.357  1.00  0.00     0.009 A 
HETATM   10  C11 UNL     1     -16.129 -38.497 -11.288  1.00  0.00     0.013 A 
HETATM   11  C12 UNL     1     -16.942 -37.695 -10.510  1.00  0.00    -0.024 A 
HETATM   12  C19 UNL     1     -17.950 -38.310  -9.804  1.00  0.00     0.022 A 
HETATM   13  C20 UNL     1     -18.162 -39.694  -9.856  1.00  0.00    -0.020 A 
HETATM   14  C21 UNL     1     -19.140 -40.597  -9.225  1.00  0.00     0.090 C 
HETATM   15  C22 UNL     1     -20.346 -40.687 -10.132  1.00  0.00     0.215 C 
HETATM   16  O2  UNL     1     -21.384 -40.755  -9.174  1.00  0.00    -0.322 OA
HETATM   17  C23 UNL     1     -20.915 -40.233  -7.966  1.00  0.00     0.228 C 
HETATM   18  N2  UNL     1     -21.819 -39.886  -6.921  1.00  0.00    -0.056 NA
HETATM   19  N3  UNL     1     -19.627 -40.132  -7.967  1.00  0.00    -0.342 N 
ATOM     20  H3  UNL     1     -19.055 -39.779  -7.199  1.00  0.00     0.164 HD
ENDROOT
BRANCH  11  21
HETATM   21  C13 UNL     1     -16.709 -36.255 -10.465  1.00  0.00    -0.010 A 
HETATM   22  C14 UNL     1     -15.510 -35.692 -10.850  1.00  0.00     0.100 A 
HETATM   23  N1  UNL     1     -15.303 -34.352 -10.805  1.00  0.00    -0.374 N 
HETATM   24  C15 UNL     1     -16.266 -33.506 -10.381  1.00  0.00     0.094 A 
ATOM     25  H1  UNL     1     -14.401 -33.975 -11.098  1.00  0.00     0.164 HD
HETATM   26  C16 UNL     1     -17.467 -34.021  -9.992  1.00  0.00    -0.046 A 
HETATM   27  C17 UNL     1     -18.555 -33.130  -9.518  1.00  0.00     0.049 C 
HETATM   28  C18 UNL     1     -17.698 -35.396 -10.031  1.00  0.00     0.021 A 
ENDBRANCH  11  21
BRANCH   1  29
HETATM   29  O1  UNL     1     -17.891 -45.300  -8.319  1.00  0.00    -0.391 OA
HETATM   30  C1  UNL     1     -16.687 -45.982  -8.224  1.00  0.00     0.202 C 
ENDBRANCH   1  29
TORSDOF 2
ENDMDL
