MODEL 1
REMARK VINA RESULT: -10.418895549      0.000      0.000
REMARK  2 active torsions:
REMARK  status: ('A' for Active; 'I' for Inactive)
REMARK    1  A    between atoms: O1_2  and  C2_3 
REMARK    2  A    between atoms: C12_13  and  C13_14 
ROOT
HETATM    1  C2  UNL     1     -15.911 -34.908 -10.520  1.00  0.00     0.120 C 
HETATM    2  C3  UNL     1     -17.308 -35.027  -9.996  1.00  0.00     0.033 C 
HETATM    3  C4  UNL     1     -17.583 -36.369  -9.343  1.00  0.00     0.015 C 
HETATM    4  C5  UNL     1     -17.330 -37.494 -10.297  1.00  0.00    -0.004 C 
HETATM    5  C6  UNL     1     -16.122 -37.243 -11.164  1.00  0.00     0.015 C 
HETATM    6  C7  UNL     1     -15.236 -36.262 -10.413  1.00  0.00     0.033 C 
HETATM    7  C8  UNL     1     -18.593 -37.655 -11.156  1.00  0.00     0.051 C 
HETATM    8  C9  UNL     1     -19.483 -38.363 -10.169  1.00  0.00    -0.048 A 
HETATM    9  C10 UNL     1     -20.860 -38.409 -10.081  1.00  0.00     0.009 A 
HETATM   10  C11 UNL     1     -21.467 -39.135  -9.072  1.00  0.00     0.013 A 
HETATM   11  C12 UNL     1     -20.726 -39.828  -8.133  1.00  0.00    -0.024 A 
HETATM   12  C19 UNL     1     -19.355 -39.768  -8.240  1.00  0.00     0.022 A 
HETATM   13  C20 UNL     1     -18.714 -39.042  -9.251  1.00  0.00    -0.020 A 
HETATM   14  C21 UNL     1     -17.301 -38.812  -9.600  1.00  0.00     0.090 C 
HETATM   15  C22 UNL     1     -16.867 -39.914 -10.540  1.00  0.00     0.215 C 
HETATM   16  O2  UNL     1     -15.537 -40.115 -10.103  1.00  0.00    -0.322 OA
HETATM   17  C23 UNL     1     -15.413 -39.627  -8.800  1.00  0.00     0.228 C 
HETATM   18  N2  UNL     1     -14.289 -39.970  -7.995  1.00  0.00    -0.056 NA
HETATM   19  N3  UNL     1     -16.414 -38.873  -8.484  1.00  0.00    -0.342 N 
ATOM     20  H3  UNL     1     -16.548 -38.403  -7.588  1.00  0.00     0.164 HD
ENDROOT
BRANCH  11  21
HETATM   21  C13 UNL     1     -21.406 -40.581  -7.085  1.00  0.00    -0.010 A 
HETATM   22  C14 UNL     1     -22.520 -41.352  -7.340  1.00  0.00     0.100 A 
HETATM   23  N1  UNL     1     -23.147 -42.049  -6.359  1.00  0.00    -0.374 N 
HETATM   24  C15 UNL     1     -22.705 -42.019  -5.083  1.00  0.00     0.094 A 
ATOM     25  H1  UNL     1     -23.969 -42.608  -6.589  1.00  0.00     0.164 HD
HETATM   26  C16 UNL     1     -21.604 -41.269  -4.788  1.00  0.00    -0.046 A 
HETATM   27  C17 UNL     1     -21.081 -41.205  -3.401  1.00  0.00     0.049 C 
HETATM   28  C18 UNL     1     -20.948 -40.546  -5.783  1.00  0.00     0.021 A 
ENDBRANCH  11  21
BRANCH   1  29
HETATM   29  O1  UNL     1     -16.000 -34.620 -11.887  1.00  0.00    -0.391 OA
HETATM   30  C1  UNL     1     -14.887 -33.885 -12.266  1.00  0.00     0.202 C 
ENDBRANCH   1  29
TORSDOF 2
ENDMDL
