MODEL 4
REMARK VINA RESULT: -9.751028297      4.734      6.407
REMARK  2 active torsions:
REMARK  status: ('A' for Active; 'I' for Inactive)
REMARK    1  A    between atoms: O1_2  and  C2_3 
REMARK    2  A    between atoms: C12_13  and  C13_14 
ROOT
HETATM    1  C2  UNL     1     -16.985 -34.567  -9.655  1.00  0.00     0.120 C 
HETATM    2  C3  UNL     1     -17.161 -35.952  -9.115  1.00  0.00     0.033 C 
HETATM    3  C4  UNL     1     -16.058 -36.900  -9.547  1.00  0.00     0.015 C 
HETATM    4  C5  UNL     1     -15.965 -36.974 -11.040  1.00  0.00    -0.004 C 
HETATM    5  C6  UNL     1     -16.185 -35.631 -11.690  1.00  0.00     0.015 C 
HETATM    6  C7  UNL     1     -15.841 -34.576 -10.650  1.00  0.00     0.033 C 
HETATM    7  C8  UNL     1     -17.018 -37.987 -11.511  1.00  0.00     0.051 C 
HETATM    8  C9  UNL     1     -16.314 -39.270 -11.156  1.00  0.00    -0.048 A 
HETATM    9  C10 UNL     1     -16.825 -40.520 -10.872  1.00  0.00     0.009 A 
HETATM   10  C11 UNL     1     -15.972 -41.565 -10.566  1.00  0.00     0.013 A 
HETATM   11  C12 UNL     1     -14.601 -41.395 -10.537  1.00  0.00    -0.024 A 
HETATM   12  C19 UNL     1     -14.113 -40.140 -10.824  1.00  0.00     0.022 A 
HETATM   13  C20 UNL     1     -14.953 -39.064 -11.137  1.00  0.00    -0.020 A 
HETATM   14  C21 UNL     1     -14.713 -37.652 -11.481  1.00  0.00     0.090 C 
HETATM   15  C22 UNL     1     -14.545 -37.559 -12.981  1.00  0.00     0.215 C 
HETATM   16  O2  UNL     1     -13.547 -36.559 -13.066  1.00  0.00    -0.322 OA
HETATM   17  C23 UNL     1     -12.869 -36.497 -11.847  1.00  0.00     0.228 C 
HETATM   18  N2  UNL     1     -11.624 -35.812 -11.738  1.00  0.00    -0.056 NA
HETATM   19  N3  UNL     1     -13.517 -37.117 -10.916  1.00  0.00    -0.342 N 
ATOM     20  H3  UNL     1     -13.223 -37.208  -9.943  1.00  0.00     0.164 HD
ENDROOT
BRANCH  11  21
HETATM   21  C13 UNL     1     -13.737 -42.525 -10.209  1.00  0.00    -0.010 A 
HETATM   22  C14 UNL     1     -14.237 -43.789  -9.983  1.00  0.00     0.100 A 
HETATM   23  N1  UNL     1     -13.426 -44.835  -9.679  1.00  0.00    -0.374 N 
HETATM   24  C15 UNL     1     -12.088 -44.681  -9.585  1.00  0.00     0.094 A 
ATOM     25  H1  UNL     1     -13.836 -45.755  -9.518  1.00  0.00     0.164 HD
HETATM   26  C16 UNL     1     -11.552 -43.446  -9.803  1.00  0.00    -0.046 A 
HETATM   27  C17 UNL     1     -10.087 -43.229  -9.711  1.00  0.00     0.049 C 
HETATM   28  C18 UNL     1     -12.370 -42.360 -10.116  1.00  0.00     0.021 A 
ENDBRANCH  11  21
BRANCH   1  29
HETATM   29  O1  UNL     1     -18.139 -34.253 -10.384  1.00  0.00    -0.391 OA
HETATM   30  C1  UNL     1     -18.749 -33.149  -9.808  1.00  0.00     0.202 C 
ENDBRANCH   1  29
TORSDOF 2
ENDMDL
