MODEL 3
REMARK VINA RESULT: -9.881327480      0.719      1.299
REMARK  2 active torsions:
REMARK  status: ('A' for Active; 'I' for Inactive)
REMARK    1  A    between atoms: O1_2  and  C2_3 
REMARK    2  A    between atoms: C12_13  and  C13_14 
ROOT
HETATM    1  C2  UNL     1     -15.947 -34.870 -10.461  1.00  0.00     0.120 C 
HETATM    2  C3  UNL     1     -17.333 -35.028  -9.918  1.00  0.00     0.033 C 
HETATM    3  C4  UNL     1     -17.577 -36.397  -9.309  1.00  0.00     0.015 C 
HETATM    4  C5  UNL     1     -17.324 -37.484 -10.308  1.00  0.00    -0.004 C 
HETATM    5  C6  UNL     1     -16.135 -37.183 -11.186  1.00  0.00     0.015 C 
HETATM    6  C7  UNL     1     -15.251 -36.216 -10.415  1.00  0.00     0.033 C 
HETATM    7  C8  UNL     1     -18.600 -37.632 -11.150  1.00  0.00     0.051 C 
HETATM    8  C9  UNL     1     -19.462 -38.389 -10.174  1.00  0.00    -0.048 A 
HETATM    9  C10 UNL     1     -20.836 -38.459 -10.065  1.00  0.00     0.009 A 
HETATM   10  C11 UNL     1     -21.414 -39.230  -9.073  1.00  0.00     0.013 A 
HETATM   11  C12 UNL     1     -20.646 -39.945  -8.172  1.00  0.00    -0.024 A 
HETATM   12  C19 UNL     1     -19.278 -39.861  -8.300  1.00  0.00     0.022 A 
HETATM   13  C20 UNL     1     -18.666 -39.088  -9.295  1.00  0.00    -0.020 A 
HETATM   14  C21 UNL     1     -17.264 -38.824  -9.660  1.00  0.00     0.090 C 
HETATM   15  C22 UNL     1     -16.830 -39.885 -10.646  1.00  0.00     0.215 C 
HETATM   16  O2  UNL     1     -15.489 -40.082 -10.240  1.00  0.00    -0.322 OA
HETATM   17  C23 UNL     1     -15.350 -39.639  -8.922  1.00  0.00     0.228 C 
HETATM   18  N2  UNL     1     -14.207 -39.994  -8.149  1.00  0.00    -0.056 NA
HETATM   19  N3  UNL     1     -16.356 -38.913  -8.562  1.00  0.00    -0.342 N 
ATOM     20  H3  UNL     1     -16.481 -38.477  -7.648  1.00  0.00     0.164 HD
ENDROOT
BRANCH  11  21
HETATM   21  C13 UNL     1     -21.297 -40.745  -7.140  1.00  0.00    -0.010 A 
HETATM   22  C14 UNL     1     -21.062 -40.543  -5.797  1.00  0.00     0.100 A 
HETATM   23  N1  UNL     1     -21.673 -41.292  -4.844  1.00  0.00    -0.374 N 
HETATM   24  C15 UNL     1     -22.542 -42.273  -5.171  1.00  0.00     0.094 A 
ATOM     25  H1  UNL     1     -21.471 -41.111  -3.860  1.00  0.00     0.164 HD
HETATM   26  C16 UNL     1     -22.803 -42.506  -6.489  1.00  0.00    -0.046 A 
HETATM   27  C17 UNL     1     -23.750 -43.572  -6.897  1.00  0.00     0.049 C 
HETATM   28  C18 UNL     1     -22.185 -41.746  -7.482  1.00  0.00     0.021 A 
ENDBRANCH  11  21
BRANCH   1  29
HETATM   29  O1  UNL     1     -16.065 -34.534 -11.816  1.00  0.00    -0.391 OA
HETATM   30  C1  UNL     1     -14.979 -33.753 -12.182  1.00  0.00     0.202 C 
ENDBRANCH   1  29
TORSDOF 2
ENDMDL
