MODEL 2
REMARK VINA RESULT: -10.015260795      1.008      1.100
REMARK  2 active torsions:
REMARK  status: ('A' for Active; 'I' for Inactive)
REMARK    1  A    between atoms: O1_2  and  C2_3 
REMARK    2  A    between atoms: C12_13  and  C13_14 
ROOT
HETATM    1  C2  UNL     1     -15.637 -34.698 -10.618  1.00  0.00     0.120 C 
HETATM    2  C3  UNL     1     -16.953 -34.947  -9.949  1.00  0.00     0.033 C 
HETATM    3  C4  UNL     1     -17.110 -36.377  -9.465  1.00  0.00     0.015 C 
HETATM    4  C5  UNL     1     -16.953 -37.348 -10.594  1.00  0.00    -0.004 C 
HETATM    5  C6  UNL     1     -15.872 -36.929 -11.558  1.00  0.00     0.015 C 
HETATM    6  C7  UNL     1     -14.922 -36.024 -10.788  1.00  0.00     0.033 C 
HETATM    7  C8  UNL     1     -18.311 -37.441 -11.306  1.00  0.00     0.051 C 
HETATM    8  C9  UNL     1     -19.051 -38.316 -10.329  1.00  0.00    -0.048 A 
HETATM    9  C10 UNL     1     -20.404 -38.431 -10.081  1.00  0.00     0.009 A 
HETATM   10  C11 UNL     1     -20.860 -39.314  -9.119  1.00  0.00     0.013 A 
HETATM   11  C12 UNL     1     -19.989 -40.098  -8.386  1.00  0.00    -0.024 A 
HETATM   12  C19 UNL     1     -18.644 -39.967  -8.650  1.00  0.00     0.022 A 
HETATM   13  C20 UNL     1     -18.155 -39.081  -9.618  1.00  0.00    -0.020 A 
HETATM   14  C21 UNL     1     -16.804 -38.746 -10.101  1.00  0.00     0.090 C 
HETATM   15  C22 UNL     1     -16.466 -39.689 -11.234  1.00  0.00     0.215 C 
HETATM   16  O2  UNL     1     -15.087 -39.892 -10.996  1.00  0.00    -0.322 OA
HETATM   17  C23 UNL     1     -14.811 -39.585  -9.662  1.00  0.00     0.228 C 
HETATM   18  N2  UNL     1     -13.585 -39.988  -9.058  1.00  0.00    -0.056 NA
HETATM   19  N3  UNL     1     -15.781 -38.925  -9.122  1.00  0.00    -0.342 N 
ATOM     20  H3  UNL     1     -15.812 -38.589  -8.159  1.00  0.00     0.164 HD
ENDROOT
BRANCH  11  21
HETATM   21  C13 UNL     1     -20.513 -41.017  -7.380  1.00  0.00    -0.010 A 
HETATM   22  C14 UNL     1     -20.121 -42.337  -7.317  1.00  0.00     0.100 A 
HETATM   23  N1  UNL     1     -20.613 -43.185  -6.378  1.00  0.00    -0.374 N 
HETATM   24  C15 UNL     1     -21.512 -42.770  -5.459  1.00  0.00     0.094 A 
ATOM     25  H1  UNL     1     -20.298 -44.155  -6.365  1.00  0.00     0.164 HD
HETATM   26  C16 UNL     1     -21.926 -41.470  -5.486  1.00  0.00    -0.046 A 
HETATM   27  C17 UNL     1     -22.912 -40.969  -4.498  1.00  0.00     0.049 C 
HETATM   28  C18 UNL     1     -21.431 -40.586  -6.444  1.00  0.00     0.021 A 
ENDBRANCH  11  21
BRANCH   1  29
HETATM   29  O1  UNL     1     -15.906 -34.228 -11.909  1.00  0.00    -0.391 OA
HETATM   30  C1  UNL     1     -14.855 -33.424 -12.324  1.00  0.00     0.202 C 
ENDBRANCH   1  29
TORSDOF 2
ENDMDL
