MODEL 3
REMARK VINA RESULT: -10.274055057      2.517      9.908
REMARK  15 active torsions:
REMARK  status: ('A' for Active; 'I' for Inactive)
REMARK       I    between atoms: C2_2  and  N1_4 
REMARK    1  A    between atoms: N1_4  and  C3_6 
REMARK    2  A    between atoms: C4_7  and  O2_8 
REMARK    3  A    between atoms: O2_8  and  P1_9 
REMARK    4  A    between atoms: P1_9  and  O5_12 
REMARK    5  A    between atoms: O5_12  and  P2_13 
REMARK    6  A    between atoms: P2_13  and  O8_16 
REMARK    7  A    between atoms: O8_16  and  C5_17 
REMARK    8  A    between atoms: C5_17  and  C6_18 
REMARK    9  A    between atoms: C7_20  and  N2_21 
REMARK   10  A    between atoms: C12_30  and  O12_31 
REMARK   11  A    between atoms: C13_33  and  O13_34 
REMARK   12  A    between atoms: C14_37  and  C15_38 
REMARK   13  A    between atoms: C15_38  and  O15_39 
REMARK   14  A    between atoms: C16_41  and  O16_42 
REMARK   15  A    between atoms: C17_44  and  O17_45 
ROOT
HETATM    1  O5  UNL     1      22.567  45.242  19.987  1.00  0.00    -0.180 OA
ENDROOT
BRANCH   1   2
HETATM    2  P1  UNL     1      22.708  44.273  21.365  1.00  0.00     0.420 P 
HETATM    3  O3  UNL     1      21.407  44.408  22.133  1.00  0.00    -0.624 OA
HETATM    4  O4  UNL     1      23.955  44.787  22.371  1.00  0.00    -0.624 OA
BRANCH   2   5
HETATM    5  O2  UNL     1      22.936  42.685  20.847  1.00  0.00    -0.256 OA
BRANCH   5   6
HETATM    6  C4  UNL     1      23.815  41.982  21.637  1.00  0.00     0.298 C 
HETATM    7  C3  UNL     1      24.795  41.265  20.729  1.00  0.00     0.171 C 
HETATM    8  C17 UNL     1      25.934  40.791  21.641  1.00  0.00     0.177 C 
HETATM    9  C16 UNL     1      25.308  39.950  22.709  1.00  0.00     0.180 C 
HETATM   10  C14 UNL     1      24.144  40.587  23.394  1.00  0.00     0.179 C 
HETATM   11  O14 UNL     1      23.220  41.161  22.559  1.00  0.00    -0.348 OA
BRANCH   7  12
HETATM   12  N1  UNL     1      24.226  40.104  20.110  1.00  0.00    -0.349 N 
HETATM   13  C2  UNL     1      24.465  39.841  18.733  1.00  0.00     0.214 C 
HETATM   14  C1  UNL     1      23.911  38.662  18.025  1.00  0.00     0.117 C 
HETATM   15  O1  UNL     1      25.187  40.665  18.104  1.00  0.00    -0.274 OA
ATOM     16  H1  UNL     1      23.649  39.466  20.657  1.00  0.00     0.163 HD
ENDBRANCH   7  12
BRANCH   8  17
HETATM   17  O17 UNL     1      26.555  41.930  22.119  1.00  0.00    -0.391 OA
ATOM     18  H17 UNL     1      26.054  42.214  22.875  1.00  0.00     0.210 HD
ENDBRANCH   8  17
BRANCH   9  19
HETATM   19  O16 UNL     1      26.262  39.648  23.695  1.00  0.00    -0.390 OA
ATOM     20  H16 UNL     1      27.003  39.244  23.259  1.00  0.00     0.210 HD
ENDBRANCH   9  19
BRANCH  10  21
HETATM   21  C15 UNL     1      24.635  41.536  24.468  1.00  0.00     0.198 C 
BRANCH  21  22
HETATM   22  O15 UNL     1      24.331  41.041  25.749  1.00  0.00    -0.398 OA
ATOM     23  H15 UNL     1      25.020  40.466  26.062  1.00  0.00     0.209 HD
ENDBRANCH  21  22
ENDBRANCH  10  21
ENDBRANCH   5   6
ENDBRANCH   2   5
ENDBRANCH   1   2
BRANCH   1  24
HETATM   24  P2  UNL     1      23.859  45.013  18.927  1.00  0.00     0.417 P 
HETATM   25  O6  UNL     1      25.131  44.709  19.692  1.00  0.00    -0.624 OA
HETATM   26  O7  UNL     1      23.532  43.825  17.772  1.00  0.00    -0.624 OA
BRANCH  24  27
HETATM   27  O8  UNL     1      24.119  46.467  18.104  1.00  0.00    -0.287 OA
BRANCH  27  28
HETATM   28  C5  UNL     1      23.139  46.583  17.132  1.00  0.00     0.216 C 
BRANCH  28  29
HETATM   29  C6  UNL     1      23.736  46.909  15.772  1.00  0.00     0.180 C 
HETATM   30  O9  UNL     1      23.960  45.743  15.063  1.00  0.00    -0.353 OA
HETATM   31  C7  UNL     1      23.633  45.995  13.738  1.00  0.00     0.263 C 
HETATM   32  C12 UNL     1      22.368  46.829  13.860  1.00  0.00     0.198 C 
HETATM   33  C13 UNL     1      22.755  47.741  15.021  1.00  0.00     0.182 C 
BRANCH  31  34
HETATM   34  N2  UNL     1      23.371  44.728  13.084  1.00  0.00    -0.280 N 
HETATM   35  C8  UNL     1      22.254  44.039  13.316  1.00  0.00     0.104 A 
HETATM   36  C9  UNL     1      22.050  42.850  12.677  1.00  0.00     0.092 A 
HETATM   37  C10 UNL     1      22.981  42.348  11.794  1.00  0.00     0.250 A 
HETATM   38  O10 UNL     1      22.773  41.254  11.219  1.00  0.00    -0.268 OA
HETATM   39  N3  UNL     1      24.095  43.083  11.593  1.00  0.00    -0.275 N 
HETATM   40  C11 UNL     1      24.274  44.243  12.229  1.00  0.00     0.331 A 
ATOM     41  H3  UNL     1      24.810  42.747  10.947  1.00  0.00     0.173 HD
HETATM   42  O11 UNL     1      25.341  44.884  11.997  1.00  0.00    -0.246 OA
ENDBRANCH  31  34
BRANCH  32  43
HETATM   43  O12 UNL     1      22.125  47.582  12.719  1.00  0.00    -0.388 OA
ATOM     44  H12 UNL     1      22.015  48.505  12.916  1.00  0.00     0.210 HD
ENDBRANCH  32  43
BRANCH  33  45
HETATM   45  O13 UNL     1      23.429  48.829  14.476  1.00  0.00    -0.390 OA
ATOM     46  H13 UNL     1      22.874  49.224  13.814  1.00  0.00     0.210 HD
ENDBRANCH  33  45
ENDBRANCH  28  29
ENDBRANCH  27  28
ENDBRANCH  24  27
ENDBRANCH   1  24
TORSDOF 15
ENDMDL
