MODEL 5
REMARK VINA RESULT: -10.174745845      2.473      9.920
REMARK  15 active torsions:
REMARK  status: ('A' for Active; 'I' for Inactive)
REMARK       I    between atoms: C2_2  and  N1_4 
REMARK    1  A    between atoms: N1_4  and  C3_6 
REMARK    2  A    between atoms: C4_7  and  O2_8 
REMARK    3  A    between atoms: O2_8  and  P1_9 
REMARK    4  A    between atoms: P1_9  and  O5_12 
REMARK    5  A    between atoms: O5_12  and  P2_13 
REMARK    6  A    between atoms: P2_13  and  O8_16 
REMARK    7  A    between atoms: O8_16  and  C5_17 
REMARK    8  A    between atoms: C5_17  and  C6_18 
REMARK    9  A    between atoms: C7_20  and  N2_21 
REMARK   10  A    between atoms: C12_30  and  O12_31 
REMARK   11  A    between atoms: C13_33  and  O13_34 
REMARK   12  A    between atoms: C14_37  and  C15_38 
REMARK   13  A    between atoms: C15_38  and  O15_39 
REMARK   14  A    between atoms: C16_41  and  O16_42 
REMARK   15  A    between atoms: C17_44  and  O17_45 
ROOT
HETATM    1  O5  UNL     1      23.089  45.407  19.780  1.00  0.00    -0.180 OA
ENDROOT
BRANCH   1   2
HETATM    2  P1  UNL     1      22.753  44.362  21.066  1.00  0.00     0.420 P 
HETATM    3  O3  UNL     1      21.266  44.471  21.345  1.00  0.00    -0.624 OA
HETATM    4  O4  UNL     1      23.573  44.804  22.467  1.00  0.00    -0.624 OA
BRANCH   2   5
HETATM    5  O2  UNL     1      23.157  42.801  20.571  1.00  0.00    -0.256 OA
BRANCH   5   6
HETATM    6  C4  UNL     1      23.963  42.143  21.470  1.00  0.00     0.298 C 
HETATM    7  C3  UNL     1      24.969  41.322  20.688  1.00  0.00     0.171 C 
HETATM    8  C17 UNL     1      26.035  40.894  21.705  1.00  0.00     0.177 C 
HETATM    9  C16 UNL     1      25.317  40.166  22.799  1.00  0.00     0.180 C 
HETATM   10  C14 UNL     1      24.138  40.894  23.354  1.00  0.00     0.179 C 
HETATM   11  O14 UNL     1      23.285  41.422  22.418  1.00  0.00    -0.348 OA
BRANCH   7  12
HETATM   12  N1  UNL     1      24.398  40.130  20.133  1.00  0.00    -0.349 N 
HETATM   13  C2  UNL     1      24.548  39.844  18.748  1.00  0.00     0.214 C 
HETATM   14  C1  UNL     1      23.986  38.632  18.105  1.00  0.00     0.117 C 
HETATM   15  O1  UNL     1      25.195  40.677  18.054  1.00  0.00    -0.274 OA
ATOM     16  H1  UNL     1      23.883  39.486  20.733  1.00  0.00     0.163 HD
ENDBRANCH   7  12
BRANCH   8  17
HETATM   17  O17 UNL     1      26.665  42.052  22.123  1.00  0.00    -0.391 OA
ATOM     18  H17 UNL     1      27.236  42.321  21.413  1.00  0.00     0.210 HD
ENDBRANCH   8  17
BRANCH   9  19
HETATM   19  O16 UNL     1      26.201  39.922  23.863  1.00  0.00    -0.390 OA
ATOM     20  H16 UNL     1      27.084  39.987  23.520  1.00  0.00     0.210 HD
ENDBRANCH   9  19
BRANCH  10  21
HETATM   21  C15 UNL     1      24.597  41.916  24.374  1.00  0.00     0.198 C 
BRANCH  21  22
HETATM   22  O15 UNL     1      23.533  42.750  24.760  1.00  0.00    -0.398 OA
ATOM     23  H15 UNL     1      23.731  43.196  25.575  1.00  0.00     0.209 HD
ENDBRANCH  21  22
ENDBRANCH  10  21
ENDBRANCH   5   6
ENDBRANCH   2   5
ENDBRANCH   1   2
BRANCH   1  24
HETATM   24  P2  UNL     1      24.746  45.524  19.487  1.00  0.00     0.417 P 
HETATM   25  O6  UNL     1      25.162  46.973  19.340  1.00  0.00    -0.624 OA
HETATM   26  O7  UNL     1      25.658  44.734  20.669  1.00  0.00    -0.624 OA
BRANCH  24  27
HETATM   27  O8  UNL     1      25.066  44.769  18.007  1.00  0.00    -0.287 OA
BRANCH  27  28
HETATM   28  C5  UNL     1      23.878  44.713  17.296  1.00  0.00     0.216 C 
BRANCH  28  29
HETATM   29  C6  UNL     1      23.808  45.803  16.239  1.00  0.00     0.180 C 
HETATM   30  O9  UNL     1      23.759  45.237  14.979  1.00  0.00    -0.353 OA
HETATM   31  C7  UNL     1      22.877  45.991  14.219  1.00  0.00     0.263 C 
HETATM   32  C12 UNL     1      21.750  46.272  15.199  1.00  0.00     0.198 C 
HETATM   33  C13 UNL     1      22.557  46.581  16.458  1.00  0.00     0.182 C 
BRANCH  31  34
HETATM   34  N2  UNL     1      22.421  45.178  13.108  1.00  0.00    -0.280 N 
HETATM   35  C8  UNL     1      21.572  44.166  13.284  1.00  0.00     0.104 A 
HETATM   36  C9  UNL     1      21.170  43.428  12.208  1.00  0.00     0.092 A 
HETATM   37  C10 UNL     1      21.629  43.711  10.940  1.00  0.00     0.250 A 
HETATM   38  O10 UNL     1      21.246  43.019   9.967  1.00  0.00    -0.268 OA
HETATM   39  N3  UNL     1      22.486  44.745  10.814  1.00  0.00    -0.275 N 
HETATM   40  C11 UNL     1      22.866  45.453  11.880  1.00  0.00     0.331 A 
ATOM     41  H3  UNL     1      22.850  44.989   9.892  1.00  0.00     0.173 HD
HETATM   42  O11 UNL     1      23.674  46.411  11.695  1.00  0.00    -0.246 OA
ENDBRANCH  31  34
BRANCH  32  43
HETATM   43  O12 UNL     1      20.997  47.379  14.828  1.00  0.00    -0.388 OA
ATOM     44  H12 UNL     1      20.125  47.361  15.205  1.00  0.00     0.210 HD
ENDBRANCH  32  43
BRANCH  33  45
HETATM   45  O13 UNL     1      22.871  47.936  16.417  1.00  0.00    -0.390 OA
ATOM     46  H13 UNL     1      22.089  48.432  16.632  1.00  0.00     0.210 HD
ENDBRANCH  33  45
ENDBRANCH  28  29
ENDBRANCH  27  28
ENDBRANCH  24  27
ENDBRANCH   1  24
TORSDOF 15
ENDMDL
