MODEL 2
REMARK VINA RESULT: -10.377627271      1.291      3.282
REMARK  15 active torsions:
REMARK  status: ('A' for Active; 'I' for Inactive)
REMARK       I    between atoms: C2_2  and  N1_4 
REMARK    1  A    between atoms: N1_4  and  C3_6 
REMARK    2  A    between atoms: C4_7  and  O2_8 
REMARK    3  A    between atoms: O2_8  and  P1_9 
REMARK    4  A    between atoms: P1_9  and  O5_12 
REMARK    5  A    between atoms: O5_12  and  P2_13 
REMARK    6  A    between atoms: P2_13  and  O8_16 
REMARK    7  A    between atoms: O8_16  and  C5_17 
REMARK    8  A    between atoms: C5_17  and  C6_18 
REMARK    9  A    between atoms: C7_20  and  N2_21 
REMARK   10  A    between atoms: C12_30  and  O12_31 
REMARK   11  A    between atoms: C13_33  and  O13_34 
REMARK   12  A    between atoms: C14_37  and  C15_38 
REMARK   13  A    between atoms: C15_38  and  O15_39 
REMARK   14  A    between atoms: C16_41  and  O16_42 
REMARK   15  A    between atoms: C17_44  and  O17_45 
ROOT
HETATM    1  O5  UNL     1      23.275  44.600  17.816  1.00  0.00    -0.180 OA
ENDROOT
BRANCH   1   2
HETATM    2  P1  UNL     1      23.705  44.459  16.187  1.00  0.00     0.420 P 
HETATM    3  O3  UNL     1      22.577  43.715  15.497  1.00  0.00    -0.624 OA
HETATM    4  O4  UNL     1      25.114  43.562  15.983  1.00  0.00    -0.624 OA
BRANCH   2   5
HETATM    5  O2  UNL     1      23.862  46.020  15.567  1.00  0.00    -0.256 OA
BRANCH   5   6
HETATM    6  C4  UNL     1      22.654  46.655  15.397  1.00  0.00     0.298 C 
HETATM    7  C3  UNL     1      22.104  46.267  14.039  1.00  0.00     0.171 C 
HETATM    8  C17 UNL     1      20.635  46.711  14.044  1.00  0.00     0.177 C 
HETATM    9  C16 UNL     1      20.631  48.177  14.349  1.00  0.00     0.180 C 
HETATM   10  C14 UNL     1      21.435  48.561  15.547  1.00  0.00     0.179 C 
HETATM   11  O14 UNL     1      22.689  48.009  15.609  1.00  0.00    -0.348 OA
BRANCH   7  12
HETATM   12  N1  UNL     1      22.759  46.950  12.963  1.00  0.00    -0.349 N 
HETATM   13  C2  UNL     1      23.588  46.230  12.059  1.00  0.00     0.214 C 
HETATM   14  C1  UNL     1      24.296  46.868  10.924  1.00  0.00     0.117 C 
HETATM   15  O1  UNL     1      23.712  44.988  12.255  1.00  0.00    -0.274 OA
ATOM     16  H1  UNL     1      22.629  47.954  12.844  1.00  0.00     0.163 HD
ENDBRANCH   7  12
BRANCH   8  17
HETATM   17  O17 UNL     1      19.995  45.940  14.997  1.00  0.00    -0.391 OA
ATOM     18  H17 UNL     1      19.350  46.503  15.410  1.00  0.00     0.210 HD
ENDBRANCH   8  17
BRANCH   9  19
HETATM   19  O16 UNL     1      19.314  48.610  14.569  1.00  0.00    -0.390 OA
ATOM     20  H16 UNL     1      18.987  48.149  15.333  1.00  0.00     0.210 HD
ENDBRANCH   9  19
BRANCH  10  21
HETATM   21  C15 UNL     1      20.626  48.326  16.806  1.00  0.00     0.198 C 
BRANCH  21  22
HETATM   22  O15 UNL     1      20.255  49.546  17.397  1.00  0.00    -0.398 OA
ATOM     23  H15 UNL     1      20.319  49.497  18.344  1.00  0.00     0.209 HD
ENDBRANCH  21  22
ENDBRANCH  10  21
ENDBRANCH   5   6
ENDBRANCH   2   5
ENDBRANCH   1   2
BRANCH   1  24
HETATM   24  P2  UNL     1      24.428  45.463  18.694  1.00  0.00     0.417 P 
HETATM   25  O6  UNL     1      25.812  44.886  18.473  1.00  0.00    -0.624 OA
HETATM   26  O7  UNL     1      24.384  47.116  18.348  1.00  0.00    -0.624 OA
BRANCH  24  27
HETATM   27  O8  UNL     1      24.076  45.277  20.337  1.00  0.00    -0.287 OA
BRANCH  27  28
HETATM   28  C5  UNL     1      23.054  44.348  20.448  1.00  0.00     0.216 C 
BRANCH  28  29
HETATM   29  C6  UNL     1      22.689  44.090  21.901  1.00  0.00     0.180 C 
HETATM   30  O9  UNL     1      23.241  42.893  22.321  1.00  0.00    -0.353 OA
HETATM   31  C7  UNL     1      23.678  43.074  23.625  1.00  0.00     0.263 C 
HETATM   32  C12 UNL     1      24.293  44.463  23.580  1.00  0.00     0.198 C 
HETATM   33  C13 UNL     1      23.259  45.191  22.726  1.00  0.00     0.182 C 
BRANCH  31  34
HETATM   34  N2  UNL     1      24.675  42.062  23.916  1.00  0.00    -0.280 N 
HETATM   35  C8  UNL     1      25.833  42.012  23.258  1.00  0.00     0.104 A 
HETATM   36  C9  UNL     1      26.743  41.041  23.567  1.00  0.00     0.092 A 
HETATM   37  C10 UNL     1      26.483  40.110  24.549  1.00  0.00     0.250 A 
HETATM   38  O10 UNL     1      27.333  39.228  24.815  1.00  0.00    -0.268 OA
HETATM   39  N3  UNL     1      25.298  40.204  25.185  1.00  0.00    -0.275 N 
HETATM   40  C11 UNL     1      24.423  41.161  24.867  1.00  0.00     0.331 A 
ATOM     41  H3  UNL     1      25.066  39.534  25.920  1.00  0.00     0.173 HD
HETATM   42  O11 UNL     1      23.328  41.194  25.502  1.00  0.00    -0.246 OA
ENDBRANCH  31  34
BRANCH  32  43
HETATM   43  O12 UNL     1      24.370  45.043  24.839  1.00  0.00    -0.388 OA
ATOM     44  H12 UNL     1      23.657  45.651  24.998  1.00  0.00     0.210 HD
ENDBRANCH  32  43
BRANCH  33  45
HETATM   45  O13 UNL     1      22.268  45.649  23.589  1.00  0.00    -0.390 OA
ATOM     46  H13 UNL     1      21.641  44.948  23.725  1.00  0.00     0.210 HD
ENDBRANCH  33  45
ENDBRANCH  28  29
ENDBRANCH  27  28
ENDBRANCH  24  27
ENDBRANCH   1  24
TORSDOF 15
ENDMDL
