MODEL 11
REMARK VINA RESULT: -9.735979201      5.855      9.541
REMARK  15 active torsions:
REMARK  status: ('A' for Active; 'I' for Inactive)
REMARK       I    between atoms: C2_2  and  N1_4 
REMARK    1  A    between atoms: N1_4  and  C3_6 
REMARK    2  A    between atoms: C4_7  and  O2_8 
REMARK    3  A    between atoms: O2_8  and  P1_9 
REMARK    4  A    between atoms: P1_9  and  O5_12 
REMARK    5  A    between atoms: O5_12  and  P2_13 
REMARK    6  A    between atoms: P2_13  and  O8_16 
REMARK    7  A    between atoms: O8_16  and  C5_17 
REMARK    8  A    between atoms: C5_17  and  C6_18 
REMARK    9  A    between atoms: C7_20  and  N2_21 
REMARK   10  A    between atoms: C12_30  and  O12_31 
REMARK   11  A    between atoms: C13_33  and  O13_34 
REMARK   12  A    between atoms: C14_37  and  C15_38 
REMARK   13  A    between atoms: C15_38  and  O15_39 
REMARK   14  A    between atoms: C16_41  and  O16_42 
REMARK   15  A    between atoms: C17_44  and  O17_45 
ROOT
HETATM    1  O5  UNL     1      25.914  40.359  19.815  1.00  0.00    -0.180 OA
ENDROOT
BRANCH   1   2
HETATM    2  P1  UNL     1      25.874  41.289  21.227  1.00  0.00     0.420 P 
HETATM    3  O3  UNL     1      27.213  41.104  21.914  1.00  0.00    -0.624 OA
HETATM    4  O4  UNL     1      24.675  40.771  22.287  1.00  0.00    -0.624 OA
BRANCH   2   5
HETATM    5  O2  UNL     1      25.652  42.897  20.768  1.00  0.00    -0.256 OA
BRANCH   5   6
HETATM    6  C4  UNL     1      24.609  43.505  21.427  1.00  0.00     0.298 C 
HETATM    7  C3  UNL     1      23.905  44.423  20.449  1.00  0.00     0.171 C 
HETATM    8  C17 UNL     1      22.577  44.802  21.117  1.00  0.00     0.177 C 
HETATM    9  C16 UNL     1      22.920  45.409  22.442  1.00  0.00     0.180 C 
HETATM   10  C14 UNL     1      23.861  44.596  23.269  1.00  0.00     0.179 C 
HETATM   11  O14 UNL     1      24.960  44.120  22.601  1.00  0.00    -0.348 OA
BRANCH   7  12
HETATM   12  N1  UNL     1      24.629  45.637  20.210  1.00  0.00    -0.349 N 
HETATM   13  C2  UNL     1      25.222  45.877  18.940  1.00  0.00     0.214 C 
HETATM   14  C1  UNL     1      25.985  47.107  18.621  1.00  0.00     0.117 C 
HETATM   15  O1  UNL     1      25.079  44.984  18.058  1.00  0.00    -0.274 OA
ATOM     16  H1  UNL     1      24.719  46.330  20.953  1.00  0.00     0.163 HD
ENDBRANCH   7  12
BRANCH   8  17
HETATM   17  O17 UNL     1      21.839  43.636  21.212  1.00  0.00    -0.391 OA
ATOM     18  H17 UNL     1      21.970  43.166  20.397  1.00  0.00     0.210 HD
ENDBRANCH   8  17
BRANCH   9  19
HETATM   19  O16 UNL     1      21.750  45.594  23.196  1.00  0.00    -0.390 OA
ATOM     20  H16 UNL     1      21.796  45.007  23.941  1.00  0.00     0.210 HD
ENDBRANCH   9  19
BRANCH  10  21
HETATM   21  C15 UNL     1      23.098  43.509  23.997  1.00  0.00     0.198 C 
BRANCH  21  22
HETATM   22  O15 UNL     1      22.751  43.926  25.295  1.00  0.00    -0.398 OA
ATOM     23  H15 UNL     1      22.746  43.191  25.896  1.00  0.00     0.209 HD
ENDBRANCH  21  22
ENDBRANCH  10  21
ENDBRANCH   5   6
ENDBRANCH   2   5
ENDBRANCH   1   2
BRANCH   1  24
HETATM   24  P2  UNL     1      24.410  40.313  19.054  1.00  0.00     0.417 P 
HETATM   25  O6  UNL     1      23.315  39.993  20.051  1.00  0.00    -0.624 OA
HETATM   26  O7  UNL     1      24.081  41.738  18.209  1.00  0.00    -0.624 OA
BRANCH  24  27
HETATM   27  O8  UNL     1      24.435  39.049  17.930  1.00  0.00    -0.287 OA
BRANCH  27  28
HETATM   28  C5  UNL     1      25.389  38.134  18.345  1.00  0.00     0.216 C 
BRANCH  28  29
HETATM   29  C6  UNL     1      24.899  36.704  18.185  1.00  0.00     0.180 C 
HETATM   30  O9  UNL     1      23.542  36.697  17.919  1.00  0.00    -0.353 OA
HETATM   31  C7  UNL     1      23.308  35.702  16.981  1.00  0.00     0.263 C 
HETATM   32  C12 UNL     1      24.482  35.860  16.029  1.00  0.00     0.198 C 
HETATM   33  C13 UNL     1      25.612  36.095  17.028  1.00  0.00     0.182 C 
BRANCH  31  34
HETATM   34  N2  UNL     1      22.049  35.983  16.320  1.00  0.00    -0.280 N 
HETATM   35  C8  UNL     1      21.841  37.128  15.671  1.00  0.00     0.104 A 
HETATM   36  C9  UNL     1      20.639  37.351  15.063  1.00  0.00     0.092 A 
HETATM   37  C10 UNL     1      19.634  36.409  15.109  1.00  0.00     0.250 A 
HETATM   38  O10 UNL     1      18.538  36.635  14.544  1.00  0.00    -0.268 OA
HETATM   39  N3  UNL     1      19.893  35.267  15.779  1.00  0.00    -0.275 N 
HETATM   40  C11 UNL     1      21.076  35.071  16.366  1.00  0.00     0.331 A 
ATOM     41  H3  UNL     1      19.176  34.543  15.837  1.00  0.00     0.173 HD
HETATM   42  O11 UNL     1      21.256  33.978  16.979  1.00  0.00    -0.246 OA
ENDBRANCH  31  34
BRANCH  32  43
HETATM   43  O12 UNL     1      24.722  34.704  15.297  1.00  0.00    -0.388 OA
ATOM     44  H12 UNL     1      24.530  34.818  14.374  1.00  0.00     0.210 HD
ENDBRANCH  32  43
BRANCH  33  45
HETATM   45  O13 UNL     1      26.082  34.843  17.413  1.00  0.00    -0.390 OA
ATOM     46  H13 UNL     1      27.032  34.877  17.444  1.00  0.00     0.210 HD
ENDBRANCH  33  45
ENDBRANCH  28  29
ENDBRANCH  27  28
ENDBRANCH  24  27
ENDBRANCH   1  24
TORSDOF 15
ENDMDL
