MODEL 5
REMARK VINA RESULT: -6.801804177      3.582      8.349
REMARK  4 active torsions:
REMARK  status: ('A' for Active; 'I' for Inactive)
REMARK    1  A    between atoms: C5_7  and  C6_8 
REMARK       I    between atoms: C6_8  and  N2_10 
REMARK    2  A    between atoms: N2_10  and  C7_12 
REMARK    3  A    between atoms: C8_15  and  C9_16 
REMARK    4  A    between atoms: C9_16  and  N4_17 
ROOT
HETATM    1  C7  UNL     1      17.335 -11.289   6.879  1.00  0.00     0.151 A 
HETATM    2  N3  UNL     1      17.939 -12.384   6.519  1.00  0.00    -0.338 N 
ATOM      3  H3  UNL     1      17.528 -12.965   5.789  1.00  0.00     0.168 HD
HETATM    4  C8  UNL     1      19.055 -12.751   7.070  1.00  0.00     0.046 A 
HETATM    5  C17 UNL     1      19.567 -11.930   8.052  1.00  0.00     0.080 A 
HETATM    6  S1  UNL     1      18.382 -10.684   8.096  1.00  0.00    -0.064 SA
ENDROOT
BRANCH   1   7
HETATM    7  N2  UNL     1      16.108 -10.672   6.429  1.00  0.00    -0.301 N 
HETATM    8  C6  UNL     1      16.047  -9.325   6.032  1.00  0.00     0.283 C 
HETATM    9  O1  UNL     1      17.165  -8.707   6.108  1.00  0.00    -0.265 OA
ATOM     10  H2  UNL     1      15.257 -11.234   6.397  1.00  0.00     0.171 HD
BRANCH   8  11
HETATM   11  C5  UNL     1      14.879  -8.599   5.565  1.00  0.00     0.167 A 
HETATM   12  C3  UNL     1      13.761  -9.004   4.921  1.00  0.00     0.046 A 
HETATM   13  N1  UNL     1      13.002  -7.904   4.729  1.00  0.00    -0.342 N 
HETATM   14  C4  UNL     1      13.426 -10.373   4.505  1.00  0.00     0.071 C 
HETATM   15  C2  UNL     1      13.652  -6.860   5.247  1.00  0.00     0.120 A 
ATOM     16  H1  UNL     1      12.092  -7.876   4.269  1.00  0.00     0.167 HD
HETATM   17  C1  UNL     1      13.200  -5.421   5.273  1.00  0.00     0.098 C 
HETATM   18  O2  UNL     1      14.764  -7.291   5.740  1.00  0.00    -0.290 OA
ENDBRANCH   8  11
ENDBRANCH   1   7
BRANCH   4  19
HETATM   19  C9  UNL     1      19.813 -14.014   6.699  1.00  0.00     0.329 C 
BRANCH  19  20
HETATM   20  N4  UNL     1      21.212 -13.878   6.874  1.00  0.00     0.094 N 
HETATM   21  C10 UNL     1      21.877 -15.137   7.200  1.00  0.00     0.277 C 
HETATM   22  C11 UNL     1      23.171 -14.746   7.909  1.00  0.00     0.010 C 
HETATM   23  C12 UNL     1      23.862 -16.046   8.275  1.00  0.00     0.011 C 
HETATM   24  C13 UNL     1      24.026 -14.044   6.887  1.00  0.00     0.012 C 
HETATM   25  C14 UNL     1      23.307 -12.982   6.124  1.00  0.00     0.010 C 
HETATM   26  C15 UNL     1      24.091 -12.753   4.824  1.00  0.00     0.011 C 
HETATM   27  C16 UNL     1      21.910 -13.327   5.736  1.00  0.00     0.277 C 
ENDBRANCH  19  20
ENDBRANCH   4  19
TORSDOF 4
ENDMDL
