MODEL 1
REMARK VINA RESULT: -6.972680874      0.000      0.000
REMARK  4 active torsions:
REMARK  status: ('A' for Active; 'I' for Inactive)
REMARK    1  A    between atoms: C5_7  and  C6_8 
REMARK       I    between atoms: C6_8  and  N2_10 
REMARK    2  A    between atoms: N2_10  and  C7_12 
REMARK    3  A    between atoms: C8_15  and  C9_16 
REMARK    4  A    between atoms: C9_16  and  N4_17 
ROOT
HETATM    1  C7  UNL     1      18.735 -12.143   7.067  1.00  0.00     0.151 A 
HETATM    2  N3  UNL     1      17.800 -12.848   6.500  1.00  0.00    -0.338 N 
ATOM      3  H3  UNL     1      18.019 -13.782   6.152  1.00  0.00     0.168 HD
HETATM    4  C8  UNL     1      16.594 -12.389   6.368  1.00  0.00     0.046 A 
HETATM    5  C17 UNL     1      16.351 -11.122   6.855  1.00  0.00     0.080 A 
HETATM    6  S1  UNL     1      17.902 -10.697   7.468  1.00  0.00    -0.064 SA
ENDROOT
BRANCH   1   7
HETATM    7  N2  UNL     1      20.128 -12.422   7.329  1.00  0.00    -0.301 N 
HETATM    8  C6  UNL     1      20.863 -13.352   6.573  1.00  0.00     0.283 C 
HETATM    9  O1  UNL     1      20.189 -13.919   5.644  1.00  0.00    -0.265 OA
ATOM     10  H2  UNL     1      20.595 -11.928   8.090  1.00  0.00     0.171 HD
BRANCH   8  11
HETATM   11  C5  UNL     1      22.258 -13.716   6.743  1.00  0.00     0.167 A 
HETATM   12  C3  UNL     1      23.384 -13.293   6.124  1.00  0.00     0.046 A 
HETATM   13  N1  UNL     1      24.412 -13.970   6.680  1.00  0.00    -0.342 N 
HETATM   14  C4  UNL     1      23.483 -12.291   5.054  1.00  0.00     0.071 C 
HETATM   15  C2  UNL     1      23.913 -14.783   7.612  1.00  0.00     0.120 A 
ATOM     16  H1  UNL     1      25.397 -13.876   6.431  1.00  0.00     0.167 HD
HETATM   17  C1  UNL     1      24.675 -15.736   8.500  1.00  0.00     0.098 C 
HETATM   18  O2  UNL     1      22.633 -14.619   7.637  1.00  0.00    -0.290 OA
ENDBRANCH   8  11
ENDBRANCH   1   7
BRANCH   4  19
HETATM   19  C9  UNL     1      15.456 -13.157   5.718  1.00  0.00     0.329 C 
BRANCH  19  20
HETATM   20  N4  UNL     1      15.844 -13.778   4.506  1.00  0.00     0.094 N 
HETATM   21  C10 UNL     1      16.208 -15.183   4.668  1.00  0.00     0.277 C 
HETATM   22  C11 UNL     1      17.119 -15.510   3.488  1.00  0.00     0.010 C 
HETATM   23  C12 UNL     1      17.525 -16.962   3.657  1.00  0.00     0.011 C 
HETATM   24  C13 UNL     1      16.268 -15.413   2.249  1.00  0.00     0.012 C 
HETATM   25  C14 UNL     1      15.455 -14.164   2.170  1.00  0.00     0.010 C 
HETATM   26  C15 UNL     1      14.298 -14.441   1.200  1.00  0.00     0.011 C 
HETATM   27  C16 UNL     1      14.848 -13.730   3.460  1.00  0.00     0.277 C 
ENDBRANCH  19  20
ENDBRANCH   4  19
TORSDOF 4
ENDMDL
