MODEL 3
REMARK VINA RESULT: -6.876138505      3.185      8.224
REMARK  4 active torsions:
REMARK  status: ('A' for Active; 'I' for Inactive)
REMARK    1  A    between atoms: C5_7  and  C6_8 
REMARK       I    between atoms: C6_8  and  N2_10 
REMARK    2  A    between atoms: N2_10  and  C7_12 
REMARK    3  A    between atoms: C8_15  and  C9_16 
REMARK    4  A    between atoms: C9_16  and  N4_17 
ROOT
HETATM    1  C7  UNL     1      17.519 -13.413   5.942  1.00  0.00     0.151 A 
HETATM    2  N3  UNL     1      18.487 -13.480   6.810  1.00  0.00    -0.338 N 
ATOM      3  H3  UNL     1      18.704 -12.664   7.381  1.00  0.00     0.168 HD
HETATM    4  C8  UNL     1      19.181 -14.565   6.963  1.00  0.00     0.046 A 
HETATM    5  C17 UNL     1      18.848 -15.639   6.165  1.00  0.00     0.080 A 
HETATM    6  S1  UNL     1      17.544 -14.984   5.253  1.00  0.00    -0.064 SA
ENDROOT
BRANCH   1   7
HETATM    7  N2  UNL     1      16.615 -12.343   5.588  1.00  0.00    -0.301 N 
HETATM    8  C6  UNL     1      15.719 -11.781   6.514  1.00  0.00     0.283 C 
HETATM    9  O1  UNL     1      15.781 -12.299   7.683  1.00  0.00    -0.265 OA
ATOM     10  H2  UNL     1      16.626 -11.984   4.633  1.00  0.00     0.171 HD
BRANCH   8  11
HETATM   11  C5  UNL     1      14.768 -10.709   6.276  1.00  0.00     0.167 A 
HETATM   12  C3  UNL     1      14.934  -9.386   6.053  1.00  0.00     0.046 A 
HETATM   13  N1  UNL     1      13.700  -8.859   5.897  1.00  0.00    -0.342 N 
HETATM   14  C4  UNL     1      16.205  -8.652   5.989  1.00  0.00     0.071 C 
HETATM   15  C2  UNL     1      12.812  -9.846   6.025  1.00  0.00     0.120 A 
ATOM     16  H1  UNL     1      13.485  -7.879   5.713  1.00  0.00     0.167 HD
HETATM   17  C1  UNL     1      11.310  -9.745   5.929  1.00  0.00     0.098 C 
HETATM   18  O2  UNL     1      13.463 -10.938   6.250  1.00  0.00    -0.290 OA
ENDBRANCH   8  11
ENDBRANCH   1   7
BRANCH   4  19
HETATM   19  C9  UNL     1      20.323 -14.713   7.955  1.00  0.00     0.329 C 
BRANCH  19  20
HETATM   20  N4  UNL     1      21.594 -14.596   7.340  1.00  0.00     0.094 N 
HETATM   21  C10 UNL     1      21.892 -13.241   6.886  1.00  0.00     0.277 C 
HETATM   22  C11 UNL     1      22.939 -13.398   5.786  1.00  0.00     0.010 C 
HETATM   23  C12 UNL     1      23.242 -11.997   5.288  1.00  0.00     0.011 C 
HETATM   24  C13 UNL     1      24.183 -13.928   6.450  1.00  0.00     0.012 C 
HETATM   25  C14 UNL     1      23.940 -15.096   7.345  1.00  0.00     0.010 C 
HETATM   26  C15 UNL     1      25.125 -15.172   8.317  1.00  0.00     0.011 C 
HETATM   27  C16 UNL     1      22.702 -15.006   8.171  1.00  0.00     0.277 C 
ENDBRANCH  19  20
ENDBRANCH   4  19
TORSDOF 4
ENDMDL
