MODEL 1
REMARK VINA RESULT: -8.662472455      0.000      0.000
REMARK  8 active torsions:
REMARK  status: ('A' for Active; 'I' for Inactive)
REMARK    1  A    between atoms: C3_3  and  C4_4 
REMARK    2  A    between atoms: C4_4  and  C5_5 
REMARK    3  A    between atoms: C5_5  and  N1_6 
REMARK    4  A    between atoms: C6_7  and  C7_8 
REMARK    5  A    between atoms: C7_8  and  C8_9 
REMARK    6  A    between atoms: C10_11  and  O1_12 
REMARK    7  A    between atoms: C12_14  and  O2_15 
REMARK    8  A    between atoms: C14_17  and  O3_18 
ROOT
HETATM    1  C1  UNL     1       7.742  38.509  24.985  1.00  0.00     0.012 C 
HETATM    2  C2  UNL     1       7.949  37.392  25.381  1.00  0.00    -0.117 C 
HETATM    3  C3  UNL     1       8.178  36.028  25.877  1.00  0.00     0.094 C 
ENDROOT
BRANCH   3   4
HETATM    4  C4  UNL     1       6.849  35.477  26.346  1.00  0.00     0.032 C 
BRANCH   4   5
HETATM    5  C5  UNL     1       5.952  35.397  25.110  1.00  0.00     0.133 C 
BRANCH   5   6
HETATM    6  N1  UNL     1       5.421  34.092  24.909  1.00  0.00    -0.320 N 
HETATM    7  C6  UNL     1       4.218  33.639  25.274  1.00  0.00     0.089 A 
HETATM    8  N2  UNL     1       4.083  32.341  24.902  1.00  0.00    -0.340 N 
HETATM    9  C17 UNL     1       5.216  31.957  24.290  1.00  0.00     0.120 A 
ATOM     10  H2  UNL     1       3.262  31.757  25.059  1.00  0.00     0.167 HD
HETATM   11  C18 UNL     1       5.559  30.740  23.742  1.00  0.00     0.150 A 
HETATM   12  C20 UNL     1       6.052  33.050  24.295  1.00  0.00     0.142 A 
HETATM   13  N3  UNL     1       4.655  29.638  23.764  1.00  0.00    -0.080 NA
HETATM   14  N4  UNL     1       6.785  30.652  23.188  1.00  0.00    -0.305 N 
HETATM   15  C19 UNL     1       7.611  31.723  23.189  1.00  0.00     0.268 A 
ATOM     16  H4  UNL     1       7.091  29.774  22.767  1.00  0.00     0.171 HD
HETATM   17  F1  UNL     1       8.828  31.539  22.608  1.00  0.00    -0.165 F 
HETATM   18  N5  UNL     1       7.263  32.905  23.728  1.00  0.00    -0.302 N 
ATOM     19  H5  UNL     1       7.916  33.688  23.708  1.00  0.00     0.171 HD
BRANCH   7  20
HETATM   20  C7  UNL     1       3.172  34.386  25.972  1.00  0.00     0.117 C 
BRANCH  20  21
HETATM   21  C8  UNL     1       2.045  34.823  25.108  1.00  0.00    -0.024 A 
HETATM   22  C9  UNL     1       2.161  35.876  24.229  1.00  0.00     0.049 A 
HETATM   23  C10 UNL     1       1.119  36.305  23.405  1.00  0.00     0.104 A 
HETATM   24  C12 UNL     1      -0.065  35.601  23.515  1.00  0.00     0.136 A 
HETATM   25  C14 UNL     1      -0.247  34.539  24.374  1.00  0.00     0.126 A 
HETATM   26  C16 UNL     1       0.819  34.161  25.164  1.00  0.00     0.077 A 
HETATM   27 CL1  UNL     1       0.673  32.827  26.276  1.00  0.00    -0.081 Cl
BRANCH  23  28
HETATM   28  O1  UNL     1       1.259  37.370  22.526  1.00  0.00    -0.353 OA
HETATM   29  C11 UNL     1       2.200  38.370  22.865  1.00  0.00     0.210 C 
ENDBRANCH  23  28
BRANCH  24  30
HETATM   30  O2  UNL     1      -1.131  35.978  22.726  1.00  0.00    -0.351 OA
HETATM   31  C13 UNL     1      -1.337  35.499  21.411  1.00  0.00     0.210 C 
ENDBRANCH  24  30
BRANCH  25  32
HETATM   32  O3  UNL     1      -1.452  33.852  24.461  1.00  0.00    -0.351 OA
HETATM   33  C15 UNL     1      -2.318  34.223  25.519  1.00  0.00     0.210 C 
ENDBRANCH  25  32
ENDBRANCH  20  21
ENDBRANCH   7  20
ENDBRANCH   5   6
ENDBRANCH   4   5
ENDBRANCH   3   4
TORSDOF 8
ENDMDL
