MODEL 20
REMARK VINA RESULT: -7.971606325      4.180      6.584
REMARK  8 active torsions:
REMARK  status: ('A' for Active; 'I' for Inactive)
REMARK    1  A    between atoms: C3_3  and  C4_4 
REMARK    2  A    between atoms: C4_4  and  C5_5 
REMARK    3  A    between atoms: C5_5  and  N1_6 
REMARK    4  A    between atoms: C6_7  and  C7_8 
REMARK    5  A    between atoms: C7_8  and  C8_9 
REMARK    6  A    between atoms: C10_11  and  O1_12 
REMARK    7  A    between atoms: C12_14  and  O2_15 
REMARK    8  A    between atoms: C14_17  and  O3_18 
ROOT
HETATM    1  C1  UNL     1       3.908  38.108  27.269  1.00  0.00     0.012 C 
HETATM    2  C2  UNL     1       4.120  37.997  26.090  1.00  0.00    -0.117 C 
HETATM    3  C3  UNL     1       4.354  37.850  24.647  1.00  0.00     0.094 C 
ENDROOT
BRANCH   3   4
HETATM    4  C4  UNL     1       3.015  37.615  23.982  1.00  0.00     0.032 C 
BRANCH   4   5
HETATM    5  C5  UNL     1       2.991  36.145  23.563  1.00  0.00     0.133 C 
BRANCH   5   6
HETATM    6  N1  UNL     1       1.902  35.435  24.139  1.00  0.00    -0.320 N 
HETATM    7  C6  UNL     1       1.909  34.703  25.257  1.00  0.00     0.089 A 
HETATM    8  N2  UNL     1       0.673  34.186  25.476  1.00  0.00    -0.340 N 
HETATM    9  C17 UNL     1      -0.137  34.592  24.484  1.00  0.00     0.120 A 
ATOM     10  H2  UNL     1       0.406  33.591  26.260  1.00  0.00     0.167 HD
HETATM   11  C18 UNL     1      -1.473  34.330  24.266  1.00  0.00     0.150 A 
HETATM   12  C20 UNL     1       0.629  35.372  23.648  1.00  0.00     0.142 A 
HETATM   13  N3  UNL     1      -2.222  33.515  25.163  1.00  0.00    -0.080 NA
HETATM   14  N4  UNL     1      -2.025  34.885  23.168  1.00  0.00    -0.305 N 
HETATM   15  C19 UNL     1      -1.276  35.652  22.343  1.00  0.00     0.268 A 
ATOM     16  H4  UNL     1      -3.011  34.724  22.958  1.00  0.00     0.171 HD
HETATM   17  F1  UNL     1      -1.920  36.168  21.260  1.00  0.00    -0.165 F 
HETATM   18  N5  UNL     1       0.026  35.899  22.568  1.00  0.00    -0.302 N 
ATOM     19  H5  UNL     1       0.555  36.484  21.921  1.00  0.00     0.171 HD
BRANCH   7  20
HETATM   20  C7  UNL     1       3.047  34.461  26.142  1.00  0.00     0.117 C 
BRANCH  20  21
HETATM   21  C8  UNL     1       4.238  33.877  25.471  1.00  0.00    -0.024 A 
HETATM   22  C9  UNL     1       5.483  34.456  25.552  1.00  0.00     0.049 A 
HETATM   23  C10 UNL     1       6.617  33.926  24.933  1.00  0.00     0.104 A 
HETATM   24  C12 UNL     1       6.423  32.760  24.218  1.00  0.00     0.136 A 
HETATM   25  C14 UNL     1       5.203  32.130  24.097  1.00  0.00     0.126 A 
HETATM   26  C16 UNL     1       4.119  32.701  24.730  1.00  0.00     0.077 A 
HETATM   27 CL1  UNL     1       2.541  31.968  24.629  1.00  0.00    -0.081 Cl
BRANCH  23  28
HETATM   28  O1  UNL     1       7.864  34.528  25.030  1.00  0.00    -0.353 OA
HETATM   29  C11 UNL     1       7.930  35.779  25.685  1.00  0.00     0.210 C 
ENDBRANCH  23  28
BRANCH  24  30
HETATM   30  O2  UNL     1       7.506  32.188  23.585  1.00  0.00    -0.351 OA
HETATM   31  C13 UNL     1       7.660  32.153  22.180  1.00  0.00     0.210 C 
ENDBRANCH  24  30
BRANCH  25  32
HETATM   32  O3  UNL     1       5.042  30.957  23.369  1.00  0.00    -0.351 OA
HETATM   33  C15 UNL     1       5.114  29.744  24.097  1.00  0.00     0.210 C 
ENDBRANCH  25  32
ENDBRANCH  20  21
ENDBRANCH   7  20
ENDBRANCH   5   6
ENDBRANCH   4   5
ENDBRANCH   3   4
TORSDOF 8
ENDMDL
