MODEL 3
REMARK VINA RESULT: -8.424650168      1.386      2.650
REMARK  8 active torsions:
REMARK  status: ('A' for Active; 'I' for Inactive)
REMARK    1  A    between atoms: C3_3  and  C4_4 
REMARK    2  A    between atoms: C4_4  and  C5_5 
REMARK    3  A    between atoms: C5_5  and  N1_6 
REMARK    4  A    between atoms: C6_7  and  C7_8 
REMARK    5  A    between atoms: C7_8  and  C8_9 
REMARK    6  A    between atoms: C10_11  and  O1_12 
REMARK    7  A    between atoms: C12_14  and  O2_15 
REMARK    8  A    between atoms: C14_17  and  O3_18 
ROOT
HETATM    1  C1  UNL     1       7.196  39.452  24.314  1.00  0.00     0.012 C 
HETATM    2  C2  UNL     1       7.374  38.357  24.781  1.00  0.00    -0.117 C 
HETATM    3  C3  UNL     1       7.566  37.016  25.350  1.00  0.00     0.094 C 
ENDROOT
BRANCH   3   4
HETATM    4  C4  UNL     1       6.329  36.201  25.038  1.00  0.00     0.032 C 
BRANCH   4   5
HETATM    5  C5  UNL     1       6.364  34.987  25.966  1.00  0.00     0.133 C 
BRANCH   5   6
HETATM    6  N1  UNL     1       5.649  33.878  25.434  1.00  0.00    -0.320 N 
HETATM    7  C6  UNL     1       4.329  33.670  25.465  1.00  0.00     0.089 A 
HETATM    8  N2  UNL     1       4.033  32.498  24.850  1.00  0.00    -0.340 N 
HETATM    9  C17 UNL     1       5.179  31.946  24.417  1.00  0.00     0.120 A 
ATOM     10  H2  UNL     1       3.100  32.104  24.734  1.00  0.00     0.167 HD
HETATM   11  C18 UNL     1       5.394  30.764  23.741  1.00  0.00     0.150 A 
HETATM   12  C20 UNL     1       6.189  32.806  24.782  1.00  0.00     0.142 A 
HETATM   13  N3  UNL     1       4.312  29.907  23.387  1.00  0.00    -0.080 NA
HETATM   14  N4  UNL     1       6.674  30.469  23.436  1.00  0.00    -0.305 N 
HETATM   15  C19 UNL     1       7.671  31.311  23.792  1.00  0.00     0.268 A 
ATOM     16  H4  UNL     1       6.891  29.607  22.935  1.00  0.00     0.171 HD
HETATM   17  F1  UNL     1       8.930  30.929  23.442  1.00  0.00    -0.165 F 
HETATM   18  N5  UNL     1       7.446  32.461  24.452  1.00  0.00    -0.302 N 
ATOM     19  H5  UNL     1       8.226  33.069  24.702  1.00  0.00     0.171 HD
BRANCH   7  20
HETATM   20  C7  UNL     1       3.317  34.541  26.063  1.00  0.00     0.117 C 
BRANCH  20  21
HETATM   21  C8  UNL     1       1.978  34.460  25.421  1.00  0.00    -0.024 A 
HETATM   22  C9  UNL     1       0.985  33.637  25.900  1.00  0.00     0.049 A 
HETATM   23  C10 UNL     1      -0.281  33.546  25.317  1.00  0.00     0.104 A 
HETATM   24  C12 UNL     1      -0.494  34.344  24.210  1.00  0.00     0.136 A 
HETATM   25  C14 UNL     1       0.458  35.189  23.682  1.00  0.00     0.126 A 
HETATM   26  C16 UNL     1       1.690  35.237  24.299  1.00  0.00     0.077 A 
HETATM   27 CL1  UNL     1       2.949  36.279  23.695  1.00  0.00    -0.081 Cl
BRANCH  23  28
HETATM   28  O1  UNL     1      -1.268  32.708  25.818  1.00  0.00    -0.353 OA
HETATM   29  C11 UNL     1      -1.962  33.141  26.971  1.00  0.00     0.210 C 
ENDBRANCH  23  28
BRANCH  24  30
HETATM   30  O2  UNL     1      -1.725  34.297  23.591  1.00  0.00    -0.351 OA
HETATM   31  C13 UNL     1      -2.843  35.048  24.021  1.00  0.00     0.210 C 
ENDBRANCH  24  30
BRANCH  25  32
HETATM   32  O3  UNL     1       0.212  35.979  22.565  1.00  0.00    -0.351 OA
HETATM   33  C15 UNL     1      -0.227  37.304  22.810  1.00  0.00     0.210 C 
ENDBRANCH  25  32
ENDBRANCH  20  21
ENDBRANCH   7  20
ENDBRANCH   5   6
ENDBRANCH   4   5
ENDBRANCH   3   4
TORSDOF 8
ENDMDL
