MODEL 6
REMARK VINA RESULT: -8.319744597      4.361      6.593
REMARK  8 active torsions:
REMARK  status: ('A' for Active; 'I' for Inactive)
REMARK    1  A    between atoms: C3_3  and  C4_4 
REMARK    2  A    between atoms: C4_4  and  C5_5 
REMARK    3  A    between atoms: C5_5  and  N1_6 
REMARK    4  A    between atoms: C6_7  and  C7_8 
REMARK    5  A    between atoms: C7_8  and  C8_9 
REMARK    6  A    between atoms: C10_11  and  O1_12 
REMARK    7  A    between atoms: C12_14  and  O2_15 
REMARK    8  A    between atoms: C14_17  and  O3_18 
ROOT
HETATM    1  C1  UNL     1       4.578  36.835  28.316  1.00  0.00     0.012 C 
HETATM    2  C2  UNL     1       4.461  37.580  27.379  1.00  0.00    -0.117 C 
HETATM    3  C3  UNL     1       4.311  38.469  26.219  1.00  0.00     0.094 C 
ENDROOT
BRANCH   3   4
HETATM    4  C4  UNL     1       3.564  37.708  25.146  1.00  0.00     0.032 C 
BRANCH   4   5
HETATM    5  C5  UNL     1       2.157  37.458  25.690  1.00  0.00     0.133 C 
BRANCH   5   6
HETATM    6  N1  UNL     1       1.397  36.596  24.852  1.00  0.00    -0.320 N 
HETATM    7  C6  UNL     1       1.277  35.268  24.947  1.00  0.00     0.089 A 
HETATM    8  N2  UNL     1       0.461  34.809  23.966  1.00  0.00    -0.340 N 
HETATM    9  C17 UNL     1       0.052  35.856  23.230  1.00  0.00     0.120 A 
ATOM     10  H2  UNL     1       0.202  33.834  23.812  1.00  0.00     0.167 HD
HETATM   11  C18 UNL     1      -0.779  35.899  22.131  1.00  0.00     0.150 A 
HETATM   12  C20 UNL     1       0.636  36.973  23.783  1.00  0.00     0.142 A 
HETATM   13  N3  UNL     1      -1.358  34.711  21.597  1.00  0.00    -0.080 NA
HETATM   14  N4  UNL     1      -1.011  37.115  21.597  1.00  0.00    -0.305 N 
HETATM   15  C19 UNL     1      -0.439  38.216  22.137  1.00  0.00     0.268 A 
ATOM     16  H4  UNL     1      -1.618  37.204  20.782  1.00  0.00     0.171 HD
HETATM   17  F1  UNL     1      -0.731  39.398  21.529  1.00  0.00    -0.165 F 
HETATM   18  N5  UNL     1       0.370  38.159  23.209  1.00  0.00    -0.302 N 
ATOM     19  H5  UNL     1       0.781  39.014  23.585  1.00  0.00     0.171 HD
BRANCH   7  20
HETATM   20  C7  UNL     1       1.910  34.397  25.937  1.00  0.00     0.117 C 
BRANCH  20  21
HETATM   21  C8  UNL     1       3.172  33.758  25.479  1.00  0.00    -0.024 A 
HETATM   22  C9  UNL     1       4.373  34.430  25.472  1.00  0.00     0.049 A 
HETATM   23  C10 UNL     1       5.571  33.851  25.049  1.00  0.00     0.104 A 
HETATM   24  C12 UNL     1       5.491  32.538  24.629  1.00  0.00     0.136 A 
HETATM   25  C14 UNL     1       4.321  31.810  24.612  1.00  0.00     0.126 A 
HETATM   26  C16 UNL     1       3.169  32.434  25.041  1.00  0.00     0.077 A 
HETATM   27 CL1  UNL     1       1.647  31.585  25.051  1.00  0.00    -0.081 Cl
BRANCH  23  28
HETATM   28  O1  UNL     1       6.772  34.549  25.051  1.00  0.00    -0.353 OA
HETATM   29  C11 UNL     1       7.161  35.164  26.263  1.00  0.00     0.210 C 
ENDBRANCH  23  28
BRANCH  24  30
HETATM   30  O2  UNL     1       6.643  31.912  24.201  1.00  0.00    -0.351 OA
HETATM   31  C13 UNL     1       7.131  31.996  22.876  1.00  0.00     0.210 C 
ENDBRANCH  24  30
BRANCH  25  32
HETATM   32  O3  UNL     1       4.275  30.488  24.183  1.00  0.00    -0.351 OA
HETATM   33  C15 UNL     1       3.912  30.274  22.830  1.00  0.00     0.210 C 
ENDBRANCH  25  32
ENDBRANCH  20  21
ENDBRANCH   7  20
ENDBRANCH   5   6
ENDBRANCH   4   5
ENDBRANCH   3   4
TORSDOF 8
ENDMDL
