MODEL 5
REMARK VINA RESULT: -8.349733074      2.693      5.240
REMARK  8 active torsions:
REMARK  status: ('A' for Active; 'I' for Inactive)
REMARK    1  A    between atoms: C3_3  and  C4_4 
REMARK    2  A    between atoms: C4_4  and  C5_5 
REMARK    3  A    between atoms: C5_5  and  N1_6 
REMARK    4  A    between atoms: C6_7  and  C7_8 
REMARK    5  A    between atoms: C7_8  and  C8_9 
REMARK    6  A    between atoms: C10_11  and  O1_12 
REMARK    7  A    between atoms: C12_14  and  O2_15 
REMARK    8  A    between atoms: C14_17  and  O3_18 
ROOT
HETATM    1  C1  UNL     1      -2.253  34.793  24.875  1.00  0.00     0.012 C 
HETATM    2  C2  UNL     1      -1.891  33.908  25.605  1.00  0.00    -0.117 C 
HETATM    3  C3  UNL     1      -1.425  32.830  26.488  1.00  0.00     0.094 C 
ENDROOT
BRANCH   3   4
HETATM    4  C4  UNL     1       0.083  32.926  26.578  1.00  0.00     0.032 C 
BRANCH   4   5
HETATM    5  C5  UNL     1       0.615  32.753  25.156  1.00  0.00     0.133 C 
BRANCH   5   6
HETATM    6  N1  UNL     1       1.968  33.173  25.028  1.00  0.00    -0.320 N 
HETATM    7  C6  UNL     1       2.455  34.407  25.193  1.00  0.00     0.089 A 
HETATM    8  N2  UNL     1       3.796  34.402  24.988  1.00  0.00    -0.340 N 
HETATM    9  C17 UNL     1       4.175  33.149  24.688  1.00  0.00     0.120 A 
ATOM     10  H2  UNL     1       4.412  35.213  25.051  1.00  0.00     0.167 HD
HETATM   11  C18 UNL     1       5.425  32.644  24.400  1.00  0.00     0.150 A 
HETATM   12  C20 UNL     1       3.033  32.380  24.713  1.00  0.00     0.142 A 
HETATM   13  N3  UNL     1       6.576  33.484  24.386  1.00  0.00    -0.080 NA
HETATM   14  N4  UNL     1       5.496  31.324  24.134  1.00  0.00    -0.305 N 
HETATM   15  C19 UNL     1       4.377  30.564  24.158  1.00  0.00     0.268 A 
ATOM     16  H4  UNL     1       6.396  30.897  23.914  1.00  0.00     0.171 HD
HETATM   17  F1  UNL     1       4.547  29.243  23.876  1.00  0.00    -0.165 F 
HETATM   18  N5  UNL     1       3.164  31.070  24.440  1.00  0.00    -0.302 N 
ATOM     19  H5  UNL     1       2.345  30.462  24.447  1.00  0.00     0.171 HD
BRANCH   7  20
HETATM   20  C7  UNL     1       1.700  35.611  25.537  1.00  0.00     0.117 C 
BRANCH  20  21
HETATM   21  C8  UNL     1       1.448  36.528  24.394  1.00  0.00    -0.024 A 
HETATM   22  C9  UNL     1       0.632  36.180  23.342  1.00  0.00     0.049 A 
HETATM   23  C10 UNL     1       0.377  37.024  22.259  1.00  0.00     0.104 A 
HETATM   24  C12 UNL     1       0.998  38.258  22.297  1.00  0.00     0.136 A 
HETATM   25  C14 UNL     1       1.825  38.667  23.320  1.00  0.00     0.126 A 
HETATM   26  C16 UNL     1       2.041  37.790  24.363  1.00  0.00     0.077 A 
HETATM   27 CL1  UNL     1       3.073  38.229  25.697  1.00  0.00    -0.081 Cl
BRANCH  23  28
HETATM   28  O1  UNL     1      -0.451  36.651  21.208  1.00  0.00    -0.353 OA
HETATM   29  C11 UNL     1      -1.429  35.666  21.473  1.00  0.00     0.210 C 
ENDBRANCH  23  28
BRANCH  24  30
HETATM   30  O2  UNL     1       0.783  39.135  21.255  1.00  0.00    -0.351 OA
HETATM   31  C13 UNL     1       1.487  39.080  20.030  1.00  0.00     0.210 C 
ENDBRANCH  24  30
BRANCH  25  32
HETATM   32  O3  UNL     1       2.435  39.916  23.327  1.00  0.00    -0.351 OA
HETATM   33  C15 UNL     1       3.764  39.975  22.839  1.00  0.00     0.210 C 
ENDBRANCH  25  32
ENDBRANCH  20  21
ENDBRANCH   7  20
ENDBRANCH   5   6
ENDBRANCH   4   5
ENDBRANCH   3   4
TORSDOF 8
ENDMDL
