MODEL 7
REMARK VINA RESULT: -6.251465890      2.412      5.714
REMARK  5 active torsions:
REMARK  status: ('A' for Active; 'I' for Inactive)
REMARK    1  A    between atoms: O1_2  and  C2_3 
REMARK    2  A    between atoms: C5_6  and  C6_7 
REMARK    3  A    between atoms: C9_14  and  C10_15 
REMARK    4  A    between atoms: C13_18  and  O2_19 
REMARK    5  A    between atoms: C15_22  and  O3_23 
ROOT
HETATM    1  C6  UNL     1      66.904  37.820  24.287  1.00  0.00     0.027 A 
HETATM    2  C7  UNL     1      66.976  38.078  22.925  1.00  0.00     0.035 A 
HETATM    3  C8  UNL     1      66.376  37.330  21.795  1.00  0.00     0.070 C 
HETATM    4  N1  UNL     1      67.720  39.175  22.817  1.00  0.00    -0.304 N 
ATOM      5  H1  UNL     1      67.963  39.630  21.937  1.00  0.00     0.186 HD
HETATM    6  N2  UNL     1      68.105  39.600  24.032  1.00  0.00    -0.299 N 
ATOM      7  H2  UNL     1      68.683  40.420  24.217  1.00  0.00     0.187 HD
HETATM    8  C9  UNL     1      67.607  38.769  24.962  1.00  0.00     0.074 A 
ENDROOT
BRANCH   8   9
HETATM    9  C10 UNL     1      67.774  38.850  26.400  1.00  0.00     0.026 A 
HETATM   10  C11 UNL     1      68.659  37.975  27.012  1.00  0.00     0.019 A 
HETATM   11  C12 UNL     1      68.846  38.026  28.394  1.00  0.00     0.037 A 
HETATM   12  C13 UNL     1      68.173  38.923  29.163  1.00  0.00     0.068 A 
HETATM   13  C14 UNL     1      67.289  39.805  28.586  1.00  0.00     0.074 A 
HETATM   14  C15 UNL     1      67.113  39.744  27.215  1.00  0.00     0.081 A 
BRANCH  12  15
HETATM   15  O2  UNL     1      68.358  38.974  30.538  1.00  0.00    -0.361 OA
ATOM     16  H2  UNL     1      69.195  39.221  30.913  1.00  0.00     0.217 HD
ENDBRANCH  12  15
BRANCH  14  17
HETATM   17  O3  UNL     1      66.225  40.620  26.583  1.00  0.00    -0.360 OA
ATOM     18  H3  UNL     1      65.828  40.308  25.778  1.00  0.00     0.217 HD
ENDBRANCH  14  17
ENDBRANCH   8   9
BRANCH   1  19
HETATM   19  C5  UNL     1      66.182  36.700  24.849  1.00  0.00    -0.021 A 
HETATM   20  C4  UNL     1      66.821  35.496  25.125  1.00  0.00     0.015 A 
HETATM   21  C3  UNL     1      66.187  34.409  25.655  1.00  0.00     0.037 A 
HETATM   22  C2  UNL     1      64.838  34.511  25.934  1.00  0.00     0.068 A 
HETATM   23  C17 UNL     1      64.155  35.668  25.685  1.00  0.00     0.037 A 
HETATM   24  C16 UNL     1      64.833  36.761  25.142  1.00  0.00     0.015 A 
BRANCH  22  25
HETATM   25  O1  UNL     1      64.220  33.397  26.471  1.00  0.00    -0.356 OA
HETATM   26  C1  UNL     1      62.899  33.393  26.945  1.00  0.00     0.210 C 
ENDBRANCH  22  25
ENDBRANCH   1  19
TORSDOF 5
ENDMDL
