MODEL 3
REMARK VINA RESULT: -8.166302088      0.992      1.430
REMARK  5 active torsions:
REMARK  status: ('A' for Active; 'I' for Inactive)
REMARK    1  A    between atoms: O1_2  and  C2_3 
REMARK    2  A    between atoms: C5_6  and  C6_7 
REMARK    3  A    between atoms: C9_14  and  C10_15 
REMARK    4  A    between atoms: C13_18  and  O2_19 
REMARK    5  A    between atoms: C15_22  and  O3_23 
ROOT
HETATM    1  C6  UNL     1      64.643  36.136  24.204  1.00  0.00     0.027 A 
HETATM    2  C7  UNL     1      64.408  36.616  22.923  1.00  0.00     0.035 A 
HETATM    3  C8  UNL     1      64.871  37.874  22.292  1.00  0.00     0.070 C 
HETATM    4  N1  UNL     1      63.653  35.691  22.338  1.00  0.00    -0.304 N 
ATOM      5  H1  UNL     1      63.304  35.743  21.380  1.00  0.00     0.186 HD
HETATM    6  N2  UNL     1      63.414  34.677  23.186  1.00  0.00    -0.299 N 
ATOM      7  H2  UNL     1      62.860  33.846  22.977  1.00  0.00     0.187 HD
HETATM    8  C9  UNL     1      64.022  34.935  24.356  1.00  0.00     0.074 A 
ENDROOT
BRANCH   8   9
HETATM    9  C10 UNL     1      64.028  34.112  25.550  1.00  0.00     0.026 A 
HETATM   10  C11 UNL     1      62.851  33.991  26.273  1.00  0.00     0.019 A 
HETATM   11  C12 UNL     1      62.820  33.206  27.426  1.00  0.00     0.037 A 
HETATM   12  C13 UNL     1      63.928  32.550  27.862  1.00  0.00     0.068 A 
HETATM   13  C14 UNL     1      65.111  32.650  27.167  1.00  0.00     0.074 A 
HETATM   14  C15 UNL     1      65.129  33.431  26.025  1.00  0.00     0.081 A 
BRANCH  12  15
HETATM   15  O2  UNL     1      63.898  31.769  29.009  1.00  0.00    -0.361 OA
ATOM     16  H2  UNL     1      63.076  31.468  29.379  1.00  0.00     0.217 HD
ENDBRANCH  12  15
BRANCH  14  17
HETATM   17  O3  UNL     1      66.307  33.564  25.285  1.00  0.00    -0.360 OA
ATOM     18  H3  UNL     1      67.056  33.066  25.592  1.00  0.00     0.217 HD
ENDBRANCH  14  17
ENDBRANCH   8   9
BRANCH   1  19
HETATM   19  C5  UNL     1      65.431  36.844  25.188  1.00  0.00    -0.021 A 
HETATM   20  C4  UNL     1      64.839  37.728  26.084  1.00  0.00     0.015 A 
HETATM   21  C3  UNL     1      65.537  38.421  27.033  1.00  0.00     0.037 A 
HETATM   22  C2  UNL     1      66.903  38.234  27.106  1.00  0.00     0.068 A 
HETATM   23  C17 UNL     1      67.542  37.379  26.252  1.00  0.00     0.037 A 
HETATM   24  C16 UNL     1      66.800  36.686  25.294  1.00  0.00     0.015 A 
BRANCH  22  25
HETATM   25  O1  UNL     1      67.586  38.947  28.074  1.00  0.00    -0.356 OA
HETATM   26  C1  UNL     1      68.823  38.551  28.604  1.00  0.00     0.210 C 
ENDBRANCH  22  25
ENDBRANCH   1  19
TORSDOF 5
ENDMDL
