MODEL 2
REMARK VINA RESULT: -8.767554945      0.482      1.119
REMARK  5 active torsions:
REMARK  status: ('A' for Active; 'I' for Inactive)
REMARK    1  A    between atoms: O1_2  and  C2_3 
REMARK    2  A    between atoms: C5_6  and  C6_7 
REMARK    3  A    between atoms: C9_14  and  C10_15 
REMARK    4  A    between atoms: C13_18  and  O2_19 
REMARK    5  A    between atoms: C15_22  and  O3_23 
ROOT
HETATM    1  C6  UNL     1      64.657  36.233  24.113  1.00  0.00     0.027 A 
HETATM    2  C7  UNL     1      64.346  36.761  22.867  1.00  0.00     0.035 A 
HETATM    3  C8  UNL     1      64.761  38.048  22.263  1.00  0.00     0.070 C 
HETATM    4  N1  UNL     1      63.567  35.851  22.289  1.00  0.00    -0.304 N 
ATOM      5  H1  UNL     1      63.164  35.938  21.356  1.00  0.00     0.186 HD
HETATM    6  N2  UNL     1      63.385  34.802  23.108  1.00  0.00    -0.299 N 
ATOM      7  H2  UNL     1      62.828  33.975  22.897  1.00  0.00     0.187 HD
HETATM    8  C9  UNL     1      64.057  35.020  24.251  1.00  0.00     0.074 A 
ENDROOT
BRANCH   8   9
HETATM    9  C10 UNL     1      64.138  34.150  25.408  1.00  0.00     0.026 A 
HETATM   10  C11 UNL     1      65.368  33.597  25.732  1.00  0.00     0.019 A 
HETATM   11  C12 UNL     1      65.484  32.756  26.839  1.00  0.00     0.037 A 
HETATM   12  C13 UNL     1      64.407  32.463  27.617  1.00  0.00     0.068 A 
HETATM   13  C14 UNL     1      63.174  32.997  27.322  1.00  0.00     0.074 A 
HETATM   14  C15 UNL     1      63.072  33.829  26.221  1.00  0.00     0.081 A 
BRANCH  12  15
HETATM   15  O2  UNL     1      64.521  31.626  28.718  1.00  0.00    -0.361 OA
ATOM     16  H2  UNL     1      63.796  31.502  29.320  1.00  0.00     0.217 HD
ENDBRANCH  12  15
BRANCH  14  17
HETATM   17  O3  UNL     1      61.840  34.395  25.882  1.00  0.00    -0.360 OA
ATOM     18  H3  UNL     1      61.848  35.318  25.660  1.00  0.00     0.217 HD
ENDBRANCH  14  17
ENDBRANCH   8   9
BRANCH   1  19
HETATM   19  C5  UNL     1      65.494  36.910  25.078  1.00  0.00    -0.021 A 
HETATM   20  C4  UNL     1      66.880  36.801  25.034  1.00  0.00     0.015 A 
HETATM   21  C3  UNL     1      67.715  37.420  25.920  1.00  0.00     0.037 A 
HETATM   22  C2  UNL     1      67.153  38.196  26.915  1.00  0.00     0.068 A 
HETATM   23  C17 UNL     1      65.797  38.342  27.011  1.00  0.00     0.037 A 
HETATM   24  C16 UNL     1      64.972  37.696  26.088  1.00  0.00     0.015 A 
BRANCH  22  25
HETATM   25  O1  UNL     1      68.019  38.812  27.798  1.00  0.00    -0.356 OA
HETATM   26  C1  UNL     1      68.502  40.118  27.632  1.00  0.00     0.210 C 
ENDBRANCH  22  25
ENDBRANCH   1  19
TORSDOF 5
ENDMDL
