MODEL 4
REMARK VINA RESULT: -8.139007568      1.029      1.773
REMARK  5 active torsions:
REMARK  status: ('A' for Active; 'I' for Inactive)
REMARK    1  A    between atoms: O1_2  and  C2_3 
REMARK    2  A    between atoms: C5_6  and  C6_7 
REMARK    3  A    between atoms: C9_14  and  C10_15 
REMARK    4  A    between atoms: C13_18  and  O2_19 
REMARK    5  A    between atoms: C15_22  and  O3_23 
ROOT
HETATM    1  C6  UNL     1      64.659  36.146  24.223  1.00  0.00     0.027 A 
HETATM    2  C7  UNL     1      64.421  36.632  22.945  1.00  0.00     0.035 A 
HETATM    3  C8  UNL     1      64.887  37.891  22.318  1.00  0.00     0.070 C 
HETATM    4  N1  UNL     1      63.661  35.711  22.359  1.00  0.00    -0.304 N 
ATOM      5  H1  UNL     1      63.310  35.769  21.403  1.00  0.00     0.186 HD
HETATM    6  N2  UNL     1      63.421  34.695  23.204  1.00  0.00    -0.299 N 
ATOM      7  H2  UNL     1      62.864  33.867  22.993  1.00  0.00     0.187 HD
HETATM    8  C9  UNL     1      64.035  34.947  24.373  1.00  0.00     0.074 A 
ENDROOT
BRANCH   8   9
HETATM    9  C10 UNL     1      64.042  34.119  25.563  1.00  0.00     0.026 A 
HETATM   10  C11 UNL     1      62.864  33.991  26.284  1.00  0.00     0.019 A 
HETATM   11  C12 UNL     1      62.834  33.201  27.434  1.00  0.00     0.037 A 
HETATM   12  C13 UNL     1      63.944  32.547  27.869  1.00  0.00     0.068 A 
HETATM   13  C14 UNL     1      65.127  32.653  27.176  1.00  0.00     0.074 A 
HETATM   14  C15 UNL     1      65.144  33.440  26.037  1.00  0.00     0.081 A 
BRANCH  12  15
HETATM   15  O2  UNL     1      63.915  31.762  29.013  1.00  0.00    -0.361 OA
ATOM     16  H2  UNL     1      63.216  31.136  29.163  1.00  0.00     0.217 HD
ENDBRANCH  12  15
BRANCH  14  17
HETATM   17  O3  UNL     1      66.323  33.579  25.299  1.00  0.00    -0.360 OA
ATOM     18  H3  UNL     1      66.502  34.444  24.951  1.00  0.00     0.217 HD
ENDBRANCH  14  17
ENDBRANCH   8   9
BRANCH   1  19
HETATM   19  C5  UNL     1      65.452  36.848  25.208  1.00  0.00    -0.021 A 
HETATM   20  C4  UNL     1      66.832  36.683  25.271  1.00  0.00     0.015 A 
HETATM   21  C3  UNL     1      67.628  37.322  26.180  1.00  0.00     0.037 A 
HETATM   22  C2  UNL     1      67.030  38.178  27.084  1.00  0.00     0.068 A 
HETATM   23  C17 UNL     1      65.678  38.381  27.072  1.00  0.00     0.037 A 
HETATM   24  C16 UNL     1      64.893  37.712  26.130  1.00  0.00     0.015 A 
BRANCH  22  25
HETATM   25  O1  UNL     1      67.856  38.812  27.993  1.00  0.00    -0.356 OA
HETATM   26  C1  UNL     1      69.180  39.182  27.714  1.00  0.00     0.210 C 
ENDBRANCH  22  25
ENDBRANCH   1  19
TORSDOF 5
ENDMDL
