MODEL 1
REMARK VINA RESULT: -9.021124937      0.000      0.000
REMARK  5 active torsions:
REMARK  status: ('A' for Active; 'I' for Inactive)
REMARK    1  A    between atoms: O1_2  and  C2_3 
REMARK    2  A    between atoms: C5_6  and  C6_7 
REMARK    3  A    between atoms: C9_14  and  C10_15 
REMARK    4  A    between atoms: C13_18  and  O2_19 
REMARK    5  A    between atoms: C15_22  and  O3_23 
ROOT
HETATM    1  C6  UNL     1      64.606  36.108  24.158  1.00  0.00     0.027 A 
HETATM    2  C7  UNL     1      64.309  36.601  22.894  1.00  0.00     0.035 A 
HETATM    3  C8  UNL     1      64.746  37.862  22.252  1.00  0.00     0.070 C 
HETATM    4  N1  UNL     1      63.519  35.684  22.341  1.00  0.00    -0.304 N 
ATOM      5  H1  UNL     1      63.123  35.747  21.403  1.00  0.00     0.186 HD
HETATM    6  N2  UNL     1      63.319  34.664  23.192  1.00  0.00    -0.299 N 
ATOM      7  H2  UNL     1      62.750  33.838  23.004  1.00  0.00     0.187 HD
HETATM    8  C9  UNL     1      63.988  34.909  24.331  1.00  0.00     0.074 A 
ENDROOT
BRANCH   8   9
HETATM    9  C10 UNL     1      64.051  34.075  25.515  1.00  0.00     0.026 A 
HETATM   10  C11 UNL     1      65.240  33.419  25.797  1.00  0.00     0.019 A 
HETATM   11  C12 UNL     1      65.337  32.608  26.929  1.00  0.00     0.037 A 
HETATM   12  C13 UNL     1      64.281  32.445  27.771  1.00  0.00     0.068 A 
HETATM   13  C14 UNL     1      63.088  33.083  27.519  1.00  0.00     0.074 A 
HETATM   14  C15 UNL     1      63.005  33.883  26.394  1.00  0.00     0.081 A 
BRANCH  12  15
HETATM   15  O2  UNL     1      64.377  31.639  28.897  1.00  0.00    -0.361 OA
ATOM     16  H2  UNL     1      63.707  31.653  29.571  1.00  0.00     0.217 HD
ENDBRANCH  12  15
BRANCH  14  17
HETATM   17  O3  UNL     1      61.814  34.551  26.095  1.00  0.00    -0.360 OA
ATOM     18  H3  UNL     1      61.217  34.105  25.507  1.00  0.00     0.217 HD
ENDBRANCH  14  17
ENDBRANCH   8   9
BRANCH   1  19
HETATM   19  C5  UNL     1      65.447  36.803  25.106  1.00  0.00    -0.021 A 
HETATM   20  C4  UNL     1      64.908  37.684  26.038  1.00  0.00     0.015 A 
HETATM   21  C3  UNL     1      65.656  38.365  26.955  1.00  0.00     0.037 A 
HETATM   22  C2  UNL     1      67.023  38.169  26.959  1.00  0.00     0.068 A 
HETATM   23  C17 UNL     1      67.613  37.316  26.067  1.00  0.00     0.037 A 
HETATM   24  C16 UNL     1      66.819  36.635  25.143  1.00  0.00     0.015 A 
BRANCH  22  25
HETATM   25  O1  UNL     1      67.758  38.869  27.896  1.00  0.00    -0.356 OA
HETATM   26  C1  UNL     1      68.826  38.317  28.619  1.00  0.00     0.210 C 
ENDBRANCH  22  25
ENDBRANCH   1  19
TORSDOF 5
ENDMDL
