MODEL 6
REMARK VINA RESULT: -6.556157821      2.883      5.705
REMARK  5 active torsions:
REMARK  status: ('A' for Active; 'I' for Inactive)
REMARK    1  A    between atoms: O1_2  and  C2_3 
REMARK    2  A    between atoms: C5_6  and  C6_7 
REMARK    3  A    between atoms: C9_14  and  C10_15 
REMARK    4  A    between atoms: C13_18  and  O2_19 
REMARK    5  A    between atoms: C15_22  and  O3_23 
ROOT
HETATM    1  C6  UNL     1      64.889  36.362  24.189  1.00  0.00     0.027 A 
HETATM    2  C7  UNL     1      63.958  35.338  24.082  1.00  0.00     0.035 A 
HETATM    3  C8  UNL     1      63.330  34.764  22.869  1.00  0.00     0.070 C 
HETATM    4  N1  UNL     1      63.724  34.949  25.332  1.00  0.00    -0.304 N 
ATOM      5  H1  UNL     1      63.080  34.205  25.599  1.00  0.00     0.186 HD
HETATM    6  N2  UNL     1      64.456  35.675  26.193  1.00  0.00    -0.299 N 
ATOM      7  H2  UNL     1      64.455  35.570  27.208  1.00  0.00     0.187 HD
HETATM    8  C9  UNL     1      65.190  36.562  25.501  1.00  0.00     0.074 A 
ENDROOT
BRANCH   8   9
HETATM    9  C10 UNL     1      66.120  37.542  26.027  1.00  0.00     0.026 A 
HETATM   10  C11 UNL     1      65.683  38.848  26.186  1.00  0.00     0.019 A 
HETATM   11  C12 UNL     1      66.550  39.817  26.691  1.00  0.00     0.037 A 
HETATM   12  C13 UNL     1      67.829  39.507  27.035  1.00  0.00     0.068 A 
HETATM   13  C14 UNL     1      68.293  38.220  26.891  1.00  0.00     0.074 A 
HETATM   14  C15 UNL     1      67.423  37.269  26.388  1.00  0.00     0.081 A 
BRANCH  12  15
HETATM   15  O2  UNL     1      68.693  40.471  27.537  1.00  0.00    -0.361 OA
ATOM     16  H2  UNL     1      69.287  40.275  28.252  1.00  0.00     0.217 HD
ENDBRANCH  12  15
BRANCH  14  17
HETATM   17  O3  UNL     1      67.848  35.948  26.223  1.00  0.00    -0.360 OA
ATOM     18  H3  UNL     1      68.772  35.781  26.370  1.00  0.00     0.217 HD
ENDBRANCH  14  17
ENDBRANCH   8   9
BRANCH   1  19
HETATM   19  C5  UNL     1      65.423  37.076  23.051  1.00  0.00    -0.021 A 
HETATM   20  C4  UNL     1      64.616  37.899  22.273  1.00  0.00     0.015 A 
HETATM   21  C3  UNL     1      65.069  38.595  21.188  1.00  0.00     0.037 A 
HETATM   22  C2  UNL     1      66.402  38.476  20.846  1.00  0.00     0.068 A 
HETATM   23  C17 UNL     1      67.246  37.682  21.572  1.00  0.00     0.037 A 
HETATM   24  C16 UNL     1      66.750  36.984  22.675  1.00  0.00     0.015 A 
BRANCH  22  25
HETATM   25  O1  UNL     1      66.836  39.190  19.745  1.00  0.00    -0.356 OA
HETATM   26  C1  UNL     1      65.977  39.880  18.877  1.00  0.00     0.210 C 
ENDBRANCH  22  25
ENDBRANCH   1  19
TORSDOF 5
ENDMDL
