MODEL 5
REMARK VINA RESULT: -7.141618427      1.598      5.232
REMARK  5 active torsions:
REMARK  status: ('A' for Active; 'I' for Inactive)
REMARK    1  A    between atoms: O1_2  and  C2_3 
REMARK    2  A    between atoms: C5_6  and  C6_7 
REMARK    3  A    between atoms: C9_14  and  C10_15 
REMARK    4  A    between atoms: C13_18  and  O2_19 
REMARK    5  A    between atoms: C15_22  and  O3_23 
ROOT
HETATM    1  C6  UNL     1      64.830  36.500  24.303  1.00  0.00     0.027 A 
HETATM    2  C7  UNL     1      64.185  36.583  23.077  1.00  0.00     0.035 A 
HETATM    3  C8  UNL     1      63.351  35.573  22.384  1.00  0.00     0.070 C 
HETATM    4  N1  UNL     1      64.469  37.798  22.616  1.00  0.00    -0.304 N 
ATOM      5  H1  UNL     1      64.141  38.175  21.727  1.00  0.00     0.186 HD
HETATM    6  N2  UNL     1      65.248  38.459  23.489  1.00  0.00    -0.299 N 
ATOM      7  H2  UNL     1      65.603  39.407  23.367  1.00  0.00     0.187 HD
HETATM    8  C9  UNL     1      65.485  37.666  24.548  1.00  0.00     0.074 A 
ENDROOT
BRANCH   8   9
HETATM    9  C10 UNL     1      66.276  37.975  25.723  1.00  0.00     0.026 A 
HETATM   10  C11 UNL     1      65.634  38.522  26.825  1.00  0.00     0.019 A 
HETATM   11  C12 UNL     1      66.363  38.831  27.973  1.00  0.00     0.037 A 
HETATM   12  C13 UNL     1      67.703  38.606  28.039  1.00  0.00     0.068 A 
HETATM   13  C14 UNL     1      68.368  38.065  26.964  1.00  0.00     0.074 A 
HETATM   14  C15 UNL     1      67.634  37.763  25.831  1.00  0.00     0.081 A 
BRANCH  12  15
HETATM   15  O2  UNL     1      68.429  38.914  29.181  1.00  0.00    -0.361 OA
ATOM     16  H2  UNL     1      69.251  38.479  29.374  1.00  0.00     0.217 HD
ENDBRANCH  12  15
BRANCH  14  17
HETATM   17  O3  UNL     1      68.265  37.212  24.712  1.00  0.00    -0.360 OA
ATOM     18  H3  UNL     1      69.215  37.191  24.732  1.00  0.00     0.217 HD
ENDBRANCH  14  17
ENDBRANCH   8   9
BRANCH   1  19
HETATM   19  C5  UNL     1      64.782  35.329  25.150  1.00  0.00    -0.021 A 
HETATM   20  C4  UNL     1      63.601  34.936  25.771  1.00  0.00     0.015 A 
HETATM   21  C3  UNL     1      63.501  33.839  26.579  1.00  0.00     0.037 A 
HETATM   22  C2  UNL     1      64.635  33.079  26.792  1.00  0.00     0.068 A 
HETATM   23  C17 UNL     1      65.826  33.414  26.210  1.00  0.00     0.037 A 
HETATM   24  C16 UNL     1      65.893  34.542  25.389  1.00  0.00     0.015 A 
BRANCH  22  25
HETATM   25  O1  UNL     1      64.508  31.974  27.613  1.00  0.00    -0.356 OA
HETATM   26  C1  UNL     1      64.039  32.036  28.934  1.00  0.00     0.210 C 
ENDBRANCH  22  25
ENDBRANCH   1  19
TORSDOF 5
ENDMDL
