MODEL 4
REMARK VINA RESULT: -7.901775424      2.518      5.375
REMARK  5 active torsions:
REMARK  status: ('A' for Active; 'I' for Inactive)
REMARK    1  A    between atoms: C2_2  and  C3_3 
REMARK    2  A    between atoms: C5_5  and  C6_6 
REMARK    3  A    between atoms: C9_13  and  C10_14 
REMARK    4  A    between atoms: C16_21  and  O1_22 
REMARK    5  A    between atoms: C18_25  and  O2_26 
ROOT
HETATM    1  C6  UNL     1      63.956  34.190  25.753  1.00  0.00     0.074 A 
HETATM    2  N1  UNL     1      62.659  34.232  26.111  1.00  0.00    -0.299 N 
ATOM      3  H1  UNL     1      61.972  34.887  25.739  1.00  0.00     0.187 HD
HETATM    4  N2  UNL     1      62.404  33.302  27.017  1.00  0.00    -0.304 N 
ATOM      5  H2  UNL     1      61.492  33.138  27.443  1.00  0.00     0.186 HD
HETATM    6  C7  UNL     1      63.523  32.604  27.295  1.00  0.00     0.035 A 
HETATM    7  C8  UNL     1      63.727  31.474  28.238  1.00  0.00     0.070 C 
HETATM    8  C9  UNL     1      64.510  33.168  26.492  1.00  0.00     0.030 A 
ENDROOT
BRANCH   1   9
HETATM    9  C5  UNL     1      64.669  35.024  24.793  1.00  0.00     0.027 A 
HETATM   10  C4  UNL     1      65.776  35.774  25.168  1.00  0.00     0.026 A 
HETATM   11  C3  UNL     1      66.447  36.564  24.240  1.00  0.00    -0.024 A 
HETATM   12  C18 UNL     1      66.035  36.628  22.927  1.00  0.00     0.074 A 
HETATM   13  C17 UNL     1      64.940  35.892  22.533  1.00  0.00     0.074 A 
HETATM   14  C16 UNL     1      64.283  35.109  23.470  1.00  0.00     0.081 A 
BRANCH  11  15
HETATM   15  C2  UNL     1      67.620  37.354  24.658  1.00  0.00     0.037 C 
HETATM   16  C1  UNL     1      67.979  37.120  26.113  1.00  0.00     0.010 C 
ENDBRANCH  11  15
BRANCH  12  17
HETATM   17  O2  UNL     1      66.745  37.433  22.050  1.00  0.00    -0.360 OA
ATOM     18  H2  UNL     1      66.355  37.642  21.209  1.00  0.00     0.217 HD
ENDBRANCH  12  17
BRANCH  14  19
HETATM   19  O1  UNL     1      63.190  34.382  23.053  1.00  0.00    -0.360 OA
ATOM     20  H1  UNL     1      62.933  34.430  22.140  1.00  0.00     0.217 HD
ENDBRANCH  14  19
ENDBRANCH   1   9
BRANCH   8  21
HETATM   21  C10 UNL     1      65.907  32.761  26.427  1.00  0.00     0.017 A 
HETATM   22  C11 UNL     1      66.901  33.618  26.855  1.00  0.00     0.015 A 
HETATM   23  C12 UNL     1      68.227  33.290  26.816  1.00  0.00     0.001 A 
HETATM   24  C13 UNL     1      68.588  32.045  26.326  1.00  0.00     0.003 A 
HETATM   25  C14 UNL     1      67.618  31.175  25.895  1.00  0.00     0.043 A 
HETATM   26  C15 UNL     1      66.282  31.517  25.939  1.00  0.00     0.127 A 
HETATM   27  F1  UNL     1      65.358  30.636  25.507  1.00  0.00    -0.205 F 
ENDBRANCH   8  21
TORSDOF 5
ENDMDL
