MODEL 2
REMARK VINA RESULT: -9.736579169      1.093      1.408
REMARK  5 active torsions:
REMARK  status: ('A' for Active; 'I' for Inactive)
REMARK    1  A    between atoms: C2_2  and  C3_3 
REMARK    2  A    between atoms: C5_5  and  C6_6 
REMARK    3  A    between atoms: C9_13  and  C10_14 
REMARK    4  A    between atoms: C16_21  and  O1_22 
REMARK    5  A    between atoms: C18_25  and  O2_26 
ROOT
HETATM    1  C6  UNL     1      64.334  34.660  24.235  1.00  0.00     0.074 A 
HETATM    2  N1  UNL     1      63.706  34.465  23.061  1.00  0.00    -0.299 N 
ATOM      3  H1  UNL     1      63.126  33.657  22.837  1.00  0.00     0.187 HD
HETATM    4  N2  UNL     1      63.950  35.472  22.239  1.00  0.00    -0.304 N 
ATOM      5  H2  UNL     1      63.585  35.551  21.290  1.00  0.00     0.186 HD
HETATM    6  C7  UNL     1      64.750  36.378  22.836  1.00  0.00     0.035 A 
HETATM    7  C8  UNL     1      65.288  37.660  22.313  1.00  0.00     0.070 C 
HETATM    8  C9  UNL     1      64.995  35.862  24.105  1.00  0.00     0.030 A 
ENDROOT
BRANCH   1   9
HETATM    9  C5  UNL     1      64.344  33.813  25.422  1.00  0.00     0.027 A 
HETATM   10  C4  UNL     1      65.440  33.020  25.736  1.00  0.00     0.026 A 
HETATM   11  C3  UNL     1      65.435  32.217  26.872  1.00  0.00    -0.024 A 
HETATM   12  C18 UNL     1      64.347  32.182  27.716  1.00  0.00     0.074 A 
HETATM   13  C17 UNL     1      63.249  32.960  27.424  1.00  0.00     0.074 A 
HETATM   14  C16 UNL     1      63.271  33.754  26.287  1.00  0.00     0.081 A 
BRANCH  11  15
HETATM   15  C2  UNL     1      66.610  31.383  27.188  1.00  0.00     0.037 C 
HETATM   16  C1  UNL     1      67.154  30.672  25.964  1.00  0.00     0.010 C 
ENDBRANCH  11  15
BRANCH  12  17
HETATM   17  O2  UNL     1      64.403  31.362  28.832  1.00  0.00    -0.360 OA
ATOM     18  H2  UNL     1      64.352  30.422  28.707  1.00  0.00     0.217 HD
ENDBRANCH  12  17
BRANCH  14  19
HETATM   19  O1  UNL     1      62.161  34.523  26.015  1.00  0.00    -0.360 OA
ATOM     20  H1  UNL     1      61.335  34.290  26.421  1.00  0.00     0.217 HD
ENDBRANCH  14  19
ENDBRANCH   1   9
BRANCH   8  21
HETATM   21  C10 UNL     1      65.813  36.475  25.143  1.00  0.00     0.017 A 
HETATM   22  C11 UNL     1      67.050  35.948  25.455  1.00  0.00     0.015 A 
HETATM   23  C12 UNL     1      67.859  36.481  26.419  1.00  0.00     0.001 A 
HETATM   24  C13 UNL     1      67.417  37.596  27.113  1.00  0.00     0.003 A 
HETATM   25  C14 UNL     1      66.191  38.139  26.821  1.00  0.00     0.043 A 
HETATM   26  C15 UNL     1      65.382  37.593  25.845  1.00  0.00     0.127 A 
HETATM   27  F1  UNL     1      64.184  38.154  25.586  1.00  0.00    -0.205 F 
ENDBRANCH   8  21
TORSDOF 5
ENDMDL
