MODEL 6
REMARK VINA RESULT: -6.953813909      3.242      6.063
REMARK  5 active torsions:
REMARK  status: ('A' for Active; 'I' for Inactive)
REMARK    1  A    between atoms: C2_2  and  C3_3 
REMARK    2  A    between atoms: C5_5  and  C6_6 
REMARK    3  A    between atoms: C9_13  and  C10_14 
REMARK    4  A    between atoms: C16_21  and  O1_22 
REMARK    5  A    between atoms: C18_25  and  O2_26 
ROOT
HETATM    1  C6  UNL     1      67.585  34.419  26.493  1.00  0.00     0.074 A 
HETATM    2  N1  UNL     1      68.775  33.835  26.728  1.00  0.00    -0.299 N 
ATOM      3  H1  UNL     1      69.633  34.334  26.961  1.00  0.00     0.187 HD
HETATM    4  N2  UNL     1      68.671  32.522  26.612  1.00  0.00    -0.304 N 
ATOM      5  H2  UNL     1      69.439  31.863  26.743  1.00  0.00     0.186 HD
HETATM    6  C7  UNL     1      67.406  32.180  26.297  1.00  0.00     0.035 A 
HETATM    7  C8  UNL     1      66.814  30.837  26.067  1.00  0.00     0.070 C 
HETATM    8  C9  UNL     1      66.715  33.385  26.221  1.00  0.00     0.030 A 
ENDROOT
BRANCH   1   9
HETATM    9  C5  UNL     1      67.239  35.835  26.513  1.00  0.00     0.027 A 
HETATM   10  C4  UNL     1      66.224  36.343  25.712  1.00  0.00     0.026 A 
HETATM   11  C3  UNL     1      65.904  37.696  25.742  1.00  0.00    -0.024 A 
HETATM   12  C18 UNL     1      66.581  38.571  26.563  1.00  0.00     0.074 A 
HETATM   13  C17 UNL     1      67.591  38.090  27.366  1.00  0.00     0.074 A 
HETATM   14  C16 UNL     1      67.896  36.738  27.324  1.00  0.00     0.081 A 
BRANCH  11  15
HETATM   15  C2  UNL     1      64.823  38.216  24.883  1.00  0.00     0.037 C 
HETATM   16  C1  UNL     1      64.854  37.609  23.494  1.00  0.00     0.010 C 
ENDBRANCH  11  15
BRANCH  12  17
HETATM   17  O2  UNL     1      66.215  39.908  26.548  1.00  0.00    -0.360 OA
ATOM     18  H2  UNL     1      65.312  40.129  26.354  1.00  0.00     0.217 HD
ENDBRANCH  12  17
BRANCH  14  19
HETATM   19  O1  UNL     1      68.910  36.279  28.135  1.00  0.00    -0.360 OA
ATOM     20  H1  UNL     1      69.546  36.902  28.465  1.00  0.00     0.217 HD
ENDBRANCH  14  19
ENDBRANCH   1   9
BRANCH   8  21
HETATM   21  C10 UNL     1      65.302  33.553  25.906  1.00  0.00     0.017 A 
HETATM   22  C11 UNL     1      64.918  34.037  24.673  1.00  0.00     0.015 A 
HETATM   23  C12 UNL     1      63.608  34.215  24.324  1.00  0.00     0.001 A 
HETATM   24  C13 UNL     1      62.627  33.896  25.249  1.00  0.00     0.003 A 
HETATM   25  C14 UNL     1      62.984  33.413  26.482  1.00  0.00     0.043 A 
HETATM   26  C15 UNL     1      64.309  33.237  26.824  1.00  0.00     0.127 A 
HETATM   27  F1  UNL     1      64.621  32.760  28.045  1.00  0.00    -0.205 F 
ENDBRANCH   8  21
TORSDOF 5
ENDMDL
