MODEL 1
REMARK VINA RESULT: -9.751879798      0.000      0.000
REMARK  5 active torsions:
REMARK  status: ('A' for Active; 'I' for Inactive)
REMARK    1  A    between atoms: C2_2  and  C3_3 
REMARK    2  A    between atoms: C5_5  and  C6_6 
REMARK    3  A    between atoms: C9_13  and  C10_14 
REMARK    4  A    between atoms: C16_21  and  O1_22 
REMARK    5  A    between atoms: C18_25  and  O2_26 
ROOT
HETATM    1  C6  UNL     1      64.365  34.846  24.038  1.00  0.00     0.074 A 
HETATM    2  N1  UNL     1      63.645  34.643  22.919  1.00  0.00    -0.299 N 
ATOM      3  H1  UNL     1      63.092  33.809  22.725  1.00  0.00     0.187 HD
HETATM    4  N2  UNL     1      63.758  35.681  22.108  1.00  0.00    -0.304 N 
ATOM      5  H2  UNL     1      63.304  35.762  21.198  1.00  0.00     0.186 HD
HETATM    6  C7  UNL     1      64.557  36.618  22.657  1.00  0.00     0.035 A 
HETATM    7  C8  UNL     1      64.974  37.941  22.126  1.00  0.00     0.070 C 
HETATM    8  C9  UNL     1      64.944  36.088  23.884  1.00  0.00     0.030 A 
ENDROOT
BRANCH   1   9
HETATM    9  C5  UNL     1      64.529  33.973  25.194  1.00  0.00     0.027 A 
HETATM   10  C4  UNL     1      65.750  33.379  25.485  1.00  0.00     0.026 A 
HETATM   11  C3  UNL     1      65.891  32.549  26.593  1.00  0.00    -0.024 A 
HETATM   12  C18 UNL     1      64.829  32.291  27.430  1.00  0.00     0.074 A 
HETATM   13  C17 UNL     1      63.609  32.869  27.161  1.00  0.00     0.074 A 
HETATM   14  C16 UNL     1      63.485  33.694  26.054  1.00  0.00     0.081 A 
BRANCH  11  15
HETATM   15  C2  UNL     1      67.197  31.928  26.884  1.00  0.00     0.037 C 
HETATM   16  C1  UNL     1      67.484  30.746  25.979  1.00  0.00     0.010 C 
ENDBRANCH  11  15
BRANCH  12  17
HETATM   17  O2  UNL     1      65.033  31.455  28.518  1.00  0.00    -0.360 OA
ATOM     18  H2  UNL     1      64.729  31.740  29.371  1.00  0.00     0.217 HD
ENDBRANCH  12  17
BRANCH  14  19
HETATM   19  O1  UNL     1      62.256  34.262  25.804  1.00  0.00    -0.360 OA
ATOM     20  H1  UNL     1      62.108  35.162  26.068  1.00  0.00     0.217 HD
ENDBRANCH  14  19
ENDBRANCH   1   9
BRANCH   8  21
HETATM   21  C10 UNL     1      65.818  36.722  24.862  1.00  0.00     0.017 A 
HETATM   22  C11 UNL     1      65.288  37.284  26.006  1.00  0.00     0.015 A 
HETATM   23  C12 UNL     1      66.060  37.892  26.956  1.00  0.00     0.001 A 
HETATM   24  C13 UNL     1      67.431  37.947  26.761  1.00  0.00     0.003 A 
HETATM   25  C14 UNL     1      67.981  37.396  25.632  1.00  0.00     0.043 A 
HETATM   26  C15 UNL     1      67.192  36.784  24.678  1.00  0.00     0.127 A 
HETATM   27  F1  UNL     1      67.769  36.254  23.582  1.00  0.00    -0.205 F 
ENDBRANCH   8  21
TORSDOF 5
ENDMDL
