MODEL 5
REMARK VINA RESULT: -7.517644440      2.945      4.497
REMARK  5 active torsions:
REMARK  status: ('A' for Active; 'I' for Inactive)
REMARK    1  A    between atoms: C2_2  and  C3_3 
REMARK    2  A    between atoms: C5_5  and  C6_6 
REMARK    3  A    between atoms: C9_13  and  C10_14 
REMARK    4  A    between atoms: C16_21  and  O1_22 
REMARK    5  A    between atoms: C18_25  and  O2_26 
ROOT
HETATM    1  C6  UNL     1      67.758  36.352  26.771  1.00  0.00     0.074 A 
HETATM    2  N1  UNL     1      68.454  36.831  27.818  1.00  0.00    -0.299 N 
ATOM      3  H1  UNL     1      68.764  36.277  28.615  1.00  0.00     0.187 HD
HETATM    4  N2  UNL     1      68.679  38.125  27.664  1.00  0.00    -0.304 N 
ATOM      5  H2  UNL     1      69.187  38.712  28.326  1.00  0.00     0.186 HD
HETATM    6  C7  UNL     1      68.141  38.558  26.506  1.00  0.00     0.035 A 
HETATM    7  C8  UNL     1      68.137  39.918  25.910  1.00  0.00     0.070 C 
HETATM    8  C9  UNL     1      67.555  37.431  25.938  1.00  0.00     0.030 A 
ENDROOT
BRANCH   1   9
HETATM    9  C5  UNL     1      67.295  34.992  26.523  1.00  0.00     0.027 A 
HETATM   10  C4  UNL     1      65.992  34.734  26.118  1.00  0.00     0.026 A 
HETATM   11  C3  UNL     1      65.564  33.430  25.884  1.00  0.00    -0.024 A 
HETATM   12  C18 UNL     1      66.416  32.360  26.048  1.00  0.00     0.074 A 
HETATM   13  C17 UNL     1      67.713  32.593  26.450  1.00  0.00     0.074 A 
HETATM   14  C16 UNL     1      68.122  33.898  26.678  1.00  0.00     0.081 A 
BRANCH  11  15
HETATM   15  C2  UNL     1      64.176  33.177  25.454  1.00  0.00     0.037 C 
HETATM   16  C1  UNL     1      63.257  34.341  25.773  1.00  0.00     0.010 C 
ENDBRANCH  11  15
BRANCH  12  17
HETATM   17  O2  UNL     1      65.931  31.086  25.800  1.00  0.00    -0.360 OA
ATOM     18  H2  UNL     1      65.871  30.475  26.525  1.00  0.00     0.217 HD
ENDBRANCH  12  17
BRANCH  14  19
HETATM   19  O1  UNL     1      69.423  34.106  27.079  1.00  0.00    -0.360 OA
ATOM     20  H1  UNL     1      69.823  33.479  27.669  1.00  0.00     0.217 HD
ENDBRANCH  14  19
ENDBRANCH   1   9
BRANCH   8  21
HETATM   21  C10 UNL     1      66.838  37.376  24.671  1.00  0.00     0.017 A 
HETATM   22  C11 UNL     1      67.517  37.118  23.498  1.00  0.00     0.015 A 
HETATM   23  C12 UNL     1      66.897  37.056  22.282  1.00  0.00     0.001 A 
HETATM   24  C13 UNL     1      65.527  37.263  22.226  1.00  0.00     0.003 A 
HETATM   25  C14 UNL     1      64.829  37.521  23.378  1.00  0.00     0.043 A 
HETATM   26  C15 UNL     1      65.466  37.581  24.601  1.00  0.00     0.127 A 
HETATM   27  F1  UNL     1      64.747  37.838  25.711  1.00  0.00    -0.205 F 
ENDBRANCH   8  21
TORSDOF 5
ENDMDL
