MODEL 2
REMARK VINA RESULT: -9.591639082      0.988      1.342
REMARK  7 active torsions:
REMARK  status: ('A' for Active; 'I' for Inactive)
REMARK    1  A    between atoms: O1_1  and  C1_3 
REMARK    2  A    between atoms: C3_5  and  O2_6 
REMARK    3  A    between atoms: C4_8  and  C5_9 
REMARK    4  A    between atoms: N2_14  and  C8_15 
REMARK    5  A    between atoms: C15_23  and  C16_24 
REMARK    6  A    between atoms: C16_24  and  C17_25 
REMARK    7  A    between atoms: C17_25  and  C18_26 
ROOT
HETATM    1  C1  UNL     1      -0.270  33.020  26.483  1.00  0.00     0.074 A 
HETATM    2  C2  UNL     1      -1.374  33.792  26.157  1.00  0.00     0.074 A 
HETATM    3  C3  UNL     1      -1.261  34.685  25.068  1.00  0.00     0.081 A 
HETATM    4  C4  UNL     1      -0.113  34.805  24.339  1.00  0.00     0.026 A 
HETATM    5  C14 UNL     1       0.959  34.001  24.722  1.00  0.00     0.027 A 
HETATM    6  C15 UNL     1       0.902  33.100  25.794  1.00  0.00    -0.021 A 
ENDROOT
BRANCH   4   7
HETATM    7  C5  UNL     1       0.016  35.627  23.149  1.00  0.00     0.071 A 
HETATM    8  C6  UNL     1      -0.862  35.400  22.063  1.00  0.00     0.051 A 
HETATM    9  C7  UNL     1      -0.589  36.339  21.102  1.00  0.00     0.110 A 
HETATM   10  N1  UNL     1       0.383  37.078  21.578  1.00  0.00    -0.304 N 
HETATM   11  N2  UNL     1       0.770  36.672  22.818  1.00  0.00    -0.254 N 
ATOM     12  H1  UNL     1       0.800  37.863  21.079  1.00  0.00     0.186 HD
BRANCH  11  13
HETATM   13  C8  UNL     1       1.767  37.366  23.558  1.00  0.00     0.078 A 
HETATM   14  C9  UNL     1       3.052  36.866  23.620  1.00  0.00     0.033 A 
HETATM   15  C10 UNL     1       4.064  37.546  24.289  1.00  0.00     0.002 A 
HETATM   16  C11 UNL     1       3.797  38.745  24.909  1.00  0.00     0.002 A 
HETATM   17  C12 UNL     1       2.524  39.251  24.854  1.00  0.00     0.026 A 
HETATM   18  C13 UNL     1       1.510  38.571  24.184  1.00  0.00     0.062 A 
HETATM   19 CL1  UNL     1      -0.098  39.267  24.147  1.00  0.00    -0.082 Cl
ENDBRANCH  11  13
ENDBRANCH   4   7
BRANCH   3  20
HETATM   20  O2  UNL     1      -2.380  35.424  24.805  1.00  0.00    -0.360 OA
ATOM     21  H2  UNL     1      -3.161  35.156  25.275  1.00  0.00     0.217 HD
ENDBRANCH   3  20
BRANCH   6  22
HETATM   22  C16 UNL     1       2.090  32.352  26.178  1.00  0.00     0.071 C 
BRANCH  22  23
HETATM   23  C17 UNL     1       2.924  31.722  25.155  1.00  0.00     0.007 C 
BRANCH  23  24
HETATM   24  C18 UNL     1       4.374  31.669  25.252  1.00  0.00     0.028 A 
HETATM   25  C19 UNL     1       4.942  30.444  24.829  1.00  0.00     0.029 A 
HETATM   26  C20 UNL     1       6.301  30.266  24.862  1.00  0.00     0.004 A 
HETATM   27  C21 UNL     1       7.154  31.256  25.301  1.00  0.00     0.017 A 
HETATM   28  C22 UNL     1       6.567  32.444  25.707  1.00  0.00     0.088 A 
HETATM   29  N3  UNL     1       5.236  32.568  25.656  1.00  0.00    -0.366 N 
ATOM     30  H3  UNL     1       4.851  33.460  25.964  1.00  0.00     0.165 HD
ENDBRANCH  23  24
ENDBRANCH  22  23
ENDBRANCH   6  22
BRANCH   1  31
HETATM   31  O1  UNL     1      -0.422  32.156  27.538  1.00  0.00    -0.360 OA
ATOM     32  H1  UNL     1       0.306  31.572  27.711  1.00  0.00     0.217 HD
ENDBRANCH   1  31
TORSDOF 7
ENDMDL
