MODEL 7
REMARK VINA RESULT: -9.178959124      3.279      6.118
REMARK  7 active torsions:
REMARK  status: ('A' for Active; 'I' for Inactive)
REMARK    1  A    between atoms: O1_1  and  C1_3 
REMARK    2  A    between atoms: C3_5  and  O2_6 
REMARK    3  A    between atoms: C4_8  and  C5_9 
REMARK    4  A    between atoms: N2_14  and  C8_15 
REMARK    5  A    between atoms: C15_23  and  C16_24 
REMARK    6  A    between atoms: C16_24  and  C17_25 
REMARK    7  A    between atoms: C17_25  and  C18_26 
ROOT
HETATM    1  C1  UNL     1       5.553  32.159  25.498  1.00  0.00     0.074 A 
HETATM    2  C2  UNL     1       6.667  32.865  25.925  1.00  0.00     0.074 A 
HETATM    3  C3  UNL     1       6.476  34.183  26.395  1.00  0.00     0.081 A 
HETATM    4  C4  UNL     1       5.244  34.770  26.443  1.00  0.00     0.026 A 
HETATM    5  C14 UNL     1       4.169  34.005  25.997  1.00  0.00     0.027 A 
HETATM    6  C15 UNL     1       4.301  32.695  25.518  1.00  0.00    -0.021 A 
ENDROOT
BRANCH   4   7
HETATM    7  C5  UNL     1       4.986  36.079  27.017  1.00  0.00     0.071 A 
HETATM    8  C6  UNL     1       5.067  36.238  28.421  1.00  0.00     0.051 A 
HETATM    9  C7  UNL     1       4.853  37.561  28.704  1.00  0.00     0.110 A 
HETATM   10  N1  UNL     1       4.658  38.156  27.552  1.00  0.00    -0.304 N 
HETATM   11  N2  UNL     1       4.735  37.283  26.511  1.00  0.00    -0.254 N 
ATOM     12  H1  UNL     1       4.472  39.153  27.448  1.00  0.00     0.186 HD
BRANCH  11  13
HETATM   13  C8  UNL     1       4.619  37.715  25.159  1.00  0.00     0.078 A 
HETATM   14  C9  UNL     1       5.709  38.265  24.517  1.00  0.00     0.033 A 
HETATM   15  C10 UNL     1       5.647  38.649  23.181  1.00  0.00     0.002 A 
HETATM   16  C11 UNL     1       4.482  38.482  22.470  1.00  0.00     0.002 A 
HETATM   17  C12 UNL     1       3.392  37.936  23.098  1.00  0.00     0.026 A 
HETATM   18  C13 UNL     1       3.454  37.553  24.435  1.00  0.00     0.062 A 
HETATM   19 CL1  UNL     1       2.029  36.860  25.186  1.00  0.00    -0.082 Cl
ENDBRANCH  11  13
ENDBRANCH   4   7
BRANCH   3  20
HETATM   20  O2  UNL     1       7.614  34.829  26.791  1.00  0.00    -0.360 OA
ATOM     21  H2  UNL     1       8.426  34.401  26.547  1.00  0.00     0.217 HD
ENDBRANCH   3  20
BRANCH   6  22
HETATM   22  C16 UNL     1       3.138  31.989  24.999  1.00  0.00     0.071 C 
BRANCH  22  23
HETATM   23  C17 UNL     1       1.891  31.968  25.763  1.00  0.00     0.007 C 
BRANCH  23  24
HETATM   24  C18 UNL     1       0.777  32.854  25.464  1.00  0.00     0.028 A 
HETATM   25  C19 UNL     1      -0.271  32.811  26.414  1.00  0.00     0.029 A 
HETATM   26  C20 UNL     1      -1.378  33.604  26.255  1.00  0.00     0.004 A 
HETATM   27  C21 UNL     1      -1.513  34.459  25.181  1.00  0.00     0.017 A 
HETATM   28  C22 UNL     1      -0.470  34.478  24.270  1.00  0.00     0.088 A 
HETATM   29  N3  UNL     1       0.589  33.685  24.470  1.00  0.00    -0.366 N 
ATOM     30  H3  UNL     1       1.331  33.734  23.773  1.00  0.00     0.165 HD
ENDBRANCH  23  24
ENDBRANCH  22  23
ENDBRANCH   6  22
BRANCH   1  31
HETATM   31  O1  UNL     1       5.777  30.879  25.060  1.00  0.00    -0.360 OA
ATOM     32  H1  UNL     1       5.287  30.605  24.293  1.00  0.00     0.217 HD
ENDBRANCH   1  31
TORSDOF 7
ENDMDL
