MODEL 10
REMARK VINA RESULT: -9.039435607      1.347      1.862
REMARK  7 active torsions:
REMARK  status: ('A' for Active; 'I' for Inactive)
REMARK    1  A    between atoms: O1_1  and  C1_3 
REMARK    2  A    between atoms: C3_5  and  O2_6 
REMARK    3  A    between atoms: C4_8  and  C5_9 
REMARK    4  A    between atoms: N2_14  and  C8_15 
REMARK    5  A    between atoms: C15_23  and  C16_24 
REMARK    6  A    between atoms: C16_24  and  C17_25 
REMARK    7  A    between atoms: C17_25  and  C18_26 
ROOT
HETATM    1  C1  UNL     1      -0.111  32.980  26.446  1.00  0.00     0.074 A 
HETATM    2  C2  UNL     1      -1.229  33.748  26.160  1.00  0.00     0.074 A 
HETATM    3  C3  UNL     1      -1.149  34.659  25.085  1.00  0.00     0.081 A 
HETATM    4  C4  UNL     1      -0.020  34.800  24.329  1.00  0.00     0.026 A 
HETATM    5  C14 UNL     1       1.067  33.998  24.673  1.00  0.00     0.027 A 
HETATM    6  C15 UNL     1       1.043  33.080  25.730  1.00  0.00    -0.021 A 
ENDROOT
BRANCH   4   7
HETATM    7  C5  UNL     1       0.073  35.644  23.151  1.00  0.00     0.071 A 
HETATM    8  C6  UNL     1      -0.826  35.424  22.080  1.00  0.00     0.051 A 
HETATM    9  C7  UNL     1      -0.585  36.381  21.129  1.00  0.00     0.110 A 
HETATM   10  N1  UNL     1       0.390  37.124  21.596  1.00  0.00    -0.304 N 
HETATM   11  N2  UNL     1       0.808  36.702  22.820  1.00  0.00    -0.254 N 
ATOM     12  H1  UNL     1       0.787  37.921  21.100  1.00  0.00     0.186 HD
BRANCH  11  13
HETATM   13  C8  UNL     1       1.814  37.396  23.550  1.00  0.00     0.078 A 
HETATM   14  C9  UNL     1       3.111  36.924  23.553  1.00  0.00     0.033 A 
HETATM   15  C10 UNL     1       4.129  37.606  24.211  1.00  0.00     0.002 A 
HETATM   16  C11 UNL     1       3.855  38.778  24.877  1.00  0.00     0.002 A 
HETATM   17  C12 UNL     1       2.570  39.255  24.881  1.00  0.00     0.026 A 
HETATM   18  C13 UNL     1       1.551  38.573  24.222  1.00  0.00     0.062 A 
HETATM   19 CL1  UNL     1      -0.074  39.232  24.261  1.00  0.00    -0.082 Cl
ENDBRANCH  11  13
ENDBRANCH   4   7
BRANCH   3  20
HETATM   20  O2  UNL     1      -2.280  35.395  24.861  1.00  0.00    -0.360 OA
ATOM     21  H2  UNL     1      -3.050  35.103  25.334  1.00  0.00     0.217 HD
ENDBRANCH   3  20
BRANCH   6  22
HETATM   22  C16 UNL     1       2.246  32.334  26.073  1.00  0.00     0.071 C 
BRANCH  22  23
HETATM   23  C17 UNL     1       3.457  32.486  25.269  1.00  0.00     0.007 C 
BRANCH  23  24
HETATM   24  C18 UNL     1       4.613  33.239  25.731  1.00  0.00     0.028 A 
HETATM   25  C19 UNL     1       5.832  32.524  25.680  1.00  0.00     0.029 A 
HETATM   26  C20 UNL     1       6.999  33.121  26.081  1.00  0.00     0.004 A 
HETATM   27  C21 UNL     1       7.031  34.420  26.542  1.00  0.00     0.017 A 
HETATM   28  C22 UNL     1       5.821  35.094  26.579  1.00  0.00     0.088 A 
HETATM   29  N3  UNL     1       4.710  34.467  26.177  1.00  0.00    -0.366 N 
ATOM     30  H3  UNL     1       3.844  35.003  26.222  1.00  0.00     0.165 HD
ENDBRANCH  23  24
ENDBRANCH  22  23
ENDBRANCH   6  22
BRANCH   1  31
HETATM   31  O1  UNL     1      -0.231  32.097  27.490  1.00  0.00    -0.360 OA
ATOM     32  H1  UNL     1      -1.080  32.060  27.915  1.00  0.00     0.217 HD
ENDBRANCH   1  31
TORSDOF 7
ENDMDL
