MODEL 1
REMARK VINA RESULT: -9.850682548      0.000      0.000
REMARK  7 active torsions:
REMARK  status: ('A' for Active; 'I' for Inactive)
REMARK    1  A    between atoms: O1_1  and  C1_3 
REMARK    2  A    between atoms: C3_5  and  O2_6 
REMARK    3  A    between atoms: C4_8  and  C5_9 
REMARK    4  A    between atoms: N2_14  and  C8_15 
REMARK    5  A    between atoms: C15_23  and  C16_24 
REMARK    6  A    between atoms: C16_24  and  C17_25 
REMARK    7  A    between atoms: C17_25  and  C18_26 
ROOT
HETATM    1  C1  UNL     1      -0.223  33.018  26.529  1.00  0.00     0.074 A 
HETATM    2  C2  UNL     1      -1.370  33.742  26.242  1.00  0.00     0.074 A 
HETATM    3  C3  UNL     1      -1.316  34.679  25.187  1.00  0.00     0.081 A 
HETATM    4  C4  UNL     1      -0.183  34.885  24.451  1.00  0.00     0.026 A 
HETATM    5  C14 UNL     1       0.933  34.125  24.795  1.00  0.00     0.027 A 
HETATM    6  C15 UNL     1       0.935  33.185  25.833  1.00  0.00    -0.021 A 
ENDROOT
BRANCH   4   7
HETATM    7  C5  UNL     1      -0.112  35.756  23.292  1.00  0.00     0.071 A 
HETATM    8  C6  UNL     1      -0.802  35.384  22.114  1.00  0.00     0.051 A 
HETATM    9  C7  UNL     1      -0.639  36.391  21.199  1.00  0.00     0.110 A 
HETATM   10  N1  UNL     1       0.097  37.304  21.786  1.00  0.00    -0.304 N 
HETATM   11  N2  UNL     1       0.431  36.947  23.056  1.00  0.00    -0.254 N 
ATOM     12  H1  UNL     1       0.386  38.176  21.343  1.00  0.00     0.186 HD
BRANCH  11  13
HETATM   13  C8  UNL     1       1.173  37.813  23.908  1.00  0.00     0.078 A 
HETATM   14  C9  UNL     1       0.527  38.528  24.895  1.00  0.00     0.033 A 
HETATM   15  C10 UNL     1       1.228  39.341  25.779  1.00  0.00     0.002 A 
HETATM   16  C11 UNL     1       2.596  39.447  25.681  1.00  0.00     0.002 A 
HETATM   17  C12 UNL     1       3.248  38.740  24.704  1.00  0.00     0.026 A 
HETATM   18  C13 UNL     1       2.547  37.926  23.819  1.00  0.00     0.062 A 
HETATM   19 CL1  UNL     1       3.435  37.047  22.590  1.00  0.00    -0.082 Cl
ENDBRANCH  11  13
ENDBRANCH   4   7
BRANCH   3  20
HETATM   20  O2  UNL     1      -2.475  35.367  24.961  1.00  0.00    -0.360 OA
ATOM     21  H2  UNL     1      -2.692  35.504  24.047  1.00  0.00     0.217 HD
ENDBRANCH   3  20
BRANCH   6  22
HETATM   22  C16 UNL     1       2.165  32.486  26.178  1.00  0.00     0.071 C 
BRANCH  22  23
HETATM   23  C17 UNL     1       2.963  31.845  25.134  1.00  0.00     0.007 C 
BRANCH  23  24
HETATM   24  C18 UNL     1       4.408  31.707  25.228  1.00  0.00     0.028 A 
HETATM   25  C19 UNL     1       4.904  30.460  24.781  1.00  0.00     0.029 A 
HETATM   26  C20 UNL     1       6.251  30.204  24.810  1.00  0.00     0.004 A 
HETATM   27  C21 UNL     1       7.160  31.135  25.266  1.00  0.00     0.017 A 
HETATM   28  C22 UNL     1       6.642  32.347  25.695  1.00  0.00     0.088 A 
HETATM   29  N3  UNL     1       5.321  32.548  25.648  1.00  0.00    -0.366 N 
ATOM     30  H3  UNL     1       4.987  33.454  25.974  1.00  0.00     0.165 HD
ENDBRANCH  23  24
ENDBRANCH  22  23
ENDBRANCH   6  22
BRANCH   1  31
HETATM   31  O1  UNL     1      -0.318  32.110  27.553  1.00  0.00    -0.360 OA
ATOM     32  H1  UNL     1       0.502  31.783  27.903  1.00  0.00     0.217 HD
ENDBRANCH   1  31
TORSDOF 7
ENDMDL
