MODEL 6
REMARK VINA RESULT: -9.184484733      0.912      1.223
REMARK  7 active torsions:
REMARK  status: ('A' for Active; 'I' for Inactive)
REMARK    1  A    between atoms: O1_1  and  C1_3 
REMARK    2  A    between atoms: C3_5  and  O2_6 
REMARK    3  A    between atoms: C4_8  and  C5_9 
REMARK    4  A    between atoms: N2_14  and  C8_15 
REMARK    5  A    between atoms: C15_23  and  C16_24 
REMARK    6  A    between atoms: C16_24  and  C17_25 
REMARK    7  A    between atoms: C17_25  and  C18_26 
ROOT
HETATM    1  C1  UNL     1      -0.325  32.979  26.433  1.00  0.00     0.074 A 
HETATM    2  C2  UNL     1      -1.450  33.744  26.171  1.00  0.00     0.074 A 
HETATM    3  C3  UNL     1      -1.377  34.697  25.131  1.00  0.00     0.081 A 
HETATM    4  C4  UNL     1      -0.246  34.880  24.388  1.00  0.00     0.026 A 
HETATM    5  C14 UNL     1       0.849  34.079  24.706  1.00  0.00     0.027 A 
HETATM    6  C15 UNL     1       0.831  33.120  25.727  1.00  0.00    -0.021 A 
ENDROOT
BRANCH   4   7
HETATM    7  C5  UNL     1      -0.157  35.769  23.243  1.00  0.00     0.071 A 
HETATM    8  C6  UNL     1      -0.814  35.406  22.043  1.00  0.00     0.051 A 
HETATM    9  C7  UNL     1      -0.642  36.428  21.147  1.00  0.00     0.110 A 
HETATM   10  N1  UNL     1       0.068  37.341  21.765  1.00  0.00    -0.304 N 
HETATM   11  N2  UNL     1       0.375  36.970  23.037  1.00  0.00    -0.254 N 
ATOM     12  H1  UNL     1       0.355  38.223  21.342  1.00  0.00     0.186 HD
BRANCH  11  13
HETATM   13  C8  UNL     1       1.085  37.832  23.919  1.00  0.00     0.078 A 
HETATM   14  C9  UNL     1       0.401  38.773  24.662  1.00  0.00     0.033 A 
HETATM   15  C10 UNL     1       1.056  39.595  25.573  1.00  0.00     0.002 A 
HETATM   16  C11 UNL     1       2.416  39.482  25.750  1.00  0.00     0.002 A 
HETATM   17  C12 UNL     1       3.105  38.551  25.017  1.00  0.00     0.026 A 
HETATM   18  C13 UNL     1       2.450  37.727  24.105  1.00  0.00     0.062 A 
HETATM   19 CL1  UNL     1       3.384  36.555  23.196  1.00  0.00    -0.082 Cl
ENDBRANCH  11  13
ENDBRANCH   4   7
BRANCH   3  20
HETATM   20  O2  UNL     1      -2.515  35.427  24.930  1.00  0.00    -0.360 OA
ATOM     21  H2  UNL     1      -2.626  35.767  24.050  1.00  0.00     0.217 HD
ENDBRANCH   3  20
BRANCH   6  22
HETATM   22  C16 UNL     1       2.041  32.376  26.047  1.00  0.00     0.071 C 
BRANCH  22  23
HETATM   23  C17 UNL     1       3.232  32.517  25.212  1.00  0.00     0.007 C 
BRANCH  23  24
HETATM   24  C18 UNL     1       4.436  33.192  25.673  1.00  0.00     0.028 A 
HETATM   25  C19 UNL     1       5.614  32.415  25.571  1.00  0.00     0.029 A 
HETATM   26  C20 UNL     1       6.819  32.935  25.966  1.00  0.00     0.004 A 
HETATM   27  C21 UNL     1       6.930  34.214  26.469  1.00  0.00     0.017 A 
HETATM   28  C22 UNL     1       5.759  34.949  26.556  1.00  0.00     0.088 A 
HETATM   29  N3  UNL     1       4.608  34.396  26.158  1.00  0.00    -0.366 N 
ATOM     30  H3  UNL     1       3.773  34.976  26.240  1.00  0.00     0.165 HD
ENDBRANCH  23  24
ENDBRANCH  22  23
ENDBRANCH   6  22
BRANCH   1  31
HETATM   31  O1  UNL     1      -0.439  32.056  27.442  1.00  0.00    -0.360 OA
ATOM     32  H1  UNL     1       0.200  32.116  28.142  1.00  0.00     0.217 HD
ENDBRANCH   1  31
TORSDOF 7
ENDMDL
