MODEL 3
REMARK VINA RESULT: -9.366502654      3.073      6.389
REMARK  7 active torsions:
REMARK  status: ('A' for Active; 'I' for Inactive)
REMARK    1  A    between atoms: O1_1  and  C1_3 
REMARK    2  A    between atoms: C3_5  and  O2_6 
REMARK    3  A    between atoms: C4_8  and  C5_9 
REMARK    4  A    between atoms: N2_14  and  C8_15 
REMARK    5  A    between atoms: C15_23  and  C16_24 
REMARK    6  A    between atoms: C16_24  and  C17_25 
REMARK    7  A    between atoms: C17_25  and  C18_26 
ROOT
HETATM    1  C1  UNL     1       1.297  36.751  22.751  1.00  0.00     0.074 A 
HETATM    2  C2  UNL     1       2.559  37.296  22.579  1.00  0.00     0.074 A 
HETATM    3  C3  UNL     1       3.370  37.464  23.723  1.00  0.00     0.081 A 
HETATM    4  C4  UNL     1       2.952  37.107  24.973  1.00  0.00     0.026 A 
HETATM    5  C14 UNL     1       1.671  36.567  25.074  1.00  0.00     0.027 A 
HETATM    6  C15 UNL     1       0.825  36.381  23.974  1.00  0.00    -0.021 A 
ENDROOT
BRANCH   4   7
HETATM    7  C5  UNL     1       3.788  37.161  26.159  1.00  0.00     0.071 A 
HETATM    8  C6  UNL     1       3.733  38.311  26.983  1.00  0.00     0.051 A 
HETATM    9  C7  UNL     1       4.549  38.092  28.061  1.00  0.00     0.110 A 
HETATM   10  N1  UNL     1       5.059  36.894  27.897  1.00  0.00    -0.304 N 
HETATM   11  N2  UNL     1       4.614  36.305  26.754  1.00  0.00    -0.254 N 
ATOM     12  H1  UNL     1       5.710  36.457  28.549  1.00  0.00     0.186 HD
BRANCH  11  13
HETATM   13  C8  UNL     1       4.984  34.977  26.402  1.00  0.00     0.078 A 
HETATM   14  C9  UNL     1       4.027  34.095  25.940  1.00  0.00     0.033 A 
HETATM   15  C10 UNL     1       4.362  32.807  25.537  1.00  0.00     0.002 A 
HETATM   16  C11 UNL     1       5.670  32.386  25.592  1.00  0.00     0.002 A 
HETATM   17  C12 UNL     1       6.629  33.254  26.048  1.00  0.00     0.026 A 
HETATM   18  C13 UNL     1       6.294  34.543  26.453  1.00  0.00     0.062 A 
HETATM   19 CL1  UNL     1       7.562  35.608  27.028  1.00  0.00    -0.082 Cl
ENDBRANCH  11  13
ENDBRANCH   4   7
BRANCH   3  20
HETATM   20  O2  UNL     1       4.599  38.017  23.488  1.00  0.00    -0.360 OA
ATOM     21  H2  UNL     1       4.940  38.554  24.192  1.00  0.00     0.217 HD
ENDBRANCH   3  20
BRANCH   6  22
HETATM   22  C16 UNL     1      -0.528  35.881  24.174  1.00  0.00     0.071 C 
BRANCH  22  23
HETATM   23  C17 UNL     1      -0.769  34.444  24.297  1.00  0.00     0.007 C 
BRANCH  23  24
HETATM   24  C18 UNL     1      -0.847  33.771  25.584  1.00  0.00     0.028 A 
HETATM   25  C19 UNL     1       0.391  33.275  26.058  1.00  0.00     0.029 A 
HETATM   26  C20 UNL     1       0.457  32.626  27.263  1.00  0.00     0.004 A 
HETATM   27  C21 UNL     1      -0.659  32.434  28.050  1.00  0.00     0.017 A 
HETATM   28  C22 UNL     1      -1.855  32.933  27.559  1.00  0.00     0.088 A 
HETATM   29  N3  UNL     1      -1.868  33.559  26.376  1.00  0.00    -0.366 N 
ATOM     30  H3  UNL     1      -2.770  33.908  26.057  1.00  0.00     0.165 HD
ENDBRANCH  23  24
ENDBRANCH  22  23
ENDBRANCH   6  22
BRANCH   1  31
HETATM   31  O1  UNL     1       0.543  36.592  21.615  1.00  0.00    -0.360 OA
ATOM     32  H1  UNL     1      -0.399  36.571  21.735  1.00  0.00     0.217 HD
ENDBRANCH   1  31
TORSDOF 7
ENDMDL
