MODEL 4
REMARK VINA RESULT: -9.284040095      2.238      7.157
REMARK  7 active torsions:
REMARK  status: ('A' for Active; 'I' for Inactive)
REMARK    1  A    between atoms: O1_1  and  C1_3 
REMARK    2  A    between atoms: C3_5  and  O2_6 
REMARK    3  A    between atoms: C4_8  and  C5_9 
REMARK    4  A    between atoms: N2_14  and  C8_15 
REMARK    5  A    between atoms: C15_23  and  C16_24 
REMARK    6  A    between atoms: C16_24  and  C17_25 
REMARK    7  A    between atoms: C17_25  and  C18_26 
ROOT
HETATM    1  C1  UNL     1      -0.710  34.361  24.416  1.00  0.00     0.074 A 
HETATM    2  C2  UNL     1      -0.306  33.703  25.567  1.00  0.00     0.074 A 
HETATM    3  C3  UNL     1       1.047  33.816  25.955  1.00  0.00     0.081 A 
HETATM    4  C4  UNL     1       1.953  34.545  25.240  1.00  0.00     0.026 A 
HETATM    5  C14 UNL     1       1.481  35.179  24.093  1.00  0.00     0.027 A 
HETATM    6  C15 UNL     1       0.150  35.100  23.661  1.00  0.00    -0.021 A 
ENDROOT
BRANCH   4   7
HETATM    7  C5  UNL     1       3.325  34.777  25.657  1.00  0.00     0.071 A 
HETATM    8  C6  UNL     1       3.667  36.031  26.217  1.00  0.00     0.051 A 
HETATM    9  C7  UNL     1       4.984  35.977  26.590  1.00  0.00     0.110 A 
HETATM   10  N1  UNL     1       5.404  34.775  26.277  1.00  0.00    -0.304 N 
HETATM   11  N2  UNL     1       4.420  34.024  25.711  1.00  0.00    -0.254 N 
ATOM     12  H1  UNL     1       6.355  34.443  26.437  1.00  0.00     0.186 HD
BRANCH  11  13
HETATM   13  C8  UNL     1       4.628  32.664  25.349  1.00  0.00     0.078 A 
HETATM   14  C9  UNL     1       3.599  31.935  24.787  1.00  0.00     0.033 A 
HETATM   15  C10 UNL     1       3.783  30.621  24.372  1.00  0.00     0.002 A 
HETATM   16  C11 UNL     1       5.010  30.018  24.517  1.00  0.00     0.002 A 
HETATM   17  C12 UNL     1       6.040  30.732  25.073  1.00  0.00     0.026 A 
HETATM   18  C13 UNL     1       5.856  32.048  25.489  1.00  0.00     0.062 A 
HETATM   19 CL1  UNL     1       7.210  32.912  26.194  1.00  0.00    -0.082 Cl
ENDBRANCH  11  13
ENDBRANCH   4   7
BRANCH   3  20
HETATM   20  O2  UNL     1       1.383  33.135  27.092  1.00  0.00    -0.360 OA
ATOM     21  H2  UNL     1       0.776  33.234  27.816  1.00  0.00     0.217 HD
ENDBRANCH   3  20
BRANCH   6  22
HETATM   22  C16 UNL     1      -0.247  35.729  22.409  1.00  0.00     0.071 C 
BRANCH  22  23
HETATM   23  C17 UNL     1       0.471  36.904  21.918  1.00  0.00     0.007 C 
BRANCH  23  24
HETATM   24  C18 UNL     1       0.334  38.216  22.532  1.00  0.00     0.028 A 
HETATM   25  C19 UNL     1      -0.144  39.220  21.657  1.00  0.00     0.029 A 
HETATM   26  C20 UNL     1      -0.325  40.501  22.112  1.00  0.00     0.004 A 
HETATM   27  C21 UNL     1      -0.054  40.856  23.417  1.00  0.00     0.017 A 
HETATM   28  C22 UNL     1       0.411  39.849  24.248  1.00  0.00     0.088 A 
HETATM   29  N3  UNL     1       0.571  38.616  23.756  1.00  0.00    -0.366 N 
ATOM     30  H3  UNL     1       0.915  37.909  24.405  1.00  0.00     0.165 HD
ENDBRANCH  23  24
ENDBRANCH  22  23
ENDBRANCH   6  22
BRANCH   1  31
HETATM   31  O1  UNL     1      -2.034  34.239  24.078  1.00  0.00    -0.360 OA
ATOM     32  H1  UNL     1      -2.573  35.011  24.203  1.00  0.00     0.217 HD
ENDBRANCH   1  31
TORSDOF 7
ENDMDL
