MODEL 1
REMARK VINA RESULT: -9.626318195      0.000      0.000
REMARK  10 active torsions:
REMARK  status: ('A' for Active; 'I' for Inactive)
REMARK    1  A    between atoms: C2_2  and  N1_3 
REMARK    2  A    between atoms: C2_2  and  C13_26 
REMARK    3  A    between atoms: N1_3  and  C3_6 
REMARK    4  A    between atoms: C3_6  and  C4_7 
REMARK    5  A    between atoms: C3_6  and  C5_10 
REMARK       I    between atoms: N2_14  and  C9_15 
REMARK    6  A    between atoms: C9_15  and  C10_17 
REMARK    7  A    between atoms: C10_17  and  N3_18 
REMARK    8  A    between atoms: C10_17  and  C11_22 
REMARK    9  A    between atoms: C11_22  and  C12_23 
REMARK       I    between atoms: C13_26  and  N4_28 
REMARK   10  A    between atoms: C17_32  and  C18_33 
ROOT
HETATM    1  C3  UNL     1      -2.330  28.437  -4.338  1.00  0.00     0.309 C 
ENDROOT
BRANCH   1   2
HETATM    2  N1  UNL     1      -2.740  29.050  -3.080  1.00  0.00    -0.047 N 
ATOM      3  H12 UNL     1      -3.693  28.793  -2.824  1.00  0.00     0.279 HD
ATOM      4  H11 UNL     1      -2.876  30.056  -3.172  1.00  0.00     0.279 HD
BRANCH   2   5
HETATM    5  C2  UNL     1      -1.791  28.723  -2.039  1.00  0.00     0.274 C 
HETATM    6  C1  UNL     1      -2.040  29.542  -0.787  1.00  0.00     0.050 C 
BRANCH   5   7
HETATM    7  C13 UNL     1      -1.850  27.293  -1.664  1.00  0.00     0.251 C 
HETATM    8  O6  UNL     1      -2.668  26.530  -2.231  1.00  0.00    -0.271 OA
HETATM    9  N4  UNL     1      -0.997  26.762  -0.668  1.00  0.00    -0.336 N 
HETATM   10  C14 UNL     1      -0.006  27.540   0.063  1.00  0.00     0.127 C 
HETATM   11  C17 UNL     1      -0.914  25.400  -0.172  1.00  0.00     0.188 C 
HETATM   12  C15 UNL     1       1.155  26.542   0.090  1.00  0.00     0.022 C 
HETATM   13  C16 UNL     1       0.437  25.276   0.478  1.00  0.00     0.038 C 
BRANCH  11  14
HETATM   14  C18 UNL     1      -1.954  25.113   0.831  1.00  0.00     0.196 C 
HETATM   15  O7  UNL     1      -2.074  23.947   1.270  1.00  0.00    -0.646 OA
HETATM   16  O8  UNL     1      -2.803  26.091   1.305  1.00  0.00    -0.646 OA
ENDBRANCH  11  14
ENDBRANCH   5   7
ENDBRANCH   2   5
ENDBRANCH   1   2
BRANCH   1  17
HETATM   17  C4  UNL     1      -0.879  28.642  -4.568  1.00  0.00     0.207 C 
HETATM   18  O1  UNL     1      -0.269  29.719  -4.418  1.00  0.00    -0.646 OA
HETATM   19  O2  UNL     1      -0.106  27.547  -4.989  1.00  0.00    -0.646 OA
ENDBRANCH   1  17
BRANCH   1  20
HETATM   20  C5  UNL     1      -3.207  28.853  -5.477  1.00  0.00     0.128 C 
HETATM   21  C6  UNL     1      -4.500  28.088  -5.445  1.00  0.00     0.029 C 
HETATM   22  C7  UNL     1      -4.386  27.130  -6.599  1.00  0.00     0.022 C 
HETATM   23  C8  UNL     1      -2.984  27.346  -7.180  1.00  0.00     0.126 C 
HETATM   24  N2  UNL     1      -2.642  28.689  -6.779  1.00  0.00    -0.343 N 
HETATM   25  C9  UNL     1      -1.922  29.641  -7.517  1.00  0.00     0.251 C 
HETATM   26  O3  UNL     1      -1.676  30.804  -7.080  1.00  0.00    -0.271 OA
BRANCH  25  27
HETATM   27  C10 UNL     1      -1.409  29.318  -8.874  1.00  0.00     0.284 C 
BRANCH  27  28
HETATM   28  N3  UNL     1      -1.460  30.511  -9.733  1.00  0.00    -0.066 N 
ATOM     29  H33 UNL     1      -2.161  31.179  -9.416  1.00  0.00     0.275 HD
ATOM     30  H32 UNL     1      -0.633  31.097  -9.621  1.00  0.00     0.275 HD
ATOM     31  H31 UNL     1      -1.605  30.239 -10.706  1.00  0.00     0.275 HD
ENDBRANCH  27  28
BRANCH  27  32
HETATM   32  C11 UNL     1       0.034  28.811  -8.829  1.00  0.00     0.155 C 
BRANCH  32  33
HETATM   33  C12 UNL     1       0.742  29.107 -10.087  1.00  0.00     0.175 C 
HETATM   34  O4  UNL     1       0.510  28.456 -11.113  1.00  0.00    -0.648 OA
HETATM   35  O5  UNL     1       1.671  30.126 -10.118  1.00  0.00    -0.648 OA
ENDBRANCH  32  33
ENDBRANCH  27  32
ENDBRANCH  25  27
ENDBRANCH   1  20
TORSDOF 10
ENDMDL
