MODEL 4
REMARK VINA RESULT: -9.502206557      4.774     10.628
REMARK  10 active torsions:
REMARK  status: ('A' for Active; 'I' for Inactive)
REMARK    1  A    between atoms: C2_2  and  N1_3 
REMARK    2  A    between atoms: C2_2  and  C13_26 
REMARK    3  A    between atoms: N1_3  and  C3_6 
REMARK    4  A    between atoms: C3_6  and  C4_7 
REMARK    5  A    between atoms: C3_6  and  C5_10 
REMARK       I    between atoms: N2_14  and  C9_15 
REMARK    6  A    between atoms: C9_15  and  C10_17 
REMARK    7  A    between atoms: C10_17  and  N3_18 
REMARK    8  A    between atoms: C10_17  and  C11_22 
REMARK    9  A    between atoms: C11_22  and  C12_23 
REMARK       I    between atoms: C13_26  and  N4_28 
REMARK   10  A    between atoms: C17_32  and  C18_33 
ROOT
HETATM    1  C3  UNL     1       1.672  26.182   3.787  1.00  0.00     0.309 C 
ENDROOT
BRANCH   1   2
HETATM    2  N1  UNL     1       0.513  25.873   2.957  1.00  0.00    -0.047 N 
ATOM      3  H12 UNL     1      -0.309  26.409   3.235  1.00  0.00     0.279 HD
ATOM      4  H11 UNL     1       0.149  24.938   3.141  1.00  0.00     0.279 HD
BRANCH   2   5
HETATM    5  C2  UNL     1       0.840  26.064   1.562  1.00  0.00     0.274 C 
HETATM    6  C1  UNL     1       1.590  24.871   1.002  1.00  0.00     0.050 C 
BRANCH   5   7
HETATM    7  C13 UNL     1      -0.367  26.269   0.732  1.00  0.00     0.251 C 
HETATM    8  O6  UNL     1      -1.164  25.320   0.541  1.00  0.00    -0.271 OA
HETATM    9  N4  UNL     1      -0.646  27.525   0.143  1.00  0.00    -0.336 N 
HETATM   10  C14 UNL     1       0.196  28.704   0.289  1.00  0.00     0.127 C 
HETATM   11  C17 UNL     1      -1.769  27.910  -0.694  1.00  0.00     0.188 C 
HETATM   12  C15 UNL     1      -0.876  29.783   0.467  1.00  0.00     0.022 C 
HETATM   13  C16 UNL     1      -1.843  29.410  -0.626  1.00  0.00     0.038 C 
BRANCH  11  14
HETATM   14  C18 UNL     1      -1.577  27.504  -2.097  1.00  0.00     0.196 C 
HETATM   15  O7  UNL     1      -2.466  26.832  -2.666  1.00  0.00    -0.646 OA
HETATM   16  O8  UNL     1      -0.445  27.843  -2.808  1.00  0.00    -0.646 OA
ENDBRANCH  11  14
ENDBRANCH   5   7
ENDBRANCH   2   5
ENDBRANCH   1   2
BRANCH   1  17
HETATM   17  C4  UNL     1       1.616  25.423   5.061  1.00  0.00     0.207 C 
HETATM   18  O1  UNL     1       0.582  25.192   5.719  1.00  0.00    -0.646 OA
HETATM   19  O2  UNL     1       2.813  24.913   5.589  1.00  0.00    -0.646 OA
ENDBRANCH   1  17
BRANCH   1  20
HETATM   20  C5  UNL     1       1.870  27.656   3.947  1.00  0.00     0.128 C 
HETATM   21  C6  UNL     1       3.323  27.965   4.175  1.00  0.00     0.029 C 
HETATM   22  C7  UNL     1       3.390  28.351   5.627  1.00  0.00     0.022 C 
HETATM   23  C8  UNL     1       1.971  28.158   6.174  1.00  0.00     0.126 C 
HETATM   24  N2  UNL     1       1.130  28.264   5.008  1.00  0.00    -0.343 N 
HETATM   25  C9  UNL     1      -0.141  28.853   4.924  1.00  0.00     0.251 C 
HETATM   26  O3  UNL     1      -0.805  28.904   3.846  1.00  0.00    -0.271 OA
BRANCH  25  27
HETATM   27  C10 UNL     1      -0.775  29.460   6.124  1.00  0.00     0.284 C 
BRANCH  27  28
HETATM   28  N3  UNL     1      -0.321  30.849   6.291  1.00  0.00    -0.066 N 
ATOM     29  H33 UNL     1       0.579  30.901   6.767  1.00  0.00     0.275 HD
ATOM     30  H32 UNL     1      -0.046  31.269   5.404  1.00  0.00     0.275 HD
ATOM     31  H31 UNL     1      -1.036  31.399   6.768  1.00  0.00     0.275 HD
ENDBRANCH  27  28
BRANCH  27  32
HETATM   32  C11 UNL     1      -2.302  29.455   6.023  1.00  0.00     0.155 C 
BRANCH  32  33
HETATM   33  C12 UNL     1      -2.827  30.819   5.828  1.00  0.00     0.175 C 
HETATM   34  O4  UNL     1      -2.876  31.324   4.700  1.00  0.00    -0.648 OA
HETATM   35  O5  UNL     1      -3.270  31.536   6.919  1.00  0.00    -0.648 OA
ENDBRANCH  32  33
ENDBRANCH  27  32
ENDBRANCH  25  27
ENDBRANCH   1  20
TORSDOF 10
ENDMDL
