MODEL 2
REMARK VINA RESULT: -9.623595280      6.076     10.473
REMARK  10 active torsions:
REMARK  status: ('A' for Active; 'I' for Inactive)
REMARK    1  A    between atoms: C2_2  and  N1_3 
REMARK    2  A    between atoms: C2_2  and  C13_26 
REMARK    3  A    between atoms: N1_3  and  C3_6 
REMARK    4  A    between atoms: C3_6  and  C4_7 
REMARK    5  A    between atoms: C3_6  and  C5_10 
REMARK       I    between atoms: N2_14  and  C9_15 
REMARK    6  A    between atoms: C9_15  and  C10_17 
REMARK    7  A    between atoms: C10_17  and  N3_18 
REMARK    8  A    between atoms: C10_17  and  C11_22 
REMARK    9  A    between atoms: C11_22  and  C12_23 
REMARK       I    between atoms: C13_26  and  N4_28 
REMARK   10  A    between atoms: C17_32  and  C18_33 
ROOT
HETATM    1  C3  UNL     1       2.392  28.433   2.952  1.00  0.00     0.309 C 
ENDROOT
BRANCH   1   2
HETATM    2  N1  UNL     1       3.326  27.562   2.249  1.00  0.00    -0.047 N 
ATOM      3  H12 UNL     1       3.569  26.738   2.799  1.00  0.00     0.279 HD
ATOM      4  H11 UNL     1       4.257  27.974   2.180  1.00  0.00     0.279 HD
BRANCH   2   5
HETATM    5  C2  UNL     1       2.792  27.209   0.952  1.00  0.00     0.274 C 
HETATM    6  C1  UNL     1       3.758  26.333   0.177  1.00  0.00     0.050 C 
BRANCH   5   7
HETATM    7  C13 UNL     1       1.509  26.482   1.060  1.00  0.00     0.251 C 
HETATM    8  O6  UNL     1       1.485  25.322   1.535  1.00  0.00    -0.271 OA
HETATM    9  N4  UNL     1       0.295  27.072   0.634  1.00  0.00    -0.336 N 
HETATM   10  C14 UNL     1       0.189  28.409   0.066  1.00  0.00     0.127 C 
HETATM   11  C17 UNL     1      -1.046  26.517   0.660  1.00  0.00     0.188 C 
HETATM   12  C15 UNL     1      -1.093  28.892   0.751  1.00  0.00     0.022 C 
HETATM   13  C16 UNL     1      -1.983  27.689   0.575  1.00  0.00     0.038 C 
BRANCH  11  14
HETATM   14  C18 UNL     1      -1.297  25.622  -0.483  1.00  0.00     0.196 C 
HETATM   15  O7  UNL     1      -1.695  26.110  -1.565  1.00  0.00    -0.646 OA
HETATM   16  O8  UNL     1      -1.107  24.258  -0.401  1.00  0.00    -0.646 OA
ENDBRANCH  11  14
ENDBRANCH   5   7
ENDBRANCH   2   5
ENDBRANCH   1   2
BRANCH   1  17
HETATM   17  C4  UNL     1       2.668  29.855   2.634  1.00  0.00     0.207 C 
HETATM   18  O1  UNL     1       3.794  30.390   2.635  1.00  0.00    -0.646 OA
HETATM   19  O2  UNL     1       1.587  30.688   2.301  1.00  0.00    -0.646 OA
ENDBRANCH   1  17
BRANCH   1  20
HETATM   20  C5  UNL     1       2.327  28.121   4.414  1.00  0.00     0.128 C 
HETATM   21  C6  UNL     1       2.940  26.775   4.687  1.00  0.00     0.029 C 
HETATM   22  C7  UNL     1       1.762  25.896   5.004  1.00  0.00     0.022 C 
HETATM   23  C8  UNL     1       0.522  26.776   4.809  1.00  0.00     0.126 C 
HETATM   24  N2  UNL     1       1.017  28.120   4.984  1.00  0.00    -0.343 N 
HETATM   25  C9  UNL     1       0.359  29.197   5.598  1.00  0.00     0.251 C 
HETATM   26  O3  UNL     1       0.882  30.346   5.710  1.00  0.00    -0.271 OA
BRANCH  25  27
HETATM   27  C10 UNL     1      -1.007  29.030   6.159  1.00  0.00     0.284 C 
BRANCH  27  28
HETATM   28  N3  UNL     1      -1.032  29.448   7.568  1.00  0.00    -0.066 N 
ATOM     29  H33 UNL     1      -1.158  28.656   8.198  1.00  0.00     0.275 HD
ATOM     30  H32 UNL     1      -0.114  29.752   7.892  1.00  0.00     0.275 HD
ATOM     31  H31 UNL     1      -1.744  30.165   7.711  1.00  0.00     0.275 HD
ENDBRANCH  27  28
BRANCH  27  32
HETATM   32  C11 UNL     1      -2.041  29.854   5.388  1.00  0.00     0.155 C 
BRANCH  32  33
HETATM   33  C12 UNL     1      -2.599  30.929   6.228  1.00  0.00     0.175 C 
HETATM   34  O4  UNL     1      -3.671  30.776   6.824  1.00  0.00    -0.648 OA
HETATM   35  O5  UNL     1      -1.912  32.119   6.351  1.00  0.00    -0.648 OA
ENDBRANCH  32  33
ENDBRANCH  27  32
ENDBRANCH  25  27
ENDBRANCH   1  20
TORSDOF 10
ENDMDL
