MODEL 3
REMARK VINA RESULT: -9.515936782      3.697      6.196
REMARK  10 active torsions:
REMARK  status: ('A' for Active; 'I' for Inactive)
REMARK    1  A    between atoms: C2_2  and  N1_3 
REMARK    2  A    between atoms: C2_2  and  C13_26 
REMARK    3  A    between atoms: N1_3  and  C3_6 
REMARK    4  A    between atoms: C3_6  and  C4_7 
REMARK    5  A    between atoms: C3_6  and  C5_10 
REMARK       I    between atoms: N2_14  and  C9_15 
REMARK    6  A    between atoms: C9_15  and  C10_17 
REMARK    7  A    between atoms: C10_17  and  N3_18 
REMARK    8  A    between atoms: C10_17  and  C11_22 
REMARK    9  A    between atoms: C11_22  and  C12_23 
REMARK       I    between atoms: C13_26  and  N4_28 
REMARK   10  A    between atoms: C17_32  and  C18_33 
ROOT
HETATM    1  C3  UNL     1      -0.330  27.196   0.202  1.00  0.00     0.309 C 
ENDROOT
BRANCH   1   2
HETATM    2  N1  UNL     1       0.941  26.485   0.134  1.00  0.00    -0.047 N 
ATOM      3  H12 UNL     1       1.575  26.901  -0.548  1.00  0.00     0.279 HD
ATOM      4  H11 UNL     1       0.842  25.566  -0.297  1.00  0.00     0.279 HD
BRANCH   2   5
HETATM    5  C2  UNL     1       1.535  26.407   1.450  1.00  0.00     0.274 C 
HETATM    6  C1  UNL     1       2.123  25.033   1.710  1.00  0.00     0.050 C 
BRANCH   5   7
HETATM    7  C13 UNL     1       2.613  27.403   1.632  1.00  0.00     0.251 C 
HETATM    8  O6  UNL     1       3.582  27.428   0.837  1.00  0.00    -0.271 OA
HETATM    9  N4  UNL     1       2.575  28.337   2.694  1.00  0.00    -0.336 N 
HETATM   10  C14 UNL     1       1.508  28.412   3.682  1.00  0.00     0.127 C 
HETATM   11  C17 UNL     1       3.533  29.376   3.028  1.00  0.00     0.188 C 
HETATM   12  C15 UNL     1       1.353  29.931   3.798  1.00  0.00     0.022 C 
HETATM   13  C16 UNL     1       2.795  30.360   3.892  1.00  0.00     0.038 C 
BRANCH  11  14
HETATM   14  C18 UNL     1       4.682  28.847   3.783  1.00  0.00     0.196 C 
HETATM   15  O7  UNL     1       5.754  29.492   3.796  1.00  0.00    -0.646 OA
HETATM   16  O8  UNL     1       4.615  27.658   4.479  1.00  0.00    -0.646 OA
ENDBRANCH  11  14
ENDBRANCH   5   7
ENDBRANCH   2   5
ENDBRANCH   1   2
BRANCH   1  17
HETATM   17  C4  UNL     1      -1.440  26.322  -0.249  1.00  0.00     0.207 C 
HETATM   18  O1  UNL     1      -1.392  25.533  -1.214  1.00  0.00    -0.646 OA
HETATM   19  O2  UNL     1      -2.656  26.367   0.453  1.00  0.00    -0.646 OA
ENDBRANCH   1  17
BRANCH   1  20
HETATM   20  C5  UNL     1      -0.266  28.526  -0.482  1.00  0.00     0.128 C 
HETATM   21  C6  UNL     1      -0.321  29.635   0.531  1.00  0.00     0.029 C 
HETATM   22  C7  UNL     1      -1.694  30.223   0.354  1.00  0.00     0.022 C 
HETATM   23  C8  UNL     1      -2.384  29.353  -0.703  1.00  0.00     0.126 C 
HETATM   24  N2  UNL     1      -1.293  28.771  -1.444  1.00  0.00    -0.343 N 
HETATM   25  C9  UNL     1      -1.240  28.514  -2.823  1.00  0.00     0.251 C 
HETATM   26  O3  UNL     1      -0.228  28.003  -3.388  1.00  0.00    -0.271 OA
BRANCH  25  27
HETATM   27  C10 UNL     1      -2.395  28.842  -3.699  1.00  0.00     0.284 C 
BRANCH  27  28
HETATM   28  N3  UNL     1      -2.000  29.833  -4.711  1.00  0.00    -0.066 N 
ATOM     29  H33 UNL     1      -1.027  30.120  -4.605  1.00  0.00     0.275 HD
ATOM     30  H32 UNL     1      -1.934  29.422  -5.642  1.00  0.00     0.275 HD
ATOM     31  H31 UNL     1      -2.636  30.631  -4.691  1.00  0.00     0.275 HD
ENDBRANCH  27  28
BRANCH  27  32
HETATM   32  C11 UNL     1      -2.934  27.602  -4.416  1.00  0.00     0.155 C 
BRANCH  32  33
HETATM   33  C12 UNL     1      -2.647  27.656  -5.861  1.00  0.00     0.175 C 
HETATM   34  O4  UNL     1      -3.472  28.126  -6.654  1.00  0.00    -0.648 OA
HETATM   35  O5  UNL     1      -1.442  27.178  -6.331  1.00  0.00    -0.648 OA
ENDBRANCH  32  33
ENDBRANCH  27  32
ENDBRANCH  25  27
ENDBRANCH   1  20
TORSDOF 10
ENDMDL
