MODEL 3
REMARK VINA RESULT: -7.469338466      0.985      1.939
REMARK  8 active torsions:
REMARK  status: ('A' for Active; 'I' for Inactive)
REMARK    1  A    between atoms: O1_1  and  C1_3 
REMARK    2  A    between atoms: C1_3  and  C2_4 
REMARK    3  A    between atoms: C3_6  and  S1_7 
REMARK    4  A    between atoms: S1_7  and  C4_8 
REMARK    5  A    between atoms: C10_15  and  O3_16 
REMARK    6  A    between atoms: C11_18  and  N1_19 
REMARK    7  A    between atoms: C13_21  and  C14_22 
REMARK    8  A    between atoms: C20_35  and  O4_36 
ROOT
HETATM    1  C2  UNL     1     -12.420   6.728  -2.219  1.00  0.00     0.177 C 
HETATM    2  O2  UNL     1     -12.152   6.721  -0.830  1.00  0.00    -0.362 OA
HETATM    3  C3  UNL     1     -11.703   8.038  -0.584  1.00  0.00     0.219 C 
HETATM    4  C10 UNL     1     -10.240   8.071  -0.883  1.00  0.00     0.184 C 
HETATM    5  C11 UNL     1      -9.977   7.276  -2.135  1.00  0.00     0.172 C 
HETATM    6  C20 UNL     1     -11.175   7.026  -2.986  1.00  0.00     0.176 C 
ENDROOT
BRANCH   5   7
HETATM    7  N1  UNL     1      -9.350   5.996  -1.820  1.00  0.00    -0.277 N 
HETATM    8  C12 UNL     1      -8.323   5.409  -2.453  1.00  0.00     0.144 A 
HETATM    9  C13 UNL     1      -8.075   4.224  -1.811  1.00  0.00     0.077 A 
HETATM   10  N2  UNL     1      -8.972   4.162  -0.822  1.00  0.00    -0.284 N 
HETATM   11  N3  UNL     1      -9.746   5.231  -0.823  1.00  0.00    -0.240 N 
ATOM     12  H2  UNL     1      -9.049   3.392  -0.157  1.00  0.00     0.188 HD
ATOM     13  H3  UNL     1     -10.508   5.429  -0.173  1.00  0.00     0.208 HD
BRANCH   9  14
HETATM   14  C14 UNL     1      -7.059   3.242  -2.131  1.00  0.00    -0.001 A 
HETATM   15  C15 UNL     1      -5.742   3.419  -1.724  1.00  0.00     0.059 A 
HETATM   16  C16 UNL     1      -4.771   2.486  -2.026  1.00  0.00     0.158 A 
HETATM   17  F1  UNL     1      -3.498   2.690  -1.613  1.00  0.00    -0.203 F 
HETATM   18  C17 UNL     1      -5.063   1.345  -2.742  1.00  0.00     0.193 A 
HETATM   19  F2  UNL     1      -4.139   0.410  -3.057  1.00  0.00    -0.200 F 
HETATM   20  C18 UNL     1      -6.377   1.148  -3.160  1.00  0.00     0.158 A 
HETATM   21  F3  UNL     1      -6.677   0.021  -3.870  1.00  0.00    -0.203 F 
HETATM   22  C19 UNL     1      -7.326   2.092  -2.846  1.00  0.00     0.059 A 
ENDBRANCH   9  14
ENDBRANCH   5   7
BRANCH   4  23
HETATM   23  O3  UNL     1      -9.756   9.382  -1.012  1.00  0.00    -0.390 OA
ATOM     24  H3  UNL     1     -10.270   9.895  -1.625  1.00  0.00     0.210 HD
ENDBRANCH   4  23
BRANCH   6  25
HETATM   25  O4  UNL     1     -10.864   5.951  -3.838  1.00  0.00    -0.391 OA
ATOM     26  H4  UNL     1      -9.951   5.993  -4.095  1.00  0.00     0.210 HD
ENDBRANCH   6  25
BRANCH   3  27
HETATM   27  S1  UNL     1     -12.078   8.512   1.122  1.00  0.00    -0.095 SA
BRANCH  27  28
HETATM   28  C4  UNL     1     -13.789   8.994   1.195  1.00  0.00     0.004 A 
HETATM   29  C5  UNL     1     -14.215  10.042   1.972  1.00  0.00     0.018 A 
HETATM   30  C6  UNL     1     -15.554  10.391   2.006  1.00  0.00     0.003 A 
HETATM   31  C7  UNL     1     -16.477   9.692   1.260  1.00  0.00     0.024 A 
HETATM   32  C8  UNL     1     -16.046   8.639   0.479  1.00  0.00     0.035 A 
HETATM   33 CL1  UNL     1     -17.207   7.722  -0.490  1.00  0.00    -0.084 Cl
HETATM   34  C9  UNL     1     -14.706   8.300   0.453  1.00  0.00     0.042 A 
ENDBRANCH  27  28
ENDBRANCH   3  27
BRANCH   1  35
HETATM   35  C1  UNL     1     -13.178   5.523  -2.665  1.00  0.00     0.198 C 
BRANCH  35  36
HETATM   36  O1  UNL     1     -12.682   4.323  -2.218  1.00  0.00    -0.398 OA
ATOM     37  H1  UNL     1     -11.735   4.242  -2.245  1.00  0.00     0.209 HD
ENDBRANCH  35  36
ENDBRANCH   1  35
TORSDOF 8
ENDMDL
