MODEL 1
REMARK VINA RESULT: -7.575275697      0.000      0.000
REMARK  8 active torsions:
REMARK  status: ('A' for Active; 'I' for Inactive)
REMARK    1  A    between atoms: O1_1  and  C1_3 
REMARK    2  A    between atoms: C1_3  and  C2_4 
REMARK    3  A    between atoms: C3_6  and  S1_7 
REMARK    4  A    between atoms: S1_7  and  C4_8 
REMARK    5  A    between atoms: C10_15  and  O3_16 
REMARK    6  A    between atoms: C11_18  and  N1_19 
REMARK    7  A    between atoms: C13_21  and  C14_22 
REMARK    8  A    between atoms: C20_35  and  O4_36 
ROOT
HETATM    1  C2  UNL     1     -12.412   6.718  -2.246  1.00  0.00     0.177 C 
HETATM    2  O2  UNL     1     -12.146   6.717  -0.856  1.00  0.00    -0.362 OA
HETATM    3  C3  UNL     1     -11.699   8.037  -0.616  1.00  0.00     0.219 C 
HETATM    4  C10 UNL     1     -10.236   8.072  -0.913  1.00  0.00     0.184 C 
HETATM    5  C11 UNL     1      -9.970   7.273  -2.162  1.00  0.00     0.172 C 
HETATM    6  C20 UNL     1     -11.167   7.016  -3.013  1.00  0.00     0.176 C 
ENDROOT
BRANCH   5   7
HETATM    7  N1  UNL     1      -9.341   5.995  -1.841  1.00  0.00    -0.277 N 
HETATM    8  C12 UNL     1      -8.309   5.410  -2.468  1.00  0.00     0.144 A 
HETATM    9  C13 UNL     1      -8.060   4.227  -1.822  1.00  0.00     0.077 A 
HETATM   10  N2  UNL     1      -8.961   4.165  -0.837  1.00  0.00    -0.284 N 
HETATM   11  N3  UNL     1      -9.738   5.232  -0.844  1.00  0.00    -0.240 N 
ATOM     12  H2  UNL     1      -9.038   3.396  -0.171  1.00  0.00     0.188 HD
ATOM     13  H3  UNL     1     -10.503   5.428  -0.197  1.00  0.00     0.208 HD
BRANCH   9  14
HETATM   14  C14 UNL     1      -7.039   3.247  -2.135  1.00  0.00    -0.001 A 
HETATM   15  C15 UNL     1      -7.347   2.102  -2.860  1.00  0.00     0.059 A 
HETATM   16  C16 UNL     1      -6.379   1.167  -3.160  1.00  0.00     0.158 A 
HETATM   17  F1  UNL     1      -6.714   0.063  -3.868  1.00  0.00    -0.203 F 
HETATM   18  C17 UNL     1      -5.071   1.325  -2.755  1.00  0.00     0.193 A 
HETATM   19  F2  UNL     1      -4.096   0.431  -3.030  1.00  0.00    -0.200 F 
HETATM   20  C18 UNL     1      -4.740   2.466  -2.027  1.00  0.00     0.158 A 
HETATM   21  F3  UNL     1      -3.448   2.633  -1.621  1.00  0.00    -0.203 F 
HETATM   22  C19 UNL     1      -5.724   3.384  -1.742  1.00  0.00     0.059 A 
ENDBRANCH   9  14
ENDBRANCH   5   7
BRANCH   4  23
HETATM   23  O3  UNL     1      -9.755   9.383  -1.047  1.00  0.00    -0.390 OA
ATOM     24  H3  UNL     1      -8.888   9.486  -0.672  1.00  0.00     0.210 HD
ENDBRANCH   4  23
BRANCH   6  25
HETATM   25  O4  UNL     1     -10.853   5.938  -3.860  1.00  0.00    -0.391 OA
ATOM     26  H4  UNL     1     -10.198   5.384  -3.451  1.00  0.00     0.210 HD
ENDBRANCH   6  25
BRANCH   3  27
HETATM   27  S1  UNL     1     -12.078   8.516   1.088  1.00  0.00    -0.095 SA
BRANCH  27  28
HETATM   28  C4  UNL     1     -13.792   8.987   1.159  1.00  0.00     0.004 A 
HETATM   29  C5  UNL     1     -14.738   8.408   0.351  1.00  0.00     0.018 A 
HETATM   30  C6  UNL     1     -16.063   8.797   0.430  1.00  0.00     0.003 A 
HETATM   31  C7  UNL     1     -16.451   9.772   1.324  1.00  0.00     0.024 A 
HETATM   32  C8  UNL     1     -15.499  10.352   2.136  1.00  0.00     0.035 A 
HETATM   33 CL1  UNL     1     -15.967  11.606   3.293  1.00  0.00    -0.084 Cl
HETATM   34  C9  UNL     1     -14.178   9.955   2.047  1.00  0.00     0.042 A 
ENDBRANCH  27  28
ENDBRANCH   3  27
BRANCH   1  35
HETATM   35  C1  UNL     1     -13.166   5.509  -2.688  1.00  0.00     0.198 C 
BRANCH  35  36
HETATM   36  O1  UNL     1     -12.658   4.311  -2.250  1.00  0.00    -0.398 OA
ATOM     37  H1  UNL     1     -11.716   4.218  -2.333  1.00  0.00     0.209 HD
ENDBRANCH  35  36
ENDBRANCH   1  35
TORSDOF 8
ENDMDL
