MODEL 2
REMARK VINA RESULT: -7.543089088      0.032      1.447
REMARK  8 active torsions:
REMARK  status: ('A' for Active; 'I' for Inactive)
REMARK    1  A    between atoms: O1_1  and  C1_3 
REMARK    2  A    between atoms: C1_3  and  C2_4 
REMARK    3  A    between atoms: C3_6  and  S1_7 
REMARK    4  A    between atoms: S1_7  and  C4_8 
REMARK    5  A    between atoms: C10_15  and  O3_16 
REMARK    6  A    between atoms: C11_18  and  N1_19 
REMARK    7  A    between atoms: C13_21  and  C14_22 
REMARK    8  A    between atoms: C20_35  and  O4_36 
ROOT
HETATM    1  C2  UNL     1     -12.417   6.705  -2.252  1.00  0.00     0.177 C 
HETATM    2  O2  UNL     1     -12.153   6.705  -0.862  1.00  0.00    -0.362 OA
HETATM    3  C3  UNL     1     -11.711   8.026  -0.621  1.00  0.00     0.219 C 
HETATM    4  C10 UNL     1     -10.248   8.066  -0.915  1.00  0.00     0.184 C 
HETATM    5  C11 UNL     1      -9.977   7.268  -2.164  1.00  0.00     0.172 C 
HETATM    6  C20 UNL     1     -11.171   7.008  -3.017  1.00  0.00     0.176 C 
ENDROOT
BRANCH   5   7
HETATM    7  N1  UNL     1      -9.344   5.992  -1.842  1.00  0.00    -0.277 N 
HETATM    8  C12 UNL     1      -8.318   5.404  -2.476  1.00  0.00     0.144 A 
HETATM    9  C13 UNL     1      -8.062   4.226  -1.827  1.00  0.00     0.077 A 
HETATM   10  N2  UNL     1      -8.953   4.168  -0.832  1.00  0.00    -0.284 N 
HETATM   11  N3  UNL     1      -9.730   5.235  -0.837  1.00  0.00    -0.240 N 
ATOM     12  H2  UNL     1      -9.023   3.404  -0.160  1.00  0.00     0.188 HD
ATOM     13  H3  UNL     1     -10.489   5.435  -0.183  1.00  0.00     0.208 HD
BRANCH   9  14
HETATM   14  C14 UNL     1      -7.044   3.244  -2.145  1.00  0.00    -0.001 A 
HETATM   15  C15 UNL     1      -5.725   3.431  -1.750  1.00  0.00     0.059 A 
HETATM   16  C16 UNL     1      -4.752   2.500  -2.051  1.00  0.00     0.158 A 
HETATM   17  F1  UNL     1      -3.477   2.714  -1.650  1.00  0.00    -0.203 F 
HETATM   18  C17 UNL     1      -5.044   1.351  -2.753  1.00  0.00     0.193 A 
HETATM   19  F2  UNL     1      -4.120   0.417  -3.066  1.00  0.00    -0.200 F 
HETATM   20  C18 UNL     1      -6.362   1.144  -3.159  1.00  0.00     0.158 A 
HETATM   21  F3  UNL     1      -6.662   0.008  -3.854  1.00  0.00    -0.203 F 
HETATM   22  C19 UNL     1      -7.312   2.086  -2.846  1.00  0.00     0.059 A 
ENDBRANCH   9  14
ENDBRANCH   5   7
BRANCH   4  23
HETATM   23  O3  UNL     1      -9.771   9.379  -1.048  1.00  0.00    -0.390 OA
ATOM     24  H3  UNL     1     -10.133   9.816  -1.810  1.00  0.00     0.210 HD
ENDBRANCH   4  23
BRANCH   6  25
HETATM   25  O4  UNL     1     -10.852   5.931  -3.864  1.00  0.00    -0.391 OA
ATOM     26  H4  UNL     1     -11.520   5.834  -4.532  1.00  0.00     0.210 HD
ENDBRANCH   6  25
BRANCH   3  27
HETATM   27  S1  UNL     1     -12.095   8.504   1.083  1.00  0.00    -0.095 SA
BRANCH  27  28
HETATM   28  C4  UNL     1     -13.807   8.982   1.148  1.00  0.00     0.004 A 
HETATM   29  C5  UNL     1     -14.754   8.400   0.343  1.00  0.00     0.018 A 
HETATM   30  C6  UNL     1     -16.078   8.795   0.418  1.00  0.00     0.003 A 
HETATM   31  C7  UNL     1     -16.463   9.778   1.303  1.00  0.00     0.024 A 
HETATM   32  C8  UNL     1     -15.510  10.361   2.112  1.00  0.00     0.035 A 
HETATM   33 CL1  UNL     1     -15.974  11.626   3.259  1.00  0.00    -0.084 Cl
HETATM   34  C9  UNL     1     -14.190   9.958   2.028  1.00  0.00     0.042 A 
ENDBRANCH  27  28
ENDBRANCH   3  27
BRANCH   1  35
HETATM   35  C1  UNL     1     -13.166   5.494  -2.696  1.00  0.00     0.198 C 
BRANCH  35  36
HETATM   36  O1  UNL     1     -12.656   4.298  -2.255  1.00  0.00    -0.398 OA
ATOM     37  H1  UNL     1     -12.255   3.757  -2.926  1.00  0.00     0.209 HD
ENDBRANCH  35  36
ENDBRANCH   1  35
TORSDOF 8
ENDMDL
