MODEL 1
REMARK VINA RESULT: -7.804164618      0.000      0.000
REMARK  8 active torsions:
REMARK  status: ('A' for Active; 'I' for Inactive)
REMARK    1  A    between atoms: O1_1  and  C1_3 
REMARK    2  A    between atoms: C1_3  and  C2_4 
REMARK    3  A    between atoms: C3_6  and  S1_7 
REMARK    4  A    between atoms: S1_7  and  C4_8 
REMARK    5  A    between atoms: C10_16  and  O3_17 
REMARK    6  A    between atoms: C11_19  and  N1_20 
REMARK    7  A    between atoms: C13_22  and  C14_23 
REMARK    8  A    between atoms: C20_35  and  O4_36 
ROOT
HETATM    1  C2  UNL     1     -11.097   8.247  -0.948  1.00  0.00     0.177 C 
HETATM    2  O2  UNL     1     -10.854   6.899  -0.739  1.00  0.00    -0.362 OA
HETATM    3  C3  UNL     1     -11.701   6.077  -1.420  1.00  0.00     0.219 C 
HETATM    4  C10 UNL     1     -13.109   6.496  -1.575  1.00  0.00     0.184 C 
HETATM    5  C11 UNL     1     -13.467   7.889  -1.234  1.00  0.00     0.169 C 
HETATM    6  C20 UNL     1     -12.443   8.530  -0.306  1.00  0.00     0.176 C 
ENDROOT
BRANCH   5   7
HETATM    7  N1  UNL     1     -14.798   7.951  -0.667  1.00  0.00    -0.275 N 
HETATM    8  C12 UNL     1     -15.890   7.544  -1.335  1.00  0.00     0.140 A 
HETATM    9  C13 UNL     1     -17.002   7.723  -0.541  1.00  0.00     0.073 A 
HETATM   10  N2  UNL     1     -16.550   8.239   0.599  1.00  0.00    -0.282 N 
HETATM   11  N3  UNL     1     -15.216   8.372   0.512  1.00  0.00    -0.020 NA
ATOM     12  H2  UNL     1     -17.122   8.491   1.405  1.00  0.00     0.184 HD
BRANCH   9  13
HETATM   13  C14 UNL     1     -18.376   7.391  -0.931  1.00  0.00    -0.001 A 
HETATM   14  C15 UNL     1     -18.976   6.243  -0.470  1.00  0.00     0.059 A 
HETATM   15  C16 UNL     1     -20.262   5.938  -0.838  1.00  0.00     0.158 A 
HETATM   16  F1  UNL     1     -20.837   4.791  -0.367  1.00  0.00    -0.203 F 
HETATM   17  C17 UNL     1     -21.011   6.741  -1.670  1.00  0.00     0.193 A 
HETATM   18  F2  UNL     1     -22.278   6.410  -2.014  1.00  0.00    -0.200 F 
HETATM   19  C18 UNL     1     -20.388   7.888  -2.119  1.00  0.00     0.158 A 
HETATM   20  F3  UNL     1     -21.114   8.691  -2.941  1.00  0.00    -0.203 F 
HETATM   21  C19 UNL     1     -19.098   8.216  -1.764  1.00  0.00     0.059 A 
ENDBRANCH   9  13
ENDBRANCH   5   7
BRANCH   4  22
HETATM   22  O3  UNL     1     -13.463   6.279  -2.930  1.00  0.00    -0.390 OA
ATOM     23  H3  UNL     1     -14.096   6.947  -3.164  1.00  0.00     0.210 HD
ENDBRANCH   4  22
BRANCH   6  24
HETATM   24  O4  UNL     1     -12.482   7.785   0.883  1.00  0.00    -0.391 OA
ATOM     25  H4  UNL     1     -13.381   7.812   1.188  1.00  0.00     0.210 HD
ENDBRANCH   6  24
BRANCH   3  26
HETATM   26  S1  UNL     1     -10.930   5.644  -3.031  1.00  0.00    -0.095 SA
BRANCH  26  27
HETATM   27  C4  UNL     1      -9.347   4.917  -2.638  1.00  0.00     0.004 A 
HETATM   28  C5  UNL     1      -8.286   5.694  -2.232  1.00  0.00     0.020 A 
HETATM   29  C6  UNL     1      -7.048   5.148  -1.921  1.00  0.00     0.027 A 
HETATM   30  C7  UNL     1      -6.871   3.783  -2.021  1.00  0.00     0.055 A 
HETATM   31 CL1  UNL     1      -5.336   3.058  -1.641  1.00  0.00    -0.083 Cl
HETATM   32  C8  UNL     1      -7.925   2.999  -2.427  1.00  0.00     0.057 A 
HETATM   33 CL2  UNL     1      -7.682   1.268  -2.549  1.00  0.00    -0.083 Cl
HETATM   34  C9  UNL     1      -9.172   3.553  -2.739  1.00  0.00     0.044 A 
ENDBRANCH  26  27
ENDBRANCH   3  26
BRANCH   1  35
HETATM   35  C1  UNL     1     -10.004   9.095  -0.350  1.00  0.00     0.198 C 
BRANCH  35  36
HETATM   36  O1  UNL     1      -9.970   8.957   1.017  1.00  0.00    -0.398 OA
ATOM     37  H1  UNL     1      -9.284   9.496   1.394  1.00  0.00     0.209 HD
ENDBRANCH  35  36
ENDBRANCH   1  35
TORSDOF 8
ENDMDL
