MODEL 2
REMARK VINA RESULT: -7.728938142      0.118      1.416
REMARK  8 active torsions:
REMARK  status: ('A' for Active; 'I' for Inactive)
REMARK    1  A    between atoms: O1_1  and  C1_3 
REMARK    2  A    between atoms: C1_3  and  C2_4 
REMARK    3  A    between atoms: C3_6  and  S1_7 
REMARK    4  A    between atoms: S1_7  and  C4_8 
REMARK    5  A    between atoms: C10_16  and  O3_17 
REMARK    6  A    between atoms: C11_19  and  N1_20 
REMARK    7  A    between atoms: C13_22  and  C14_23 
REMARK    8  A    between atoms: C20_35  and  O4_36 
ROOT
HETATM    1  C2  UNL     1     -11.035   8.255  -0.958  1.00  0.00     0.177 C 
HETATM    2  O2  UNL     1     -10.800   6.908  -0.739  1.00  0.00    -0.362 OA
HETATM    3  C3  UNL     1     -11.655   6.085  -1.409  1.00  0.00     0.219 C 
HETATM    4  C10 UNL     1     -13.061   6.512  -1.560  1.00  0.00     0.184 C 
HETATM    5  C11 UNL     1     -13.408   7.910  -1.231  1.00  0.00     0.169 C 
HETATM    6  C20 UNL     1     -12.377   8.553  -0.314  1.00  0.00     0.176 C 
ENDROOT
BRANCH   5   7
HETATM    7  N1  UNL     1     -14.736   7.986  -0.658  1.00  0.00    -0.275 N 
HETATM    8  C12 UNL     1     -15.836   7.591  -1.322  1.00  0.00     0.140 A 
HETATM    9  C13 UNL     1     -16.942   7.781  -0.524  1.00  0.00     0.073 A 
HETATM   10  N2  UNL     1     -16.481   8.291   0.615  1.00  0.00    -0.282 N 
HETATM   11  N3  UNL     1     -15.146   8.411   0.523  1.00  0.00    -0.020 NA
ATOM     12  H2  UNL     1     -17.047   8.549   1.423  1.00  0.00     0.184 HD
BRANCH   9  13
HETATM   13  C14 UNL     1     -18.321   7.464  -0.908  1.00  0.00    -0.001 A 
HETATM   14  C15 UNL     1     -19.058   8.346  -1.665  1.00  0.00     0.059 A 
HETATM   15  C16 UNL     1     -20.347   8.043  -2.021  1.00  0.00     0.158 A 
HETATM   16  F1  UNL     1     -21.058   8.935  -2.773  1.00  0.00    -0.203 F 
HETATM   17  C17 UNL     1     -20.968   6.870  -1.652  1.00  0.00     0.193 A 
HETATM   18  F2  UNL     1     -22.244   6.603  -2.020  1.00  0.00    -0.200 F 
HETATM   19  C18 UNL     1     -20.210   6.001  -0.893  1.00  0.00     0.158 A 
HETATM   20  F3  UNL     1     -20.808   4.840  -0.521  1.00  0.00    -0.203 F 
HETATM   21  C19 UNL     1     -18.913   6.282  -0.522  1.00  0.00     0.059 A 
ENDBRANCH   9  13
ENDBRANCH   5   7
BRANCH   4  22
HETATM   22  O3  UNL     1     -13.423   6.284  -2.911  1.00  0.00    -0.390 OA
ATOM     23  H3  UNL     1     -13.084   5.429  -3.152  1.00  0.00     0.210 HD
ENDBRANCH   4  22
BRANCH   6  24
HETATM   24  O4  UNL     1     -12.415   7.819   0.883  1.00  0.00    -0.391 OA
ATOM     25  H4  UNL     1     -12.285   8.444   1.586  1.00  0.00     0.210 HD
ENDBRANCH   6  24
BRANCH   3  26
HETATM   26  S1  UNL     1     -10.894   5.632  -3.018  1.00  0.00    -0.095 SA
BRANCH  26  27
HETATM   27  C4  UNL     1      -9.310   4.907  -2.627  1.00  0.00     0.004 A 
HETATM   28  C5  UNL     1      -8.282   5.669  -2.119  1.00  0.00     0.020 A 
HETATM   29  C6  UNL     1      -7.044   5.124  -1.807  1.00  0.00     0.027 A 
HETATM   30  C7  UNL     1      -6.832   3.776  -2.011  1.00  0.00     0.055 A 
HETATM   31 CL1  UNL     1      -5.296   3.053  -1.634  1.00  0.00    -0.083 Cl
HETATM   32  C8  UNL     1      -7.853   3.007  -2.518  1.00  0.00     0.057 A 
HETATM   33 CL2  UNL     1      -7.566   1.297  -2.771  1.00  0.00    -0.083 Cl
HETATM   34  C9  UNL     1      -9.100   3.560  -2.831  1.00  0.00     0.044 A 
ENDBRANCH  26  27
ENDBRANCH   3  26
BRANCH   1  35
HETATM   35  C1  UNL     1      -9.934   9.102  -0.373  1.00  0.00     0.198 C 
BRANCH  35  36
HETATM   36  O1  UNL     1      -9.897   8.980   0.995  1.00  0.00    -0.398 OA
ATOM     37  H1  UNL     1      -9.691   9.813   1.403  1.00  0.00     0.209 HD
ENDBRANCH  35  36
ENDBRANCH   1  35
TORSDOF 8
ENDMDL
