MODEL 17
REMARK VINA RESULT: -6.913729473      7.324     11.309
REMARK  8 active torsions:
REMARK  status: ('A' for Active; 'I' for Inactive)
REMARK    1  A    between atoms: O1_1  and  C1_3 
REMARK    2  A    between atoms: C1_3  and  C2_4 
REMARK    3  A    between atoms: C3_6  and  S1_7 
REMARK    4  A    between atoms: S1_7  and  C4_8 
REMARK    5  A    between atoms: C10_16  and  O3_17 
REMARK    6  A    between atoms: C11_19  and  N1_20 
REMARK    7  A    between atoms: C13_22  and  C14_23 
REMARK    8  A    between atoms: C20_35  and  O4_36 
ROOT
HETATM    1  C2  UNL     1     -19.616   6.412  -1.058  1.00  0.00     0.177 C 
HETATM    2  O2  UNL     1     -20.424   7.534  -0.977  1.00  0.00    -0.362 OA
HETATM    3  C3  UNL     1     -20.236   8.421  -1.994  1.00  0.00     0.219 C 
HETATM    4  C10 UNL     1     -18.867   8.607  -2.515  1.00  0.00     0.184 C 
HETATM    5  C11 UNL     1     -17.825   7.641  -2.109  1.00  0.00     0.169 C 
HETATM    6  C20 UNL     1     -18.198   6.903  -0.831  1.00  0.00     0.176 C 
ENDROOT
BRANCH   5   7
HETATM    7  N1  UNL     1     -16.541   8.298  -1.978  1.00  0.00    -0.275 N 
HETATM    8  C12 UNL     1     -15.690   8.031  -0.972  1.00  0.00     0.140 A 
HETATM    9  C13 UNL     1     -14.560   8.806  -1.115  1.00  0.00     0.073 A 
HETATM   10  N2  UNL     1     -14.756   9.529  -2.214  1.00  0.00    -0.282 N 
HETATM   11  N3  UNL     1     -15.957   9.214  -2.728  1.00  0.00    -0.020 NA
ATOM     12  H2  UNL     1     -14.104  10.210  -2.603  1.00  0.00     0.184 HD
BRANCH   9  13
HETATM   13  C14 UNL     1     -13.408   8.789  -0.208  1.00  0.00    -0.001 A 
HETATM   14  C15 UNL     1     -12.125   8.770  -0.705  1.00  0.00     0.059 A 
HETATM   15  C16 UNL     1     -11.052   8.754   0.149  1.00  0.00     0.158 A 
HETATM   16  F1  UNL     1      -9.788   8.736  -0.369  1.00  0.00    -0.203 F 
HETATM   17  C17 UNL     1     -11.189   8.756   1.520  1.00  0.00     0.193 A 
HETATM   18  F2  UNL     1     -10.107   8.739   2.334  1.00  0.00    -0.200 F 
HETATM   19  C18 UNL     1     -12.484   8.774   1.995  1.00  0.00     0.158 A 
HETATM   20  F3  UNL     1     -12.635   8.776   3.345  1.00  0.00    -0.203 F 
HETATM   21  C19 UNL     1     -13.579   8.790   1.158  1.00  0.00     0.059 A 
ENDBRANCH   9  13
ENDBRANCH   5   7
BRANCH   4  22
HETATM   22  O3  UNL     1     -18.951   8.582  -3.929  1.00  0.00    -0.390 OA
ATOM     23  H3  UNL     1     -19.107   9.475  -4.217  1.00  0.00     0.210 HD
ENDBRANCH   4  22
BRANCH   6  24
HETATM   24  O4  UNL     1     -18.273   7.883   0.172  1.00  0.00    -0.391 OA
ATOM     25  H4  UNL     1     -17.380   8.154   0.350  1.00  0.00     0.210 HD
ENDBRANCH   6  24
BRANCH   3  26
HETATM   26  S1  UNL     1     -21.437   8.041  -3.332  1.00  0.00    -0.095 SA
BRANCH  26  27
HETATM   27  C4  UNL     1     -23.024   7.866  -2.533  1.00  0.00     0.004 A 
HETATM   28  C5  UNL     1     -23.739   6.692  -2.615  1.00  0.00     0.020 A 
HETATM   29  C6  UNL     1     -24.973   6.535  -2.000  1.00  0.00     0.027 A 
HETATM   30  C7  UNL     1     -25.505   7.587  -1.281  1.00  0.00     0.055 A 
HETATM   31 CL1  UNL     1     -27.049   7.432  -0.495  1.00  0.00    -0.083 Cl
HETATM   32  C8  UNL     1     -24.798   8.763  -1.194  1.00  0.00     0.057 A 
HETATM   33 CL2  UNL     1     -25.490  10.087  -0.279  1.00  0.00    -0.083 Cl
HETATM   34  C9  UNL     1     -23.554   8.917  -1.816  1.00  0.00     0.044 A 
ENDBRANCH  26  27
ENDBRANCH   3  26
BRANCH   1  35
HETATM   35  C1  UNL     1     -20.019   5.377  -0.039  1.00  0.00     0.198 C 
BRANCH  35  36
HETATM   36  O1  UNL     1     -21.340   5.031  -0.189  1.00  0.00    -0.398 OA
ATOM     37  H1  UNL     1     -21.852   5.315   0.560  1.00  0.00     0.209 HD
ENDBRANCH  35  36
ENDBRANCH   1  35
TORSDOF 8
ENDMDL
