MODEL 3
REMARK VINA RESULT: -7.715429205      0.779      1.083
REMARK  8 active torsions:
REMARK  status: ('A' for Active; 'I' for Inactive)
REMARK    1  A    between atoms: O1_1  and  C1_3 
REMARK    2  A    between atoms: C1_3  and  C2_4 
REMARK    3  A    between atoms: C3_6  and  S1_7 
REMARK    4  A    between atoms: S1_7  and  C4_8 
REMARK    5  A    between atoms: C10_16  and  O3_17 
REMARK    6  A    between atoms: C11_19  and  N1_20 
REMARK    7  A    between atoms: C13_22  and  C14_23 
REMARK    8  A    between atoms: C20_35  and  O4_36 
ROOT
HETATM    1  C2  UNL     1     -10.887   8.242  -0.929  1.00  0.00     0.177 C 
HETATM    2  O2  UNL     1     -10.646   6.906  -0.656  1.00  0.00    -0.362 OA
HETATM    3  C3  UNL     1     -11.495   6.053  -1.296  1.00  0.00     0.219 C 
HETATM    4  C10 UNL     1     -12.902   6.467  -1.469  1.00  0.00     0.184 C 
HETATM    5  C11 UNL     1     -13.258   7.875  -1.196  1.00  0.00     0.169 C 
HETATM    6  C20 UNL     1     -12.232   8.558  -0.301  1.00  0.00     0.176 C 
ENDROOT
BRANCH   5   7
HETATM    7  N1  UNL     1     -14.588   7.967  -0.630  1.00  0.00    -0.275 N 
HETATM    8  C12 UNL     1     -15.690   7.603  -1.307  1.00  0.00     0.140 A 
HETATM    9  C13 UNL     1     -16.798   7.802  -0.514  1.00  0.00     0.073 A 
HETATM   10  N2  UNL     1     -16.335   8.286   0.636  1.00  0.00    -0.282 N 
HETATM   11  N3  UNL     1     -14.998   8.381   0.554  1.00  0.00    -0.020 NA
ATOM     12  H2  UNL     1     -16.902   8.542   1.444  1.00  0.00     0.184 HD
BRANCH   9  13
HETATM   13  C14 UNL     1     -18.180   7.517  -0.912  1.00  0.00    -0.001 A 
HETATM   14  C15 UNL     1     -18.785   6.336  -0.546  1.00  0.00     0.059 A 
HETATM   15  C16 UNL     1     -20.078   6.075  -0.921  1.00  0.00     0.158 A 
HETATM   16  F1  UNL     1     -20.657   4.896  -0.545  1.00  0.00    -0.203 F 
HETATM   17  C17 UNL     1     -20.831   6.955  -1.669  1.00  0.00     0.193 A 
HETATM   18  F2  UNL     1     -22.105   6.665  -2.023  1.00  0.00    -0.200 F 
HETATM   19  C18 UNL     1     -20.203   8.132  -2.024  1.00  0.00     0.158 A 
HETATM   20  F3  UNL     1     -20.932   9.010  -2.761  1.00  0.00    -0.203 F 
HETATM   21  C19 UNL     1     -18.905   8.418  -1.660  1.00  0.00     0.059 A 
ENDBRANCH   9  13
ENDBRANCH   5   7
BRANCH   4  22
HETATM   22  O3  UNL     1     -13.258   6.184  -2.811  1.00  0.00    -0.390 OA
ATOM     23  H3  UNL     1     -13.873   6.855  -3.085  1.00  0.00     0.210 HD
ENDBRANCH   4  22
BRANCH   6  24
HETATM   24  O4  UNL     1     -12.271   7.873   0.923  1.00  0.00    -0.391 OA
ATOM     25  H4  UNL     1     -13.156   7.542   1.019  1.00  0.00     0.210 HD
ENDBRANCH   6  24
BRANCH   3  26
HETATM   26  S1  UNL     1     -10.727   5.541  -2.884  1.00  0.00    -0.095 SA
BRANCH  26  27
HETATM   27  C4  UNL     1      -9.134   4.854  -2.460  1.00  0.00     0.004 A 
HETATM   28  C5  UNL     1      -8.980   4.030  -1.368  1.00  0.00     0.020 A 
HETATM   29  C6  UNL     1      -7.751   3.485  -1.023  1.00  0.00     0.027 A 
HETATM   30  C7  UNL     1      -6.645   3.775  -1.797  1.00  0.00     0.055 A 
HETATM   31 CL1  UNL     1      -5.087   3.113  -1.399  1.00  0.00    -0.083 Cl
HETATM   32  C8  UNL     1      -6.790   4.598  -2.889  1.00  0.00     0.057 A 
HETATM   33 CL2  UNL     1      -5.375   4.956  -3.859  1.00  0.00    -0.083 Cl
HETATM   34  C9  UNL     1      -8.031   5.146  -3.234  1.00  0.00     0.044 A 
ENDBRANCH  26  27
ENDBRANCH   3  26
BRANCH   1  35
HETATM   35  C1  UNL     1      -9.792   9.117  -0.375  1.00  0.00     0.198 C 
BRANCH  35  36
HETATM   36  O1  UNL     1      -9.796   9.094   0.999  1.00  0.00    -0.398 OA
ATOM     37  H1  UNL     1      -9.058   9.580   1.348  1.00  0.00     0.209 HD
ENDBRANCH  35  36
ENDBRANCH   1  35
TORSDOF 8
ENDMDL
