MODEL 11
REMARK VINA RESULT: -5.469242495      0.960      6.199
REMARK  11 active torsions:
REMARK  status: ('A' for Active; 'I' for Inactive)
REMARK    1  A    between atoms: N1_2  and  C4_5 
REMARK    2  A    between atoms: C4_5  and  C5_6 
REMARK    3  A    between atoms: C5_6  and  C6_7 
REMARK    4  A    between atoms: C6_7  and  C7_8 
REMARK    5  A    between atoms: C7_8  and  C8_9 
REMARK    6  A    between atoms: C8_9  and  C9_10 
REMARK    7  A    between atoms: C9_10  and  C10_11 
REMARK    8  A    between atoms: C10_11  and  C11_12 
REMARK    9  A    between atoms: C11_12  and  C12_13 
REMARK   10  A    between atoms: C12_13  and  C13_14 
REMARK   11  A    between atoms: C13_14  and  N2_15 
ROOT
HETATM    1  C8  UNL     1     -23.422 -42.026 -22.271  1.00  0.00     0.000 C 
ENDROOT
BRANCH   1   2
HETATM    2  C7  UNL     1     -22.846 -43.065 -21.334  1.00  0.00     0.000 C 
BRANCH   2   3
HETATM    3  C6  UNL     1     -21.335 -43.088 -21.385  1.00  0.00     0.002 C 
BRANCH   3   4
HETATM    4  C5  UNL     1     -20.943 -43.552 -22.772  1.00  0.00     0.028 C 
BRANCH   4   5
HETATM    5  C4  UNL     1     -19.481 -43.323 -23.038  1.00  0.00     0.236 C 
BRANCH   5   6
HETATM    6  N1  UNL     1     -18.751 -44.492 -23.365  1.00  0.00    -0.079 N 
HETATM    7  C1  UNL     1     -17.537 -44.135 -24.077  1.00  0.00     0.271 C 
HETATM    8  C2  UNL     1     -18.353 -45.285 -22.223  1.00  0.00     0.271 C 
HETATM    9  C3  UNL     1     -19.555 -45.352 -24.218  1.00  0.00     0.271 C 
ENDBRANCH   5   6
ENDBRANCH   4   5
ENDBRANCH   3   4
ENDBRANCH   2   3
ENDBRANCH   1   2
BRANCH   1  10
HETATM   10  C9  UNL     1     -23.362 -40.647 -21.725  1.00  0.00     0.000 C 
BRANCH  10  11
HETATM   11  C10 UNL     1     -22.594 -39.687 -22.589  1.00  0.00     0.000 C 
BRANCH  11  12
HETATM   12  C11 UNL     1     -22.200 -40.345 -23.870  1.00  0.00     0.002 C 
BRANCH  12  13
HETATM   13  C12 UNL     1     -21.096 -39.688 -24.600  1.00  0.00     0.028 C 
BRANCH  13  14
HETATM   14  C13 UNL     1     -21.377 -38.670 -25.618  1.00  0.00     0.236 C 
BRANCH  14  15
HETATM   15  N2  UNL     1     -20.961 -37.334 -25.432  1.00  0.00    -0.079 N 
HETATM   16  C14 UNL     1     -20.945 -36.646 -26.736  1.00  0.00     0.271 C 
HETATM   17  C15 UNL     1     -21.713 -36.538 -24.487  1.00  0.00     0.271 C 
HETATM   18  C16 UNL     1     -19.581 -37.314 -24.962  1.00  0.00     0.271 C 
ENDBRANCH  14  15
ENDBRANCH  13  14
ENDBRANCH  12  13
ENDBRANCH  11  12
ENDBRANCH  10  11
ENDBRANCH   1  10
TORSDOF 11
ENDMDL
