MODEL 3
REMARK VINA RESULT: -5.559779087      2.480      5.347
REMARK  11 active torsions:
REMARK  status: ('A' for Active; 'I' for Inactive)
REMARK    1  A    between atoms: N1_2  and  C4_5 
REMARK    2  A    between atoms: C4_5  and  C5_6 
REMARK    3  A    between atoms: C5_6  and  C6_7 
REMARK    4  A    between atoms: C6_7  and  C7_8 
REMARK    5  A    between atoms: C7_8  and  C8_9 
REMARK    6  A    between atoms: C8_9  and  C9_10 
REMARK    7  A    between atoms: C9_10  and  C10_11 
REMARK    8  A    between atoms: C10_11  and  C11_12 
REMARK    9  A    between atoms: C11_12  and  C12_13 
REMARK   10  A    between atoms: C12_13  and  C13_14 
REMARK   11  A    between atoms: C13_14  and  N2_15 
ROOT
HETATM    1  C8  UNL     1     -20.690 -37.140 -25.463  1.00  0.00     0.000 C 
ENDROOT
BRANCH   1   2
HETATM    2  C7  UNL     1     -21.736 -36.676 -24.473  1.00  0.00     0.000 C 
BRANCH   2   3
HETATM    3  C6  UNL     1     -22.167 -37.793 -23.550  1.00  0.00     0.002 C 
BRANCH   3   4
HETATM    4  C5  UNL     1     -21.887 -39.097 -24.267  1.00  0.00     0.028 C 
BRANCH   4   5
HETATM    5  C4  UNL     1     -22.042 -40.276 -23.347  1.00  0.00     0.236 C 
BRANCH   5   6
HETATM    6  N1  UNL     1     -20.825 -40.906 -22.986  1.00  0.00    -0.079 N 
HETATM    7  C1  UNL     1     -20.898 -42.327 -23.277  1.00  0.00     0.271 C 
HETATM    8  C2  UNL     1     -19.661 -40.393 -23.674  1.00  0.00     0.271 C 
HETATM    9  C3  UNL     1     -20.585 -40.734 -21.563  1.00  0.00     0.271 C 
ENDBRANCH   5   6
ENDBRANCH   4   5
ENDBRANCH   3   4
ENDBRANCH   2   3
ENDBRANCH   1   2
BRANCH   1  10
HETATM   10  C9  UNL     1     -20.924 -36.641 -26.840  1.00  0.00     0.000 C 
BRANCH  10  11
HETATM   11  C10 UNL     1     -21.292 -37.719 -27.822  1.00  0.00     0.000 C 
BRANCH  11  12
HETATM   12  C11 UNL     1     -20.364 -38.881 -27.685  1.00  0.00     0.002 C 
BRANCH  12  13
HETATM   13  C12 UNL     1     -20.965 -40.200 -27.968  1.00  0.00     0.028 C 
BRANCH  13  14
HETATM   14  C13 UNL     1     -20.555 -41.385 -27.207  1.00  0.00     0.236 C 
BRANCH  14  15
HETATM   15  N2  UNL     1     -20.992 -42.672 -27.591  1.00  0.00    -0.079 N 
HETATM   16  C14 UNL     1     -21.533 -42.609 -28.961  1.00  0.00     0.271 C 
HETATM   17  C15 UNL     1     -20.025 -43.744 -27.513  1.00  0.00     0.271 C 
HETATM   18  C16 UNL     1     -22.109 -43.079 -26.748  1.00  0.00     0.271 C 
ENDBRANCH  14  15
ENDBRANCH  13  14
ENDBRANCH  12  13
ENDBRANCH  11  12
ENDBRANCH  10  11
ENDBRANCH   1  10
TORSDOF 11
ENDMDL
