MODEL 16
REMARK VINA RESULT: -5.437285702      0.835      1.859
REMARK  11 active torsions:
REMARK  status: ('A' for Active; 'I' for Inactive)
REMARK    1  A    between atoms: N1_2  and  C4_5 
REMARK    2  A    between atoms: C4_5  and  C5_6 
REMARK    3  A    between atoms: C5_6  and  C6_7 
REMARK    4  A    between atoms: C6_7  and  C7_8 
REMARK    5  A    between atoms: C7_8  and  C8_9 
REMARK    6  A    between atoms: C8_9  and  C9_10 
REMARK    7  A    between atoms: C9_10  and  C10_11 
REMARK    8  A    between atoms: C10_11  and  C11_12 
REMARK    9  A    between atoms: C11_12  and  C12_13 
REMARK   10  A    between atoms: C12_13  and  C13_14 
REMARK   11  A    between atoms: C13_14  and  N2_15 
ROOT
HETATM    1  C8  UNL     1     -23.636 -41.147 -21.322  1.00  0.00     0.000 C 
ENDROOT
BRANCH   1   2
HETATM    2  C7  UNL     1     -23.289 -39.814 -21.949  1.00  0.00     0.000 C 
BRANCH   2   3
HETATM    3  C6  UNL     1     -22.391 -39.979 -23.154  1.00  0.00     0.002 C 
BRANCH   3   4
HETATM    4  C5  UNL     1     -22.144 -38.596 -23.718  1.00  0.00     0.028 C 
BRANCH   4   5
HETATM    5  C4  UNL     1     -21.467 -38.661 -25.059  1.00  0.00     0.236 C 
BRANCH   5   6
HETATM    6  N1  UNL     1     -20.915 -37.432 -25.500  1.00  0.00    -0.079 N 
HETATM    7  C1  UNL     1     -19.516 -37.353 -25.119  1.00  0.00     0.271 C 
HETATM    8  C2  UNL     1     -20.975 -37.231 -26.931  1.00  0.00     0.271 C 
HETATM    9  C3  UNL     1     -21.629 -36.324 -24.886  1.00  0.00     0.271 C 
ENDBRANCH   5   6
ENDBRANCH   4   5
ENDBRANCH   3   4
ENDBRANCH   2   3
ENDBRANCH   1   2
BRANCH   1  10
HETATM   10  C9  UNL     1     -23.198 -42.309 -22.135  1.00  0.00     0.000 C 
BRANCH  10  11
HETATM   11  C10 UNL     1     -22.472 -43.362 -21.345  1.00  0.00     0.000 C 
BRANCH  11  12
HETATM   12  C11 UNL     1     -21.035 -42.987 -21.183  1.00  0.00     0.002 C 
BRANCH  12  13
HETATM   13  C12 UNL     1     -20.234 -43.021 -22.424  1.00  0.00     0.028 C 
BRANCH  13  14
HETATM   14  C13 UNL     1     -20.215 -44.221 -23.267  1.00  0.00     0.236 C 
BRANCH  14  15
HETATM   15  N2  UNL     1     -18.997 -44.874 -23.559  1.00  0.00    -0.079 N 
HETATM   16  C14 UNL     1     -18.377 -45.324 -22.300  1.00  0.00     0.271 C 
HETATM   17  C15 UNL     1     -19.053 -45.985 -24.482  1.00  0.00     0.271 C 
HETATM   18  C16 UNL     1     -18.059 -43.920 -24.138  1.00  0.00     0.271 C 
ENDBRANCH  14  15
ENDBRANCH  13  14
ENDBRANCH  12  13
ENDBRANCH  11  12
ENDBRANCH  10  11
ENDBRANCH   1  10
TORSDOF 11
ENDMDL
