MODEL 11
REMARK VINA RESULT: -8.427741088      3.073      8.653
REMARK  5 active torsions:
REMARK  status: ('A' for Active; 'I' for Inactive)
REMARK    1  A    between atoms: C1_2  and  C2_3 
REMARK       I    between atoms: C1_2  and  N1_17 
REMARK    2  A    between atoms: C2_3  and  C3_4 
REMARK    3  A    between atoms: C3_4  and  C4_5 
REMARK    4  A    between atoms: C3_4  and  C10_11 
REMARK    5  A    between atoms: N1_17  and  C16_19 
ROOT
HETATM    1  O1  UNL     1      -5.312  -6.432  10.887  1.00  0.00    -0.273 OA
HETATM    2  C1  UNL     1      -6.159  -6.992  11.619  1.00  0.00     0.224 C 
HETATM    3  N1  UNL     1      -7.475  -6.499  11.619  1.00  0.00    -0.307 N 
ATOM      4  H1  UNL     1      -8.175  -6.946  12.210  1.00  0.00     0.171 HD
ENDROOT
BRANCH   2   5
HETATM    5  C2  UNL     1      -5.833  -8.164  12.494  1.00  0.00     0.117 C 
BRANCH   5   6
HETATM    6  C3  UNL     1      -6.239  -9.453  11.872  1.00  0.00     0.060 C 
BRANCH   6   7
HETATM    7  C4  UNL     1      -5.134 -10.422  11.960  1.00  0.00    -0.049 A 
HETATM    8  C5  UNL     1      -4.387 -10.701  10.844  1.00  0.00     0.008 A 
HETATM    9  C6  UNL     1      -3.344 -11.623  10.932  1.00  0.00     0.001 A 
HETATM   10  C7  UNL     1      -3.060 -12.251  12.124  1.00  0.00     0.000 A 
HETATM   11  C8  UNL     1      -3.812 -11.971  13.257  1.00  0.00     0.001 A 
HETATM   12  C9  UNL     1      -4.840 -11.058  13.150  1.00  0.00     0.008 A 
ENDBRANCH   6   7
BRANCH   6  13
HETATM   13  C10 UNL     1      -7.435 -10.076  12.516  1.00  0.00    -0.049 A 
HETATM   14  C11 UNL     1      -7.974 -11.207  11.990  1.00  0.00     0.008 A 
HETATM   15  C12 UNL     1      -9.092 -11.819  12.564  1.00  0.00     0.001 A 
HETATM   16  C13 UNL     1      -9.676 -11.279  13.690  1.00  0.00     0.000 A 
HETATM   17  C14 UNL     1      -9.124 -10.131  14.218  1.00  0.00     0.001 A 
HETATM   18  C15 UNL     1      -8.005  -9.522  13.640  1.00  0.00     0.008 A 
ENDBRANCH   6  13
ENDBRANCH   5   6
ENDBRANCH   2   5
BRANCH   3  19
HETATM   19  C16 UNL     1      -7.852  -5.382  10.805  1.00  0.00     0.152 A 
HETATM   20  N2  UNL     1      -7.437  -5.113   9.588  1.00  0.00    -0.335 N 
HETATM   21  C17 UNL     1      -7.879  -4.043   8.973  1.00  0.00     0.051 A 
ATOM     22  H2  UNL     1      -6.774  -5.733   9.124  1.00  0.00     0.168 HD
HETATM   23  C18 UNL     1      -7.520  -3.634   7.671  1.00  0.00     0.031 A 
HETATM   24  C22 UNL     1      -8.766  -3.249   9.648  1.00  0.00     0.035 A 
HETATM   25  C19 UNL     1      -8.058  -2.497   7.159  1.00  0.00     0.002 A 
HETATM   26  C20 UNL     1      -8.945  -1.687   7.811  1.00  0.00     0.002 A 
HETATM   27  C21 UNL     1      -9.305  -2.078   9.087  1.00  0.00     0.021 A 
HETATM   28  S1  UNL     1      -8.915  -4.088  11.130  1.00  0.00    -0.052 SA
ENDBRANCH   3  19
TORSDOF 5
ENDMDL
