MODEL 2
REMARK VINA RESULT: -9.413631604      0.616      1.113
REMARK  5 active torsions:
REMARK  status: ('A' for Active; 'I' for Inactive)
REMARK    1  A    between atoms: C1_2  and  C2_3 
REMARK       I    between atoms: C1_2  and  N1_17 
REMARK    2  A    between atoms: C2_3  and  C3_4 
REMARK    3  A    between atoms: C3_4  and  C4_5 
REMARK    4  A    between atoms: C3_4  and  C10_11 
REMARK    5  A    between atoms: N1_17  and  C16_19 
ROOT
HETATM    1  O1  UNL     1      -9.106  -6.084  10.125  1.00  0.00    -0.273 OA
HETATM    2  C1  UNL     1      -8.435  -5.404  10.933  1.00  0.00     0.224 C 
HETATM    3  N1  UNL     1      -8.050  -5.996  12.148  1.00  0.00    -0.307 N 
ATOM      4  H1  UNL     1      -7.502  -5.453  12.816  1.00  0.00     0.171 HD
ENDROOT
BRANCH   2   5
HETATM    5  C2  UNL     1      -8.023  -3.988  10.663  1.00  0.00     0.117 C 
BRANCH   5   6
HETATM    6  C3  UNL     1      -7.470  -3.822   9.292  1.00  0.00     0.060 C 
BRANCH   6   7
HETATM    7  C4  UNL     1      -7.466  -2.397   8.922  1.00  0.00    -0.049 A 
HETATM    8  C5  UNL     1      -6.575  -1.544   9.521  1.00  0.00     0.008 A 
HETATM    9  C6  UNL     1      -6.578  -0.194   9.172  1.00  0.00     0.001 A 
HETATM   10  C7  UNL     1      -7.464   0.285   8.233  1.00  0.00     0.000 A 
HETATM   11  C8  UNL     1      -8.368  -0.573   7.622  1.00  0.00     0.001 A 
HETATM   12  C9  UNL     1      -8.350  -1.905   7.982  1.00  0.00     0.008 A 
ENDBRANCH   6   7
BRANCH   6  13
HETATM   13  C10 UNL     1      -6.070  -4.326   9.148  1.00  0.00    -0.049 A 
HETATM   14  C11 UNL     1      -5.508  -4.420   7.915  1.00  0.00     0.008 A 
HETATM   15  C12 UNL     1      -4.202  -4.886   7.740  1.00  0.00     0.001 A 
HETATM   16  C13 UNL     1      -3.450  -5.265   8.831  1.00  0.00     0.000 A 
HETATM   17  C14 UNL     1      -4.026  -5.168  10.080  1.00  0.00     0.001 A 
HETATM   18  C15 UNL     1      -5.334  -4.700  10.250  1.00  0.00     0.008 A 
ENDBRANCH   6  13
ENDBRANCH   5   6
ENDBRANCH   2   5
BRANCH   3  19
HETATM   19  C16 UNL     1      -8.411  -7.344  12.468  1.00  0.00     0.152 A 
HETATM   20  N2  UNL     1      -8.504  -8.357  11.636  1.00  0.00    -0.335 N 
HETATM   21  C17 UNL     1      -8.849  -9.538  12.087  1.00  0.00     0.051 A 
ATOM     22  H2  UNL     1      -8.309  -8.226  10.644  1.00  0.00     0.168 HD
HETATM   23  C18 UNL     1      -8.987 -10.709  11.312  1.00  0.00     0.031 A 
HETATM   24  C22 UNL     1      -9.099  -9.652  13.429  1.00  0.00     0.035 A 
HETATM   25  C19 UNL     1      -9.354 -11.868  11.916  1.00  0.00     0.002 A 
HETATM   26  C20 UNL     1      -9.609 -12.009  13.252  1.00  0.00     0.002 A 
HETATM   27  C21 UNL     1      -9.477 -10.870  14.022  1.00  0.00     0.021 A 
HETATM   28  S1  UNL     1      -8.822  -8.052  13.964  1.00  0.00    -0.052 SA
ENDBRANCH   3  19
TORSDOF 5
ENDMDL
