MODEL 10
REMARK VINA RESULT: -8.620613726      3.135      8.314
REMARK  5 active torsions:
REMARK  status: ('A' for Active; 'I' for Inactive)
REMARK    1  A    between atoms: C1_2  and  C2_3 
REMARK       I    between atoms: C1_2  and  N1_17 
REMARK    2  A    between atoms: C2_3  and  C3_4 
REMARK    3  A    between atoms: C3_4  and  C4_5 
REMARK    4  A    between atoms: C3_4  and  C10_11 
REMARK    5  A    between atoms: N1_17  and  C16_19 
ROOT
HETATM    1  O1  UNL     1      -9.686  -2.605   9.196  1.00  0.00    -0.273 OA
HETATM    2  C1  UNL     1      -8.507  -3.022   9.145  1.00  0.00     0.224 C 
HETATM    3  N1  UNL     1      -7.473  -2.088   8.963  1.00  0.00    -0.307 N 
ATOM      4  H1  UNL     1      -6.508  -2.414   8.920  1.00  0.00     0.171 HD
ENDROOT
BRANCH   2   5
HETATM    5  C2  UNL     1      -8.149  -4.472   9.271  1.00  0.00     0.117 C 
BRANCH   5   6
HETATM    6  C3  UNL     1      -7.218  -4.718  10.406  1.00  0.00     0.060 C 
BRANCH   6   7
HETATM    7  C4  UNL     1      -7.843  -5.630  11.379  1.00  0.00    -0.049 A 
HETATM    8  C5  UNL     1      -7.431  -5.612  12.686  1.00  0.00     0.008 A 
HETATM    9  C6  UNL     1      -8.022  -6.480  13.603  1.00  0.00     0.001 A 
HETATM   10  C7  UNL     1      -9.014  -7.350  13.206  1.00  0.00     0.000 A 
HETATM   11  C8  UNL     1      -9.436  -7.372  11.885  1.00  0.00     0.001 A 
HETATM   12  C9  UNL     1      -8.838  -6.507  10.993  1.00  0.00     0.008 A 
ENDBRANCH   6   7
BRANCH   6  13
HETATM   13  C10 UNL     1      -5.918  -5.329   9.990  1.00  0.00    -0.049 A 
HETATM   14  C11 UNL     1      -5.263  -4.847   8.903  1.00  0.00     0.008 A 
HETATM   15  C12 UNL     1      -4.046  -5.392   8.483  1.00  0.00     0.001 A 
HETATM   16  C13 UNL     1      -3.480  -6.442   9.175  1.00  0.00     0.000 A 
HETATM   17  C14 UNL     1      -4.151  -6.925  10.278  1.00  0.00     0.001 A 
HETATM   18  C15 UNL     1      -5.369  -6.377  10.695  1.00  0.00     0.008 A 
ENDBRANCH   6  13
ENDBRANCH   5   6
ENDBRANCH   2   5
BRANCH   3  19
HETATM   19  C16 UNL     1      -7.747  -0.688   8.835  1.00  0.00     0.152 A 
HETATM   20  N2  UNL     1      -8.473  -0.105   7.908  1.00  0.00    -0.335 N 
HETATM   21  C17 UNL     1      -8.631   1.195   7.928  1.00  0.00     0.051 A 
ATOM     22  H2  UNL     1      -8.913  -0.662   7.175  1.00  0.00     0.168 HD
HETATM   23  C18 UNL     1      -9.380   1.950   7.001  1.00  0.00     0.031 A 
HETATM   24  C22 UNL     1      -8.016   1.889   8.936  1.00  0.00     0.035 A 
HETATM   25  C19 UNL     1      -9.455   3.298   7.146  1.00  0.00     0.002 A 
HETATM   26  C20 UNL     1      -8.851   4.014   8.142  1.00  0.00     0.002 A 
HETATM   27  C21 UNL     1      -8.115   3.286   9.057  1.00  0.00     0.021 A 
HETATM   28  S1  UNL     1      -7.247   0.628   9.797  1.00  0.00    -0.052 SA
ENDBRANCH   3  19
TORSDOF 5
ENDMDL
