MODEL 7
REMARK VINA RESULT: -8.907800997      1.046      1.152
REMARK  5 active torsions:
REMARK  status: ('A' for Active; 'I' for Inactive)
REMARK    1  A    between atoms: C1_2  and  C2_3 
REMARK       I    between atoms: C1_2  and  N1_17 
REMARK    2  A    between atoms: C2_3  and  C3_4 
REMARK    3  A    between atoms: C3_4  and  C4_5 
REMARK    4  A    between atoms: C3_4  and  C10_11 
REMARK    5  A    between atoms: N1_17  and  C16_19 
ROOT
HETATM    1  O1  UNL     1      -8.941  -5.767   9.728  1.00  0.00    -0.273 OA
HETATM    2  C1  UNL     1      -8.445  -5.020  10.602  1.00  0.00     0.224 C 
HETATM    3  N1  UNL     1      -7.874  -5.610  11.742  1.00  0.00    -0.307 N 
ATOM      4  H1  UNL     1      -7.466  -5.014  12.461  1.00  0.00     0.171 HD
ENDROOT
BRANCH   2   5
HETATM    5  C2  UNL     1      -8.434  -3.526  10.486  1.00  0.00     0.117 C 
BRANCH   5   6
HETATM    6  C3  UNL     1      -7.727  -3.069   9.259  1.00  0.00     0.060 C 
BRANCH   6   7
HETATM    7  C4  UNL     1      -7.695  -1.597   9.218  1.00  0.00    -0.049 A 
HETATM    8  C5  UNL     1      -8.021  -0.945   8.057  1.00  0.00     0.008 A 
HETATM    9  C6  UNL     1      -7.985   0.449   8.021  1.00  0.00     0.001 A 
HETATM   10  C7  UNL     1      -7.628   1.170   9.138  1.00  0.00     0.000 A 
HETATM   11  C8  UNL     1      -7.299   0.516  10.317  1.00  0.00     0.001 A 
HETATM   12  C9  UNL     1      -7.339  -0.863  10.332  1.00  0.00     0.008 A 
ENDBRANCH   6   7
BRANCH   6  13
HETATM   13  C10 UNL     1      -6.315  -3.550   9.169  1.00  0.00    -0.049 A 
HETATM   14  C11 UNL     1      -5.926  -4.311   8.114  1.00  0.00     0.008 A 
HETATM   15  C12 UNL     1      -4.615  -4.780   7.995  1.00  0.00     0.001 A 
HETATM   16  C13 UNL     1      -3.679  -4.475   8.960  1.00  0.00     0.000 A 
HETATM   17  C14 UNL     1      -4.080  -3.702  10.029  1.00  0.00     0.001 A 
HETATM   18  C15 UNL     1      -5.394  -3.234  10.144  1.00  0.00     0.008 A 
ENDBRANCH   6  13
ENDBRANCH   5   6
ENDBRANCH   2   5
BRANCH   3  19
HETATM   19  C16 UNL     1      -7.853  -7.032  11.914  1.00  0.00     0.152 A 
HETATM   20  N2  UNL     1      -8.833  -7.873  11.672  1.00  0.00    -0.335 N 
HETATM   21  C17 UNL     1      -8.656  -9.154  11.882  1.00  0.00     0.051 A 
ATOM     22  H2  UNL     1      -9.728  -7.531  11.323  1.00  0.00     0.168 HD
HETATM   23  C18 UNL     1      -9.616 -10.166  11.666  1.00  0.00     0.031 A 
HETATM   24  C22 UNL     1      -7.433  -9.553  12.352  1.00  0.00     0.035 A 
HETATM   25  C19 UNL     1      -9.292 -11.458  11.929  1.00  0.00     0.002 A 
HETATM   26  C20 UNL     1      -8.080 -11.883  12.399  1.00  0.00     0.002 A 
HETATM   27  C21 UNL     1      -7.131 -10.901  12.613  1.00  0.00     0.021 A 
HETATM   28  S1  UNL     1      -6.608  -8.060  12.464  1.00  0.00    -0.052 SA
ENDBRANCH   3  19
TORSDOF 5
ENDMDL
