MODEL 3
REMARK VINA RESULT: -9.148480170      1.380      3.572
REMARK  5 active torsions:
REMARK  status: ('A' for Active; 'I' for Inactive)
REMARK    1  A    between atoms: C1_2  and  C2_3 
REMARK       I    between atoms: C1_2  and  N1_17 
REMARK    2  A    between atoms: C2_3  and  C3_4 
REMARK    3  A    between atoms: C3_4  and  C4_5 
REMARK    4  A    between atoms: C3_4  and  C10_11 
REMARK    5  A    between atoms: N1_17  and  C16_19 
ROOT
HETATM    1  O1  UNL     1      -8.833  -5.924   9.762  1.00  0.00    -0.273 OA
HETATM    2  C1  UNL     1      -8.019  -5.255  10.436  1.00  0.00     0.224 C 
HETATM    3  N1  UNL     1      -7.586  -5.771  11.669  1.00  0.00    -0.307 N 
ATOM      4  H1  UNL     1      -6.922  -5.237  12.229  1.00  0.00     0.171 HD
ENDROOT
BRANCH   2   5
HETATM    5  C2  UNL     1      -7.485  -3.928   9.988  1.00  0.00     0.117 C 
BRANCH   5   6
HETATM    6  C3  UNL     1      -6.112  -3.677  10.507  1.00  0.00     0.060 C 
BRANCH   6   7
HETATM    7  C4  UNL     1      -5.131  -4.442   9.718  1.00  0.00    -0.049 A 
HETATM    8  C5  UNL     1      -5.048  -4.243   8.364  1.00  0.00     0.008 A 
HETATM    9  C6  UNL     1      -4.121  -4.972   7.620  1.00  0.00     0.001 A 
HETATM   10  C7  UNL     1      -3.292  -5.885   8.234  1.00  0.00     0.000 A 
HETATM   11  C8  UNL     1      -3.371  -6.090   9.605  1.00  0.00     0.001 A 
HETATM   12  C9  UNL     1      -4.295  -5.360  10.322  1.00  0.00     0.008 A 
ENDBRANCH   6   7
BRANCH   6  13
HETATM   13  C10 UNL     1      -5.708  -2.239  10.453  1.00  0.00    -0.049 A 
HETATM   14  C11 UNL     1      -6.558  -1.316   9.934  1.00  0.00     0.008 A 
HETATM   15  C12 UNL     1      -6.216   0.037   9.867  1.00  0.00     0.001 A 
HETATM   16  C13 UNL     1      -4.992   0.466  10.333  1.00  0.00     0.000 A 
HETATM   17  C14 UNL     1      -4.133  -0.476  10.859  1.00  0.00     0.001 A 
HETATM   18  C15 UNL     1      -4.480  -1.830  10.925  1.00  0.00     0.008 A 
ENDBRANCH   6  13
ENDBRANCH   5   6
ENDBRANCH   2   5
BRANCH   3  19
HETATM   19  C16 UNL     1      -8.058  -7.033  12.156  1.00  0.00     0.152 A 
HETATM   20  N2  UNL     1      -8.083  -8.174  11.504  1.00  0.00    -0.335 N 
HETATM   21  C17 UNL     1      -8.549  -9.247  12.093  1.00  0.00     0.051 A 
ATOM     22  H2  UNL     1      -7.740  -8.224  10.546  1.00  0.00     0.168 HD
HETATM   23  C18 UNL     1      -8.634 -10.533  11.516  1.00  0.00     0.031 A 
HETATM   24  C22 UNL     1      -8.996  -9.117  13.380  1.00  0.00     0.035 A 
HETATM   25  C19 UNL     1      -9.143 -11.558  12.247  1.00  0.00     0.002 A 
HETATM   26  C20 UNL     1      -9.595 -11.455  13.533  1.00  0.00     0.002 A 
HETATM   27  C21 UNL     1      -9.517 -10.201  14.109  1.00  0.00     0.021 A 
HETATM   28  S1  UNL     1      -8.717  -7.456  13.671  1.00  0.00    -0.052 SA
ENDBRANCH   3  19
TORSDOF 5
ENDMDL
