MODEL 5
REMARK VINA RESULT: -9.121548726      1.298      3.667
REMARK  5 active torsions:
REMARK  status: ('A' for Active; 'I' for Inactive)
REMARK    1  A    between atoms: C1_2  and  C2_3 
REMARK       I    between atoms: C1_2  and  N1_17 
REMARK    2  A    between atoms: C2_3  and  C3_4 
REMARK    3  A    between atoms: C3_4  and  C4_5 
REMARK    4  A    between atoms: C3_4  and  C10_11 
REMARK    5  A    between atoms: N1_17  and  C16_19 
ROOT
HETATM    1  O1  UNL     1      -8.900  -5.893   9.706  1.00  0.00    -0.273 OA
HETATM    2  C1  UNL     1      -8.086  -5.213  10.371  1.00  0.00     0.224 C 
HETATM    3  N1  UNL     1      -7.634  -5.723  11.600  1.00  0.00    -0.307 N 
ATOM      4  H1  UNL     1      -6.970  -5.181  12.152  1.00  0.00     0.171 HD
ENDROOT
BRANCH   2   5
HETATM    5  C2  UNL     1      -7.572  -3.881   9.916  1.00  0.00     0.117 C 
BRANCH   5   6
HETATM    6  C3  UNL     1      -6.209  -3.601  10.443  1.00  0.00     0.060 C 
BRANCH   6   7
HETATM    7  C4  UNL     1      -5.212  -4.394   9.703  1.00  0.00    -0.049 A 
HETATM    8  C5  UNL     1      -4.421  -5.287  10.378  1.00  0.00     0.008 A 
HETATM    9  C6  UNL     1      -3.475  -6.032   9.673  1.00  0.00     0.001 A 
HETATM   10  C7  UNL     1      -3.333  -5.879   8.312  1.00  0.00     0.000 A 
HETATM   11  C8  UNL     1      -4.133  -4.977   7.624  1.00  0.00     0.001 A 
HETATM   12  C9  UNL     1      -5.061  -4.248   8.338  1.00  0.00     0.008 A 
ENDBRANCH   6   7
BRANCH   6  13
HETATM   13  C10 UNL     1      -5.810  -2.165  10.334  1.00  0.00    -0.049 A 
HETATM   14  C11 UNL     1      -4.618  -1.754  10.840  1.00  0.00     0.008 A 
HETATM   15  C12 UNL     1      -4.211  -0.419  10.757  1.00  0.00     0.001 A 
HETATM   16  C13 UNL     1      -5.022   0.517  10.152  1.00  0.00     0.000 A 
HETATM   17  C14 UNL     1      -6.230   0.093   9.641  1.00  0.00     0.001 A 
HETATM   18  C15 UNL     1      -6.634  -1.244   9.726  1.00  0.00     0.008 A 
ENDBRANCH   6  13
ENDBRANCH   5   6
ENDBRANCH   2   5
BRANCH   3  19
HETATM   19  C16 UNL     1      -8.086  -6.990  12.092  1.00  0.00     0.152 A 
HETATM   20  N2  UNL     1      -8.120  -8.128  11.437  1.00  0.00    -0.335 N 
HETATM   21  C17 UNL     1      -8.566  -9.207  12.032  1.00  0.00     0.051 A 
ATOM     22  H2  UNL     1      -7.802  -8.172  10.470  1.00  0.00     0.168 HD
HETATM   23  C18 UNL     1      -8.658 -10.491  11.452  1.00  0.00     0.031 A 
HETATM   24  C22 UNL     1      -8.980  -9.085  13.331  1.00  0.00     0.035 A 
HETATM   25  C19 UNL     1      -9.142 -11.522  12.191  1.00  0.00     0.002 A 
HETATM   26  C20 UNL     1      -9.562 -11.427  13.489  1.00  0.00     0.002 A 
HETATM   27  C21 UNL     1      -9.477 -10.175  14.068  1.00  0.00     0.021 A 
HETATM   28  S1  UNL     1      -8.704  -7.423  13.622  1.00  0.00    -0.052 SA
ENDBRANCH   3  19
TORSDOF 5
ENDMDL
