MODEL 12
REMARK VINA RESULT: -8.368350594      3.031      8.545
REMARK  5 active torsions:
REMARK  status: ('A' for Active; 'I' for Inactive)
REMARK    1  A    between atoms: C1_2  and  C2_3 
REMARK       I    between atoms: C1_2  and  N1_17 
REMARK    2  A    between atoms: C2_3  and  C3_4 
REMARK    3  A    between atoms: C3_4  and  C4_5 
REMARK    4  A    between atoms: C3_4  and  C10_11 
REMARK    5  A    between atoms: N1_17  and  C16_19 
ROOT
HETATM    1  O1  UNL     1      -7.663  -5.652  12.678  1.00  0.00    -0.273 OA
HETATM    2  C1  UNL     1      -6.940  -6.500  12.110  1.00  0.00     0.224 C 
HETATM    3  N1  UNL     1      -6.576  -6.281  10.771  1.00  0.00    -0.307 N 
ATOM      4  H1  UNL     1      -5.987  -6.964  10.295  1.00  0.00     0.171 HD
ENDROOT
BRANCH   2   5
HETATM    5  C2  UNL     1      -6.446  -7.739  12.793  1.00  0.00     0.117 C 
BRANCH   5   6
HETATM    6  C3  UNL     1      -6.682  -8.959  11.973  1.00  0.00     0.060 C 
BRANCH   6   7
HETATM    7  C4  UNL     1      -5.444  -9.751  11.885  1.00  0.00    -0.049 A 
HETATM    8  C5  UNL     1      -4.842 -10.195  13.034  1.00  0.00     0.008 A 
HETATM    9  C6  UNL     1      -3.667 -10.942  12.946  1.00  0.00     0.001 A 
HETATM   10  C7  UNL     1      -3.112 -11.235  11.720  1.00  0.00     0.000 A 
HETATM   11  C8  UNL     1      -3.718 -10.789  10.554  1.00  0.00     0.001 A 
HETATM   12  C9  UNL     1      -4.878 -10.051  10.661  1.00  0.00     0.008 A 
ENDBRANCH   6   7
BRANCH   6  13
HETATM   13  C10 UNL     1      -7.747  -9.851  12.523  1.00  0.00    -0.049 A 
HETATM   14  C11 UNL     1      -8.128 -10.956  11.831  1.00  0.00     0.008 A 
HETATM   15  C12 UNL     1      -9.120 -11.814  12.314  1.00  0.00     0.001 A 
HETATM   16  C13 UNL     1      -9.740 -11.551  13.517  1.00  0.00     0.000 A 
HETATM   17  C14 UNL     1      -9.349 -10.427  14.214  1.00  0.00     0.001 A 
HETATM   18  C15 UNL     1      -8.354  -9.571  13.727  1.00  0.00     0.008 A 
ENDBRANCH   6  13
ENDBRANCH   5   6
ENDBRANCH   2   5
BRANCH   3  19
HETATM   19  C16 UNL     1      -7.016  -5.118  10.060  1.00  0.00     0.152 A 
HETATM   20  N2  UNL     1      -8.239  -4.643   9.998  1.00  0.00    -0.335 N 
HETATM   21  C17 UNL     1      -8.481  -3.560   9.301  1.00  0.00     0.051 A 
ATOM     22  H2  UNL     1      -8.997  -5.114  10.491  1.00  0.00     0.168 HD
HETATM   23  C18 UNL     1      -9.741  -2.942   9.148  1.00  0.00     0.031 A 
HETATM   24  C22 UNL     1      -7.423  -2.973   8.661  1.00  0.00     0.035 A 
HETATM   25  C19 UNL     1      -9.844  -1.820   8.391  1.00  0.00     0.002 A 
HETATM   26  C20 UNL     1      -8.804  -1.213   7.742  1.00  0.00     0.002 A 
HETATM   27  C21 UNL     1      -7.566  -1.809   7.884  1.00  0.00     0.021 A 
HETATM   28  S1  UNL     1      -6.139  -4.012   9.101  1.00  0.00    -0.052 SA
ENDBRANCH   3  19
TORSDOF 5
ENDMDL
