MODEL 4
REMARK VINA RESULT: -9.146894388      0.929      3.629
REMARK  5 active torsions:
REMARK  status: ('A' for Active; 'I' for Inactive)
REMARK    1  A    between atoms: C1_2  and  C2_3 
REMARK       I    between atoms: C1_2  and  N1_17 
REMARK    2  A    between atoms: C2_3  and  C3_4 
REMARK    3  A    between atoms: C3_4  and  C4_5 
REMARK    4  A    between atoms: C3_4  and  C10_11 
REMARK    5  A    between atoms: N1_17  and  C16_19 
ROOT
HETATM    1  O1  UNL     1      -9.248  -6.064   9.396  1.00  0.00    -0.273 OA
HETATM    2  C1  UNL     1      -8.829  -5.165  10.159  1.00  0.00     0.224 C 
HETATM    3  N1  UNL     1      -8.571  -5.493  11.501  1.00  0.00    -0.307 N 
ATOM      4  H1  UNL     1      -8.229  -4.771  12.135  1.00  0.00     0.171 HD
ENDROOT
BRANCH   2   5
HETATM    5  C2  UNL     1      -8.592  -3.756   9.708  1.00  0.00     0.117 C 
BRANCH   5   6
HETATM    6  C3  UNL     1      -7.462  -3.121  10.439  1.00  0.00     0.060 C 
BRANCH   6   7
HETATM    7  C4  UNL     1      -6.183  -3.673   9.963  1.00  0.00    -0.049 A 
HETATM    8  C5  UNL     1      -5.125  -3.775  10.829  1.00  0.00     0.008 A 
HETATM    9  C6  UNL     1      -3.913  -4.294  10.372  1.00  0.00     0.001 A 
HETATM   10  C7  UNL     1      -3.775  -4.705   9.065  1.00  0.00     0.000 A 
HETATM   11  C8  UNL     1      -4.843  -4.607   8.184  1.00  0.00     0.001 A 
HETATM   12  C9  UNL     1      -6.032  -4.089   8.654  1.00  0.00     0.008 A 
ENDBRANCH   6   7
BRANCH   6  13
HETATM   13  C10 UNL     1      -7.400  -1.637  10.269  1.00  0.00    -0.049 A 
HETATM   14  C11 UNL     1      -7.065  -0.849  11.324  1.00  0.00     0.008 A 
HETATM   15  C12 UNL     1      -6.997   0.542  11.204  1.00  0.00     0.001 A 
HETATM   16  C13 UNL     1      -7.272   1.148   9.997  1.00  0.00     0.000 A 
HETATM   17  C14 UNL     1      -7.612   0.343   8.931  1.00  0.00     0.001 A 
HETATM   18  C15 UNL     1      -7.679  -1.050   9.055  1.00  0.00     0.008 A 
ENDBRANCH   6  13
ENDBRANCH   5   6
ENDBRANCH   2   5
BRANCH   3  19
HETATM   19  C16 UNL     1      -8.778  -6.821  11.997  1.00  0.00     0.152 A 
HETATM   20  N2  UNL     1      -8.676  -7.943  11.321  1.00  0.00    -0.335 N 
HETATM   21  C17 UNL     1      -8.898  -9.086  11.922  1.00  0.00     0.051 A 
ATOM     22  H2  UNL     1      -8.426  -7.925  10.333  1.00  0.00     0.168 HD
HETATM   23  C18 UNL     1      -8.825 -10.361  11.323  1.00  0.00     0.031 A 
HETATM   24  C22 UNL     1      -9.232  -9.046  13.249  1.00  0.00     0.035 A 
HETATM   25  C19 UNL     1      -9.083 -11.465  12.071  1.00  0.00     0.002 A 
HETATM   26  C20 UNL     1      -9.418 -11.452  13.396  1.00  0.00     0.002 A 
HETATM   27  C21 UNL     1      -9.492 -10.209  13.995  1.00  0.00     0.021 A 
HETATM   28  S1  UNL     1      -9.206  -7.364  13.556  1.00  0.00    -0.052 SA
ENDBRANCH   3  19
TORSDOF 5
ENDMDL
