MODEL 1
REMARK VINA RESULT: -8.734787658      0.000      0.000
REMARK  12 active torsions:
REMARK  status: ('A' for Active; 'I' for Inactive)
REMARK    1  A    between atoms: O1_1  and  C1_3 
REMARK    2  A    between atoms: C1_3  and  C2_4 
REMARK    3  A    between atoms: C3_6  and  O3_7 
REMARK    4  A    between atoms: O3_7  and  C4_8 
REMARK    5  A    between atoms: C4_8  and  C5_9 
REMARK    6  A    between atoms: C6_11  and  O5_12 
REMARK    7  A    between atoms: C7_14  and  O6_15 
REMARK    8  A    between atoms: C8_17  and  O7_18 
REMARK    9  A    between atoms: C9_20  and  O8_21 
REMARK   10  A    between atoms: C10_23  and  O9_24 
REMARK   11  A    between atoms: C11_26  and  O10_27 
REMARK   12  A    between atoms: C12_29  and  O11_30 
ROOT
HETATM    1  O3  UNL     1     133.810   6.149  75.504  1.00  0.00    -0.356 OA
ENDROOT
BRANCH   1   2
HETATM    2  C3  UNL     1     132.591   6.174  74.906  1.00  0.00     0.291 C 
HETATM    3  O2  UNL     1     131.639   5.777  75.845  1.00  0.00    -0.348 OA
HETATM    4  C2  UNL     1     130.407   6.350  75.652  1.00  0.00     0.179 C 
HETATM    5  C12 UNL     1     130.053   6.459  74.195  1.00  0.00     0.180 C 
HETATM    6  C11 UNL     1     130.990   7.518  73.599  1.00  0.00     0.183 C 
HETATM    7  C10 UNL     1     132.285   7.555  74.355  1.00  0.00     0.204 C 
BRANCH   4   8
HETATM    8  C1  UNL     1     129.364   5.611  76.447  1.00  0.00     0.198 C 
BRANCH   8   9
HETATM    9  O1  UNL     1     128.311   5.315  75.577  1.00  0.00    -0.398 OA
ATOM     10  H1  UNL     1     127.739   4.702  76.024  1.00  0.00     0.209 HD
ENDBRANCH   8   9
ENDBRANCH   4   8
BRANCH   5  11
HETATM   11  O11 UNL     1     130.246   5.296  73.484  1.00  0.00    -0.390 OA
ATOM     12  H11 UNL     1     129.471   4.989  73.027  1.00  0.00     0.210 HD
ENDBRANCH   5  11
BRANCH   6  13
HETATM   13  O10 UNL     1     131.253   7.180  72.268  1.00  0.00    -0.390 OA
ATOM     14  H10 UNL     1     131.037   6.265  72.134  1.00  0.00     0.210 HD
ENDBRANCH   6  13
BRANCH   7  15
HETATM   15  O9  UNL     1     132.332   8.538  75.329  1.00  0.00    -0.388 OA
ATOM     16  H9  UNL     1     131.539   8.574  75.850  1.00  0.00     0.210 HD
ENDBRANCH   7  15
ENDBRANCH   1   2
BRANCH   1  17
HETATM   17  C4  UNL     1     134.882   6.661  74.817  1.00  0.00     0.205 C 
BRANCH  17  18
HETATM   18  C5  UNL     1     135.810   7.427  75.689  1.00  0.00     0.180 C 
HETATM   19  O4  UNL     1     135.803   7.146  77.024  1.00  0.00    -0.349 OA
HETATM   20  C6  UNL     1     136.785   6.264  77.438  1.00  0.00     0.288 C 
HETATM   21  C7  UNL     1     138.178   6.875  77.360  1.00  0.00     0.204 C 
HETATM   22  C8  UNL     1     138.123   7.921  76.261  1.00  0.00     0.183 C 
HETATM   23  C9  UNL     1     137.248   7.350  75.162  1.00  0.00     0.180 C 
BRANCH  20  24
HETATM   24  O5  UNL     1     136.479   5.856  78.735  1.00  0.00    -0.369 OA
ATOM     25  H5  UNL     1     137.228   6.047  79.288  1.00  0.00     0.212 HD
ENDBRANCH  20  24
BRANCH  21  26
HETATM   26  O6  UNL     1     138.568   7.445  78.560  1.00  0.00    -0.388 OA
ATOM     27  H6  UNL     1     138.432   8.386  78.571  1.00  0.00     0.210 HD
ENDBRANCH  21  26
BRANCH  22  28
HETATM   28  O7  UNL     1     139.385   8.239  75.781  1.00  0.00    -0.390 OA
ATOM     29  H7  UNL     1     139.767   7.526  75.283  1.00  0.00     0.210 HD
ENDBRANCH  22  28
BRANCH  23  30
HETATM   30  O8  UNL     1     137.388   8.007  73.961  1.00  0.00    -0.390 OA
ATOM     31  H8  UNL     1     138.250   7.871  73.584  1.00  0.00     0.210 HD
ENDBRANCH  23  30
ENDBRANCH  17  18
ENDBRANCH   1  17
TORSDOF 12
ENDMDL
