MODEL 3
REMARK VINA RESULT: -8.508507592      1.303      1.968
REMARK  12 active torsions:
REMARK  status: ('A' for Active; 'I' for Inactive)
REMARK    1  A    between atoms: O1_1  and  C1_3 
REMARK    2  A    between atoms: C1_3  and  C2_4 
REMARK    3  A    between atoms: C3_6  and  O3_7 
REMARK    4  A    between atoms: O3_7  and  C4_8 
REMARK    5  A    between atoms: C4_8  and  C5_9 
REMARK    6  A    between atoms: C6_11  and  O5_12 
REMARK    7  A    between atoms: C7_14  and  O6_15 
REMARK    8  A    between atoms: C8_17  and  O7_18 
REMARK    9  A    between atoms: C9_20  and  O8_21 
REMARK   10  A    between atoms: C10_23  and  O9_24 
REMARK   11  A    between atoms: C11_26  and  O10_27 
REMARK   12  A    between atoms: C12_29  and  O11_30 
ROOT
HETATM    1  O3  UNL     1     134.319   7.405  73.881  1.00  0.00    -0.356 OA
ENDROOT
BRANCH   1   2
HETATM    2  C3  UNL     1     133.129   6.784  74.085  1.00  0.00     0.291 C 
HETATM    3  O2  UNL     1     132.275   7.680  74.727  1.00  0.00    -0.348 OA
HETATM    4  C2  UNL     1     130.952   7.490  74.422  1.00  0.00     0.179 C 
HETATM    5  C12 UNL     1     130.597   6.033  74.314  1.00  0.00     0.180 C 
HETATM    6  C11 UNL     1     131.290   5.511  73.049  1.00  0.00     0.183 C 
HETATM    7  C10 UNL     1     132.539   6.296  72.775  1.00  0.00     0.204 C 
BRANCH   4   8
HETATM    8  C1  UNL     1     130.084   8.225  75.409  1.00  0.00     0.198 C 
BRANCH   8   9
HETATM    9  O1  UNL     1     130.922   9.047  76.168  1.00  0.00    -0.398 OA
ATOM     10  H1  UNL     1     131.811   8.898  75.867  1.00  0.00     0.209 HD
ENDBRANCH   8   9
ENDBRANCH   4   8
BRANCH   5  11
HETATM   11  O11 UNL     1     131.043   5.270  75.369  1.00  0.00    -0.390 OA
ATOM     12  H11 UNL     1     130.359   5.017  75.979  1.00  0.00     0.210 HD
ENDBRANCH   5  11
BRANCH   6  13
HETATM   13  O10 UNL     1     131.633   4.170  73.251  1.00  0.00    -0.390 OA
ATOM     14  H10 UNL     1     132.069   3.843  72.473  1.00  0.00     0.210 HD
ENDBRANCH   6  13
BRANCH   7  15
HETATM   15  O9  UNL     1     132.364   7.318  71.858  1.00  0.00    -0.388 OA
ATOM     16  H9  UNL     1     132.397   8.178  72.260  1.00  0.00     0.210 HD
ENDBRANCH   7  15
ENDBRANCH   1   2
BRANCH   1  17
HETATM   17  C4  UNL     1     135.452   6.824  74.390  1.00  0.00     0.205 C 
BRANCH  17  18
HETATM   18  C5  UNL     1     135.954   7.514  75.608  1.00  0.00     0.180 C 
HETATM   19  O4  UNL     1     135.462   7.108  76.814  1.00  0.00    -0.349 OA
HETATM   20  C6  UNL     1     136.258   6.200  77.491  1.00  0.00     0.288 C 
HETATM   21  C7  UNL     1     137.551   6.831  77.992  1.00  0.00     0.204 C 
HETATM   22  C8  UNL     1     137.862   7.975  77.045  1.00  0.00     0.183 C 
HETATM   23  C9  UNL     1     137.486   7.502  75.654  1.00  0.00     0.180 C 
BRANCH  20  24
HETATM   24  O5  UNL     1     135.510   5.668  78.538  1.00  0.00    -0.369 OA
ATOM     25  H5  UNL     1     135.223   4.799  78.282  1.00  0.00     0.212 HD
ENDBRANCH  20  24
BRANCH  21  26
HETATM   26  O6  UNL     1     137.439   7.289  79.294  1.00  0.00    -0.388 OA
ATOM     27  H6  UNL     1     136.800   7.986  79.375  1.00  0.00     0.210 HD
ENDBRANCH  21  26
BRANCH  22  28
HETATM   28  O7  UNL     1     139.197   8.351  77.102  1.00  0.00    -0.390 OA
ATOM     29  H7  UNL     1     139.737   7.836  76.514  1.00  0.00     0.210 HD
ENDBRANCH  22  28
BRANCH  23  30
HETATM   30  O8  UNL     1     138.034   8.271  74.653  1.00  0.00    -0.390 OA
ATOM     31  H8  UNL     1     138.304   7.743  73.911  1.00  0.00     0.210 HD
ENDBRANCH  23  30
ENDBRANCH  17  18
ENDBRANCH   1  17
TORSDOF 12
ENDMDL
