MODEL 2
REMARK VINA RESULT: -8.688302647      1.376      2.460
REMARK  12 active torsions:
REMARK  status: ('A' for Active; 'I' for Inactive)
REMARK    1  A    between atoms: O1_1  and  C1_3 
REMARK    2  A    between atoms: C1_3  and  C2_4 
REMARK    3  A    between atoms: C3_6  and  O3_7 
REMARK    4  A    between atoms: O3_7  and  C4_8 
REMARK    5  A    between atoms: C4_8  and  C5_9 
REMARK    6  A    between atoms: C6_11  and  O5_12 
REMARK    7  A    between atoms: C7_14  and  O6_15 
REMARK    8  A    between atoms: C8_17  and  O7_18 
REMARK    9  A    between atoms: C9_20  and  O8_21 
REMARK   10  A    between atoms: C10_23  and  O9_24 
REMARK   11  A    between atoms: C11_26  and  O10_27 
REMARK   12  A    between atoms: C12_29  and  O11_30 
ROOT
HETATM    1  O3  UNL     1     134.109   7.607  73.742  1.00  0.00    -0.356 OA
ENDROOT
BRANCH   1   2
HETATM    2  C3  UNL     1     132.876   7.684  74.304  1.00  0.00     0.291 C 
HETATM    3  O2  UNL     1     132.188   8.737  73.701  1.00  0.00    -0.348 OA
HETATM    4  C2  UNL     1     130.831   8.548  73.649  1.00  0.00     0.179 C 
HETATM    5  C12 UNL     1     130.300   7.896  74.896  1.00  0.00     0.180 C 
HETATM    6  C11 UNL     1     130.821   6.453  74.887  1.00  0.00     0.183 C 
HETATM    7  C10 UNL     1     132.127   6.373  74.152  1.00  0.00     0.204 C 
BRANCH   4   8
HETATM    8  C1  UNL     1     130.140   9.848  73.337  1.00  0.00     0.198 C 
BRANCH   8   9
HETATM    9  O1  UNL     1     128.942   9.865  74.059  1.00  0.00    -0.398 OA
ATOM     10  H1  UNL     1     128.782  10.765  74.318  1.00  0.00     0.209 HD
ENDBRANCH   8   9
ENDBRANCH   4   8
BRANCH   5  11
HETATM   11  O11 UNL     1     130.739   8.481  76.063  1.00  0.00    -0.390 OA
ATOM     12  H11 UNL     1     131.166   7.878  76.661  1.00  0.00     0.210 HD
ENDBRANCH   5  11
BRANCH   6  13
HETATM   13  O10 UNL     1     131.020   6.043  76.209  1.00  0.00    -0.390 OA
ATOM     14  H10 UNL     1     130.593   6.661  76.790  1.00  0.00     0.210 HD
ENDBRANCH   6  13
BRANCH   7  15
HETATM   15  O9  UNL     1     131.998   5.985  72.829  1.00  0.00    -0.388 OA
ATOM     16  H9  UNL     1     131.204   5.488  72.671  1.00  0.00     0.210 HD
ENDBRANCH   7  15
ENDBRANCH   1   2
BRANCH   1  17
HETATM   17  C4  UNL     1     135.053   6.819  74.350  1.00  0.00     0.205 C 
BRANCH  17  18
HETATM   18  C5  UNL     1     135.772   7.525  75.444  1.00  0.00     0.180 C 
HETATM   19  O4  UNL     1     135.456   7.191  76.728  1.00  0.00    -0.349 OA
HETATM   20  C6  UNL     1     136.302   6.266  77.314  1.00  0.00     0.288 C 
HETATM   21  C7  UNL     1     137.686   6.841  77.581  1.00  0.00     0.204 C 
HETATM   22  C8  UNL     1     137.902   7.931  76.547  1.00  0.00     0.183 C 
HETATM   23  C9  UNL     1     137.291   7.429  75.254  1.00  0.00     0.180 C 
BRANCH  20  24
HETATM   24  O5  UNL     1     135.701   5.816  78.488  1.00  0.00    -0.369 OA
ATOM     25  H5  UNL     1     135.949   4.907  78.615  1.00  0.00     0.212 HD
ENDBRANCH  20  24
BRANCH  21  26
HETATM   26  O6  UNL     1     137.803   7.353  78.863  1.00  0.00    -0.388 OA
ATOM     27  H6  UNL     1     137.902   8.298  78.865  1.00  0.00     0.210 HD
ENDBRANCH  21  26
BRANCH  22  28
HETATM   28  O7  UNL     1     139.246   8.233  76.381  1.00  0.00    -0.390 OA
ATOM     29  H7  UNL     1     139.418   9.162  76.481  1.00  0.00     0.210 HD
ENDBRANCH  22  28
BRANCH  23  30
HETATM   30  O8  UNL     1     137.712   8.128  74.147  1.00  0.00    -0.390 OA
ATOM     31  H8  UNL     1     137.776   7.570  73.380  1.00  0.00     0.210 HD
ENDBRANCH  23  30
ENDBRANCH  17  18
ENDBRANCH   1  17
TORSDOF 12
ENDMDL
