MODEL 2
REMARK VINA RESULT: -7.424606516      1.969      3.767
REMARK  12 active torsions:
REMARK  status: ('A' for Active; 'I' for Inactive)
REMARK    1  A    between atoms: O1_1  and  C1_3 
REMARK    2  A    between atoms: C1_3  and  C2_4 
REMARK    3  A    between atoms: C3_6  and  O3_7 
REMARK    4  A    between atoms: O3_7  and  C4_8 
REMARK    5  A    between atoms: C5_9  and  O4_10 
REMARK    6  A    between atoms: C6_12  and  O5_13 
REMARK    7  A    between atoms: C7_15  and  O6_16 
REMARK    8  A    between atoms: C8_18  and  O7_19 
REMARK    9  A    between atoms: C9_21  and  O8_22 
REMARK   10  A    between atoms: C10_24  and  O9_25 
REMARK   11  A    between atoms: C11_27  and  O10_28 
REMARK   12  A    between atoms: C12_30  and  O11_31 
ROOT
HETATM    1  C4  UNL     1     131.609   7.914  74.054  1.00  0.00     0.187 C 
HETATM    2  C5  UNL     1     130.186   7.616  73.625  1.00  0.00     0.181 C 
HETATM    3  C6  UNL     1     130.048   6.254  72.999  1.00  0.00     0.180 C 
HETATM    4  C7  UNL     1     130.533   5.131  73.851  1.00  0.00     0.180 C 
HETATM    5  C8  UNL     1     131.154   5.686  75.108  1.00  0.00     0.180 C 
HETATM    6  C9  UNL     1     132.241   6.665  74.649  1.00  0.00     0.181 C 
ENDROOT
BRANCH   1   7
HETATM    7  O3  UNL     1     132.312   8.321  72.978  1.00  0.00    -0.348 OA
BRANCH   7   8
HETATM    8  C3  UNL     1     133.176   9.375  73.137  1.00  0.00     0.292 C 
HETATM    9  O2  UNL     1     133.625   9.743  71.901  1.00  0.00    -0.348 OA
HETATM   10  C2  UNL     1     133.405  11.028  71.498  1.00  0.00     0.179 C 
HETATM   11  C12 UNL     1     133.915  12.069  72.461  1.00  0.00     0.180 C 
HETATM   12  C11 UNL     1     133.745  11.621  73.892  1.00  0.00     0.183 C 
HETATM   13  C10 UNL     1     132.674  10.517  73.932  1.00  0.00     0.204 C 
BRANCH  10  14
HETATM   14  C1  UNL     1     134.150  11.241  70.190  1.00  0.00     0.198 C 
BRANCH  14  15
HETATM   15  O1  UNL     1     133.702  12.397  69.539  1.00  0.00    -0.398 OA
ATOM     16  H1  UNL     1     134.427  12.979  69.340  1.00  0.00     0.209 HD
ENDBRANCH  14  15
ENDBRANCH  10  14
BRANCH  11  17
HETATM   17  O11 UNL     1     135.248  12.385  72.163  1.00  0.00    -0.390 OA
ATOM     18  H11 UNL     1     135.510  13.165  72.637  1.00  0.00     0.210 HD
ENDBRANCH  11  17
BRANCH  12  19
HETATM   19  O10 UNL     1     134.936  11.013  74.288  1.00  0.00    -0.390 OA
ATOM     20  H10 UNL     1     134.774  10.662  75.156  1.00  0.00     0.210 HD
ENDBRANCH  12  19
BRANCH  13  21
HETATM   21  O9  UNL     1     131.497  11.057  73.455  1.00  0.00    -0.388 OA
ATOM     22  H9  UNL     1     131.486  12.007  73.442  1.00  0.00     0.210 HD
ENDBRANCH  13  21
ENDBRANCH   7   8
ENDBRANCH   1   7
BRANCH   2  23
HETATM   23  O4  UNL     1     129.847   8.550  72.648  1.00  0.00    -0.390 OA
ATOM     24  H4  UNL     1     129.958   9.412  73.032  1.00  0.00     0.210 HD
ENDBRANCH   2  23
BRANCH   6  25
HETATM   25  O8  UNL     1     132.983   6.972  75.791  1.00  0.00    -0.390 OA
ATOM     26  H8  UNL     1     133.862   6.618  75.734  1.00  0.00     0.210 HD
ENDBRANCH   6  25
BRANCH   3  27
HETATM   27  O5  UNL     1     130.605   6.171  71.748  1.00  0.00    -0.390 OA
ATOM     28  H5  UNL     1     131.349   5.582  71.705  1.00  0.00     0.210 HD
ENDBRANCH   3  27
BRANCH   5  29
HETATM   29  O7  UNL     1     131.824   4.684  75.814  1.00  0.00    -0.390 OA
ATOM     30  H7  UNL     1     131.910   4.918  76.730  1.00  0.00     0.210 HD
ENDBRANCH   5  29
BRANCH   4  31
HETATM   31  O6  UNL     1     129.494   4.248  74.224  1.00  0.00    -0.390 OA
ATOM     32  H6  UNL     1     129.152   4.435  75.090  1.00  0.00     0.210 HD
ENDBRANCH   4  31
TORSDOF 12
ENDMDL
