MODEL 1
REMARK VINA RESULT: -7.700583445      0.000      0.000
REMARK  12 active torsions:
REMARK  status: ('A' for Active; 'I' for Inactive)
REMARK    1  A    between atoms: O1_1  and  C1_3 
REMARK    2  A    between atoms: C1_3  and  C2_4 
REMARK    3  A    between atoms: C3_6  and  O3_7 
REMARK    4  A    between atoms: O3_7  and  C4_8 
REMARK    5  A    between atoms: C5_9  and  O4_10 
REMARK    6  A    between atoms: C6_12  and  O5_13 
REMARK    7  A    between atoms: C7_15  and  O6_16 
REMARK    8  A    between atoms: C8_18  and  O7_19 
REMARK    9  A    between atoms: C9_21  and  O8_22 
REMARK   10  A    between atoms: C10_24  and  O9_25 
REMARK   11  A    between atoms: C11_27  and  O10_28 
REMARK   12  A    between atoms: C12_30  and  O11_31 
ROOT
HETATM    1  C4  UNL     1     132.112   5.440  74.017  1.00  0.00     0.187 C 
HETATM    2  C5  UNL     1     132.148   5.211  75.514  1.00  0.00     0.181 C 
HETATM    3  C6  UNL     1     131.303   6.203  76.267  1.00  0.00     0.180 C 
HETATM    4  C7  UNL     1     129.879   6.259  75.829  1.00  0.00     0.180 C 
HETATM    5  C8  UNL     1     129.685   5.357  74.635  1.00  0.00     0.180 C 
HETATM    6  C9  UNL     1     130.704   5.817  73.585  1.00  0.00     0.181 C 
ENDROOT
BRANCH   1   7
HETATM    7  O3  UNL     1     132.972   6.431  73.707  1.00  0.00    -0.348 OA
BRANCH   7   8
HETATM    8  C3  UNL     1     132.533   7.423  72.867  1.00  0.00     0.292 C 
HETATM    9  O2  UNL     1     132.230   8.517  73.626  1.00  0.00    -0.348 OA
HETATM   10  C2  UNL     1     132.882   9.684  73.354  1.00  0.00     0.179 C 
HETATM   11  C12 UNL     1     132.776  10.124  71.916  1.00  0.00     0.180 C 
HETATM   12  C11 UNL     1     132.791   8.942  70.979  1.00  0.00     0.183 C 
HETATM   13  C10 UNL     1     133.409   7.743  71.719  1.00  0.00     0.204 C 
BRANCH  10  14
HETATM   14  C1  UNL     1     132.247  10.781  74.195  1.00  0.00     0.198 C 
BRANCH  14  15
HETATM   15  O1  UNL     1     130.887  10.529  74.407  1.00  0.00    -0.398 OA
ATOM     16  H1  UNL     1     130.738   9.614  74.613  1.00  0.00     0.209 HD
ENDBRANCH  14  15
ENDBRANCH  10  14
BRANCH  11  17
HETATM   17  O11 UNL     1     131.636  10.921  71.742  1.00  0.00    -0.390 OA
ATOM     18  H11 UNL     1     131.774  11.535  71.032  1.00  0.00     0.210 HD
ENDBRANCH  11  17
BRANCH  12  19
HETATM   19  O10 UNL     1     131.467   8.592  70.721  1.00  0.00    -0.390 OA
ATOM     20  H10 UNL     1     131.237   9.023  69.906  1.00  0.00     0.210 HD
ENDBRANCH  12  19
BRANCH  13  21
HETATM   21  O9  UNL     1     134.696   8.088  72.076  1.00  0.00    -0.388 OA
ATOM     22  H9  UNL     1     135.367   7.557  71.663  1.00  0.00     0.210 HD
ENDBRANCH  13  21
ENDBRANCH   7   8
ENDBRANCH   1   7
BRANCH   2  23
HETATM   23  O4  UNL     1     133.466   5.401  75.928  1.00  0.00    -0.390 OA
ATOM     24  H4  UNL     1     133.435   5.747  76.812  1.00  0.00     0.210 HD
ENDBRANCH   2  23
BRANCH   6  25
HETATM   25  O8  UNL     1     130.348   5.168  72.402  1.00  0.00    -0.390 OA
ATOM     26  H8  UNL     1     129.726   5.683  71.902  1.00  0.00     0.210 HD
ENDBRANCH   6  25
BRANCH   3  27
HETATM   27  O5  UNL     1     131.837   7.466  76.294  1.00  0.00    -0.390 OA
ATOM     28  H5  UNL     1     132.502   7.581  76.963  1.00  0.00     0.210 HD
ENDBRANCH   3  27
BRANCH   5  29
HETATM   29  O7  UNL     1     128.430   5.564  74.058  1.00  0.00    -0.390 OA
ATOM     30  H7  UNL     1     127.946   4.749  74.004  1.00  0.00     0.210 HD
ENDBRANCH   5  29
BRANCH   4  31
HETATM   31  O6  UNL     1     128.985   5.847  76.844  1.00  0.00    -0.390 OA
ATOM     32  H6  UNL     1     129.306   5.096  77.328  1.00  0.00     0.210 HD
ENDBRANCH   4  31
TORSDOF 12
ENDMDL
