MODEL 3
REMARK VINA RESULT: -7.409771153      1.804      3.977
REMARK  12 active torsions:
REMARK  status: ('A' for Active; 'I' for Inactive)
REMARK    1  A    between atoms: O1_1  and  C1_3 
REMARK    2  A    between atoms: C1_3  and  C2_4 
REMARK    3  A    between atoms: C3_6  and  O3_7 
REMARK    4  A    between atoms: O3_7  and  C4_8 
REMARK    5  A    between atoms: C5_9  and  O4_10 
REMARK    6  A    between atoms: C6_12  and  O5_13 
REMARK    7  A    between atoms: C7_15  and  O6_16 
REMARK    8  A    between atoms: C8_18  and  O7_19 
REMARK    9  A    between atoms: C9_21  and  O8_22 
REMARK   10  A    between atoms: C10_24  and  O9_25 
REMARK   11  A    between atoms: C11_27  and  O10_28 
REMARK   12  A    between atoms: C12_30  and  O11_31 
ROOT
HETATM    1  C4  UNL     1     130.177   8.604  73.721  1.00  0.00     0.187 C 
HETATM    2  C5  UNL     1     129.480   7.295  73.409  1.00  0.00     0.181 C 
HETATM    3  C6  UNL     1     130.451   6.183  73.115  1.00  0.00     0.180 C 
HETATM    4  C7  UNL     1     131.456   5.941  74.189  1.00  0.00     0.180 C 
HETATM    5  C8  UNL     1     131.296   6.981  75.269  1.00  0.00     0.180 C 
HETATM    6  C9  UNL     1     131.411   8.341  74.571  1.00  0.00     0.181 C 
ENDROOT
BRANCH   1   7
HETATM    7  O3  UNL     1     130.530   9.197  72.563  1.00  0.00    -0.348 OA
BRANCH   7   8
HETATM    8  C3  UNL     1     131.860   9.467  72.360  1.00  0.00     0.292 C 
HETATM    9  O2  UNL     1     132.305   8.658  71.353  1.00  0.00    -0.348 OA
HETATM   10  C2  UNL     1     132.842   9.251  70.248  1.00  0.00     0.179 C 
HETATM   11  C12 UNL     1     133.967  10.208  70.551  1.00  0.00     0.180 C 
HETATM   12  C11 UNL     1     133.719  10.954  71.839  1.00  0.00     0.183 C 
HETATM   13  C10 UNL     1     132.215  10.888  72.157  1.00  0.00     0.204 C 
BRANCH  10  14
HETATM   14  C1  UNL     1     133.426   8.157  69.368  1.00  0.00     0.198 C 
BRANCH  14  15
HETATM   15  O1  UNL     1     132.600   7.027  69.356  1.00  0.00    -0.398 OA
ATOM     16  H1  UNL     1     132.574   6.631  68.493  1.00  0.00     0.209 HD
ENDBRANCH  14  15
ENDBRANCH  10  14
BRANCH  11  17
HETATM   17  O11 UNL     1     135.189   9.522  70.566  1.00  0.00    -0.390 OA
ATOM     18  H11 UNL     1     135.036   8.588  70.644  1.00  0.00     0.210 HD
ENDBRANCH  11  17
BRANCH  12  19
HETATM   19  O10 UNL     1     134.357  10.253  72.862  1.00  0.00    -0.390 OA
ATOM     20  H10 UNL     1     135.288  10.389  72.729  1.00  0.00     0.210 HD
ENDBRANCH  12  19
BRANCH  13  21
HETATM   21  O9  UNL     1     131.539  11.491  71.116  1.00  0.00    -0.388 OA
ATOM     22  H9  UNL     1     130.608  11.304  71.100  1.00  0.00     0.210 HD
ENDBRANCH  13  21
ENDBRANCH   7   8
ENDBRANCH   1   7
BRANCH   2  23
HETATM   23  O4  UNL     1     128.728   7.496  72.252  1.00  0.00    -0.390 OA
ATOM     24  H4  UNL     1     127.815   7.376  72.486  1.00  0.00     0.210 HD
ENDBRANCH   2  23
BRANCH   6  25
HETATM   25  O8  UNL     1     131.529   9.284  75.593  1.00  0.00    -0.390 OA
ATOM     26  H8  UNL     1     132.144   9.969  75.359  1.00  0.00     0.210 HD
ENDBRANCH   6  25
BRANCH   3  27
HETATM   27  O5  UNL     1     131.080   6.314  71.903  1.00  0.00    -0.390 OA
ATOM     28  H5  UNL     1     130.655   5.834  71.202  1.00  0.00     0.210 HD
ENDBRANCH   3  27
BRANCH   5  29
HETATM   29  O7  UNL     1     132.364   6.929  76.169  1.00  0.00    -0.390 OA
ATOM     30  H7  UNL     1     132.204   7.496  76.914  1.00  0.00     0.210 HD
ENDBRANCH   5  29
BRANCH   4  31
HETATM   31  O6  UNL     1     131.319   4.665  74.780  1.00  0.00    -0.390 OA
ATOM     32  H6  UNL     1     131.026   4.007  74.161  1.00  0.00     0.210 HD
ENDBRANCH   4  31
TORSDOF 12
ENDMDL
