MODEL 6
REMARK VINA RESULT: -7.766408695      0.972      1.349
REMARK  5 active torsions:
REMARK  status: ('A' for Active; 'I' for Inactive)
REMARK    1  A    between atoms: C2_2  and  N1_3 
REMARK    2  A    between atoms: N1_3  and  C3_4 
REMARK    3  A    between atoms: N1_3  and  C5_6 
REMARK    4  A    between atoms: C5_6  and  C7_8 
REMARK    5  A    between atoms: C7_8  and  N2_9 
ROOT
HETATM    1  N2  UNL     1      41.381 -16.077  42.309  1.00  0.00    -0.343 N 
HETATM    2  C8  UNL     1      42.483 -15.787  41.460  1.00  0.00     0.052 A 
HETATM    3  C9  UNL     1      42.984 -16.788  40.629  1.00  0.00     0.031 A 
HETATM    4  C10 UNL     1      44.060 -16.584  39.780  1.00  0.00     0.002 A 
HETATM    5  C11 UNL     1      44.688 -15.357  39.727  1.00  0.00     0.002 A 
HETATM    6  C12 UNL     1      44.221 -14.358  40.531  1.00  0.00     0.021 A 
HETATM    7  C13 UNL     1      43.148 -14.586  41.368  1.00  0.00     0.032 A 
HETATM    8  S1  UNL     1      42.635 -13.212  42.383  1.00  0.00    -0.086 SA
HETATM    9  C14 UNL     1      41.265 -13.810  43.339  1.00  0.00     0.032 A 
HETATM   10  C15 UNL     1      40.690 -12.911  44.194  1.00  0.00     0.021 A 
HETATM   11  C16 UNL     1      39.620 -13.249  44.973  1.00  0.00     0.002 A 
HETATM   12  C17 UNL     1      39.165 -14.540  44.842  1.00  0.00     0.002 A 
HETATM   13  C18 UNL     1      39.743 -15.467  43.972  1.00  0.00     0.031 A 
HETATM   14  C19 UNL     1      40.831 -15.106  43.187  1.00  0.00     0.052 A 
ENDROOT
BRANCH   1  15
HETATM   15  C7  UNL     1      40.786 -17.401  42.243  1.00  0.00     0.165 C 
BRANCH  15  16
HETATM   16  C5  UNL     1      41.420 -18.414  43.156  1.00  0.00     0.237 C 
HETATM   17  C6  UNL     1      40.626 -18.842  44.334  1.00  0.00     0.044 C 
BRANCH  16  18
HETATM   18  N1  UNL     1      41.875 -19.568  42.423  1.00  0.00     0.093 N 
BRANCH  18  19
HETATM   19  C2  UNL     1      42.342 -20.644  43.213  1.00  0.00     0.268 C 
HETATM   20  C1  UNL     1      43.810 -20.654  43.500  1.00  0.00     0.037 C 
ENDBRANCH  18  19
BRANCH  18  21
HETATM   21  C3  UNL     1      40.865 -20.056  41.483  1.00  0.00     0.268 C 
HETATM   22  C4  UNL     1      40.514 -21.501  41.828  1.00  0.00     0.037 C 
ENDBRANCH  18  21
ENDBRANCH  16  18
ENDBRANCH  15  16
ENDBRANCH   1  15
TORSDOF 5
ENDMDL
