MODEL 3
REMARK VINA RESULT: -7.913502174      4.361      6.132
REMARK  5 active torsions:
REMARK  status: ('A' for Active; 'I' for Inactive)
REMARK    1  A    between atoms: C2_2  and  N1_3 
REMARK    2  A    between atoms: N1_3  and  C3_4 
REMARK    3  A    between atoms: N1_3  and  C5_6 
REMARK    4  A    between atoms: C5_6  and  C7_8 
REMARK    5  A    between atoms: C7_8  and  N2_9 
ROOT
HETATM    1  N2  UNL     1      43.589 -20.746  42.248  1.00  0.00    -0.343 N 
HETATM    2  C8  UNL     1      44.138 -19.782  43.136  1.00  0.00     0.052 A 
HETATM    3  C9  UNL     1      43.874 -19.886  44.501  1.00  0.00     0.031 A 
HETATM    4  C10 UNL     1      44.368 -18.982  45.427  1.00  0.00     0.002 A 
HETATM    5  C11 UNL     1      45.154 -17.923  45.023  1.00  0.00     0.002 A 
HETATM    6  C12 UNL     1      45.429 -17.795  43.692  1.00  0.00     0.021 A 
HETATM    7  C13 UNL     1      44.926 -18.709  42.789  1.00  0.00     0.032 A 
HETATM    8  S1  UNL     1      45.337 -18.431  41.076  1.00  0.00    -0.086 SA
HETATM    9  C14 UNL     1      44.550 -19.744  40.177  1.00  0.00     0.032 A 
HETATM   10  C15 UNL     1      44.740 -19.745  38.824  1.00  0.00     0.021 A 
HETATM   11  C16 UNL     1      44.195 -20.710  38.025  1.00  0.00     0.002 A 
HETATM   12  C17 UNL     1      43.450 -21.671  38.668  1.00  0.00     0.002 A 
HETATM   13  C18 UNL     1      43.250 -21.681  40.050  1.00  0.00     0.031 A 
HETATM   14  C19 UNL     1      43.810 -20.691  40.846  1.00  0.00     0.052 A 
ENDROOT
BRANCH   1  15
HETATM   15  C7  UNL     1      42.806 -21.835  42.806  1.00  0.00     0.165 C 
BRANCH  15  16
HETATM   16  C5  UNL     1      41.386 -21.470  43.145  1.00  0.00     0.237 C 
HETATM   17  C6  UNL     1      40.420 -21.428  42.020  1.00  0.00     0.044 C 
BRANCH  16  18
HETATM   18  N1  UNL     1      40.872 -22.298  44.206  1.00  0.00     0.093 N 
BRANCH  18  19
HETATM   19  C2  UNL     1      41.849 -22.918  45.020  1.00  0.00     0.268 C 
HETATM   20  C1  UNL     1      41.434 -24.196  45.677  1.00  0.00     0.037 C 
ENDBRANCH  18  19
BRANCH  18  21
HETATM   21  C3  UNL     1      39.918 -21.579  45.052  1.00  0.00     0.268 C 
HETATM   22  C4  UNL     1      40.628 -20.407  45.726  1.00  0.00     0.037 C 
ENDBRANCH  18  21
ENDBRANCH  16  18
ENDBRANCH  15  16
ENDBRANCH   1  15
TORSDOF 5
ENDMDL
