MODEL 7
REMARK VINA RESULT: -7.758775927      4.247      6.097
REMARK  5 active torsions:
REMARK  status: ('A' for Active; 'I' for Inactive)
REMARK    1  A    between atoms: C2_2  and  N1_3 
REMARK    2  A    between atoms: N1_3  and  C3_4 
REMARK    3  A    between atoms: N1_3  and  C5_6 
REMARK    4  A    between atoms: C5_6  and  C7_8 
REMARK    5  A    between atoms: C7_8  and  N2_9 
ROOT
HETATM    1  N2  UNL     1      43.768 -20.608  42.274  1.00  0.00    -0.343 N 
HETATM    2  C8  UNL     1      44.359 -19.596  43.077  1.00  0.00     0.052 A 
HETATM    3  C9  UNL     1      44.181 -19.633  44.459  1.00  0.00     0.031 A 
HETATM    4  C10 UNL     1      44.719 -18.679  45.307  1.00  0.00     0.002 A 
HETATM    5  C11 UNL     1      45.467 -17.635  44.803  1.00  0.00     0.002 A 
HETATM    6  C12 UNL     1      45.658 -17.571  43.453  1.00  0.00     0.021 A 
HETATM    7  C13 UNL     1      45.111 -18.534  42.630  1.00  0.00     0.032 A 
HETATM    8  S1  UNL     1      45.413 -18.339  40.882  1.00  0.00    -0.086 SA
HETATM    9  C14 UNL     1      44.588 -19.702  40.100  1.00  0.00     0.032 A 
HETATM   10  C15 UNL     1      44.695 -19.769  38.739  1.00  0.00     0.021 A 
HETATM   11  C16 UNL     1      44.113 -20.778  38.025  1.00  0.00     0.002 A 
HETATM   12  C17 UNL     1      43.421 -21.712  38.759  1.00  0.00     0.002 A 
HETATM   13  C18 UNL     1      43.306 -21.655  40.150  1.00  0.00     0.031 A 
HETATM   14  C19 UNL     1      43.902 -20.621  40.860  1.00  0.00     0.052 A 
ENDROOT
BRANCH   1  15
HETATM   15  C7  UNL     1      43.034 -21.675  42.932  1.00  0.00     0.165 C 
BRANCH  15  16
HETATM   16  C5  UNL     1      41.649 -21.293  43.378  1.00  0.00     0.237 C 
HETATM   17  C6  UNL     1      40.531 -21.664  42.476  1.00  0.00     0.044 C 
BRANCH  16  18
HETATM   18  N1  UNL     1      41.381 -21.761  44.714  1.00  0.00     0.093 N 
BRANCH  18  19
HETATM   19  C2  UNL     1      40.441 -21.000  45.447  1.00  0.00     0.268 C 
HETATM   20  C1  UNL     1      40.932 -19.689  45.974  1.00  0.00     0.037 C 
ENDBRANCH  18  19
BRANCH  18  21
HETATM   21  C3  UNL     1      40.989 -23.170  44.735  1.00  0.00     0.268 C 
HETATM   22  C4  UNL     1      41.722 -23.879  45.871  1.00  0.00     0.037 C 
ENDBRANCH  18  21
ENDBRANCH  16  18
ENDBRANCH  15  16
ENDBRANCH   1  15
TORSDOF 5
ENDMDL
