MODEL 1
REMARK VINA RESULT: -7.935209959      0.000      0.000
REMARK  5 active torsions:
REMARK  status: ('A' for Active; 'I' for Inactive)
REMARK    1  A    between atoms: C2_2  and  N1_3 
REMARK    2  A    between atoms: N1_3  and  C3_4 
REMARK    3  A    between atoms: N1_3  and  C5_6 
REMARK    4  A    between atoms: C5_6  and  C7_8 
REMARK    5  A    between atoms: C7_8  and  N2_9 
ROOT
HETATM    1  N2  UNL     1      41.153 -16.245  42.254  1.00  0.00    -0.343 N 
HETATM    2  C8  UNL     1      42.275 -16.065  41.401  1.00  0.00     0.052 A 
HETATM    3  C9  UNL     1      42.648 -17.096  40.540  1.00  0.00     0.031 A 
HETATM    4  C10 UNL     1      43.734 -16.998  39.685  1.00  0.00     0.002 A 
HETATM    5  C11 UNL     1      44.501 -15.852  39.655  1.00  0.00     0.002 A 
HETATM    6  C12 UNL     1      44.161 -14.825  40.487  1.00  0.00     0.021 A 
HETATM    7  C13 UNL     1      43.075 -14.948  41.330  1.00  0.00     0.032 A 
HETATM    8  S1  UNL     1      42.735 -13.549  42.383  1.00  0.00    -0.086 SA
HETATM    9  C14 UNL     1      41.311 -14.007  43.339  1.00  0.00     0.032 A 
HETATM   10  C15 UNL     1      40.853 -13.069  44.222  1.00  0.00     0.021 A 
HETATM   11  C16 UNL     1      39.757 -13.299  45.005  1.00  0.00     0.002 A 
HETATM   12  C17 UNL     1      39.153 -14.524  44.847  1.00  0.00     0.002 A 
HETATM   13  C18 UNL     1      39.611 -15.490  43.949  1.00  0.00     0.031 A 
HETATM   14  C19 UNL     1      40.727 -15.239  43.161  1.00  0.00     0.052 A 
ENDROOT
BRANCH   1  15
HETATM   15  C7  UNL     1      40.406 -17.488  42.162  1.00  0.00     0.165 C 
BRANCH  15  16
HETATM   16  C5  UNL     1      41.128 -18.689  42.710  1.00  0.00     0.237 C 
HETATM   17  C6  UNL     1      41.563 -18.619  44.126  1.00  0.00     0.044 C 
BRANCH  16  18
HETATM   18  N1  UNL     1      40.379 -19.899  42.482  1.00  0.00     0.093 N 
BRANCH  18  19
HETATM   19  C2  UNL     1      40.995 -20.843  41.629  1.00  0.00     0.268 C 
HETATM   20  C1  UNL     1      40.783 -20.634  40.163  1.00  0.00     0.037 C 
ENDBRANCH  18  19
BRANCH  18  21
HETATM   21  C3  UNL     1      39.995 -20.551  43.734  1.00  0.00     0.268 C 
HETATM   22  C4  UNL     1      39.495 -21.962  43.433  1.00  0.00     0.037 C 
ENDBRANCH  18  21
ENDBRANCH  16  18
ENDBRANCH  15  16
ENDBRANCH   1  15
TORSDOF 5
ENDMDL
