MODEL 5
REMARK VINA RESULT: -7.819459168      0.978      4.225
REMARK  5 active torsions:
REMARK  status: ('A' for Active; 'I' for Inactive)
REMARK    1  A    between atoms: C2_2  and  N1_3 
REMARK    2  A    between atoms: N1_3  and  C3_4 
REMARK    3  A    between atoms: N1_3  and  C5_6 
REMARK    4  A    between atoms: C5_6  and  C7_8 
REMARK    5  A    between atoms: C7_8  and  N2_9 
ROOT
HETATM    1  N2  UNL     1      41.353 -16.084  42.280  1.00  0.00    -0.343 N 
HETATM    2  C8  UNL     1      40.813 -15.120  43.173  1.00  0.00     0.052 A 
HETATM    3  C9  UNL     1      39.714 -15.461  43.959  1.00  0.00     0.031 A 
HETATM    4  C10 UNL     1      39.127 -14.573  44.847  1.00  0.00     0.002 A 
HETATM    5  C11 UNL     1      39.621 -13.292  44.986  1.00  0.00     0.002 A 
HETATM    6  C12 UNL     1      40.696 -12.929  44.227  1.00  0.00     0.021 A 
HETATM    7  C13 UNL     1      41.261 -13.831  43.351  1.00  0.00     0.032 A 
HETATM    8  S1  UNL     1      42.650 -13.240  42.401  1.00  0.00    -0.086 SA
HETATM    9  C14 UNL     1      43.143 -14.603  41.376  1.00  0.00     0.032 A 
HETATM   10  C15 UNL     1      44.216 -14.384  40.558  1.00  0.00     0.021 A 
HETATM   11  C16 UNL     1      44.697 -15.360  39.732  1.00  0.00     0.002 A 
HETATM   12  C17 UNL     1      44.036 -16.565  39.778  1.00  0.00     0.002 A 
HETATM   13  C18 UNL     1      42.940 -16.802  40.611  1.00  0.00     0.031 A 
HETATM   14  C19 UNL     1      42.464 -15.797  41.443  1.00  0.00     0.052 A 
ENDROOT
BRANCH   1  15
HETATM   15  C7  UNL     1      40.764 -17.412  42.256  1.00  0.00     0.165 C 
BRANCH  15  16
HETATM   16  C5  UNL     1      41.421 -18.401  43.180  1.00  0.00     0.237 C 
HETATM   17  C6  UNL     1      40.646 -18.819  44.373  1.00  0.00     0.044 C 
BRANCH  16  18
HETATM   18  N1  UNL     1      41.883 -19.561  42.461  1.00  0.00     0.093 N 
BRANCH  18  19
HETATM   19  C2  UNL     1      42.361 -20.623  43.264  1.00  0.00     0.268 C 
HETATM   20  C1  UNL     1      43.839 -20.656  43.489  1.00  0.00     0.037 C 
ENDBRANCH  18  19
BRANCH  18  21
HETATM   21  C3  UNL     1      40.874 -20.070  41.532  1.00  0.00     0.268 C 
HETATM   22  C4  UNL     1      40.515 -21.504  41.915  1.00  0.00     0.037 C 
ENDBRANCH  18  21
ENDBRANCH  16  18
ENDBRANCH  15  16
ENDBRANCH   1  15
TORSDOF 5
ENDMDL
