MODEL 9
REMARK VINA RESULT: -7.685555593      1.256      4.480
REMARK  5 active torsions:
REMARK  status: ('A' for Active; 'I' for Inactive)
REMARK    1  A    between atoms: C2_2  and  N1_3 
REMARK    2  A    between atoms: N1_3  and  C3_4 
REMARK    3  A    between atoms: N1_3  and  C5_6 
REMARK    4  A    between atoms: C5_6  and  C7_8 
REMARK    5  A    between atoms: C7_8  and  N2_9 
ROOT
HETATM    1  N2  UNL     1      41.363 -16.068  42.241  1.00  0.00    -0.343 N 
HETATM    2  C8  UNL     1      40.817 -15.126  43.155  1.00  0.00     0.052 A 
HETATM    3  C9  UNL     1      39.707 -15.485  43.919  1.00  0.00     0.031 A 
HETATM    4  C10 UNL     1      39.115 -14.621  44.826  1.00  0.00     0.002 A 
HETATM    5  C11 UNL     1      39.612 -13.347  45.007  1.00  0.00     0.002 A 
HETATM    6  C12 UNL     1      40.697 -12.967  44.271  1.00  0.00     0.021 A 
HETATM    7  C13 UNL     1      41.269 -13.846  43.375  1.00  0.00     0.032 A 
HETATM    8  S1  UNL     1      42.671 -13.234  42.458  1.00  0.00    -0.086 SA
HETATM    9  C14 UNL     1      43.169 -14.569  41.400  1.00  0.00     0.032 A 
HETATM   10  C15 UNL     1      44.252 -14.331  40.601  1.00  0.00     0.021 A 
HETATM   11  C16 UNL     1      44.738 -15.285  39.752  1.00  0.00     0.002 A 
HETATM   12  C17 UNL     1      44.072 -16.488  39.756  1.00  0.00     0.002 A 
HETATM   13  C18 UNL     1      42.965 -16.744  40.569  1.00  0.00     0.031 A 
HETATM   14  C19 UNL     1      42.484 -15.762  41.425  1.00  0.00     0.052 A 
ENDROOT
BRANCH   1  15
HETATM   15  C7  UNL     1      40.768 -17.391  42.171  1.00  0.00     0.165 C 
BRANCH  15  16
HETATM   16  C5  UNL     1      41.097 -18.282  43.338  1.00  0.00     0.237 C 
HETATM   17  C6  UNL     1      40.099 -19.323  43.686  1.00  0.00     0.044 C 
BRANCH  16  18
HETATM   18  N1  UNL     1      42.400 -18.879  43.189  1.00  0.00     0.093 N 
BRANCH  18  19
HETATM   19  C2  UNL     1      43.298 -18.651  44.258  1.00  0.00     0.268 C 
HETATM   20  C1  UNL     1      44.183 -17.452  44.122  1.00  0.00     0.037 C 
ENDBRANCH  18  19
BRANCH  18  21
HETATM   21  C3  UNL     1      42.321 -20.314  42.919  1.00  0.00     0.268 C 
HETATM   22  C4  UNL     1      43.563 -21.001  43.480  1.00  0.00     0.037 C 
ENDBRANCH  18  21
ENDBRANCH  16  18
ENDBRANCH  15  16
ENDBRANCH   1  15
TORSDOF 5
ENDMDL
