MODEL 4
REMARK VINA RESULT: -7.909185789      4.328      5.146
REMARK  5 active torsions:
REMARK  status: ('A' for Active; 'I' for Inactive)
REMARK    1  A    between atoms: C2_2  and  N1_3 
REMARK    2  A    between atoms: N1_3  and  C3_4 
REMARK    3  A    between atoms: N1_3  and  C5_6 
REMARK    4  A    between atoms: C5_6  and  C7_8 
REMARK    5  A    between atoms: C7_8  and  N2_9 
ROOT
HETATM    1  N2  UNL     1      43.644 -20.754  42.255  1.00  0.00    -0.343 N 
HETATM    2  C8  UNL     1      43.838 -20.706  40.848  1.00  0.00     0.052 A 
HETATM    3  C9  UNL     1      43.296 -21.713  40.052  1.00  0.00     0.031 A 
HETATM    4  C10 UNL     1      43.449 -21.739  38.675  1.00  0.00     0.002 A 
HETATM    5  C11 UNL     1      44.159 -20.747  38.030  1.00  0.00     0.002 A 
HETATM    6  C12 UNL     1      44.703 -19.748  38.784  1.00  0.00     0.021 A 
HETATM    7  C13 UNL     1      44.536 -19.745  40.154  1.00  0.00     0.032 A 
HETATM    8  S1  UNL     1      45.305 -18.399  41.036  1.00  0.00    -0.086 SA
HETATM    9  C14 UNL     1      44.928 -18.675  42.749  1.00  0.00     0.032 A 
HETATM   10  C15 UNL     1      45.411 -17.746  43.628  1.00  0.00     0.021 A 
HETATM   11  C16 UNL     1      45.176 -17.843  44.971  1.00  0.00     0.002 A 
HETATM   12  C17 UNL     1      44.430 -18.925  45.374  1.00  0.00     0.002 A 
HETATM   13  C18 UNL     1      43.931 -19.880  44.485  1.00  0.00     0.031 A 
HETATM   14  C19 UNL     1      44.180 -19.767  43.124  1.00  0.00     0.052 A 
ENDROOT
BRANCH   1  15
HETATM   15  C7  UNL     1      42.844 -21.834  42.807  1.00  0.00     0.165 C 
BRANCH  15  16
HETATM   16  C5  UNL     1      41.430 -21.449  43.146  1.00  0.00     0.237 C 
HETATM   17  C6  UNL     1      40.462 -21.405  42.023  1.00  0.00     0.044 C 
BRANCH  16  18
HETATM   18  N1  UNL     1      40.908 -22.263  44.215  1.00  0.00     0.093 N 
BRANCH  18  19
HETATM   19  C2  UNL     1      41.879 -22.887  45.032  1.00  0.00     0.268 C 
HETATM   20  C1  UNL     1      41.460 -24.168  45.682  1.00  0.00     0.037 C 
ENDBRANCH  18  19
BRANCH  18  21
HETATM   21  C3  UNL     1      39.965 -21.526  45.057  1.00  0.00     0.268 C 
HETATM   22  C4  UNL     1      40.681 -20.337  45.693  1.00  0.00     0.037 C 
ENDBRANCH  18  21
ENDBRANCH  16  18
ENDBRANCH  15  16
ENDBRANCH   1  15
TORSDOF 5
ENDMDL
