MODEL 2
REMARK VINA RESULT: -7.932960085      0.057      4.012
REMARK  5 active torsions:
REMARK  status: ('A' for Active; 'I' for Inactive)
REMARK    1  A    between atoms: C2_2  and  N1_3 
REMARK    2  A    between atoms: N1_3  and  C3_4 
REMARK    3  A    between atoms: N1_3  and  C5_6 
REMARK    4  A    between atoms: C5_6  and  C7_8 
REMARK    5  A    between atoms: C7_8  and  N2_9 
ROOT
HETATM    1  N2  UNL     1      41.155 -16.276  42.216  1.00  0.00    -0.343 N 
HETATM    2  C8  UNL     1      40.738 -15.273  43.132  1.00  0.00     0.052 A 
HETATM    3  C9  UNL     1      39.609 -15.498  43.919  1.00  0.00     0.031 A 
HETATM    4  C10 UNL     1      39.137 -14.566  44.829  1.00  0.00     0.002 A 
HETATM    5  C11 UNL     1      39.780 -13.356  44.991  1.00  0.00     0.002 A 
HETATM    6  C12 UNL     1      40.888 -13.107  44.233  1.00  0.00     0.021 A 
HETATM    7  C13 UNL     1      41.338 -14.052  43.334  1.00  0.00     0.032 A 
HETATM    8  S1  UNL     1      42.784 -13.610  42.387  1.00  0.00    -0.086 SA
HETATM    9  C14 UNL     1      43.105 -14.999  41.331  1.00  0.00     0.032 A 
HETATM   10  C15 UNL     1      44.194 -14.892  40.510  1.00  0.00     0.021 A 
HETATM   11  C16 UNL     1      44.551 -15.900  39.661  1.00  0.00     0.002 A 
HETATM   12  C17 UNL     1      43.751 -17.019  39.686  1.00  0.00     0.002 A 
HETATM   13  C18 UNL     1      42.638 -17.141  40.521  1.00  0.00     0.031 A 
HETATM   14  C19 UNL     1      42.289 -16.105  41.377  1.00  0.00     0.052 A 
ENDROOT
BRANCH   1  15
HETATM   15  C7  UNL     1      40.411 -17.523  42.167  1.00  0.00     0.165 C 
BRANCH  15  16
HETATM   16  C5  UNL     1      41.156 -18.712  42.709  1.00  0.00     0.237 C 
HETATM   17  C6  UNL     1      41.617 -18.628  44.117  1.00  0.00     0.044 C 
BRANCH  16  18
HETATM   18  N1  UNL     1      40.415 -19.931  42.506  1.00  0.00     0.093 N 
BRANCH  18  19
HETATM   19  C2  UNL     1      41.034 -20.884  41.663  1.00  0.00     0.268 C 
HETATM   20  C1  UNL     1      40.792 -20.713  40.197  1.00  0.00     0.037 C 
ENDBRANCH  18  19
BRANCH  18  21
HETATM   21  C3  UNL     1      40.044 -20.567  43.770  1.00  0.00     0.268 C 
HETATM   22  C4  UNL     1      39.462 -21.950  43.485  1.00  0.00     0.037 C 
ENDBRANCH  18  21
ENDBRANCH  16  18
ENDBRANCH  15  16
ENDBRANCH   1  15
TORSDOF 5
ENDMDL
