MODEL 2
REMARK VINA RESULT: -9.727497704      0.380      4.738
REMARK  8 active torsions:
REMARK  status: ('A' for Active; 'I' for Inactive)
REMARK    1  A    between atoms: N1_1  and  S1_4 
REMARK    2  A    between atoms: S1_4  and  C1_7 
REMARK    3  A    between atoms: C4_10  and  C5_11 
REMARK    4  A    between atoms: C5_11  and  C6_12 
REMARK    5  A    between atoms: C6_12  and  N2_13 
REMARK    6  A    between atoms: C7_14  and  C8_15 
REMARK    7  A    between atoms: C15_22  and  C16_23 
REMARK    8  A    between atoms: C23_30  and  C24_31 
ROOT
HETATM    1  N2  UNL     1      -2.354   5.966  12.340  1.00  0.00    -0.345 N 
HETATM    2  C7  UNL     1      -2.259   4.776  11.567  1.00  0.00     0.046 C 
HETATM    3  C14 UNL     1      -1.116   4.555  10.859  1.00  0.00     0.043 C 
HETATM    4  C15 UNL     1      -0.008   5.486  10.910  1.00  0.00    -0.022 C 
HETATM    5  C22 UNL     1      -0.085   6.549  11.672  1.00  0.00     0.043 C 
HETATM    6  C23 UNL     1      -1.249   6.853  12.518  1.00  0.00     0.046 C 
ENDROOT
BRANCH   1   7
HETATM    7  C6  UNL     1      -3.644   6.274  12.954  1.00  0.00     0.134 C 
BRANCH   7   8
HETATM    8  C5  UNL     1      -3.748   6.124  14.412  1.00  0.00     0.058 C 
BRANCH   8   9
HETATM    9  C4  UNL     1      -4.177   4.841  14.985  1.00  0.00    -0.057 A 
HETATM   10  C3  UNL     1      -5.549   4.596  15.165  1.00  0.00     0.009 A 
HETATM   11  C2  UNL     1      -6.035   3.431  15.709  1.00  0.00     0.026 A 
HETATM   12  C1  UNL     1      -5.177   2.432  16.110  1.00  0.00     0.079 A 
HETATM   13  C31 UNL     1      -3.830   2.641  15.948  1.00  0.00     0.026 A 
HETATM   14  C30 UNL     1      -3.347   3.835  15.392  1.00  0.00     0.009 A 
BRANCH  12  15
HETATM   15  S1  UNL     1      -5.792   0.930  16.812  1.00  0.00     0.256 S 
HETATM   16  O1  UNL     1      -5.239   0.737  18.205  1.00  0.00    -0.201 OA
HETATM   17  O2  UNL     1      -5.279  -0.200  15.970  1.00  0.00    -0.201 OA
BRANCH  15  18
HETATM   18  N1  UNL     1      -7.500   0.951  16.929  1.00  0.00    -0.324 N 
ATOM     19  H12 UNL     1      -8.127   0.240  16.553  1.00  0.00     0.169 HD
ATOM     20  H11 UNL     1      -7.765   1.794  17.438  1.00  0.00     0.169 HD
ENDBRANCH  15  18
ENDBRANCH  12  15
ENDBRANCH   8   9
ENDBRANCH   7   8
ENDBRANCH   1   7
BRANCH   2  21
HETATM   21  C8  UNL     1      -3.205   3.654  11.567  1.00  0.00    -0.009 A 
HETATM   22  C9  UNL     1      -2.887   2.590  12.429  1.00  0.00     0.014 A 
HETATM   23  C10 UNL     1      -3.629   1.444  12.479  1.00  0.00     0.001 A 
HETATM   24  C11 UNL     1      -4.733   1.298  11.670  1.00  0.00     0.000 A 
HETATM   25  C12 UNL     1      -5.056   2.311  10.833  1.00  0.00     0.001 A 
HETATM   26  C13 UNL     1      -4.295   3.475  10.786  1.00  0.00     0.014 A 
ENDBRANCH   2  21
BRANCH   6  27
HETATM   27  C24 UNL     1      -1.464   8.278  12.677  1.00  0.00    -0.009 A 
HETATM   28  C25 UNL     1      -1.323   8.891  13.897  1.00  0.00     0.014 A 
HETATM   29  C26 UNL     1      -1.577  10.227  14.060  1.00  0.00     0.001 A 
HETATM   30  C27 UNL     1      -1.986  11.029  13.017  1.00  0.00     0.000 A 
HETATM   31  C28 UNL     1      -2.138  10.444  11.781  1.00  0.00     0.001 A 
HETATM   32  C29 UNL     1      -1.883   9.099  11.622  1.00  0.00     0.014 A 
ENDBRANCH   6  27
BRANCH   4  33
HETATM   33  C16 UNL     1       1.188   5.192  10.089  1.00  0.00    -0.026 A 
HETATM   34  C17 UNL     1       1.600   3.911   9.810  1.00  0.00     0.012 A 
HETATM   35  C18 UNL     1       2.736   3.632   9.032  1.00  0.00     0.001 A 
HETATM   36  C19 UNL     1       3.493   4.639   8.511  1.00  0.00     0.000 A 
HETATM   37  C20 UNL     1       3.090   5.925   8.783  1.00  0.00     0.001 A 
HETATM   38  C21 UNL     1       1.957   6.205   9.559  1.00  0.00     0.012 A 
ENDBRANCH   4  33
TORSDOF 8
ENDMDL
