MODEL 1
REMARK VINA RESULT: -9.852011475      0.000      0.000
REMARK  8 active torsions:
REMARK  status: ('A' for Active; 'I' for Inactive)
REMARK    1  A    between atoms: N1_1  and  S1_4 
REMARK    2  A    between atoms: S1_4  and  C1_7 
REMARK    3  A    between atoms: C4_10  and  C5_11 
REMARK    4  A    between atoms: C5_11  and  C6_12 
REMARK    5  A    between atoms: C6_12  and  N2_13 
REMARK    6  A    between atoms: C7_14  and  C8_15 
REMARK    7  A    between atoms: C15_22  and  C16_23 
REMARK    8  A    between atoms: C23_30  and  C24_31 
ROOT
HETATM    1  N2  UNL     1      -2.638   6.012  11.900  1.00  0.00    -0.345 N 
HETATM    2  C7  UNL     1      -1.552   6.924  12.000  1.00  0.00     0.046 C 
HETATM    3  C14 UNL     1      -0.396   6.627  11.342  1.00  0.00     0.043 C 
HETATM    4  C15 UNL     1      -0.277   5.431  10.535  1.00  0.00    -0.022 C 
HETATM    5  C22 UNL     1      -1.304   4.629  10.402  1.00  0.00     0.043 C 
HETATM    6  C23 UNL     1      -2.613   4.885  11.024  1.00  0.00     0.046 C 
ENDROOT
BRANCH   1   7
HETATM    7  C6  UNL     1      -3.807   6.255  12.743  1.00  0.00     0.134 C 
BRANCH   7   8
HETATM    8  C5  UNL     1      -3.652   6.036  14.188  1.00  0.00     0.058 C 
BRANCH   8   9
HETATM    9  C4  UNL     1      -4.229   4.836  14.809  1.00  0.00    -0.057 A 
HETATM   10  C3  UNL     1      -3.371   3.864  15.351  1.00  0.00     0.009 A 
HETATM   11  C2  UNL     1      -3.826   2.706  15.934  1.00  0.00     0.026 A 
HETATM   12  C1  UNL     1      -5.176   2.443  16.012  1.00  0.00     0.079 A 
HETATM   13  C31 UNL     1      -6.040   3.372  15.491  1.00  0.00     0.026 A 
HETATM   14  C30 UNL     1      -5.563   4.550  14.898  1.00  0.00     0.009 A 
BRANCH  12  15
HETATM   15  S1  UNL     1      -5.771   0.955  16.760  1.00  0.00     0.256 S 
HETATM   16  O1  UNL     1      -5.211   0.810  18.156  1.00  0.00    -0.201 OA
HETATM   17  O2  UNL     1      -5.249  -0.193  15.950  1.00  0.00    -0.201 OA
BRANCH  15  18
HETATM   18  N1  UNL     1      -7.479   0.960  16.883  1.00  0.00    -0.324 N 
ATOM     19  H12 UNL     1      -8.080   1.769  16.724  1.00  0.00     0.169 HD
ATOM     20  H11 UNL     1      -7.774   0.019  17.142  1.00  0.00     0.169 HD
ENDBRANCH  15  18
ENDBRANCH  12  15
ENDBRANCH   8   9
ENDBRANCH   7   8
ENDBRANCH   1   7
BRANCH   2  21
HETATM   21  C8  UNL     1      -1.581   8.258  12.612  1.00  0.00    -0.009 A 
HETATM   22  C9  UNL     1      -1.017   8.349  13.897  1.00  0.00     0.014 A 
HETATM   23  C10 UNL     1      -1.043   9.506  14.624  1.00  0.00     0.001 A 
HETATM   24  C11 UNL     1      -1.631  10.637  14.106  1.00  0.00     0.000 A 
HETATM   25  C12 UNL     1      -2.180  10.570  12.870  1.00  0.00     0.001 A 
HETATM   26  C13 UNL     1      -2.151   9.388  12.136  1.00  0.00     0.014 A 
ENDBRANCH   2  21
BRANCH   6  27
HETATM   27  C24 UNL     1      -3.312   3.664  11.372  1.00  0.00    -0.009 A 
HETATM   28  C25 UNL     1      -2.773   2.756  12.249  1.00  0.00     0.014 A 
HETATM   29  C26 UNL     1      -3.408   1.577  12.538  1.00  0.00     0.001 A 
HETATM   30  C27 UNL     1      -4.616   1.235  11.970  1.00  0.00     0.000 A 
HETATM   31  C28 UNL     1      -5.182   2.124  11.086  1.00  0.00     0.001 A 
HETATM   32  C29 UNL     1      -4.539   3.308  10.797  1.00  0.00     0.014 A 
ENDBRANCH   6  27
BRANCH   4  33
HETATM   33  C16 UNL     1       1.021   5.161   9.877  1.00  0.00    -0.026 A 
HETATM   34  C17 UNL     1       1.840   6.162   9.412  1.00  0.00     0.012 A 
HETATM   35  C18 UNL     1       3.071   5.905   8.786  1.00  0.00     0.001 A 
HETATM   36  C19 UNL     1       3.514   4.628   8.608  1.00  0.00     0.000 A 
HETATM   37  C20 UNL     1       2.703   3.618   9.069  1.00  0.00     0.001 A 
HETATM   38  C21 UNL     1       1.475   3.873   9.694  1.00  0.00     0.012 A 
ENDBRANCH   4  33
TORSDOF 8
ENDMDL
