MODEL 3
REMARK VINA RESULT: -9.543784738      0.479      4.708
REMARK  8 active torsions:
REMARK  status: ('A' for Active; 'I' for Inactive)
REMARK    1  A    between atoms: N1_1  and  S1_4 
REMARK    2  A    between atoms: S1_4  and  C1_7 
REMARK    3  A    between atoms: C4_10  and  C5_11 
REMARK    4  A    between atoms: C5_11  and  C6_12 
REMARK    5  A    between atoms: C6_12  and  N2_13 
REMARK    6  A    between atoms: C7_14  and  C8_15 
REMARK    7  A    between atoms: C15_22  and  C16_23 
REMARK    8  A    between atoms: C23_30  and  C24_31 
ROOT
HETATM    1  N2  UNL     1      -2.187   5.931  12.238  1.00  0.00    -0.345 N 
HETATM    2  C7  UNL     1      -2.028   4.711  11.524  1.00  0.00     0.046 C 
HETATM    3  C14 UNL     1      -0.878   4.520  10.820  1.00  0.00     0.043 C 
HETATM    4  C15 UNL     1       0.175   5.513  10.815  1.00  0.00    -0.022 C 
HETATM    5  C22 UNL     1       0.042   6.607  11.524  1.00  0.00     0.043 C 
HETATM    6  C23 UNL     1      -1.134   6.887  12.363  1.00  0.00     0.046 C 
ENDROOT
BRANCH   1   7
HETATM    7  C6  UNL     1      -3.489   6.196  12.846  1.00  0.00     0.134 C 
BRANCH   7   8
HETATM    8  C5  UNL     1      -3.587   6.075  14.307  1.00  0.00     0.058 C 
BRANCH   8   9
HETATM    9  C4  UNL     1      -4.176   4.867  14.901  1.00  0.00    -0.057 A 
HETATM   10  C3  UNL     1      -3.327   3.846  15.359  1.00  0.00     0.009 A 
HETATM   11  C2  UNL     1      -3.794   2.676  15.911  1.00  0.00     0.026 A 
HETATM   12  C1  UNL     1      -5.146   2.453  16.040  1.00  0.00     0.079 A 
HETATM   13  C31 UNL     1      -6.002   3.431  15.601  1.00  0.00     0.026 A 
HETATM   14  C30 UNL     1      -5.513   4.619  15.039  1.00  0.00     0.009 A 
BRANCH  12  15
HETATM   15  S1  UNL     1      -5.757   0.952  16.749  1.00  0.00     0.256 S 
HETATM   16  O1  UNL     1      -5.214   0.774  18.148  1.00  0.00    -0.201 OA
HETATM   17  O2  UNL     1      -5.229  -0.181  15.921  1.00  0.00    -0.201 OA
BRANCH  15  18
HETATM   18  N1  UNL     1      -7.466   0.962  16.852  1.00  0.00    -0.324 N 
ATOM     19  H12 UNL     1      -8.011   0.651  17.656  1.00  0.00     0.169 HD
ATOM     20  H11 UNL     1      -7.827   1.331  15.972  1.00  0.00     0.169 HD
ENDBRANCH  15  18
ENDBRANCH  12  15
ENDBRANCH   8   9
ENDBRANCH   7   8
ENDBRANCH   1   7
BRANCH   2  21
HETATM   21  C8  UNL     1      -2.909   3.539  11.587  1.00  0.00    -0.009 A 
HETATM   22  C9  UNL     1      -4.024   3.570  10.731  1.00  0.00     0.014 A 
HETATM   23  C10 UNL     1      -4.974   2.587  10.735  1.00  0.00     0.001 A 
HETATM   24  C11 UNL     1      -4.861   1.518  11.594  1.00  0.00     0.000 A 
HETATM   25  C12 UNL     1      -3.794   1.470  12.426  1.00  0.00     0.001 A 
HETATM   26  C13 UNL     1      -2.832   2.474  12.417  1.00  0.00     0.014 A 
ENDBRANCH   2  21
BRANCH   6  27
HETATM   27  C24 UNL     1      -1.429   8.303  12.452  1.00  0.00    -0.009 A 
HETATM   28  C25 UNL     1      -1.724   9.045  11.335  1.00  0.00     0.014 A 
HETATM   29  C26 UNL     1      -1.951  10.393  11.412  1.00  0.00     0.001 A 
HETATM   30  C27 UNL     1      -1.897  11.080  12.605  1.00  0.00     0.000 A 
HETATM   31  C28 UNL     1      -1.603  10.366  13.742  1.00  0.00     0.001 A 
HETATM   32  C29 UNL     1      -1.374   9.010  13.661  1.00  0.00     0.014 A 
ENDBRANCH   6  27
BRANCH   4  33
HETATM   33  C16 UNL     1       1.382   5.247  10.000  1.00  0.00    -0.026 A 
HETATM   34  C17 UNL     1       2.108   6.248   9.401  1.00  0.00     0.012 A 
HETATM   35  C18 UNL     1       3.252   5.996   8.626  1.00  0.00     0.001 A 
HETATM   36  C19 UNL     1       3.698   4.722   8.429  1.00  0.00     0.000 A 
HETATM   37  C20 UNL     1       2.979   3.712   9.023  1.00  0.00     0.001 A 
HETATM   38  C21 UNL     1       1.838   3.963   9.797  1.00  0.00     0.012 A 
ENDBRANCH   4  33
TORSDOF 8
ENDMDL
