MODEL 4
REMARK VINA RESULT: -9.042309339      4.053      7.382
REMARK  8 active torsions:
REMARK  status: ('A' for Active; 'I' for Inactive)
REMARK    1  A    between atoms: N1_1  and  S1_4 
REMARK    2  A    between atoms: S1_4  and  C1_7 
REMARK    3  A    between atoms: C4_10  and  C5_11 
REMARK    4  A    between atoms: C5_11  and  C6_12 
REMARK    5  A    between atoms: C6_12  and  N2_13 
REMARK    6  A    between atoms: C7_14  and  C8_15 
REMARK    7  A    between atoms: C15_22  and  C16_23 
REMARK    8  A    between atoms: C23_30  and  C24_31 
ROOT
HETATM    1  N2  UNL     1      -3.481   7.302  12.074  1.00  0.00    -0.345 N 
HETATM    2  C7  UNL     1      -2.839   7.226  13.341  1.00  0.00     0.046 C 
HETATM    3  C14 UNL     1      -3.262   6.279  14.224  1.00  0.00     0.043 C 
HETATM    4  C15 UNL     1      -4.316   5.348  13.881  1.00  0.00    -0.022 C 
HETATM    5  C22 UNL     1      -4.859   5.389  12.689  1.00  0.00     0.043 C 
HETATM    6  C23 UNL     1      -4.439   6.335  11.644  1.00  0.00     0.046 C 
ENDROOT
BRANCH   1   7
HETATM    7  C6  UNL     1      -3.137   8.426  11.207  1.00  0.00     0.134 C 
BRANCH   7   8
HETATM    8  C5  UNL     1      -2.532   8.112   9.905  1.00  0.00     0.058 C 
BRANCH   8   9
HETATM    9  C4  UNL     1      -1.361   7.227   9.840  1.00  0.00    -0.057 A 
HETATM   10  C3  UNL     1      -0.089   7.787   9.630  1.00  0.00     0.009 A 
HETATM   11  C2  UNL     1       1.055   7.031   9.539  1.00  0.00     0.026 A 
HETATM   12  C1  UNL     1       1.001   5.660   9.651  1.00  0.00     0.079 A 
HETATM   13  C31 UNL     1      -0.226   5.082   9.856  1.00  0.00     0.026 A 
HETATM   14  C30 UNL     1      -1.387   5.865   9.947  1.00  0.00     0.009 A 
BRANCH  12  15
HETATM   15  S1  UNL     1       2.468   4.679   9.535  1.00  0.00     0.256 S 
HETATM   16  O1  UNL     1       2.873   4.178  10.902  1.00  0.00    -0.201 OA
HETATM   17  O2  UNL     1       3.567   5.574   9.047  1.00  0.00    -0.201 OA
BRANCH  15  18
HETATM   18  N1  UNL     1       2.226   3.313   8.532  1.00  0.00    -0.324 N 
ATOM     19  H12 UNL     1       1.761   3.322   7.624  1.00  0.00     0.169 HD
ATOM     20  H11 UNL     1       2.628   2.505   9.007  1.00  0.00     0.169 HD
ENDBRANCH  15  18
ENDBRANCH  12  15
ENDBRANCH   8   9
ENDBRANCH   7   8
ENDBRANCH   1   7
BRANCH   2  21
HETATM   21  C8  UNL     1      -1.639   7.961  13.761  1.00  0.00    -0.009 A 
HETATM   22  C9  UNL     1      -1.792   8.775  14.897  1.00  0.00     0.014 A 
HETATM   23  C10 UNL     1      -0.787   9.579  15.359  1.00  0.00     0.001 A 
HETATM   24  C11 UNL     1       0.426   9.612  14.711  1.00  0.00     0.000 A 
HETATM   25  C12 UNL     1       0.593   8.835  13.615  1.00  0.00     0.001 A 
HETATM   26  C13 UNL     1      -0.435   8.020  13.150  1.00  0.00     0.014 A 
ENDBRANCH   2  21
BRANCH   6  27
HETATM   27  C24 UNL     1      -5.529   6.715  10.767  1.00  0.00    -0.009 A 
HETATM   28  C25 UNL     1      -5.645   6.194   9.502  1.00  0.00     0.014 A 
HETATM   29  C26 UNL     1      -6.644   6.592   8.654  1.00  0.00     0.001 A 
HETATM   30  C27 UNL     1      -7.585   7.532   9.017  1.00  0.00     0.000 A 
HETATM   31  C28 UNL     1      -7.495   8.073  10.278  1.00  0.00     0.001 A 
HETATM   32  C29 UNL     1      -6.488   7.671  11.128  1.00  0.00     0.014 A 
ENDBRANCH   6  27
BRANCH   4  33
HETATM   33  C16 UNL     1      -4.742   4.368  14.905  1.00  0.00    -0.026 A 
HETATM   34  C17 UNL     1      -3.934   3.341  15.331  1.00  0.00     0.012 A 
HETATM   35  C18 UNL     1      -4.338   2.410  16.302  1.00  0.00     0.001 A 
HETATM   36  C19 UNL     1      -5.574   2.486  16.873  1.00  0.00     0.000 A 
HETATM   37  C20 UNL     1      -6.392   3.508  16.454  1.00  0.00     0.001 A 
HETATM   38  C21 UNL     1      -5.989   4.438  15.486  1.00  0.00     0.012 A 
ENDBRANCH   4  33
TORSDOF 8
ENDMDL
