MODEL 5
REMARK VINA RESULT: -8.970638793      4.802      8.440
REMARK  8 active torsions:
REMARK  status: ('A' for Active; 'I' for Inactive)
REMARK    1  A    between atoms: N1_1  and  S1_4 
REMARK    2  A    between atoms: S1_4  and  C1_7 
REMARK    3  A    between atoms: C4_10  and  C5_11 
REMARK    4  A    between atoms: C5_11  and  C6_12 
REMARK    5  A    between atoms: C6_12  and  N2_13 
REMARK    6  A    between atoms: C7_14  and  C8_15 
REMARK    7  A    between atoms: C15_22  and  C16_23 
REMARK    8  A    between atoms: C23_30  and  C24_31 
ROOT
HETATM    1  N2  UNL     1      -2.946   6.258  11.413  1.00  0.00    -0.345 N 
HETATM    2  C7  UNL     1      -4.347   6.033  11.513  1.00  0.00     0.046 C 
HETATM    3  C14 UNL     1      -4.811   5.314  12.574  1.00  0.00     0.043 C 
HETATM    4  C15 UNL     1      -3.913   4.814  13.594  1.00  0.00    -0.022 C 
HETATM    5  C22 UNL     1      -2.632   5.078  13.521  1.00  0.00     0.043 C 
HETATM    6  C23 UNL     1      -2.036   5.891  12.449  1.00  0.00     0.046 C 
ENDROOT
BRANCH   1   7
HETATM    7  C6  UNL     1      -2.446   6.880  10.188  1.00  0.00     0.134 C 
BRANCH   7   8
HETATM    8  C5  UNL     1      -2.299   6.018   9.007  1.00  0.00     0.058 C 
BRANCH   8   9
HETATM    9  C4  UNL     1      -0.956   5.655   8.532  1.00  0.00    -0.057 A 
HETATM   10  C3  UNL     1       0.079   6.602   8.616  1.00  0.00     0.009 A 
HETATM   11  C2  UNL     1       1.358   6.352   8.180  1.00  0.00     0.026 A 
HETATM   12  C1  UNL     1       1.686   5.134   7.628  1.00  0.00     0.079 A 
HETATM   13  C31 UNL     1       0.696   4.188   7.530  1.00  0.00     0.026 A 
HETATM   14  C30 UNL     1      -0.605   4.455   7.979  1.00  0.00     0.009 A 
BRANCH  12  15
HETATM   15  S1  UNL     1       3.328   4.802   7.063  1.00  0.00     0.256 S 
HETATM   16  O1  UNL     1       3.367   3.498   6.300  1.00  0.00    -0.201 OA
HETATM   17  O2  UNL     1       4.193   4.633   8.276  1.00  0.00    -0.201 OA
BRANCH  15  18
HETATM   18  N1  UNL     1       3.886   6.034   6.013  1.00  0.00    -0.324 N 
ATOM     19  H12 UNL     1       4.198   5.895   5.052  1.00  0.00     0.169 HD
ATOM     20  H11 UNL     1       3.848   6.917   6.524  1.00  0.00     0.169 HD
ENDBRANCH  15  18
ENDBRANCH  12  15
ENDBRANCH   8   9
ENDBRANCH   7   8
ENDBRANCH   1   7
BRANCH   2  21
HETATM   21  C8  UNL     1      -5.393   6.633  10.676  1.00  0.00    -0.009 A 
HETATM   22  C9  UNL     1      -5.986   7.800  11.188  1.00  0.00     0.014 A 
HETATM   23  C10 UNL     1      -7.027   8.425  10.560  1.00  0.00     0.001 A 
HETATM   24  C11 UNL     1      -7.531   7.918   9.384  1.00  0.00     0.000 A 
HETATM   25  C12 UNL     1      -6.974   6.794   8.875  1.00  0.00     0.001 A 
HETATM   26  C13 UNL     1      -5.915   6.163   9.521  1.00  0.00     0.014 A 
ENDBRANCH   2  21
BRANCH   6  27
HETATM   27  C24 UNL     1      -0.680   5.485  12.132  1.00  0.00    -0.009 A 
HETATM   28  C25 UNL     1       0.370   6.365  12.224  1.00  0.00     0.014 A 
HETATM   29  C26 UNL     1       1.642   5.999  11.874  1.00  0.00     0.001 A 
HETATM   30  C27 UNL     1       1.942   4.735  11.414  1.00  0.00     0.000 A 
HETATM   31  C28 UNL     1       0.911   3.830  11.310  1.00  0.00     0.001 A 
HETATM   32  C29 UNL     1      -0.368   4.204  11.661  1.00  0.00     0.014 A 
ENDBRANCH   6  27
BRANCH   4  33
HETATM   33  C16 UNL     1      -4.489   4.014  14.698  1.00  0.00    -0.026 A 
HETATM   34  C17 UNL     1      -3.795   3.008  15.326  1.00  0.00     0.012 A 
HETATM   35  C18 UNL     1      -4.341   2.247  16.372  1.00  0.00     0.001 A 
HETATM   36  C19 UNL     1      -5.609   2.478  16.817  1.00  0.00     0.000 A 
HETATM   37  C20 UNL     1      -6.314   3.482  16.197  1.00  0.00     0.001 A 
HETATM   38  C21 UNL     1      -5.769   4.242  15.153  1.00  0.00     0.012 A 
ENDBRANCH   4  33
TORSDOF 8
ENDMDL
