MODEL 17
REMARK VINA RESULT: -8.252404253      2.079      5.278
REMARK  8 active torsions:
REMARK  status: ('A' for Active; 'I' for Inactive)
REMARK    1  A    between atoms: N1_1  and  S1_4 
REMARK    2  A    between atoms: S1_4  and  C1_7 
REMARK    3  A    between atoms: C4_10  and  C5_11 
REMARK    4  A    between atoms: C5_11  and  C6_12 
REMARK    5  A    between atoms: C6_12  and  N2_13 
REMARK    6  A    between atoms: C7_14  and  C8_15 
REMARK    7  A    between atoms: C15_22  and  C16_23 
REMARK    8  A    between atoms: C23_30  and  C24_31 
ROOT
HETATM    1  N2  UNL     1      -1.950   5.799  12.010  1.00  0.00    -0.345 N 
HETATM    2  C7  UNL     1      -2.623   4.912  11.125  1.00  0.00     0.046 C 
HETATM    3  C14 UNL     1      -2.626   5.206   9.795  1.00  0.00     0.043 C 
HETATM    4  C15 UNL     1      -1.940   6.373   9.281  1.00  0.00    -0.022 C 
HETATM    5  C22 UNL     1      -1.274   7.150  10.100  1.00  0.00     0.043 C 
HETATM    6  C23 UNL     1      -1.161   6.893  11.544  1.00  0.00     0.046 C 
ENDROOT
BRANCH   1   7
HETATM    7  C6  UNL     1      -2.099   5.565  13.445  1.00  0.00     0.134 C 
BRANCH   7   8
HETATM    8  C5  UNL     1      -3.434   5.765  14.026  1.00  0.00     0.058 C 
BRANCH   8   9
HETATM    9  C4  UNL     1      -4.098   4.658  14.727  1.00  0.00    -0.057 A 
HETATM   10  C3  UNL     1      -3.313   3.680  15.361  1.00  0.00     0.009 A 
HETATM   11  C2  UNL     1      -3.851   2.603  16.023  1.00  0.00     0.026 A 
HETATM   12  C1  UNL     1      -5.216   2.434  16.095  1.00  0.00     0.079 A 
HETATM   13  C31 UNL     1      -6.010   3.372  15.486  1.00  0.00     0.026 A 
HETATM   14  C30 UNL     1      -5.448   4.467  14.812  1.00  0.00     0.009 A 
BRANCH  12  15
HETATM   15  S1  UNL     1      -5.919   1.051  16.945  1.00  0.00     0.256 S 
HETATM   16  O1  UNL     1      -5.427   1.010  18.374  1.00  0.00    -0.201 OA
HETATM   17  O2  UNL     1      -5.421  -0.190  16.268  1.00  0.00    -0.201 OA
BRANCH  15  18
HETATM   18  N1  UNL     1      -7.627   1.148  16.986  1.00  0.00    -0.324 N 
ATOM     19  H12 UNL     1      -8.194   1.230  17.830  1.00  0.00     0.169 HD
ATOM     20  H11 UNL     1      -7.963   1.110  16.024  1.00  0.00     0.169 HD
ENDBRANCH  15  18
ENDBRANCH  12  15
ENDBRANCH   8   9
ENDBRANCH   7   8
ENDBRANCH   1   7
BRANCH   2  21
HETATM   21  C8  UNL     1      -3.192   3.601  11.463  1.00  0.00    -0.009 A 
HETATM   22  C9  UNL     1      -4.514   3.385  11.035  1.00  0.00     0.014 A 
HETATM   23  C10 UNL     1      -5.203   2.245  11.344  1.00  0.00     0.001 A 
HETATM   24  C11 UNL     1      -4.608   1.258  12.096  1.00  0.00     0.000 A 
HETATM   25  C12 UNL     1      -3.335   1.448  12.517  1.00  0.00     0.001 A 
HETATM   26  C13 UNL     1      -2.640   2.612  12.200  1.00  0.00     0.014 A 
ENDBRANCH   2  21
BRANCH   6  27
HETATM   27  C24 UNL     1      -1.057   8.113  12.320  1.00  0.00    -0.009 A 
HETATM   28  C25 UNL     1       0.055   8.386  13.078  1.00  0.00     0.014 A 
HETATM   29  C26 UNL     1       0.132   9.512  13.853  1.00  0.00     0.001 A 
HETATM   30  C27 UNL     1      -0.893  10.431  13.918  1.00  0.00     0.000 A 
HETATM   31  C28 UNL     1      -2.020  10.186  13.170  1.00  0.00     0.001 A 
HETATM   32  C29 UNL     1      -2.095   9.050  12.393  1.00  0.00     0.014 A 
ENDBRANCH   6  27
BRANCH   4  33
HETATM   33  C16 UNL     1      -2.016   6.644   7.828  1.00  0.00    -0.026 A 
HETATM   34  C17 UNL     1      -2.316   5.669   6.907  1.00  0.00     0.012 A 
HETATM   35  C18 UNL     1      -2.386   5.924   5.527  1.00  0.00     0.001 A 
HETATM   36  C19 UNL     1      -2.154   7.174   5.034  1.00  0.00     0.000 A 
HETATM   37  C20 UNL     1      -1.853   8.157   5.946  1.00  0.00     0.001 A 
HETATM   38  C21 UNL     1      -1.783   7.904   7.323  1.00  0.00     0.012 A 
ENDBRANCH   4  33
TORSDOF 8
ENDMDL
