MODEL 6
REMARK VINA RESULT: -8.954017289      3.981      7.329
REMARK  8 active torsions:
REMARK  status: ('A' for Active; 'I' for Inactive)
REMARK    1  A    between atoms: N1_1  and  S1_4 
REMARK    2  A    between atoms: S1_4  and  C1_7 
REMARK    3  A    between atoms: C4_10  and  C5_11 
REMARK    4  A    between atoms: C5_11  and  C6_12 
REMARK    5  A    between atoms: C6_12  and  N2_13 
REMARK    6  A    between atoms: C7_14  and  C8_15 
REMARK    7  A    between atoms: C15_22  and  C16_23 
REMARK    8  A    between atoms: C23_30  and  C24_31 
ROOT
HETATM    1  N2  UNL     1      -3.452   7.245  12.075  1.00  0.00    -0.345 N 
HETATM    2  C7  UNL     1      -2.810   7.173  13.342  1.00  0.00     0.046 C 
HETATM    3  C14 UNL     1      -3.220   6.215  14.220  1.00  0.00     0.043 C 
HETATM    4  C15 UNL     1      -4.260   5.270  13.871  1.00  0.00    -0.022 C 
HETATM    5  C22 UNL     1      -4.803   5.310  12.679  1.00  0.00     0.043 C 
HETATM    6  C23 UNL     1      -4.395   6.267  11.639  1.00  0.00     0.046 C 
ENDROOT
BRANCH   1   7
HETATM    7  C6  UNL     1      -3.123   8.379  11.213  1.00  0.00     0.134 C 
BRANCH   7   8
HETATM    8  C5  UNL     1      -2.547   8.078   9.895  1.00  0.00     0.058 C 
BRANCH   8   9
HETATM    9  C4  UNL     1      -1.332   7.257   9.801  1.00  0.00    -0.057 A 
HETATM   10  C3  UNL     1      -1.444   5.858   9.864  1.00  0.00     0.009 A 
HETATM   11  C2  UNL     1      -0.358   5.017   9.801  1.00  0.00     0.026 A 
HETATM   12  C1  UNL     1       0.915   5.524   9.671  1.00  0.00     0.079 A 
HETATM   13  C31 UNL     1       1.058   6.887   9.608  1.00  0.00     0.026 A 
HETATM   14  C30 UNL     1      -0.058   7.734   9.674  1.00  0.00     0.009 A 
BRANCH  12  15
HETATM   15  S1  UNL     1       2.318   4.450   9.590  1.00  0.00     0.256 S 
HETATM   16  O1  UNL     1       1.917   3.106   9.028  1.00  0.00    -0.201 OA
HETATM   17  O2  UNL     1       2.789   4.222  10.995  1.00  0.00    -0.201 OA
BRANCH  15  18
HETATM   18  N1  UNL     1       3.537   5.095   8.575  1.00  0.00    -0.324 N 
ATOM     19  H12 UNL     1       3.672   6.085   8.369  1.00  0.00     0.169 HD
ATOM     20  H11 UNL     1       4.092   4.314   8.224  1.00  0.00     0.169 HD
ENDBRANCH  15  18
ENDBRANCH  12  15
ENDBRANCH   8   9
ENDBRANCH   7   8
ENDBRANCH   1   7
BRANCH   2  21
HETATM   21  C8  UNL     1      -1.622   7.923  13.767  1.00  0.00    -0.009 A 
HETATM   22  C9  UNL     1      -1.798   8.759  14.884  1.00  0.00     0.014 A 
HETATM   23  C10 UNL     1      -0.806   9.578  15.346  1.00  0.00     0.001 A 
HETATM   24  C11 UNL     1       0.418   9.605  14.719  1.00  0.00     0.000 A 
HETATM   25  C12 UNL     1       0.607   8.807  13.641  1.00  0.00     0.001 A 
HETATM   26  C13 UNL     1      -0.408   7.977  13.175  1.00  0.00     0.014 A 
ENDBRANCH   2  21
BRANCH   6  27
HETATM   27  C24 UNL     1      -5.490   6.635  10.762  1.00  0.00    -0.009 A 
HETATM   28  C25 UNL     1      -5.611   6.099   9.504  1.00  0.00     0.014 A 
HETATM   29  C26 UNL     1      -6.614   6.485   8.656  1.00  0.00     0.001 A 
HETATM   30  C27 UNL     1      -7.554   7.429   9.012  1.00  0.00     0.000 A 
HETATM   31  C28 UNL     1      -7.459   7.985  10.266  1.00  0.00     0.001 A 
HETATM   32  C29 UNL     1      -6.447   7.595  11.116  1.00  0.00     0.014 A 
ENDBRANCH   6  27
BRANCH   4  33
HETATM   33  C16 UNL     1      -4.673   4.279  14.890  1.00  0.00    -0.026 A 
HETATM   34  C17 UNL     1      -5.913   4.297  15.483  1.00  0.00     0.012 A 
HETATM   35  C18 UNL     1      -6.305   3.358  16.451  1.00  0.00     0.001 A 
HETATM   36  C19 UNL     1      -5.454   2.371  16.853  1.00  0.00     0.000 A 
HETATM   37  C20 UNL     1      -4.211   2.344  16.268  1.00  0.00     0.001 A 
HETATM   38  C21 UNL     1      -3.820   3.279  15.301  1.00  0.00     0.012 A 
ENDBRANCH   4  33
TORSDOF 8
ENDMDL
