MODEL 3
REMARK VINA RESULT: -12.155475569      1.003      1.319
REMARK  8 active torsions:
REMARK  status: ('A' for Active; 'I' for Inactive)
REMARK       I    between atoms: N1_2  and  C2_4 
REMARK    1  A    between atoms: C2_4  and  C3_6 
REMARK    2  A    between atoms: C5_8  and  O2_9 
REMARK    3  A    between atoms: O2_9  and  C6_10 
REMARK    4  A    between atoms: C9_13  and  N2_14 
REMARK       I    between atoms: N2_14  and  C10_16 
REMARK       I    between atoms: C10_16  and  N3_18 
REMARK    5  A    between atoms: N3_18  and  C11_20 
REMARK    6  A    between atoms: C14_23  and  S1_24 
REMARK    7  A    between atoms: S1_24  and  C15_25 
REMARK    8  A    between atoms: C15_25  and  C16_26 
ROOT
HETATM    1  C6  UNL     1       8.302   3.228  -1.680  1.00  0.00     0.079 A 
HETATM    2  C7  UNL     1       8.813   2.108  -2.277  1.00  0.00     0.040 A 
HETATM    3  C8  UNL     1       8.364   0.853  -1.879  1.00  0.00     0.035 A 
HETATM    4  C9  UNL     1       7.424   0.685  -0.906  1.00  0.00     0.075 A 
HETATM    5  C19 UNL     1       6.923   1.844  -0.317  1.00  0.00     0.145 A 
HETATM    6  F2  UNL     1       5.982   1.713   0.659  1.00  0.00    -0.204 F 
HETATM    7  C20 UNL     1       7.357   3.072  -0.701  1.00  0.00     0.081 A 
ENDROOT
BRANCH   4   8
HETATM    8  N2  UNL     1       6.947  -0.577  -0.480  1.00  0.00    -0.306 N 
HETATM    9  C10 UNL     1       7.645  -1.544   0.268  1.00  0.00     0.325 C 
HETATM   10  O3  UNL     1       8.812  -1.323   0.622  1.00  0.00    -0.247 OA
HETATM   11  N3  UNL     1       7.063  -2.781   0.640  1.00  0.00    -0.309 N 
ATOM     12  H3  UNL     1       6.104  -2.939   0.332  1.00  0.00     0.170 HD
ATOM     13  H2  UNL     1       5.990  -0.812  -0.743  1.00  0.00     0.171 HD
BRANCH  11  14
HETATM   14  C11 UNL     1       7.662  -3.821   1.390  1.00  0.00     0.039 A 
HETATM   15  C12 UNL     1       9.000  -4.129   1.395  1.00  0.00     0.031 A 
HETATM   16  C13 UNL     1       9.458  -5.190   2.166  1.00  0.00     0.024 A 
HETATM   17  C14 UNL     1       8.647  -5.978   2.948  1.00  0.00     0.039 A 
HETATM   18  C17 UNL     1       7.307  -5.669   2.942  1.00  0.00     0.135 A 
HETATM   19  F1  UNL     1       6.431  -6.398   3.687  1.00  0.00    -0.205 F 
HETATM   20  C18 UNL     1       6.833  -4.633   2.193  1.00  0.00     0.073 A 
BRANCH  17  21
HETATM   21  S1  UNL     1       9.297  -7.335   3.922  1.00  0.00    -0.116 SA
BRANCH  21  22
HETATM   22  C15 UNL     1       8.780  -8.940   3.227  1.00  0.00     0.192 C 
BRANCH  22  23
HETATM   23  C16 UNL     1       8.705  -8.863   1.740  1.00  0.00     0.182 C 
HETATM   24  O4  UNL     1       9.750  -8.766   1.025  1.00  0.00    -0.647 OA
HETATM   25  O5  UNL     1       7.481  -8.894   1.086  1.00  0.00    -0.647 OA
ENDBRANCH  22  23
ENDBRANCH  21  22
ENDBRANCH  17  21
ENDBRANCH  11  14
ENDBRANCH   4   8
BRANCH   1  26
HETATM   26  O2  UNL     1       8.776   4.466  -2.106  1.00  0.00    -0.311 OA
BRANCH  26  27
HETATM   27  C5  UNL     1      10.058   4.908  -1.744  1.00  0.00     0.079 A 
HETATM   28  C4  UNL     1      10.858   5.581  -2.662  1.00  0.00     0.072 A 
HETATM   29  C3  UNL     1      12.115   6.038  -2.377  1.00  0.00     0.103 A 
HETATM   30  N4  UNL     1      12.561   5.800  -1.125  1.00  0.00    -0.361 N 
HETATM   31  C22 UNL     1      11.820   5.153  -0.213  1.00  0.00     0.091 A 
ATOM     32  H4  UNL     1      13.493   6.122  -0.864  1.00  0.00     0.165 HD
HETATM   33  C21 UNL     1      10.551   4.683  -0.477  1.00  0.00     0.054 A 
BRANCH  29  34
HETATM   34  C2  UNL     1      12.974   6.743  -3.304  1.00  0.00     0.267 C 
HETATM   35  N1  UNL     1      12.759   8.096  -3.648  1.00  0.00    -0.360 N 
HETATM   36  C1  UNL     1      13.675   8.713  -4.587  1.00  0.00     0.149 C 
ATOM     37  H1  UNL     1      11.984   8.623  -3.247  1.00  0.00     0.162 HD
HETATM   38  O1  UNL     1      13.940   6.137  -3.821  1.00  0.00    -0.266 OA
ENDBRANCH  29  34
ENDBRANCH  26  27
ENDBRANCH   1  26
TORSDOF 8
ENDMDL
