MODEL 5
REMARK VINA RESULT: -11.992118103      1.134      1.402
REMARK  8 active torsions:
REMARK  status: ('A' for Active; 'I' for Inactive)
REMARK       I    between atoms: N1_2  and  C2_4 
REMARK    1  A    between atoms: C2_4  and  C3_6 
REMARK    2  A    between atoms: C5_8  and  O2_9 
REMARK    3  A    between atoms: O2_9  and  C6_10 
REMARK    4  A    between atoms: C9_13  and  N2_14 
REMARK       I    between atoms: N2_14  and  C10_16 
REMARK       I    between atoms: C10_16  and  N3_18 
REMARK    5  A    between atoms: N3_18  and  C11_20 
REMARK    6  A    between atoms: C14_23  and  S1_24 
REMARK    7  A    between atoms: S1_24  and  C15_25 
REMARK    8  A    between atoms: C15_25  and  C16_26 
ROOT
HETATM    1  C6  UNL     1       8.288   3.380  -1.267  1.00  0.00     0.079 A 
HETATM    2  C7  UNL     1       7.272   3.078  -0.402  1.00  0.00     0.040 A 
HETATM    3  C8  UNL     1       6.890   1.752  -0.228  1.00  0.00     0.035 A 
HETATM    4  C9  UNL     1       7.492   0.723  -0.889  1.00  0.00     0.075 A 
HETATM    5  C19 UNL     1       8.524   1.063  -1.762  1.00  0.00     0.145 A 
HETATM    6  F2  UNL     1       9.148   0.058  -2.439  1.00  0.00    -0.204 F 
HETATM    7  C20 UNL     1       8.901   2.355  -1.936  1.00  0.00     0.081 A 
ENDROOT
BRANCH   4   8
HETATM    8  N2  UNL     1       7.128  -0.635  -0.733  1.00  0.00    -0.306 N 
HETATM    9  C10 UNL     1       7.617  -1.545   0.223  1.00  0.00     0.325 C 
HETATM   10  O3  UNL     1       8.463  -1.172   1.049  1.00  0.00    -0.247 OA
HETATM   11  N3  UNL     1       7.179  -2.890   0.285  1.00  0.00    -0.309 N 
ATOM     12  H3  UNL     1       6.486  -3.172  -0.409  1.00  0.00     0.170 HD
ATOM     13  H2  UNL     1       6.434  -0.996  -1.388  1.00  0.00     0.171 HD
BRANCH  11  14
HETATM   14  C11 UNL     1       7.592  -3.888   1.200  1.00  0.00     0.039 A 
HETATM   15  C12 UNL     1       6.760  -4.606   2.023  1.00  0.00     0.031 A 
HETATM   16  C13 UNL     1       7.297  -5.549   2.891  1.00  0.00     0.024 A 
HETATM   17  C14 UNL     1       8.640  -5.826   2.988  1.00  0.00     0.039 A 
HETATM   18  C17 UNL     1       9.473  -5.106   2.163  1.00  0.00     0.135 A 
HETATM   19  F1  UNL     1      10.818  -5.316   2.195  1.00  0.00    -0.205 F 
HETATM   20  C18 UNL     1       8.970  -4.175   1.304  1.00  0.00     0.073 A 
BRANCH  17  21
HETATM   21  S1  UNL     1       9.274  -7.056   4.127  1.00  0.00    -0.116 SA
BRANCH  21  22
HETATM   22  C15 UNL     1       8.974  -8.741   3.497  1.00  0.00     0.192 C 
BRANCH  22  23
HETATM   23  C16 UNL     1       8.970  -8.746   2.007  1.00  0.00     0.182 C 
HETATM   24  O4  UNL     1      10.044  -8.657   1.338  1.00  0.00    -0.647 OA
HETATM   25  O5  UNL     1       7.780  -8.848   1.299  1.00  0.00    -0.647 OA
ENDBRANCH  22  23
ENDBRANCH  21  22
ENDBRANCH  17  21
ENDBRANCH  11  14
ENDBRANCH   4   8
BRANCH   1  26
HETATM   26  O2  UNL     1       8.641   4.719  -1.414  1.00  0.00    -0.311 OA
BRANCH  26  27
HETATM   27  C5  UNL     1       9.984   5.120  -1.342  1.00  0.00     0.079 A 
HETATM   28  C4  UNL     1      10.550   5.877  -2.363  1.00  0.00     0.072 A 
HETATM   29  C3  UNL     1      11.850   6.301  -2.359  1.00  0.00     0.103 A 
HETATM   30  N4  UNL     1      12.586   5.940  -1.286  1.00  0.00    -0.361 N 
HETATM   31  C22 UNL     1      12.076   5.209  -0.282  1.00  0.00     0.091 A 
ATOM     32  H4  UNL     1      13.562   6.232  -1.236  1.00  0.00     0.165 HD
HETATM   33  C21 UNL     1      10.769   4.771  -0.265  1.00  0.00     0.054 A 
BRANCH  29  34
HETATM   34  C2  UNL     1      12.472   7.090  -3.400  1.00  0.00     0.267 C 
HETATM   35  N1  UNL     1      13.673   7.802  -3.189  1.00  0.00    -0.360 N 
HETATM   36  C1  UNL     1      14.216   8.565  -4.295  1.00  0.00     0.149 C 
ATOM     37  H1  UNL     1      14.144   7.780  -2.285  1.00  0.00     0.162 HD
HETATM   38  O1  UNL     1      11.930   7.146  -4.527  1.00  0.00    -0.266 OA
ENDBRANCH  29  34
ENDBRANCH  26  27
ENDBRANCH   1  26
TORSDOF 8
ENDMDL
