MODEL 12
REMARK VINA RESULT: -10.747877035      3.917     13.072
REMARK  8 active torsions:
REMARK  status: ('A' for Active; 'I' for Inactive)
REMARK       I    between atoms: N1_2  and  C2_4 
REMARK    1  A    between atoms: C2_4  and  C3_6 
REMARK    2  A    between atoms: C5_8  and  O2_9 
REMARK    3  A    between atoms: O2_9  and  C6_10 
REMARK    4  A    between atoms: C9_13  and  N2_14 
REMARK       I    between atoms: N2_14  and  C10_16 
REMARK       I    between atoms: C10_16  and  N3_18 
REMARK    5  A    between atoms: N3_18  and  C11_20 
REMARK    6  A    between atoms: C14_23  and  S1_24 
REMARK    7  A    between atoms: S1_24  and  C15_25 
REMARK    8  A    between atoms: C15_25  and  C16_26 
ROOT
HETATM    1  C6  UNL     1       7.694  -6.139   2.064  1.00  0.00     0.079 A 
HETATM    2  C7  UNL     1       8.537  -5.402   1.278  1.00  0.00     0.040 A 
HETATM    3  C8  UNL     1       8.178  -4.109   0.911  1.00  0.00     0.035 A 
HETATM    4  C9  UNL     1       7.006  -3.534   1.305  1.00  0.00     0.075 A 
HETATM    5  C19 UNL     1       6.169  -4.310   2.104  1.00  0.00     0.145 A 
HETATM    6  F2  UNL     1       4.990  -3.765   2.516  1.00  0.00    -0.204 F 
HETATM    7  C20 UNL     1       6.514  -5.572   2.466  1.00  0.00     0.081 A 
ENDROOT
BRANCH   4   8
HETATM    8  N2  UNL     1       6.612  -2.222   0.949  1.00  0.00    -0.306 N 
HETATM    9  C10 UNL     1       7.407  -1.226   0.352  1.00  0.00     0.325 C 
HETATM   10  O3  UNL     1       8.593  -1.465   0.084  1.00  0.00    -0.247 OA
HETATM   11  N3  UNL     1       6.904   0.061   0.040  1.00  0.00    -0.309 N 
ATOM     12  H3  UNL     1       5.926   0.233   0.275  1.00  0.00     0.170 HD
ATOM     13  H2  UNL     1       5.644  -1.970   1.147  1.00  0.00     0.171 HD
BRANCH  11  14
HETATM   14  C11 UNL     1       7.603   1.134  -0.562  1.00  0.00     0.039 A 
HETATM   15  C12 UNL     1       8.695   1.011  -1.386  1.00  0.00     0.031 A 
HETATM   16  C13 UNL     1       9.301   2.150  -1.900  1.00  0.00     0.024 A 
HETATM   17  C14 UNL     1       8.876   3.431  -1.638  1.00  0.00     0.039 A 
HETATM   18  C17 UNL     1       7.782   3.553  -0.813  1.00  0.00     0.135 A 
HETATM   19  F1  UNL     1       7.294   4.786  -0.501  1.00  0.00    -0.205 F 
HETATM   20  C18 UNL     1       7.170   2.451  -0.296  1.00  0.00     0.073 A 
BRANCH  17  21
HETATM   21  S1  UNL     1       9.699   4.864  -2.331  1.00  0.00    -0.116 SA
BRANCH  21  22
HETATM   22  C15 UNL     1      11.234   5.237  -1.418  1.00  0.00     0.192 C 
BRANCH  22  23
HETATM   23  C16 UNL     1      11.976   6.347  -2.080  1.00  0.00     0.182 C 
HETATM   24  O4  UNL     1      11.913   6.535  -3.334  1.00  0.00    -0.647 OA
HETATM   25  O5  UNL     1      12.765   7.217  -1.340  1.00  0.00    -0.647 OA
ENDBRANCH  22  23
ENDBRANCH  21  22
ENDBRANCH  17  21
ENDBRANCH  11  14
ENDBRANCH   4   8
BRANCH   1  26
HETATM   26  O2  UNL     1       8.089  -7.429   2.411  1.00  0.00    -0.311 OA
BRANCH  26  27
HETATM   27  C5  UNL     1       7.814  -8.515   1.566  1.00  0.00     0.079 A 
HETATM   28  C4  UNL     1       6.916  -9.504   1.958  1.00  0.00     0.072 A 
HETATM   29  C3  UNL     1       6.603 -10.589   1.186  1.00  0.00     0.103 A 
HETATM   30  N4  UNL     1       7.222 -10.661  -0.012  1.00  0.00    -0.361 N 
HETATM   31  C22 UNL     1       8.094  -9.728  -0.423  1.00  0.00     0.091 A 
ATOM     32  H4  UNL     1       7.020 -11.452  -0.624  1.00  0.00     0.165 HD
HETATM   33  C21 UNL     1       8.426  -8.627   0.337  1.00  0.00     0.054 A 
BRANCH  29  34
HETATM   34  C2  UNL     1       5.674 -11.634   1.559  1.00  0.00     0.267 C 
HETATM   35  N1  UNL     1       4.275 -11.454   1.498  1.00  0.00    -0.360 N 
HETATM   36  C1  UNL     1       3.428 -12.562   1.894  1.00  0.00     0.149 C 
ATOM     37  H1  UNL     1       3.872 -10.571   1.185  1.00  0.00     0.162 HD
HETATM   38  O1  UNL     1       6.123 -12.736   1.949  1.00  0.00    -0.266 OA
ENDBRANCH  29  34
ENDBRANCH  26  27
ENDBRANCH   1  26
TORSDOF 8
ENDMDL
