MODEL 2
REMARK VINA RESULT: -12.234375681      3.782     12.759
REMARK  8 active torsions:
REMARK  status: ('A' for Active; 'I' for Inactive)
REMARK       I    between atoms: N1_2  and  C2_4 
REMARK    1  A    between atoms: C2_4  and  C3_6 
REMARK    2  A    between atoms: C5_8  and  O2_9 
REMARK    3  A    between atoms: O2_9  and  C6_10 
REMARK    4  A    between atoms: C9_13  and  N2_14 
REMARK       I    between atoms: N2_14  and  C10_16 
REMARK       I    between atoms: C10_16  and  N3_18 
REMARK    5  A    between atoms: N3_18  and  C11_20 
REMARK    6  A    between atoms: C14_23  and  S1_24 
REMARK    7  A    between atoms: S1_24  and  C15_25 
REMARK    8  A    between atoms: C15_25  and  C16_26 
ROOT
HETATM    1  C6  UNL     1       7.912  -6.028   2.825  1.00  0.00     0.079 A 
HETATM    2  C7  UNL     1       8.808  -5.598   1.885  1.00  0.00     0.040 A 
HETATM    3  C8  UNL     1       8.475  -4.530   1.058  1.00  0.00     0.035 A 
HETATM    4  C9  UNL     1       7.279  -3.883   1.143  1.00  0.00     0.075 A 
HETATM    5  C19 UNL     1       6.388  -4.344   2.110  1.00  0.00     0.145 A 
HETATM    6  F2  UNL     1       5.182  -3.719   2.221  1.00  0.00    -0.204 F 
HETATM    7  C20 UNL     1       6.707  -5.385   2.920  1.00  0.00     0.081 A 
ENDROOT
BRANCH   4   8
HETATM    8  N2  UNL     1       6.910  -2.794   0.317  1.00  0.00    -0.306 N 
HETATM    9  C10 UNL     1       7.622  -1.596   0.118  1.00  0.00     0.325 C 
HETATM   10  O3  UNL     1       8.700  -1.417   0.703  1.00  0.00    -0.247 OA
HETATM   11  N3  UNL     1       7.154  -0.568  -0.737  1.00  0.00    -0.309 N 
ATOM     12  H3  UNL     1       6.263  -0.739  -1.203  1.00  0.00     0.170 HD
ATOM     13  H2  UNL     1       6.030  -2.887  -0.190  1.00  0.00     0.171 HD
BRANCH  11  14
HETATM   14  C11 UNL     1       7.782   0.669  -1.018  1.00  0.00     0.039 A 
HETATM   15  C12 UNL     1       8.939   0.827  -1.740  1.00  0.00     0.031 A 
HETATM   16  C13 UNL     1       9.462   2.100  -1.930  1.00  0.00     0.024 A 
HETATM   17  C14 UNL     1       8.889   3.248  -1.436  1.00  0.00     0.039 A 
HETATM   18  C17 UNL     1       7.729   3.088  -0.712  1.00  0.00     0.135 A 
HETATM   19  F1  UNL     1       7.095   4.172  -0.185  1.00  0.00    -0.205 F 
HETATM   20  C18 UNL     1       7.198   1.850  -0.512  1.00  0.00     0.073 A 
BRANCH  17  21
HETATM   21  S1  UNL     1       9.610   4.864  -1.715  1.00  0.00    -0.116 SA
BRANCH  21  22
HETATM   22  C15 UNL     1      11.155   5.059  -0.764  1.00  0.00     0.192 C 
BRANCH  22  23
HETATM   23  C16 UNL     1      12.143   5.866  -1.537  1.00  0.00     0.182 C 
HETATM   24  O4  UNL     1      12.611   6.956  -1.086  1.00  0.00    -0.647 OA
HETATM   25  O5  UNL     1      12.584   5.446  -2.785  1.00  0.00    -0.647 OA
ENDBRANCH  22  23
ENDBRANCH  21  22
ENDBRANCH  17  21
ENDBRANCH  11  14
ENDBRANCH   4   8
BRANCH   1  26
HETATM   26  O2  UNL     1       8.283  -7.099   3.634  1.00  0.00    -0.311 OA
BRANCH  26  27
HETATM   27  C5  UNL     1       8.289  -8.410   3.132  1.00  0.00     0.079 A 
HETATM   28  C4  UNL     1       7.192  -8.903   2.433  1.00  0.00     0.072 A 
HETATM   29  C3  UNL     1       7.130 -10.169   1.918  1.00  0.00     0.103 A 
HETATM   30  N4  UNL     1       8.216 -10.944   2.123  1.00  0.00    -0.361 N 
HETATM   31  C22 UNL     1       9.293 -10.504   2.793  1.00  0.00     0.091 A 
ATOM     32  H4  UNL     1       8.219 -11.896   1.757  1.00  0.00     0.165 HD
HETATM   33  C21 UNL     1       9.377  -9.234   3.321  1.00  0.00     0.054 A 
BRANCH  29  34
HETATM   34  C2  UNL     1       6.008 -10.715   1.185  1.00  0.00     0.267 C 
HETATM   35  N1  UNL     1       6.178 -11.628   0.121  1.00  0.00    -0.360 N 
HETATM   36  C1  UNL     1       4.991 -12.118  -0.551  1.00  0.00     0.149 C 
ATOM     37  H1  UNL     1       7.107 -11.934  -0.165  1.00  0.00     0.162 HD
HETATM   38  O1  UNL     1       4.848 -10.369   1.502  1.00  0.00    -0.266 OA
ENDBRANCH  29  34
ENDBRANCH  26  27
ENDBRANCH   1  26
TORSDOF 8
ENDMDL
