MODEL 4
REMARK VINA RESULT: -11.997922296      3.916     12.708
REMARK  8 active torsions:
REMARK  status: ('A' for Active; 'I' for Inactive)
REMARK       I    between atoms: N1_2  and  C2_4 
REMARK    1  A    between atoms: C2_4  and  C3_6 
REMARK    2  A    between atoms: C5_8  and  O2_9 
REMARK    3  A    between atoms: O2_9  and  C6_10 
REMARK    4  A    between atoms: C9_13  and  N2_14 
REMARK       I    between atoms: N2_14  and  C10_16 
REMARK       I    between atoms: C10_16  and  N3_18 
REMARK    5  A    between atoms: N3_18  and  C11_20 
REMARK    6  A    between atoms: C14_23  and  S1_24 
REMARK    7  A    between atoms: S1_24  and  C15_25 
REMARK    8  A    between atoms: C15_25  and  C16_26 
ROOT
HETATM    1  C6  UNL     1       7.873  -6.050   2.837  1.00  0.00     0.079 A 
HETATM    2  C7  UNL     1       8.758  -5.613   1.889  1.00  0.00     0.040 A 
HETATM    3  C8  UNL     1       8.417  -4.537   1.076  1.00  0.00     0.035 A 
HETATM    4  C9  UNL     1       7.223  -3.888   1.182  1.00  0.00     0.075 A 
HETATM    5  C19 UNL     1       6.344  -4.355   2.157  1.00  0.00     0.145 A 
HETATM    6  F2  UNL     1       5.141  -3.729   2.289  1.00  0.00    -0.204 F 
HETATM    7  C20 UNL     1       6.670  -5.405   2.954  1.00  0.00     0.081 A 
ENDROOT
BRANCH   4   8
HETATM    8  N2  UNL     1       6.847  -2.791   0.371  1.00  0.00    -0.306 N 
HETATM    9  C10 UNL     1       7.544  -1.581   0.197  1.00  0.00     0.325 C 
HETATM   10  O3  UNL     1       8.614  -1.397   0.794  1.00  0.00    -0.247 OA
HETATM   11  N3  UNL     1       7.069  -0.546  -0.645  1.00  0.00    -0.309 N 
ATOM     12  H3  UNL     1       6.184  -0.721  -1.122  1.00  0.00     0.170 HD
ATOM     13  H2  UNL     1       5.972  -2.888  -0.146  1.00  0.00     0.171 HD
BRANCH  11  14
HETATM   14  C11 UNL     1       7.682   0.704  -0.901  1.00  0.00     0.039 A 
HETATM   15  C12 UNL     1       7.127   1.932  -0.634  1.00  0.00     0.031 A 
HETATM   16  C13 UNL     1       7.830   3.088  -0.950  1.00  0.00     0.024 A 
HETATM   17  C14 UNL     1       9.078   3.094  -1.526  1.00  0.00     0.039 A 
HETATM   18  C17 UNL     1       9.633   1.864  -1.793  1.00  0.00     0.135 A 
HETATM   19  F1  UNL     1      10.867   1.778  -2.364  1.00  0.00    -0.205 F 
HETATM   20  C18 UNL     1       8.963   0.716  -1.493  1.00  0.00     0.073 A 
BRANCH  17  21
HETATM   21  S1  UNL     1       9.937   4.619  -1.911  1.00  0.00    -0.116 SA
BRANCH  21  22
HETATM   22  C15 UNL     1      11.229   4.968  -0.672  1.00  0.00     0.192 C 
BRANCH  22  23
HETATM   23  C16 UNL     1      12.150   6.032  -1.165  1.00  0.00     0.182 C 
HETATM   24  O4  UNL     1      11.997   7.248  -0.838  1.00  0.00    -0.647 OA
HETATM   25  O5  UNL     1      13.210   5.721  -2.006  1.00  0.00    -0.647 OA
ENDBRANCH  22  23
ENDBRANCH  21  22
ENDBRANCH  17  21
ENDBRANCH  11  14
ENDBRANCH   4   8
BRANCH   1  26
HETATM   26  O2  UNL     1       8.251  -7.129   3.632  1.00  0.00    -0.311 OA
BRANCH  26  27
HETATM   27  C5  UNL     1       8.261  -8.433   3.115  1.00  0.00     0.079 A 
HETATM   28  C4  UNL     1       7.160  -8.925   2.419  1.00  0.00     0.072 A 
HETATM   29  C3  UNL     1       7.102 -10.185   1.890  1.00  0.00     0.103 A 
HETATM   30  N4  UNL     1       8.194 -10.956   2.076  1.00  0.00    -0.361 N 
HETATM   31  C22 UNL     1       9.274 -10.517   2.742  1.00  0.00     0.091 A 
ATOM     32  H4  UNL     1       8.199 -11.903   1.699  1.00  0.00     0.165 HD
HETATM   33  C21 UNL     1       9.355  -9.253   3.284  1.00  0.00     0.054 A 
BRANCH  29  34
HETATM   34  C2  UNL     1       5.976 -10.729   1.160  1.00  0.00     0.267 C 
HETATM   35  N1  UNL     1       6.144 -11.599   0.060  1.00  0.00    -0.360 N 
HETATM   36  C1  UNL     1       4.953 -12.090  -0.605  1.00  0.00     0.149 C 
ATOM     37  H1  UNL     1       7.073 -11.873  -0.256  1.00  0.00     0.162 HD
HETATM   38  O1  UNL     1       4.816 -10.421   1.513  1.00  0.00    -0.266 OA
ENDBRANCH  29  34
ENDBRANCH  26  27
ENDBRANCH   1  26
TORSDOF 8
ENDMDL
