MODEL 1
REMARK VINA RESULT: -12.280846480      0.000      0.000
REMARK  8 active torsions:
REMARK  status: ('A' for Active; 'I' for Inactive)
REMARK       I    between atoms: N1_2  and  C2_4 
REMARK    1  A    between atoms: C2_4  and  C3_6 
REMARK    2  A    between atoms: C5_8  and  O2_9 
REMARK    3  A    between atoms: O2_9  and  C6_10 
REMARK    4  A    between atoms: C9_13  and  N2_14 
REMARK       I    between atoms: N2_14  and  C10_16 
REMARK       I    between atoms: C10_16  and  N3_18 
REMARK    5  A    between atoms: N3_18  and  C11_20 
REMARK    6  A    between atoms: C14_23  and  S1_24 
REMARK    7  A    between atoms: S1_24  and  C15_25 
REMARK    8  A    between atoms: C15_25  and  C16_26 
ROOT
HETATM    1  C6  UNL     1       8.362   3.166  -1.729  1.00  0.00     0.079 A 
HETATM    2  C7  UNL     1       8.789   1.996  -2.295  1.00  0.00     0.040 A 
HETATM    3  C8  UNL     1       8.273   0.787  -1.842  1.00  0.00     0.035 A 
HETATM    4  C9  UNL     1       7.347   0.713  -0.845  1.00  0.00     0.075 A 
HETATM    5  C19 UNL     1       6.932   1.921  -0.289  1.00  0.00     0.145 A 
HETATM    6  F2  UNL     1       6.006   1.883   0.711  1.00  0.00    -0.204 F 
HETATM    7  C20 UNL     1       7.431   3.105  -0.726  1.00  0.00     0.081 A 
ENDROOT
BRANCH   4   8
HETATM    8  N2  UNL     1       6.802  -0.501  -0.362  1.00  0.00    -0.306 N 
HETATM    9  C10 UNL     1       7.483  -1.535   0.308  1.00  0.00     0.325 C 
HETATM   10  O3  UNL     1       8.698  -1.426   0.531  1.00  0.00    -0.247 OA
HETATM   11  N3  UNL     1       6.832  -2.713   0.748  1.00  0.00    -0.309 N 
ATOM     12  H3  UNL     1       5.834  -2.779   0.548  1.00  0.00     0.170 HD
ATOM     13  H2  UNL     1       5.804  -0.644  -0.518  1.00  0.00     0.171 HD
BRANCH  11  14
HETATM   14  C11 UNL     1       7.409  -3.809   1.432  1.00  0.00     0.039 A 
HETATM   15  C12 UNL     1       6.721  -4.718   2.200  1.00  0.00     0.031 A 
HETATM   16  C13 UNL     1       7.412  -5.743   2.835  1.00  0.00     0.024 A 
HETATM   17  C14 UNL     1       8.772  -5.922   2.749  1.00  0.00     0.039 A 
HETATM   18  C17 UNL     1       9.459  -5.011   1.980  1.00  0.00     0.135 A 
HETATM   19  F1  UNL     1      10.810  -5.113   1.840  1.00  0.00    -0.205 F 
HETATM   20  C18 UNL     1       8.805  -3.997   1.348  1.00  0.00     0.073 A 
BRANCH  17  21
HETATM   21  S1  UNL     1       9.607  -7.265   3.591  1.00  0.00    -0.116 SA
BRANCH  21  22
HETATM   22  C15 UNL     1       8.709  -8.836   3.360  1.00  0.00     0.192 C 
BRANCH  22  23
HETATM   23  C16 UNL     1       9.327  -9.630   2.260  1.00  0.00     0.182 C 
HETATM   24  O4  UNL     1       9.901 -10.740   2.482  1.00  0.00    -0.647 OA
HETATM   25  O5  UNL     1       9.294  -9.176   0.949  1.00  0.00    -0.647 OA
ENDBRANCH  22  23
ENDBRANCH  21  22
ENDBRANCH  17  21
ENDBRANCH  11  14
ENDBRANCH   4   8
BRANCH   1  26
HETATM   26  O2  UNL     1       8.902   4.357  -2.210  1.00  0.00    -0.311 OA
BRANCH  26  27
HETATM   27  C5  UNL     1      10.152   4.811  -1.761  1.00  0.00     0.079 A 
HETATM   28  C4  UNL     1      11.038   5.422  -2.643  1.00  0.00     0.072 A 
HETATM   29  C3  UNL     1      12.271   5.888  -2.274  1.00  0.00     0.103 A 
HETATM   30  N4  UNL     1      12.600   5.723  -0.975  1.00  0.00    -0.361 N 
HETATM   31  C22 UNL     1      11.773   5.138  -0.096  1.00  0.00     0.091 A 
ATOM     32  H4  UNL     1      13.509   6.055  -0.652  1.00  0.00     0.165 HD
HETATM   33  C21 UNL     1      10.527   4.661  -0.444  1.00  0.00     0.054 A 
BRANCH  29  34
HETATM   34  C2  UNL     1      13.217   6.529  -3.161  1.00  0.00     0.267 C 
HETATM   35  N1  UNL     1      13.304   7.934  -3.280  1.00  0.00    -0.360 N 
HETATM   36  C1  UNL     1      14.285   8.480  -4.197  1.00  0.00     0.149 C 
ATOM     37  H1  UNL     1      12.695   8.545  -2.737  1.00  0.00     0.162 HD
HETATM   38  O1  UNL     1      13.986   5.818  -3.848  1.00  0.00    -0.266 OA
ENDBRANCH  29  34
ENDBRANCH  26  27
ENDBRANCH   1  26
TORSDOF 8
ENDMDL
