MODEL 6
REMARK VINA RESULT: -11.982588794      1.450      1.848
REMARK  8 active torsions:
REMARK  status: ('A' for Active; 'I' for Inactive)
REMARK       I    between atoms: N1_2  and  C2_4 
REMARK    1  A    between atoms: C2_4  and  C3_6 
REMARK    2  A    between atoms: C5_8  and  O2_9 
REMARK    3  A    between atoms: O2_9  and  C6_10 
REMARK    4  A    between atoms: C9_13  and  N2_14 
REMARK       I    between atoms: N2_14  and  C10_16 
REMARK       I    between atoms: C10_16  and  N3_18 
REMARK    5  A    between atoms: N3_18  and  C11_20 
REMARK    6  A    between atoms: C14_23  and  S1_24 
REMARK    7  A    between atoms: S1_24  and  C15_25 
REMARK    8  A    between atoms: C15_25  and  C16_26 
ROOT
HETATM    1  C6  UNL     1       8.419   3.531  -1.313  1.00  0.00     0.079 A 
HETATM    2  C7  UNL     1       7.399   3.236  -0.450  1.00  0.00     0.040 A 
HETATM    3  C8  UNL     1       7.016   1.911  -0.269  1.00  0.00     0.035 A 
HETATM    4  C9  UNL     1       7.619   0.878  -0.922  1.00  0.00     0.075 A 
HETATM    5  C19 UNL     1       8.654   1.210  -1.793  1.00  0.00     0.145 A 
HETATM    6  F2  UNL     1       9.279   0.201  -2.462  1.00  0.00    -0.204 F 
HETATM    7  C20 UNL     1       9.033   2.501  -1.974  1.00  0.00     0.081 A 
ENDROOT
BRANCH   4   8
HETATM    8  N2  UNL     1       7.253  -0.480  -0.759  1.00  0.00    -0.306 N 
HETATM    9  C10 UNL     1       7.769  -1.396   0.177  1.00  0.00     0.325 C 
HETATM   10  O3  UNL     1       8.644  -1.031   0.975  1.00  0.00    -0.247 OA
HETATM   11  N3  UNL     1       7.325  -2.739   0.248  1.00  0.00    -0.309 N 
ATOM     12  H3  UNL     1       6.608  -3.014  -0.422  1.00  0.00     0.170 HD
ATOM     13  H2  UNL     1       6.534  -0.834  -1.391  1.00  0.00     0.171 HD
BRANCH  11  14
HETATM   14  C11 UNL     1       7.764  -3.743   1.145  1.00  0.00     0.039 A 
HETATM   15  C12 UNL     1       9.075  -4.068   1.395  1.00  0.00     0.031 A 
HETATM   16  C13 UNL     1       9.372  -5.089   2.289  1.00  0.00     0.024 A 
HETATM   17  C14 UNL     1       8.423  -5.820   2.962  1.00  0.00     0.039 A 
HETATM   18  C17 UNL     1       7.110  -5.493   2.711  1.00  0.00     0.135 A 
HETATM   19  F1  UNL     1       6.104  -6.167   3.335  1.00  0.00    -0.205 F 
HETATM   20  C18 UNL     1       6.794  -4.496   1.838  1.00  0.00     0.073 A 
BRANCH  17  21
HETATM   21  S1  UNL     1       8.866  -7.127   4.105  1.00  0.00    -0.116 SA
BRANCH  21  22
HETATM   22  C15 UNL     1       8.611  -8.767   3.348  1.00  0.00     0.192 C 
BRANCH  22  23
HETATM   23  C16 UNL     1       8.851  -8.704   1.878  1.00  0.00     0.182 C 
HETATM   24  O4  UNL     1      10.022  -8.762   1.392  1.00  0.00    -0.647 OA
HETATM   25  O5  UNL     1       7.793  -8.578   0.988  1.00  0.00    -0.647 OA
ENDBRANCH  22  23
ENDBRANCH  21  22
ENDBRANCH  17  21
ENDBRANCH  11  14
ENDBRANCH   4   8
BRANCH   1  26
HETATM   26  O2  UNL     1       8.774   4.869  -1.467  1.00  0.00    -0.311 OA
BRANCH  26  27
HETATM   27  C5  UNL     1      10.119   5.265  -1.414  1.00  0.00     0.079 A 
HETATM   28  C4  UNL     1      10.672   6.022  -2.442  1.00  0.00     0.072 A 
HETATM   29  C3  UNL     1      11.974   6.441  -2.455  1.00  0.00     0.103 A 
HETATM   30  N4  UNL     1      12.723   6.078  -1.393  1.00  0.00    -0.361 N 
HETATM   31  C22 UNL     1      12.226   5.349  -0.383  1.00  0.00     0.091 A 
ATOM     32  H4  UNL     1      13.701   6.368  -1.356  1.00  0.00     0.165 HD
HETATM   33  C21 UNL     1      10.918   4.914  -0.348  1.00  0.00     0.054 A 
BRANCH  29  34
HETATM   34  C2  UNL     1      12.584   7.230  -3.505  1.00  0.00     0.267 C 
HETATM   35  N1  UNL     1      13.760   7.983  -3.293  1.00  0.00    -0.360 N 
HETATM   36  C1  UNL     1      14.292   8.741  -4.409  1.00  0.00     0.149 C 
ATOM     37  H1  UNL     1      14.220   7.993  -2.384  1.00  0.00     0.162 HD
HETATM   38  O1  UNL     1      12.054   7.247  -4.639  1.00  0.00    -0.266 OA
ENDBRANCH  29  34
ENDBRANCH  26  27
ENDBRANCH   1  26
TORSDOF 8
ENDMDL
