MODEL 7
REMARK VINA RESULT: -11.590981016      1.399      1.533
REMARK  8 active torsions:
REMARK  status: ('A' for Active; 'I' for Inactive)
REMARK       I    between atoms: N1_2  and  C2_4 
REMARK    1  A    between atoms: C2_4  and  C3_6 
REMARK    2  A    between atoms: C5_8  and  O2_9 
REMARK    3  A    between atoms: O2_9  and  C6_10 
REMARK    4  A    between atoms: C9_13  and  N2_14 
REMARK       I    between atoms: N2_14  and  C10_16 
REMARK       I    between atoms: C10_16  and  N3_18 
REMARK    5  A    between atoms: N3_18  and  C11_20 
REMARK    6  A    between atoms: C14_23  and  S1_24 
REMARK    7  A    between atoms: S1_24  and  C15_25 
REMARK    8  A    between atoms: C15_25  and  C16_26 
ROOT
HETATM    1  C6  UNL     1       8.465   3.064  -1.780  1.00  0.00     0.079 A 
HETATM    2  C7  UNL     1       8.895   1.784  -2.001  1.00  0.00     0.040 A 
HETATM    3  C8  UNL     1       8.272   0.729  -1.344  1.00  0.00     0.035 A 
HETATM    4  C9  UNL     1       7.238   0.914  -0.476  1.00  0.00     0.075 A 
HETATM    5  C19 UNL     1       6.823   2.228  -0.272  1.00  0.00     0.145 A 
HETATM    6  F2  UNL     1       5.791   2.449   0.591  1.00  0.00    -0.204 F 
HETATM    7  C20 UNL     1       7.426   3.263  -0.911  1.00  0.00     0.081 A 
ENDROOT
BRANCH   4   8
HETATM    8  N2  UNL     1       6.583  -0.139   0.208  1.00  0.00    -0.306 N 
HETATM    9  C10 UNL     1       7.087  -1.426   0.473  1.00  0.00     0.325 C 
HETATM   10  O3  UNL     1       8.225  -1.732   0.089  1.00  0.00    -0.247 OA
HETATM   11  N3  UNL     1       6.338  -2.405   1.170  1.00  0.00    -0.309 N 
ATOM     12  H3  UNL     1       5.403  -2.130   1.470  1.00  0.00     0.170 HD
ATOM     13  H2  UNL     1       5.642   0.058   0.548  1.00  0.00     0.171 HD
BRANCH  11  14
HETATM   14  C11 UNL     1       6.739  -3.723   1.497  1.00  0.00     0.039 A 
HETATM   15  C12 UNL     1       6.023  -4.603   2.271  1.00  0.00     0.031 A 
HETATM   16  C13 UNL     1       6.539  -5.867   2.531  1.00  0.00     0.024 A 
HETATM   17  C14 UNL     1       7.748  -6.315   2.057  1.00  0.00     0.039 A 
HETATM   18  C17 UNL     1       8.464  -5.432   1.281  1.00  0.00     0.135 A 
HETATM   19  F1  UNL     1       9.674  -5.794   0.770  1.00  0.00    -0.205 F 
HETATM   20  C18 UNL     1       7.980  -4.188   1.013  1.00  0.00     0.073 A 
BRANCH  17  21
HETATM   21  S1  UNL     1       8.362  -7.958   2.426  1.00  0.00    -0.116 SA
BRANCH  21  22
HETATM   22  C15 UNL     1       9.316  -7.961   3.981  1.00  0.00     0.192 C 
BRANCH  22  23
HETATM   23  C16 UNL     1       9.966  -6.636   4.194  1.00  0.00     0.182 C 
HETATM   24  O4  UNL     1       9.452  -5.756   4.950  1.00  0.00    -0.647 OA
HETATM   25  O5  UNL     1      11.164  -6.322   3.567  1.00  0.00    -0.647 OA
ENDBRANCH  22  23
ENDBRANCH  21  22
ENDBRANCH  17  21
ENDBRANCH  11  14
ENDBRANCH   4   8
BRANCH   1  26
HETATM   26  O2  UNL     1       9.113   4.094  -2.458  1.00  0.00    -0.311 OA
BRANCH  26  27
HETATM   27  C5  UNL     1      10.284   4.668  -1.940  1.00  0.00     0.079 A 
HETATM   28  C4  UNL     1      11.191   5.303  -2.784  1.00  0.00     0.072 A 
HETATM   29  C3  UNL     1      12.351   5.882  -2.348  1.00  0.00     0.103 A 
HETATM   30  N4  UNL     1      12.585   5.810  -1.020  1.00  0.00    -0.361 N 
HETATM   31  C22 UNL     1      11.736   5.206  -0.176  1.00  0.00     0.091 A 
ATOM     32  H4  UNL     1      13.437   6.228  -0.646  1.00  0.00     0.165 HD
HETATM   33  C21 UNL     1      10.562   4.615  -0.592  1.00  0.00     0.054 A 
BRANCH  29  34
HETATM   34  C2  UNL     1      13.316   6.551  -3.194  1.00  0.00     0.267 C 
HETATM   35  N1  UNL     1      13.338   7.955  -3.344  1.00  0.00    -0.360 N 
HETATM   36  C1  UNL     1      14.344   8.530  -4.216  1.00  0.00     0.149 C 
ATOM     37  H1  UNL     1      12.667   8.547  -2.855  1.00  0.00     0.162 HD
HETATM   38  O1  UNL     1      14.160   5.866  -3.815  1.00  0.00    -0.266 OA
ENDBRANCH  29  34
ENDBRANCH  26  27
ENDBRANCH   1  26
TORSDOF 8
ENDMDL
