MODEL 6
REMARK VINA RESULT: -10.227072579      3.882     10.372
REMARK  8 active torsions:
REMARK  status: ('A' for Active; 'I' for Inactive)
REMARK    1  A    between atoms: C2_2  and  S1_3 
REMARK    2  A    between atoms: S1_3  and  C3_6 
REMARK    3  A    between atoms: C6_9  and  C7_10 
REMARK    4  A    between atoms: C7_10  and  N1_11 
REMARK    5  A    between atoms: C7_10  and  C10_16 
REMARK       I    between atoms: N1_11  and  C8_13 
REMARK       I    between atoms: C10_16  and  N2_18 
REMARK    6  A    between atoms: N2_18  and  C11_20 
REMARK    7  A    between atoms: C13_22  and  C14_23 
REMARK    8  A    between atoms: C20_31  and  O5_32 
ROOT
HETATM    1  C14 UNL     1     -26.836   1.559 -12.744  1.00  0.00     0.013 A 
HETATM    2  C15 UNL     1     -26.858   0.570 -13.688  1.00  0.00     0.038 A 
HETATM    3  C16 UNL     1     -27.205  -0.725 -13.365  1.00  0.00     0.048 A 
HETATM    4  C17 UNL     1     -27.220  -1.759 -14.383  1.00  0.00     0.099 C 
HETATM    5  N3  UNL     1     -27.245  -2.594 -15.184  1.00  0.00    -0.191 NA
HETATM    6  C18 UNL     1     -27.534  -0.994 -12.055  1.00  0.00     0.068 A 
HETATM    7  C19 UNL     1     -27.527  -0.032 -11.071  1.00  0.00     0.151 A 
HETATM    8  F1  UNL     1     -27.848  -0.287  -9.787  1.00  0.00    -0.203 F 
HETATM    9  C20 UNL     1     -27.171   1.256 -11.442  1.00  0.00     0.117 A 
ENDROOT
BRANCH   1  10
HETATM   10  C13 UNL     1     -26.457   2.966 -13.102  1.00  0.00    -0.014 A 
HETATM   11  C12 UNL     1     -27.330   3.850 -13.641  1.00  0.00     0.050 A 
HETATM   12  C11 UNL     1     -26.874   5.096 -13.924  1.00  0.00     0.077 A 
HETATM   13  S2  UNL     1     -25.230   5.017 -13.434  1.00  0.00    -0.083 SA
HETATM   14  C22 UNL     1     -25.180   3.409 -12.888  1.00  0.00     0.064 A 
BRANCH  12  15
HETATM   15  N2  UNL     1     -27.579   6.198 -14.489  1.00  0.00    -0.319 N 
HETATM   16  C10 UNL     1     -27.470   6.619 -15.818  1.00  0.00     0.250 C 
HETATM   17  O4  UNL     1     -26.721   6.037 -16.622  1.00  0.00    -0.270 OA
ATOM     18  H2  UNL     1     -28.210   6.718 -13.878  1.00  0.00     0.169 HD
BRANCH  16  19
HETATM   19  C7  UNL     1     -28.264   7.793 -16.299  1.00  0.00     0.210 C 
BRANCH  19  20
HETATM   20  C6  UNL     1     -27.446   9.008 -16.043  1.00  0.00    -0.026 A 
HETATM   21  C5  UNL     1     -26.321   9.306 -16.783  1.00  0.00     0.011 A 
HETATM   22  C4  UNL     1     -25.570  10.442 -16.531  1.00  0.00     0.024 A 
HETATM   23  C3  UNL     1     -25.932  11.309 -15.525  1.00  0.00     0.059 A 
HETATM   24  C24 UNL     1     -27.054  11.027 -14.775  1.00  0.00     0.024 A 
HETATM   25  C23 UNL     1     -27.787   9.893 -15.041  1.00  0.00     0.011 A 
BRANCH  23  26
HETATM   26  S1  UNL     1     -25.044  12.756 -15.144  1.00  0.00     0.175 S 
HETATM   27  O1  UNL     1     -25.652  13.391 -13.925  1.00  0.00    -0.223 OA
HETATM   28  O2  UNL     1     -25.152  13.762 -16.257  1.00  0.00    -0.223 OA
BRANCH  26  29
HETATM   29  C2  UNL     1     -23.344  12.418 -14.780  1.00  0.00     0.141 C 
HETATM   30  C1  UNL     1     -23.201  12.330 -13.276  1.00  0.00     0.021 C 
ENDBRANCH  26  29
ENDBRANCH  23  26
ENDBRANCH  19  20
BRANCH  19  31
HETATM   31  N1  UNL     1     -28.613   7.655 -17.689  1.00  0.00    -0.344 N 
HETATM   32  C8  UNL     1     -29.712   6.909 -18.172  1.00  0.00     0.214 C 
HETATM   33  C9  UNL     1     -30.070   6.767 -19.595  1.00  0.00     0.117 C 
HETATM   34  O3  UNL     1     -30.433   6.323 -17.323  1.00  0.00    -0.274 OA
ATOM     35  H1  UNL     1     -28.025   8.130 -18.374  1.00  0.00     0.163 HD
ENDBRANCH  19  31
ENDBRANCH  16  19
ENDBRANCH  12  15
ENDBRANCH   1  10
BRANCH   9  36
HETATM   36  O5  UNL     1     -27.139   2.295 -10.506  1.00  0.00    -0.352 OA
HETATM   37  C21 UNL     1     -28.337   2.952 -10.128  1.00  0.00     0.210 C 
ENDBRANCH   9  36
TORSDOF 8
ENDMDL
