MODEL 5
REMARK VINA RESULT: -10.317269026      3.707     10.658
REMARK  8 active torsions:
REMARK  status: ('A' for Active; 'I' for Inactive)
REMARK    1  A    between atoms: C2_2  and  S1_3 
REMARK    2  A    between atoms: S1_3  and  C3_6 
REMARK    3  A    between atoms: C6_9  and  C7_10 
REMARK    4  A    between atoms: C7_10  and  N1_11 
REMARK    5  A    between atoms: C7_10  and  C10_16 
REMARK       I    between atoms: N1_11  and  C8_13 
REMARK       I    between atoms: C10_16  and  N2_18 
REMARK    6  A    between atoms: N2_18  and  C11_20 
REMARK    7  A    between atoms: C13_22  and  C14_23 
REMARK    8  A    between atoms: C20_31  and  O5_32 
ROOT
HETATM    1  C14 UNL     1     -27.080   2.036 -11.759  1.00  0.00     0.013 A 
HETATM    2  C15 UNL     1     -27.353   2.143 -10.422  1.00  0.00     0.038 A 
HETATM    3  C16 UNL     1     -27.772   1.057  -9.684  1.00  0.00     0.048 A 
HETATM    4  C17 UNL     1     -28.055   1.195  -8.268  1.00  0.00     0.099 C 
HETATM    5  N3  UNL     1     -28.279   1.286  -7.135  1.00  0.00    -0.191 NA
HETATM    6  C18 UNL     1     -27.907  -0.148 -10.335  1.00  0.00     0.068 A 
HETATM    7  C19 UNL     1     -27.644  -0.306 -11.677  1.00  0.00     0.151 A 
HETATM    8  F1  UNL     1     -27.774  -1.483 -12.321  1.00  0.00    -0.203 F 
HETATM    9  C20 UNL     1     -27.226   0.814 -12.380  1.00  0.00     0.117 A 
ENDROOT
BRANCH   1  10
HETATM   10  C13 UNL     1     -26.626   3.222 -12.557  1.00  0.00    -0.014 A 
HETATM   11  C12 UNL     1     -27.481   4.149 -13.051  1.00  0.00     0.050 A 
HETATM   12  C11 UNL     1     -26.954   5.179 -13.759  1.00  0.00     0.077 A 
HETATM   13  S2  UNL     1     -25.272   4.841 -13.725  1.00  0.00    -0.083 SA
HETATM   14  C22 UNL     1     -25.295   3.406 -12.816  1.00  0.00     0.064 A 
BRANCH  12  15
HETATM   15  N2  UNL     1     -27.627   6.273 -14.378  1.00  0.00    -0.319 N 
HETATM   16  C10 UNL     1     -27.549   6.591 -15.737  1.00  0.00     0.250 C 
HETATM   17  O4  UNL     1     -26.861   5.915 -16.522  1.00  0.00    -0.270 OA
ATOM     18  H2  UNL     1     -28.208   6.868 -13.786  1.00  0.00     0.169 HD
BRANCH  16  19
HETATM   19  C7  UNL     1     -28.303   7.767 -16.275  1.00  0.00     0.210 C 
BRANCH  19  20
HETATM   20  C6  UNL     1     -27.472   8.973 -16.020  1.00  0.00    -0.026 A 
HETATM   21  C5  UNL     1     -26.315   9.231 -16.725  1.00  0.00     0.011 A 
HETATM   22  C4  UNL     1     -25.553  10.360 -16.473  1.00  0.00     0.024 A 
HETATM   23  C3  UNL     1     -25.936  11.259 -15.504  1.00  0.00     0.059 A 
HETATM   24  C24 UNL     1     -27.090  11.018 -14.790  1.00  0.00     0.024 A 
HETATM   25  C23 UNL     1     -27.833   9.890 -15.055  1.00  0.00     0.011 A 
BRANCH  23  26
HETATM   26  S1  UNL     1     -25.036  12.700 -15.127  1.00  0.00     0.175 S 
HETATM   27  O1  UNL     1     -25.632  13.338 -13.905  1.00  0.00    -0.223 OA
HETATM   28  O2  UNL     1     -25.142  13.707 -16.239  1.00  0.00    -0.223 OA
BRANCH  26  29
HETATM   29  C2  UNL     1     -23.336  12.350 -14.773  1.00  0.00     0.141 C 
HETATM   30  C1  UNL     1     -23.186  12.253 -13.270  1.00  0.00     0.021 C 
ENDBRANCH  26  29
ENDBRANCH  23  26
ENDBRANCH  19  20
BRANCH  19  31
HETATM   31  N1  UNL     1     -28.605   7.600 -17.673  1.00  0.00    -0.344 N 
HETATM   32  C8  UNL     1     -29.723   6.897 -18.176  1.00  0.00     0.214 C 
HETATM   33  C9  UNL     1     -30.032   6.726 -19.607  1.00  0.00     0.117 C 
HETATM   34  O3  UNL     1     -30.508   6.380 -17.339  1.00  0.00    -0.274 OA
ATOM     35  H1  UNL     1     -27.966   8.019 -18.349  1.00  0.00     0.163 HD
ENDBRANCH  19  31
ENDBRANCH  16  19
ENDBRANCH  12  15
ENDBRANCH   1  10
BRANCH   9  36
HETATM   36  O5  UNL     1     -26.937   0.744 -13.746  1.00  0.00    -0.352 OA
HETATM   37  C21 UNL     1     -25.831  -0.018 -14.202  1.00  0.00     0.210 C 
ENDBRANCH   9  36
TORSDOF 8
ENDMDL
