MODEL 7
REMARK VINA RESULT: -10.189546379      3.829     10.677
REMARK  8 active torsions:
REMARK  status: ('A' for Active; 'I' for Inactive)
REMARK    1  A    between atoms: C2_2  and  S1_3 
REMARK    2  A    between atoms: S1_3  and  C3_6 
REMARK    3  A    between atoms: C6_9  and  C7_10 
REMARK    4  A    between atoms: C7_10  and  N1_11 
REMARK    5  A    between atoms: C7_10  and  C10_16 
REMARK       I    between atoms: N1_11  and  C8_13 
REMARK       I    between atoms: C10_16  and  N2_18 
REMARK    6  A    between atoms: N2_18  and  C11_20 
REMARK    7  A    between atoms: C13_22  and  C14_23 
REMARK    8  A    between atoms: C20_31  and  O5_32 
ROOT
HETATM    1  C14 UNL     1     -26.394   1.339 -11.106  1.00  0.00     0.013 A 
HETATM    2  C15 UNL     1     -27.059   1.654  -9.952  1.00  0.00     0.038 A 
HETATM    3  C16 UNL     1     -27.367   0.691  -9.014  1.00  0.00     0.048 A 
HETATM    4  C17 UNL     1     -28.073   1.048  -7.799  1.00  0.00     0.099 C 
HETATM    5  N3  UNL     1     -28.630   1.316  -6.819  1.00  0.00    -0.191 NA
HETATM    6  C18 UNL     1     -26.982  -0.605  -9.274  1.00  0.00     0.068 A 
HETATM    7  C19 UNL     1     -26.312  -0.969 -10.420  1.00  0.00     0.151 A 
HETATM    8  F1  UNL     1     -25.931  -2.236 -10.681  1.00  0.00    -0.203 F 
HETATM    9  C20 UNL     1     -26.023   0.032 -11.335  1.00  0.00     0.117 A 
ENDROOT
BRANCH   1  10
HETATM   10  C13 UNL     1     -26.062   2.391 -12.123  1.00  0.00    -0.014 A 
HETATM   11  C12 UNL     1     -27.001   3.171 -12.709  1.00  0.00     0.050 A 
HETATM   12  C11 UNL     1     -26.583   4.090 -13.615  1.00  0.00     0.077 A 
HETATM   13  S2  UNL     1     -24.883   3.854 -13.637  1.00  0.00    -0.083 SA
HETATM   14  C22 UNL     1     -24.763   2.599 -12.497  1.00  0.00     0.064 A 
BRANCH  12  15
HETATM   15  N2  UNL     1     -27.359   5.022 -14.366  1.00  0.00    -0.319 N 
HETATM   16  C10 UNL     1     -27.515   6.373 -14.042  1.00  0.00     0.250 C 
HETATM   17  O4  UNL     1     -26.967   6.866 -13.040  1.00  0.00    -0.270 OA
ATOM     18  H2  UNL     1     -27.835   4.677 -15.199  1.00  0.00     0.169 HD
BRANCH  16  19
HETATM   19  C7  UNL     1     -28.356   7.258 -14.907  1.00  0.00     0.210 C 
BRANCH  19  20
HETATM   20  C6  UNL     1     -27.526   8.438 -15.262  1.00  0.00    -0.026 A 
HETATM   21  C5  UNL     1     -26.411   8.337 -16.069  1.00  0.00     0.011 A 
HETATM   22  C4  UNL     1     -25.648   9.448 -16.390  1.00  0.00     0.024 A 
HETATM   23  C3  UNL     1     -25.988  10.691 -15.907  1.00  0.00     0.059 A 
HETATM   24  C24 UNL     1     -27.099  10.811 -15.100  1.00  0.00     0.024 A 
HETATM   25  C23 UNL     1     -27.844   9.695 -14.792  1.00  0.00     0.011 A 
BRANCH  23  26
HETATM   26  S1  UNL     1     -25.084  12.135 -16.262  1.00  0.00     0.175 S 
HETATM   27  O1  UNL     1     -26.036  13.201 -16.724  1.00  0.00    -0.223 OA
HETATM   28  O2  UNL     1     -24.116  11.899 -17.389  1.00  0.00    -0.223 OA
BRANCH  26  29
HETATM   29  C2  UNL     1     -24.234  12.756 -14.839  1.00  0.00     0.141 C 
HETATM   30  C1  UNL     1     -25.219  13.570 -14.029  1.00  0.00     0.021 C 
ENDBRANCH  26  29
ENDBRANCH  23  26
ENDBRANCH  19  20
BRANCH  19  31
HETATM   31  N1  UNL     1     -28.830   6.555 -16.071  1.00  0.00    -0.344 N 
HETATM   32  C8  UNL     1     -29.689   7.104 -17.049  1.00  0.00     0.214 C 
HETATM   33  C9  UNL     1     -30.174   6.384 -18.240  1.00  0.00     0.117 C 
HETATM   34  O3  UNL     1     -30.067   8.293 -16.886  1.00  0.00    -0.274 OA
ATOM     35  H1  UNL     1     -28.522   5.590 -16.198  1.00  0.00     0.163 HD
ENDBRANCH  19  31
ENDBRANCH  16  19
ENDBRANCH  12  15
ENDBRANCH   1  10
BRANCH   9  36
HETATM   36  O5  UNL     1     -25.344  -0.250 -12.525  1.00  0.00    -0.352 OA
HETATM   37  C21 UNL     1     -26.032  -0.845 -13.613  1.00  0.00     0.210 C 
ENDBRANCH   9  36
TORSDOF 8
ENDMDL
