MODEL 2
REMARK VINA RESULT: -11.315438647      1.485      1.599
REMARK  8 active torsions:
REMARK  status: ('A' for Active; 'I' for Inactive)
REMARK    1  A    between atoms: C2_2  and  S1_3 
REMARK    2  A    between atoms: S1_3  and  C3_6 
REMARK    3  A    between atoms: C6_9  and  C7_10 
REMARK    4  A    between atoms: C7_10  and  N1_11 
REMARK    5  A    between atoms: C7_10  and  C10_16 
REMARK       I    between atoms: N1_11  and  C8_13 
REMARK       I    between atoms: C10_16  and  N2_18 
REMARK    6  A    between atoms: N2_18  and  C11_20 
REMARK    7  A    between atoms: C13_22  and  C14_23 
REMARK    8  A    between atoms: C20_31  and  O5_32 
ROOT
HETATM    1  C14 UNL     1     -28.383   7.069 -15.882  1.00  0.00     0.013 A 
HETATM    2  C15 UNL     1     -28.750   6.267 -16.928  1.00  0.00     0.038 A 
HETATM    3  C16 UNL     1     -29.527   6.745 -17.962  1.00  0.00     0.048 A 
HETATM    4  C17 UNL     1     -29.905   5.876 -19.061  1.00  0.00     0.099 C 
HETATM    5  N3  UNL     1     -30.210   5.199 -19.949  1.00  0.00    -0.191 NA
HETATM    6  C18 UNL     1     -29.923   8.062 -17.912  1.00  0.00     0.068 A 
HETATM    7  C19 UNL     1     -29.578   8.907 -16.881  1.00  0.00     0.151 A 
HETATM    8  F1  UNL     1     -29.961  10.198 -16.825  1.00  0.00    -0.203 F 
HETATM    9  C20 UNL     1     -28.796   8.383 -15.863  1.00  0.00     0.117 A 
ENDROOT
BRANCH   1  10
HETATM   10  C13 UNL     1     -27.538   6.542 -14.759  1.00  0.00    -0.014 A 
HETATM   11  C12 UNL     1     -27.462   5.226 -14.451  1.00  0.00     0.050 A 
HETATM   12  C11 UNL     1     -26.664   4.866 -13.413  1.00  0.00     0.077 A 
HETATM   13  S2  UNL     1     -26.033   6.371 -12.882  1.00  0.00    -0.083 SA
HETATM   14  C22 UNL     1     -26.801   7.402 -13.993  1.00  0.00     0.064 A 
BRANCH  12  15
HETATM   15  N2  UNL     1     -26.412   3.564 -12.891  1.00  0.00    -0.319 N 
HETATM   16  C10 UNL     1     -27.218   2.911 -11.953  1.00  0.00     0.250 C 
HETATM   17  O4  UNL     1     -28.244   3.445 -11.497  1.00  0.00    -0.270 OA
ATOM     18  H2  UNL     1     -25.583   3.072 -13.226  1.00  0.00     0.169 HD
BRANCH  16  19
HETATM   19  C7  UNL     1     -26.852   1.540 -11.477  1.00  0.00     0.210 C 
BRANCH  19  20
HETATM   20  C6  UNL     1     -26.613   0.707 -12.685  1.00  0.00    -0.026 A 
HETATM   21  C5  UNL     1     -27.647   0.165 -13.420  1.00  0.00     0.011 A 
HETATM   22  C4  UNL     1     -27.405  -0.608 -14.544  1.00  0.00     0.024 A 
HETATM   23  C3  UNL     1     -26.116  -0.857 -14.957  1.00  0.00     0.059 A 
HETATM   24  C24 UNL     1     -25.071  -0.322 -14.235  1.00  0.00     0.024 A 
HETATM   25  C23 UNL     1     -25.331   0.443 -13.120  1.00  0.00     0.011 A 
BRANCH  23  26
HETATM   26  S1  UNL     1     -25.729  -1.817 -16.355  1.00  0.00     0.175 S 
HETATM   27  O1  UNL     1     -25.041  -0.944 -17.367  1.00  0.00    -0.223 OA
HETATM   28  O2  UNL     1     -26.977  -2.340 -17.011  1.00  0.00    -0.223 OA
BRANCH  26  29
HETATM   29  C2  UNL     1     -24.631  -3.150 -15.965  1.00  0.00     0.141 C 
HETATM   30  C1  UNL     1     -23.260  -2.792 -16.497  1.00  0.00     0.021 C 
ENDBRANCH  26  29
ENDBRANCH  23  26
ENDBRANCH  19  20
BRANCH  19  31
HETATM   31  N1  UNL     1     -25.706   1.577 -10.605  1.00  0.00    -0.344 N 
HETATM   32  C8  UNL     1     -25.507   0.718  -9.501  1.00  0.00     0.214 C 
HETATM   33  C9  UNL     1     -24.335   0.756  -8.608  1.00  0.00     0.117 C 
HETATM   34  O3  UNL     1     -26.399  -0.138  -9.264  1.00  0.00    -0.274 OA
ATOM     35  H1  UNL     1     -24.987   2.273 -10.799  1.00  0.00     0.163 HD
ENDBRANCH  19  31
ENDBRANCH  16  19
ENDBRANCH  12  15
ENDBRANCH   1  10
BRANCH   9  36
HETATM   36  O5  UNL     1     -28.399   9.171 -14.777  1.00  0.00    -0.352 OA
HETATM   37  C21 UNL     1     -27.722  10.397 -14.997  1.00  0.00     0.210 C 
ENDBRANCH   9  36
TORSDOF 8
ENDMDL
