MODEL 1
REMARK VINA RESULT: -11.632279959      0.000      0.000
REMARK  8 active torsions:
REMARK  status: ('A' for Active; 'I' for Inactive)
REMARK    1  A    between atoms: C2_2  and  S1_3 
REMARK    2  A    between atoms: S1_3  and  C3_6 
REMARK    3  A    between atoms: C6_9  and  C7_10 
REMARK    4  A    between atoms: C7_10  and  N1_11 
REMARK    5  A    between atoms: C7_10  and  C10_16 
REMARK       I    between atoms: N1_11  and  C8_13 
REMARK       I    between atoms: C10_16  and  N2_18 
REMARK    6  A    between atoms: N2_18  and  C11_20 
REMARK    7  A    between atoms: C13_22  and  C14_23 
REMARK    8  A    between atoms: C20_31  and  O5_32 
ROOT
HETATM    1  C14 UNL     1     -28.805   6.573 -16.056  1.00  0.00     0.013 A 
HETATM    2  C15 UNL     1     -29.269   5.976 -17.195  1.00  0.00     0.038 A 
HETATM    3  C16 UNL     1     -29.824   6.713 -18.220  1.00  0.00     0.048 A 
HETATM    4  C17 UNL     1     -30.310   6.058 -19.419  1.00  0.00     0.099 C 
HETATM    5  N3  UNL     1     -30.697   5.552 -20.386  1.00  0.00    -0.191 NA
HETATM    6  C18 UNL     1     -29.895   8.079 -18.062  1.00  0.00     0.068 A 
HETATM    7  C19 UNL     1     -29.440   8.725 -16.935  1.00  0.00     0.151 A 
HETATM    8  F1  UNL     1     -29.506  10.062 -16.773  1.00  0.00    -0.203 F 
HETATM    9  C20 UNL     1     -28.890   7.943 -15.930  1.00  0.00     0.117 A 
ENDROOT
BRANCH   1  10
HETATM   10  C13 UNL     1     -28.203   5.765 -14.945  1.00  0.00    -0.014 A 
HETATM   11  C12 UNL     1     -28.569   4.487 -14.682  1.00  0.00     0.050 A 
HETATM   12  C11 UNL     1     -27.956   3.854 -13.651  1.00  0.00     0.077 A 
HETATM   13  S2  UNL     1     -26.876   5.051 -13.060  1.00  0.00    -0.083 SA
HETATM   14  C22 UNL     1     -27.240   6.311 -14.141  1.00  0.00     0.064 A 
BRANCH  12  15
HETATM   15  N2  UNL     1     -28.155   2.526 -13.173  1.00  0.00    -0.319 N 
HETATM   16  C10 UNL     1     -27.739   2.057 -11.923  1.00  0.00     0.250 C 
HETATM   17  O4  UNL     1     -27.145   2.797 -11.119  1.00  0.00    -0.270 OA
ATOM     18  H2  UNL     1     -28.637   1.870 -13.788  1.00  0.00     0.169 HD
BRANCH  16  19
HETATM   19  C7  UNL     1     -28.006   0.638 -11.529  1.00  0.00     0.210 C 
BRANCH  19  20
HETATM   20  C6  UNL     1     -27.465  -0.225 -12.611  1.00  0.00    -0.026 A 
HETATM   21  C5  UNL     1     -28.262  -0.725 -13.620  1.00  0.00     0.011 A 
HETATM   22  C4  UNL     1     -27.741  -1.528 -14.621  1.00  0.00     0.024 A 
HETATM   23  C3  UNL     1     -26.403  -1.848 -14.634  1.00  0.00     0.059 A 
HETATM   24  C24 UNL     1     -25.591  -1.357 -13.635  1.00  0.00     0.024 A 
HETATM   25  C23 UNL     1     -26.128  -0.561 -12.648  1.00  0.00     0.011 A 
BRANCH  23  26
HETATM   26  S1  UNL     1     -25.671  -2.849 -15.855  1.00  0.00     0.175 S 
HETATM   27  O1  UNL     1     -26.662  -3.063 -16.964  1.00  0.00    -0.223 OA
HETATM   28  O2  UNL     1     -25.335  -4.209 -15.305  1.00  0.00    -0.223 OA
BRANCH  26  29
HETATM   29  C2  UNL     1     -24.232  -2.096 -16.560  1.00  0.00     0.141 C 
HETATM   30  C1  UNL     1     -24.609  -0.698 -16.999  1.00  0.00     0.021 C 
ENDBRANCH  26  29
ENDBRANCH  23  26
ENDBRANCH  19  20
BRANCH  19  31
HETATM   31  N1  UNL     1     -27.425   0.332 -10.247  1.00  0.00    -0.344 N 
HETATM   32  C8  UNL     1     -28.135   0.312  -9.026  1.00  0.00     0.214 C 
HETATM   33  C9  UNL     1     -27.541  -0.000  -7.714  1.00  0.00     0.117 C 
HETATM   34  O3  UNL     1     -29.364   0.583  -9.066  1.00  0.00    -0.274 OA
ATOM     35  H1  UNL     1     -26.429   0.115 -10.219  1.00  0.00     0.163 HD
ENDBRANCH  19  31
ENDBRANCH  16  19
ENDBRANCH  12  15
ENDBRANCH   1  10
BRANCH   9  36
HETATM   36  O5  UNL     1     -28.404   8.517 -14.751  1.00  0.00    -0.352 OA
HETATM   37  C21 UNL     1     -27.459   9.573 -14.810  1.00  0.00     0.210 C 
ENDBRANCH   9  36
TORSDOF 8
ENDMDL
