MODEL 3
REMARK VINA RESULT: -9.118262795      3.594      5.089
REMARK  4 active torsions:
REMARK  status: ('A' for Active; 'I' for Inactive)
REMARK    1  A    between atoms: C1_2  and  C2_4 
REMARK    2  A    between atoms: C9_11  and  N1_12 
REMARK    3  A    between atoms: N1_12  and  C10_14 
REMARK    4  A    between atoms: C11_17  and  C12_18 
ROOT
HETATM    1  C10 UNL     1      20.435 -35.608  -7.047  1.00  0.00     0.143 A 
HETATM    2  N2  UNL     1      20.626 -34.598  -7.940  1.00  0.00    -0.324 N 
ATOM      3  H2  UNL     1      21.145 -34.806  -8.793  1.00  0.00     0.169 HD
HETATM    4  C11 UNL     1      20.175 -33.349  -7.768  1.00  0.00     0.136 A 
HETATM    5  N6  UNL     1      19.484 -33.132  -6.602  1.00  0.00    -0.347 N 
ATOM      6  H6  UNL     1      19.121 -32.195  -6.432  1.00  0.00     0.167 HD
HETATM    7  C18 UNL     1      19.256 -34.061  -5.683  1.00  0.00     0.136 A 
HETATM    8  C19 UNL     1      19.720 -35.339  -5.862  1.00  0.00     0.175 A 
HETATM    9  F2  UNL     1      19.492 -36.297  -4.927  1.00  0.00    -0.201 F 
ENDROOT
BRANCH   1  10
HETATM   10  N1  UNL     1      20.898 -36.914  -7.179  1.00  0.00    -0.368 N 
ATOM     11  H1  UNL     1      21.439 -37.279  -6.396  1.00  0.00     0.161 HD
BRANCH  10  12
HETATM   12  C9  UNL     1      20.711 -37.791  -8.262  1.00  0.00     0.102 C 
HETATM   13  C2  UNL     1      21.749 -37.798  -9.342  1.00  0.00     0.114 C 
HETATM   14  C3  UNL     1      21.156 -38.697 -10.436  1.00  0.00     0.002 C 
HETATM   15  C4  UNL     1      20.305 -39.803  -9.840  1.00  0.00     0.006 C 
HETATM   16  C8  UNL     1      20.223 -37.815 -11.240  1.00  0.00     0.006 C 
HETATM   17  C5  UNL     1      19.026 -39.255  -9.216  1.00  0.00     0.007 C 
HETATM   18  C6  UNL     1      19.350 -37.780  -8.909  1.00  0.00     0.009 C 
HETATM   19  C7  UNL     1      19.323 -37.098 -10.257  1.00  0.00     0.007 C 
BRANCH  13  20
HETATM   20  C1  UNL     1      22.977 -38.416  -8.775  1.00  0.00     0.179 C 
HETATM   21  O1  UNL     1      23.420 -38.108  -7.668  1.00  0.00    -0.648 OA
HETATM   22  O2  UNL     1      23.613 -39.366  -9.549  1.00  0.00    -0.648 OA
ENDBRANCH  13  20
ENDBRANCH  10  12
ENDBRANCH   1  10
BRANCH   4  23
HETATM   23  C12 UNL     1      20.361 -32.226  -8.664  1.00  0.00     0.106 A 
HETATM   24  N3  UNL     1      21.203 -31.188  -8.362  1.00  0.00    -0.295 N 
HETATM   25  N4  UNL     1      21.172 -30.328  -9.364  1.00  0.00    -0.284 N 
ATOM     26  H3  UNL     1      21.757 -31.095  -7.512  1.00  0.00     0.187 HD
HETATM   27  C13 UNL     1      20.328 -30.767 -10.332  1.00  0.00     0.132 A 
ATOM     28  H4  UNL     1      21.706 -29.460  -9.404  1.00  0.00     0.188 HD
HETATM   29  N5  UNL     1      19.938 -30.304 -11.522  1.00  0.00    -0.348 N 
HETATM   30  C17 UNL     1      19.818 -31.968  -9.882  1.00  0.00     0.044 A 
HETATM   31  C14 UNL     1      19.074 -30.933 -12.323  1.00  0.00     0.132 A 
ATOM     32  H5  UNL     1      20.324 -29.414 -11.839  1.00  0.00     0.167 HD
HETATM   33  C15 UNL     1      18.539 -32.149 -11.901  1.00  0.00     0.132 A 
HETATM   34  F1  UNL     1      17.669 -32.773 -12.721  1.00  0.00    -0.205 F 
HETATM   35  C16 UNL     1      18.925 -32.650 -10.677  1.00  0.00     0.061 A 
ENDBRANCH   4  23
TORSDOF 4
ENDMDL
