MODEL 6
REMARK VINA RESULT: -8.875011788      3.375      6.328
REMARK  4 active torsions:
REMARK  status: ('A' for Active; 'I' for Inactive)
REMARK    1  A    between atoms: C1_2  and  C2_4 
REMARK    2  A    between atoms: C9_11  and  N1_12 
REMARK    3  A    between atoms: N1_12  and  C10_14 
REMARK    4  A    between atoms: C11_17  and  C12_18 
ROOT
HETATM    1  C10 UNL     1      18.601 -35.029 -10.411  1.00  0.00     0.143 A 
HETATM    2  N2  UNL     1      18.202 -36.314 -10.617  1.00  0.00    -0.324 N 
ATOM      3  H2  UNL     1      18.570 -37.034  -9.995  1.00  0.00     0.169 HD
HETATM    4  C11 UNL     1      17.356 -36.692 -11.583  1.00  0.00     0.136 A 
HETATM    5  N6  UNL     1      16.895 -35.678 -12.385  1.00  0.00    -0.347 N 
ATOM      6  H6  UNL     1      16.247 -35.922 -13.134  1.00  0.00     0.167 HD
HETATM    7  C18 UNL     1      17.235 -34.404 -12.251  1.00  0.00     0.136 A 
HETATM    8  C19 UNL     1      18.102 -34.020 -11.260  1.00  0.00     0.175 A 
HETATM    9  F2  UNL     1      18.457 -32.717 -11.114  1.00  0.00    -0.201 F 
ENDROOT
BRANCH   1  10
HETATM   10  N1  UNL     1      19.487 -34.596  -9.429  1.00  0.00    -0.368 N 
ATOM     11  H1  UNL     1      20.381 -34.234  -9.761  1.00  0.00     0.161 HD
BRANCH  10  12
HETATM   12  C9  UNL     1      19.301 -34.598  -8.036  1.00  0.00     0.102 C 
HETATM   13  C2  UNL     1      19.555 -35.876  -7.299  1.00  0.00     0.114 C 
HETATM   14  C3  UNL     1      19.081 -35.593  -5.866  1.00  0.00     0.002 C 
HETATM   15  C4  UNL     1      19.309 -34.142  -5.487  1.00  0.00     0.006 C 
HETATM   16  C8  UNL     1      17.582 -35.812  -5.872  1.00  0.00     0.006 C 
HETATM   17  C5  UNL     1      18.392 -33.206  -6.266  1.00  0.00     0.007 C 
HETATM   18  C6  UNL     1      18.012 -34.004  -7.528  1.00  0.00     0.009 C 
HETATM   19  C7  UNL     1      17.018 -35.033  -7.041  1.00  0.00     0.007 C 
BRANCH  13  20
HETATM   20  C1  UNL     1      21.022 -36.118  -7.319  1.00  0.00     0.179 C 
HETATM   21  O1  UNL     1      21.813 -35.332  -7.841  1.00  0.00    -0.648 OA
HETATM   22  O2  UNL     1      21.473 -37.276  -6.719  1.00  0.00    -0.648 OA
ENDBRANCH  13  20
ENDBRANCH  10  12
ENDBRANCH   1  10
BRANCH   4  23
HETATM   23  C12 UNL     1      16.909 -38.039 -11.871  1.00  0.00     0.106 A 
HETATM   24  N3  UNL     1      15.929 -38.653 -11.135  1.00  0.00    -0.295 N 
HETATM   25  N4  UNL     1      15.731 -39.858 -11.636  1.00  0.00    -0.284 N 
ATOM     26  H3  UNL     1      15.438 -38.249 -10.339  1.00  0.00     0.187 HD
HETATM   27  C13 UNL     1      16.558 -40.067 -12.693  1.00  0.00     0.132 A 
ATOM     28  H4  UNL     1      15.055 -40.534 -11.281  1.00  0.00     0.188 HD
HETATM   29  N5  UNL     1      16.765 -41.079 -13.540  1.00  0.00    -0.348 N 
HETATM   30  C17 UNL     1      17.299 -38.913 -12.835  1.00  0.00     0.044 A 
HETATM   31  C14 UNL     1      17.657 -41.051 -14.534  1.00  0.00     0.132 A 
ATOM     32  H5  UNL     1      16.208 -41.925 -13.420  1.00  0.00     0.167 HD
HETATM   33  C15 UNL     1      18.424 -39.900 -14.709  1.00  0.00     0.132 A 
HETATM   34  F1  UNL     1      19.319 -39.886 -15.718  1.00  0.00    -0.205 F 
HETATM   35  C16 UNL     1      18.230 -38.841 -13.849  1.00  0.00     0.061 A 
ENDBRANCH   4  23
TORSDOF 4
ENDMDL
