MODEL 2
REMARK VINA RESULT: -9.306858080      1.486      2.007
REMARK  4 active torsions:
REMARK  status: ('A' for Active; 'I' for Inactive)
REMARK    1  A    between atoms: C1_2  and  C2_4 
REMARK    2  A    between atoms: C9_11  and  N1_12 
REMARK    3  A    between atoms: N1_12  and  C10_14 
REMARK    4  A    between atoms: C11_17  and  C12_18 
ROOT
HETATM    1  C10 UNL     1      17.297 -35.692 -10.310  1.00  0.00     0.143 A 
HETATM    2  N2  UNL     1      17.914 -34.483 -10.411  1.00  0.00    -0.324 N 
ATOM      3  H2  UNL     1      18.383 -34.115  -9.584  1.00  0.00     0.169 HD
HETATM    4  C11 UNL     1      17.943 -33.747 -11.529  1.00  0.00     0.136 A 
HETATM    5  N6  UNL     1      17.295 -34.295 -12.608  1.00  0.00    -0.347 N 
ATOM      6  H6  UNL     1      17.293 -33.767 -13.480  1.00  0.00     0.167 HD
HETATM    7  C18 UNL     1      16.671 -35.465 -12.590  1.00  0.00     0.136 A 
HETATM    8  C19 UNL     1      16.643 -36.217 -11.443  1.00  0.00     0.175 A 
HETATM    9  F2  UNL     1      16.007 -37.416 -11.415  1.00  0.00    -0.201 F 
ENDROOT
BRANCH   1  10
HETATM   10  N1  UNL     1      17.231 -36.482  -9.166  1.00  0.00    -0.368 N 
ATOM     11  H1  UNL     1      16.821 -37.409  -9.284  1.00  0.00     0.161 HD
BRANCH  10  12
HETATM   12  C9  UNL     1      17.660 -36.159  -7.867  1.00  0.00     0.102 C 
HETATM   13  C2  UNL     1      17.896 -37.285  -6.909  1.00  0.00     0.114 C 
HETATM   14  C3  UNL     1      18.158 -36.593  -5.563  1.00  0.00     0.002 C 
HETATM   15  C4  UNL     1      18.859 -35.261  -5.754  1.00  0.00     0.006 C 
HETATM   16  C8  UNL     1      16.793 -36.288  -4.979  1.00  0.00     0.006 C 
HETATM   17  C5  UNL     1      17.946 -34.234  -6.414  1.00  0.00     0.007 C 
HETATM   18  C6  UNL     1      16.889 -35.078  -7.153  1.00  0.00     0.009 C 
HETATM   19  C7  UNL     1      15.986 -35.598  -6.058  1.00  0.00     0.007 C 
BRANCH  13  20
HETATM   20  C1  UNL     1      19.113 -38.009  -7.362  1.00  0.00     0.179 C 
HETATM   21  O1  UNL     1      19.405 -39.132  -6.951  1.00  0.00    -0.648 OA
HETATM   22  O2  UNL     1      19.917 -37.364  -8.280  1.00  0.00    -0.648 OA
ENDBRANCH  13  20
ENDBRANCH  10  12
ENDBRANCH   1  10
BRANCH   4  23
HETATM   23  C12 UNL     1      18.559 -32.447 -11.699  1.00  0.00     0.106 A 
HETATM   24  N3  UNL     1      18.284 -31.647 -12.778  1.00  0.00    -0.295 N 
HETATM   25  N4  UNL     1      18.980 -30.532 -12.652  1.00  0.00    -0.284 N 
ATOM     26  H3  UNL     1      17.653 -31.875 -13.546  1.00  0.00     0.187 HD
HETATM   27  C13 UNL     1      19.715 -30.565 -11.512  1.00  0.00     0.132 A 
ATOM     28  H4  UNL     1      18.966 -29.758 -13.317  1.00  0.00     0.188 HD
HETATM   29  N5  UNL     1      20.565 -29.725 -10.915  1.00  0.00    -0.348 N 
HETATM   30  C17 UNL     1      19.443 -31.778 -10.914  1.00  0.00     0.044 A 
HETATM   31  C14 UNL     1      21.182 -29.982  -9.759  1.00  0.00     0.132 A 
ATOM     32  H5  UNL     1      20.755 -28.832 -11.371  1.00  0.00     0.167 HD
HETATM   33  C15 UNL     1      20.932 -31.199  -9.125  1.00  0.00     0.132 A 
HETATM   34  F1  UNL     1      21.561 -31.443  -7.958  1.00  0.00    -0.205 F 
HETATM   35  C16 UNL     1      20.058 -32.083  -9.720  1.00  0.00     0.061 A 
ENDBRANCH   4  23
TORSDOF 4
ENDMDL
