MODEL 5
REMARK VINA RESULT: -8.938738733      3.285      6.482
REMARK  4 active torsions:
REMARK  status: ('A' for Active; 'I' for Inactive)
REMARK    1  A    between atoms: C1_2  and  C2_4 
REMARK    2  A    between atoms: C9_11  and  N1_12 
REMARK    3  A    between atoms: N1_12  and  C10_14 
REMARK    4  A    between atoms: C11_17  and  C12_18 
ROOT
HETATM    1  C10 UNL     1      17.419 -35.166 -10.309  1.00  0.00     0.143 A 
HETATM    2  N2  UNL     1      16.823 -36.279  -9.798  1.00  0.00    -0.324 N 
ATOM      3  H2  UNL     1      16.894 -36.440  -8.794  1.00  0.00     0.169 HD
HETATM    4  C11 UNL     1      16.150 -37.173 -10.532  1.00  0.00     0.136 A 
HETATM    5  N6  UNL     1      16.090 -36.900 -11.876  1.00  0.00    -0.347 N 
ATOM      6  H6  UNL     1      15.586 -37.556 -12.472  1.00  0.00     0.167 HD
HETATM    7  C18 UNL     1      16.644 -35.841 -12.450  1.00  0.00     0.136 A 
HETATM    8  C19 UNL     1      17.333 -34.926 -11.695  1.00  0.00     0.175 A 
HETATM    9  F2  UNL     1      17.903 -33.838 -12.273  1.00  0.00    -0.201 F 
ENDROOT
BRANCH   1  10
HETATM   10  N1  UNL     1      18.139 -34.220  -9.585  1.00  0.00    -0.368 N 
ATOM     11  H1  UNL     1      18.398 -33.372 -10.089  1.00  0.00     0.161 HD
BRANCH  10  12
HETATM   12  C9  UNL     1      18.553 -34.291  -8.243  1.00  0.00     0.102 C 
HETATM   13  C2  UNL     1      19.215 -35.553  -7.783  1.00  0.00     0.114 C 
HETATM   14  C3  UNL     1      19.359 -35.378  -6.265  1.00  0.00     0.002 C 
HETATM   15  C4  UNL     1      19.582 -33.923  -5.896  1.00  0.00     0.006 C 
HETATM   16  C8  UNL     1      18.023 -35.778  -5.671  1.00  0.00     0.006 C 
HETATM   17  C5  UNL     1      18.337 -33.081  -6.150  1.00  0.00     0.007 C 
HETATM   18  C6  UNL     1      17.544 -33.876  -7.204  1.00  0.00     0.009 C 
HETATM   19  C7  UNL     1      16.949 -35.034  -6.437  1.00  0.00     0.007 C 
BRANCH  13  20
HETATM   20  C1  UNL     1      20.555 -35.613  -8.424  1.00  0.00     0.179 C 
HETATM   21  O1  UNL     1      20.844 -34.939  -9.413  1.00  0.00    -0.648 OA
HETATM   22  O2  UNL     1      21.481 -36.467  -7.860  1.00  0.00    -0.648 OA
ENDBRANCH  13  20
ENDBRANCH  10  12
ENDBRANCH   1  10
BRANCH   4  23
HETATM   23  C12 UNL     1      15.514 -38.385 -10.059  1.00  0.00     0.106 A 
HETATM   24  N3  UNL     1      15.091 -39.368 -10.916  1.00  0.00    -0.295 N 
HETATM   25  N4  UNL     1      14.566 -40.343 -10.199  1.00  0.00    -0.284 N 
ATOM     26  H3  UNL     1      15.169 -39.348 -11.933  1.00  0.00     0.187 HD
HETATM   27  C13 UNL     1      14.627 -40.037  -8.877  1.00  0.00     0.132 A 
ATOM     28  H4  UNL     1      14.172 -41.203 -10.582  1.00  0.00     0.188 HD
HETATM   29  N5  UNL     1      14.255 -40.652  -7.751  1.00  0.00    -0.348 N 
HETATM   30  C17 UNL     1      15.227 -38.798  -8.797  1.00  0.00     0.044 A 
HETATM   31  C14 UNL     1      14.428 -40.141  -6.529  1.00  0.00     0.132 A 
ATOM     32  H5  UNL     1      13.812 -41.568  -7.829  1.00  0.00     0.167 HD
HETATM   33  C15 UNL     1      15.032 -38.890  -6.409  1.00  0.00     0.132 A 
HETATM   34  F1  UNL     1      15.201 -38.388  -5.168  1.00  0.00    -0.205 F 
HETATM   35  C16 UNL     1      15.425 -38.235  -7.555  1.00  0.00     0.061 A 
ENDBRANCH   4  23
TORSDOF 4
ENDMDL
