MODEL 3
REMARK VINA RESULT: -10.224137841      1.746      2.494
REMARK  4 active torsions:
REMARK  status: ('A' for Active; 'I' for Inactive)
REMARK    1  A    between atoms: C1_2  and  C2_4 
REMARK    2  A    between atoms: C9_11  and  N1_12 
REMARK    3  A    between atoms: N1_12  and  C10_14 
REMARK    4  A    between atoms: C11_17  and  C12_18 
ROOT
HETATM    1  C10 UNL     1      23.042 -22.517  -7.494  1.00  0.00     0.143 A 
HETATM    2  N2  UNL     1      22.872 -21.320  -8.117  1.00  0.00    -0.324 N 
ATOM      3  H2  UNL     1      21.919 -21.021  -8.326  1.00  0.00     0.169 HD
HETATM    4  C11 UNL     1      23.876 -20.509  -8.473  1.00  0.00     0.136 A 
HETATM    5  N6  UNL     1      25.133 -20.965  -8.164  1.00  0.00    -0.347 N 
ATOM      6  H6  UNL     1      25.927 -20.378  -8.417  1.00  0.00     0.167 HD
HETATM    7  C18 UNL     1      25.383 -22.119  -7.560  1.00  0.00     0.136 A 
HETATM    8  C19 UNL     1      24.352 -22.947  -7.197  1.00  0.00     0.175 A 
HETATM    9  F2  UNL     1      24.597 -24.130  -6.577  1.00  0.00    -0.201 F 
ENDROOT
BRANCH   1  10
HETATM   10  N1  UNL     1      22.029 -23.395  -7.120  1.00  0.00    -0.368 N 
ATOM     11  H1  UNL     1      21.958 -23.600  -6.124  1.00  0.00     0.161 HD
BRANCH  10  12
HETATM   12  C9  UNL     1      21.090 -24.034  -7.949  1.00  0.00     0.102 C 
HETATM   13  C2  UNL     1      20.287 -25.153  -7.362  1.00  0.00     0.114 C 
HETATM   14  C3  UNL     1      19.522 -25.742  -8.556  1.00  0.00     0.002 C 
HETATM   15  C4  UNL     1      19.177 -24.671  -9.573  1.00  0.00     0.006 C 
HETATM   16  C8  UNL     1      20.484 -26.696  -9.236  1.00  0.00     0.006 C 
HETATM   17  C5  UNL     1      20.420 -24.144 -10.281  1.00  0.00     0.007 C 
HETATM   18  C6  UNL     1      21.576 -24.460  -9.311  1.00  0.00     0.009 C 
HETATM   19  C7  UNL     1      21.785 -25.951  -9.444  1.00  0.00     0.007 C 
BRANCH  13  20
HETATM   20  C1  UNL     1      19.338 -24.554  -6.386  1.00  0.00     0.179 C 
HETATM   21  O1  UNL     1      19.540 -23.464  -5.852  1.00  0.00    -0.648 OA
HETATM   22  O2  UNL     1      18.200 -25.280  -6.096  1.00  0.00    -0.648 OA
ENDBRANCH  13  20
ENDBRANCH  10  12
ENDBRANCH   1  10
BRANCH   4  23
HETATM   23  C12 UNL     1      23.767 -19.236  -9.157  1.00  0.00     0.106 A 
HETATM   24  N3  UNL     1      24.129 -19.083 -10.470  1.00  0.00    -0.295 N 
HETATM   25  N4  UNL     1      23.909 -17.828 -10.814  1.00  0.00    -0.284 N 
ATOM     26  H3  UNL     1      24.505 -19.812 -11.076  1.00  0.00     0.187 HD
HETATM   27  C13 UNL     1      23.406 -17.135  -9.761  1.00  0.00     0.132 A 
ATOM     28  H4  UNL     1      24.090 -17.436 -11.738  1.00  0.00     0.188 HD
HETATM   29  N5  UNL     1      23.014 -15.873  -9.565  1.00  0.00    -0.348 N 
HETATM   30  C17 UNL     1      23.319 -18.032  -8.717  1.00  0.00     0.044 A 
HETATM   31  C14 UNL     1      22.534 -15.411  -8.408  1.00  0.00     0.132 A 
ATOM     32  H5  UNL     1      23.085 -15.223 -10.348  1.00  0.00     0.167 HD
HETATM   33  C15 UNL     1      22.431 -16.289  -7.330  1.00  0.00     0.132 A 
HETATM   34  F1  UNL     1      21.943 -15.808  -6.168  1.00  0.00    -0.205 F 
HETATM   35  C16 UNL     1      22.828 -17.597  -7.506  1.00  0.00     0.061 A 
ENDBRANCH   4  23
TORSDOF 4
ENDMDL
