MODEL 17
REMARK VINA RESULT: -9.806322609      3.222      4.366
REMARK  4 active torsions:
REMARK  status: ('A' for Active; 'I' for Inactive)
REMARK    1  A    between atoms: C1_2  and  C2_4 
REMARK    2  A    between atoms: C9_11  and  N1_12 
REMARK    3  A    between atoms: N1_12  and  C10_14 
REMARK    4  A    between atoms: C11_17  and  C12_18 
ROOT
HETATM    1  C10 UNL     1      21.315 -23.626  -9.225  1.00  0.00     0.143 A 
HETATM    2  N2  UNL     1      22.464 -23.216  -8.621  1.00  0.00    -0.324 N 
ATOM      3  H2  UNL     1      22.801 -23.752  -7.821  1.00  0.00     0.169 HD
HETATM    4  C11 UNL     1      23.180 -22.155  -9.011  1.00  0.00     0.136 A 
HETATM    5  N6  UNL     1      22.676 -21.476 -10.093  1.00  0.00    -0.347 N 
ATOM      6  H6  UNL     1      23.191 -20.660 -10.424  1.00  0.00     0.167 HD
HETATM    7  C18 UNL     1      21.565 -21.809 -10.734  1.00  0.00     0.136 A 
HETATM    8  C19 UNL     1      20.833 -22.898 -10.331  1.00  0.00     0.175 A 
HETATM    9  F2  UNL     1      19.694 -23.248 -10.982  1.00  0.00    -0.201 F 
ENDROOT
BRANCH   1  10
HETATM   10  N1  UNL     1      20.534 -24.713  -8.843  1.00  0.00    -0.368 N 
ATOM     11  H1  UNL     1      19.639 -24.812  -9.321  1.00  0.00     0.161 HD
BRANCH  10  12
HETATM   12  C9  UNL     1      20.829 -25.691  -7.877  1.00  0.00     0.102 C 
HETATM   13  C2  UNL     1      20.816 -27.125  -8.309  1.00  0.00     0.114 C 
HETATM   14  C3  UNL     1      20.980 -27.919  -7.005  1.00  0.00     0.002 C 
HETATM   15  C4  UNL     1      21.843 -27.168  -6.007  1.00  0.00     0.006 C 
HETATM   16  C8  UNL     1      19.595 -28.015  -6.398  1.00  0.00     0.006 C 
HETATM   17  C5  UNL     1      21.139 -25.923  -5.480  1.00  0.00     0.007 C 
HETATM   18  C6  UNL     1      20.098 -25.583  -6.564  1.00  0.00     0.009 C 
HETATM   19  C7  UNL     1      19.012 -26.618  -6.384  1.00  0.00     0.007 C 
BRANCH  13  20
HETATM   20  C1  UNL     1      21.993 -27.334  -9.193  1.00  0.00     0.179 C 
HETATM   21  O1  UNL     1      22.102 -26.784 -10.289  1.00  0.00    -0.648 OA
HETATM   22  O2  UNL     1      22.978 -28.184  -8.731  1.00  0.00    -0.648 OA
ENDBRANCH  13  20
ENDBRANCH  10  12
ENDBRANCH   1  10
BRANCH   4  23
HETATM   23  C12 UNL     1      24.394 -21.652  -8.403  1.00  0.00     0.106 A 
HETATM   24  N3  UNL     1      24.924 -20.433  -8.736  1.00  0.00    -0.295 N 
HETATM   25  N4  UNL     1      26.015 -20.247  -8.016  1.00  0.00    -0.284 N 
ATOM     26  H3  UNL     1      24.543 -19.782  -9.422  1.00  0.00     0.187 HD
HETATM   27  C13 UNL     1      26.229 -21.315  -7.206  1.00  0.00     0.132 A 
ATOM     28  H4  UNL     1      26.610 -19.420  -8.062  1.00  0.00     0.188 HD
HETATM   29  N5  UNL     1      27.154 -21.637  -6.298  1.00  0.00    -0.348 N 
HETATM   30  C17 UNL     1      25.200 -22.199  -7.456  1.00  0.00     0.044 A 
HETATM   31  C14 UNL     1      27.153 -22.777  -5.602  1.00  0.00     0.132 A 
ATOM     32  H5  UNL     1      27.908 -20.971  -6.126  1.00  0.00     0.167 HD
HETATM   33  C15 UNL     1      26.128 -23.695  -5.828  1.00  0.00     0.132 A 
HETATM   34  F1  UNL     1      26.140 -24.841  -5.117  1.00  0.00    -0.205 F 
HETATM   35  C16 UNL     1      25.161 -23.387  -6.759  1.00  0.00     0.061 A 
ENDBRANCH   4  23
TORSDOF 4
ENDMDL
