MODEL 4
REMARK VINA RESULT: -10.210711669      1.414      1.754
REMARK  4 active torsions:
REMARK  status: ('A' for Active; 'I' for Inactive)
REMARK    1  A    between atoms: C1_2  and  C2_4 
REMARK    2  A    between atoms: C9_11  and  N1_12 
REMARK    3  A    between atoms: N1_12  and  C10_14 
REMARK    4  A    between atoms: C11_17  and  C12_18 
ROOT
HETATM    1  C10 UNL     1      24.034 -22.629  -7.875  1.00  0.00     0.143 A 
HETATM    2  N2  UNL     1      23.665 -21.493  -8.529  1.00  0.00    -0.324 N 
ATOM      3  H2  UNL     1      22.811 -21.518  -9.085  1.00  0.00     0.169 HD
HETATM    4  C11 UNL     1      24.354 -20.347  -8.488  1.00  0.00     0.136 A 
HETATM    5  N6  UNL     1      25.494 -20.376  -7.723  1.00  0.00    -0.347 N 
ATOM      6  H6  UNL     1      26.049 -19.523  -7.664  1.00  0.00     0.167 HD
HETATM    7  C18 UNL     1      25.921 -21.440  -7.057  1.00  0.00     0.136 A 
HETATM    8  C19 UNL     1      25.212 -22.614  -7.101  1.00  0.00     0.175 A 
HETATM    9  F2  UNL     1      25.641 -23.709  -6.422  1.00  0.00    -0.201 F 
ENDROOT
BRANCH   1  10
HETATM   10  N1  UNL     1      23.355 -23.844  -7.902  1.00  0.00    -0.368 N 
ATOM     11  H1  UNL     1      23.615 -24.486  -8.650  1.00  0.00     0.161 HD
BRANCH  10  12
HETATM   12  C9  UNL     1      22.355 -24.294  -7.022  1.00  0.00     0.102 C 
HETATM   13  C2  UNL     1      22.187 -25.772  -6.854  1.00  0.00     0.114 C 
HETATM   14  C3  UNL     1      20.918 -25.918  -6.003  1.00  0.00     0.002 C 
HETATM   15  C4  UNL     1      20.770 -24.764  -5.030  1.00  0.00     0.006 C 
HETATM   16  C8  UNL     1      19.755 -25.825  -6.970  1.00  0.00     0.006 C 
HETATM   17  C5  UNL     1      20.464 -23.456  -5.750  1.00  0.00     0.007 C 
HETATM   18  C6  UNL     1      20.990 -23.674  -7.182  1.00  0.00     0.009 C 
HETATM   19  C7  UNL     1      19.976 -24.594  -7.822  1.00  0.00     0.007 C 
BRANCH  13  20
HETATM   20  C1  UNL     1      23.370 -26.272  -6.105  1.00  0.00     0.179 C 
HETATM   21  O1  UNL     1      23.902 -25.626  -5.203  1.00  0.00    -0.648 OA
HETATM   22  O2  UNL     1      23.860 -27.511  -6.467  1.00  0.00    -0.648 OA
ENDBRANCH  13  20
ENDBRANCH  10  12
ENDBRANCH   1  10
BRANCH   4  23
HETATM   23  C12 UNL     1      24.033 -19.113  -9.176  1.00  0.00     0.106 A 
HETATM   24  N3  UNL     1      24.293 -18.934 -10.510  1.00  0.00    -0.295 N 
HETATM   25  N4  UNL     1      23.884 -17.727 -10.852  1.00  0.00    -0.284 N 
ATOM     26  H3  UNL     1      24.729 -19.616 -11.131  1.00  0.00     0.187 HD
HETATM   27  C13 UNL     1      23.353 -17.091  -9.776  1.00  0.00     0.132 A 
ATOM     28  H4  UNL     1      23.955 -17.330 -11.789  1.00  0.00     0.188 HD
HETATM   29  N5  UNL     1      22.804 -15.891  -9.569  1.00  0.00    -0.348 N 
HETATM   30  C17 UNL     1      23.451 -17.973  -8.721  1.00  0.00     0.044 A 
HETATM   31  C14 UNL     1      22.334 -15.478  -8.389  1.00  0.00     0.132 A 
ATOM     32  H5  UNL     1      22.740 -15.250 -10.360  1.00  0.00     0.167 HD
HETATM   33  C15 UNL     1      22.416 -16.343  -7.299  1.00  0.00     0.132 A 
HETATM   34  F1  UNL     1      21.936 -15.913  -6.114  1.00  0.00    -0.205 F 
HETATM   35  C16 UNL     1      22.977 -17.587  -7.486  1.00  0.00     0.061 A 
ENDBRANCH   4  23
TORSDOF 4
ENDMDL
