MODEL 1
REMARK VINA RESULT: -10.424851031      0.000      0.000
REMARK  4 active torsions:
REMARK  status: ('A' for Active; 'I' for Inactive)
REMARK    1  A    between atoms: C1_2  and  C2_4 
REMARK    2  A    between atoms: C9_11  and  N1_12 
REMARK    3  A    between atoms: N1_12  and  C10_14 
REMARK    4  A    between atoms: C11_17  and  C12_18 
ROOT
HETATM    1  C10 UNL     1      22.474 -22.624  -8.298  1.00  0.00     0.143 A 
HETATM    2  N2  UNL     1      22.478 -21.372  -8.832  1.00  0.00    -0.324 N 
ATOM      3  H2  UNL     1      21.639 -21.057  -9.319  1.00  0.00     0.169 HD
HETATM    4  C11 UNL     1      23.515 -20.528  -8.759  1.00  0.00     0.136 A 
HETATM    5  N6  UNL     1      24.613 -21.008  -8.091  1.00  0.00    -0.347 N 
ATOM      6  H6  UNL     1      25.426 -20.397  -8.010  1.00  0.00     0.167 HD
HETATM    7  C18 UNL     1      24.689 -22.214  -7.544  1.00  0.00     0.136 A 
HETATM    8  C19 UNL     1      23.625 -23.076  -7.621  1.00  0.00     0.175 A 
HETATM    9  F2  UNL     1      23.692 -24.313  -7.065  1.00  0.00    -0.201 F 
ENDROOT
BRANCH   1  10
HETATM   10  N1  UNL     1      21.425 -23.537  -8.364  1.00  0.00    -0.368 N 
ATOM     11  H1  UNL     1      20.749 -23.388  -9.113  1.00  0.00     0.161 HD
BRANCH  10  12
HETATM   12  C9  UNL     1      21.186 -24.639  -7.525  1.00  0.00     0.102 C 
HETATM   13  C2  UNL     1      20.671 -25.896  -8.154  1.00  0.00     0.114 C 
HETATM   14  C3  UNL     1      20.340 -26.810  -6.965  1.00  0.00     0.002 C 
HETATM   15  C4  UNL     1      21.287 -26.571  -5.805  1.00  0.00     0.006 C 
HETATM   16  C8  UNL     1      18.960 -26.397  -6.494  1.00  0.00     0.006 C 
HETATM   17  C5  UNL     1      21.063 -25.205  -5.167  1.00  0.00     0.007 C 
HETATM   18  C6  UNL     1      20.389 -24.371  -6.274  1.00  0.00     0.009 C 
HETATM   19  C7  UNL     1      18.972 -24.892  -6.331  1.00  0.00     0.007 C 
BRANCH  13  20
HETATM   20  C1  UNL     1      21.778 -26.477  -8.959  1.00  0.00     0.179 C 
HETATM   21  O1  UNL     1      22.634 -27.213  -8.469  1.00  0.00    -0.648 OA
HETATM   22  O2  UNL     1      21.810 -26.155 -10.301  1.00  0.00    -0.648 OA
ENDBRANCH  13  20
ENDBRANCH  10  12
ENDBRANCH   1  10
BRANCH   4  23
HETATM   23  C12 UNL     1      23.594 -19.196  -9.322  1.00  0.00     0.106 A 
HETATM   24  N3  UNL     1      24.058 -18.970 -10.592  1.00  0.00    -0.295 N 
HETATM   25  N4  UNL     1      24.003 -17.672 -10.826  1.00  0.00    -0.284 N 
ATOM     26  H3  UNL     1      24.389 -19.681 -11.243  1.00  0.00     0.187 HD
HETATM   27  C13 UNL     1      23.511 -17.021  -9.740  1.00  0.00     0.132 A 
ATOM     28  H4  UNL     1      24.288 -17.223 -11.696  1.00  0.00     0.188 HD
HETATM   29  N5  UNL     1      23.251 -15.744  -9.447  1.00  0.00    -0.348 N 
HETATM   30  C17 UNL     1      23.255 -17.991  -8.794  1.00  0.00     0.044 A 
HETATM   31  C14 UNL     1      22.750 -15.333  -8.279  1.00  0.00     0.132 A 
ATOM     32  H5  UNL     1      23.446 -15.040 -10.158  1.00  0.00     0.167 HD
HETATM   33  C15 UNL     1      22.477 -16.286  -7.298  1.00  0.00     0.132 A 
HETATM   34  F1  UNL     1      21.970 -15.856  -6.124  1.00  0.00    -0.205 F 
HETATM   35  C16 UNL     1      22.737 -17.610  -7.576  1.00  0.00     0.061 A 
ENDBRANCH   4  23
TORSDOF 4
ENDMDL
