MODEL 12
REMARK VINA RESULT: -7.195071747      4.178      7.854
REMARK  7 active torsions:
REMARK  status: ('A' for Active; 'I' for Inactive)
REMARK       I    between atoms: C2_2  and  N1_4 
REMARK    1  A    between atoms: N2_7  and  C5_8 
REMARK    2  A    between atoms: C5_8  and  O2_9 
REMARK    3  A    between atoms: C5_8  and  C6_11 
REMARK    4  A    between atoms: C9_14  and  S1_15 
REMARK    5  A    between atoms: S1_15  and  N3_16 
REMARK    6  A    between atoms: C13_24  and  C14_25 
REMARK    7  A    between atoms: C14_25  and  C15_26 
ROOT
HETATM    1  C1  UNL     1       8.729  32.932  16.701  1.00  0.00     0.117 C 
HETATM    2  C2  UNL     1      10.017  33.609  17.020  1.00  0.00     0.216 C 
HETATM    3  O1  UNL     1      10.209  33.968  18.227  1.00  0.00    -0.274 OA
HETATM    4  N1  UNL     1      10.972  33.832  16.007  1.00  0.00    -0.344 N 
HETATM    5  C3  UNL     1      10.677  33.410  14.664  1.00  0.00     0.146 C 
HETATM    6  C4  UNL     1      10.997  34.555  13.675  1.00  0.00     0.145 C 
HETATM    7  N2  UNL     1      12.138  35.276  14.087  1.00  0.00    -0.358 N 
HETATM    8  C12 UNL     1      13.038  34.654  15.111  1.00  0.00     0.150 C 
HETATM    9  C13 UNL     1      12.215  34.489  16.358  1.00  0.00     0.109 C 
ENDROOT
BRANCH   7  10
HETATM   10  C5  UNL     1      12.555  36.510  13.640  1.00  0.00     0.148 C 
BRANCH  10  11
HETATM   11  O2  UNL     1      12.255  37.559  14.397  1.00  0.00    -0.346 OA
ATOM     12  H2  UNL     1      12.674  38.383  14.179  1.00  0.00     0.219 HD
ENDBRANCH  10  11
BRANCH  10  13
HETATM   13  C6  UNL     1      13.290  36.817  12.431  1.00  0.00     0.015 A 
HETATM   14  C7  UNL     1      12.874  37.932  11.657  1.00  0.00     0.017 A 
HETATM   15  C8  UNL     1      13.532  38.322  10.524  1.00  0.00     0.026 A 
HETATM   16  C9  UNL     1      14.644  37.670  10.042  1.00  0.00     0.079 A 
HETATM   17  C10 UNL     1      15.061  36.592  10.774  1.00  0.00     0.026 A 
HETATM   18  C11 UNL     1      14.389  36.183  11.945  1.00  0.00     0.017 A 
BRANCH  16  19
HETATM   19  S1  UNL     1      15.448  38.204   8.592  1.00  0.00     0.256 S 
HETATM   20  O3  UNL     1      15.650  39.699   8.584  1.00  0.00    -0.201 OA
HETATM   21  O4  UNL     1      14.539  37.891   7.433  1.00  0.00    -0.201 OA
BRANCH  19  22
HETATM   22  N3  UNL     1      16.989  37.479   8.415  1.00  0.00    -0.324 N 
ATOM     23  H32 UNL     1      17.127  36.472   8.327  1.00  0.00     0.169 HD
ATOM     24  H31 UNL     1      17.736  38.173   8.410  1.00  0.00     0.169 HD
ENDBRANCH  19  22
ENDBRANCH  16  19
ENDBRANCH  10  13
ENDBRANCH   7  10
BRANCH   9  25
HETATM   25  C14 UNL     1      13.003  33.600  17.298  1.00  0.00     0.065 C 
BRANCH  25  26
HETATM   26  C15 UNL     1      13.385  34.414  18.495  1.00  0.00    -0.056 A 
HETATM   27  C16 UNL     1      13.219  33.910  19.762  1.00  0.00     0.007 A 
HETATM   28  C17 UNL     1      13.574  34.662  20.886  1.00  0.00     0.001 A 
HETATM   29  C18 UNL     1      14.095  35.924  20.710  1.00  0.00     0.000 A 
HETATM   30  C19 UNL     1      14.264  36.435  19.439  1.00  0.00     0.001 A 
HETATM   31  C20 UNL     1      13.907  35.673  18.344  1.00  0.00     0.007 A 
ENDBRANCH  25  26
ENDBRANCH   9  25
TORSDOF 7
ENDMDL
