MODEL 5
REMARK VINA RESULT: -7.412767704      2.081      4.784
REMARK  7 active torsions:
REMARK  status: ('A' for Active; 'I' for Inactive)
REMARK       I    between atoms: C2_2  and  N1_4 
REMARK    1  A    between atoms: N2_7  and  C5_8 
REMARK    2  A    between atoms: C5_8  and  O2_9 
REMARK    3  A    between atoms: C5_8  and  C6_11 
REMARK    4  A    between atoms: C9_14  and  S1_15 
REMARK    5  A    between atoms: S1_15  and  N3_16 
REMARK    6  A    between atoms: C13_24  and  C14_25 
REMARK    7  A    between atoms: C14_25  and  C15_26 
ROOT
HETATM    1  C1  UNL     1       7.536  32.460  13.129  1.00  0.00     0.117 C 
HETATM    2  C2  UNL     1       8.983  32.206  12.881  1.00  0.00     0.216 C 
HETATM    3  O1  UNL     1       9.290  31.179  12.193  1.00  0.00    -0.274 OA
HETATM    4  N1  UNL     1       9.957  33.084  13.399  1.00  0.00    -0.344 N 
HETATM    5  C3  UNL     1       9.533  34.215  14.179  1.00  0.00     0.146 C 
HETATM    6  C4  UNL     1      10.372  34.299  15.476  1.00  0.00     0.145 C 
HETATM    7  N2  UNL     1      11.706  33.906  15.242  1.00  0.00    -0.358 N 
HETATM    8  C12 UNL     1      12.189  33.846  13.825  1.00  0.00     0.150 C 
HETATM    9  C13 UNL     1      11.354  32.806  13.133  1.00  0.00     0.109 C 
ENDROOT
BRANCH   7  10
HETATM   10  C5  UNL     1      12.660  33.577  16.181  1.00  0.00     0.148 C 
BRANCH  10  11
HETATM   11  O2  UNL     1      13.314  32.436  16.002  1.00  0.00    -0.346 OA
ATOM     12  H2  UNL     1      14.128  32.326  16.478  1.00  0.00     0.219 HD
ENDBRANCH  10  11
BRANCH  10  13
HETATM   13  C6  UNL     1      13.046  34.327  17.358  1.00  0.00     0.015 A 
HETATM   14  C7  UNL     1      12.906  33.706  18.625  1.00  0.00     0.017 A 
HETATM   15  C8  UNL     1      13.284  34.321  19.787  1.00  0.00     0.026 A 
HETATM   16  C9  UNL     1      13.825  35.585  19.822  1.00  0.00     0.079 A 
HETATM   17  C10 UNL     1      13.968  36.203  18.609  1.00  0.00     0.026 A 
HETATM   18  C11 UNL     1      13.582  35.575  17.406  1.00  0.00     0.017 A 
BRANCH  16  19
HETATM   19  S1  UNL     1      14.290  36.329  21.328  1.00  0.00     0.256 S 
HETATM   20  O3  UNL     1      14.948  37.669  21.107  1.00  0.00    -0.201 OA
HETATM   21  O4  UNL     1      15.327  35.444  21.965  1.00  0.00    -0.201 OA
BRANCH  19  22
HETATM   22  N3  UNL     1      12.943  36.584  22.354  1.00  0.00    -0.324 N 
ATOM     23  H32 UNL     1      11.988  36.684  22.009  1.00  0.00     0.169 HD
ATOM     24  H31 UNL     1      13.216  36.622  23.336  1.00  0.00     0.169 HD
ENDBRANCH  19  22
ENDBRANCH  16  19
ENDBRANCH  10  13
ENDBRANCH   7  10
BRANCH   9  25
HETATM   25  C14 UNL     1      11.616  32.939  11.647  1.00  0.00     0.065 C 
BRANCH  25  26
HETATM   26  C15 UNL     1      12.806  32.095  11.308  1.00  0.00    -0.056 A 
HETATM   27  C16 UNL     1      13.053  30.932  11.995  1.00  0.00     0.007 A 
HETATM   28  C17 UNL     1      14.161  30.137  11.686  1.00  0.00     0.001 A 
HETATM   29  C18 UNL     1      15.009  30.535  10.678  1.00  0.00     0.000 A 
HETATM   30  C19 UNL     1      14.765  31.703   9.984  1.00  0.00     0.001 A 
HETATM   31  C20 UNL     1      13.665  32.471  10.307  1.00  0.00     0.007 A 
ENDBRANCH  25  26
ENDBRANCH   9  25
TORSDOF 7
ENDMDL
