MODEL 3
REMARK VINA RESULT: -7.469745615      2.092      2.649
REMARK  7 active torsions:
REMARK  status: ('A' for Active; 'I' for Inactive)
REMARK       I    between atoms: C2_2  and  N1_4 
REMARK    1  A    between atoms: N2_7  and  C5_8 
REMARK    2  A    between atoms: C5_8  and  O2_9 
REMARK    3  A    between atoms: C5_8  and  C6_11 
REMARK    4  A    between atoms: C9_14  and  S1_15 
REMARK    5  A    between atoms: S1_15  and  N3_16 
REMARK    6  A    between atoms: C13_24  and  C14_25 
REMARK    7  A    between atoms: C14_25  and  C15_26 
ROOT
HETATM    1  C1  UNL     1      11.652  37.660  11.925  1.00  0.00     0.117 C 
HETATM    2  C2  UNL     1      10.972  36.451  12.469  1.00  0.00     0.216 C 
HETATM    3  O1  UNL     1       9.699  36.459  12.505  1.00  0.00    -0.274 OA
HETATM    4  N1  UNL     1      11.732  35.353  12.921  1.00  0.00    -0.344 N 
HETATM    5  C3  UNL     1      13.168  35.425  12.862  1.00  0.00     0.146 C 
HETATM    6  C4  UNL     1      13.769  34.975  14.214  1.00  0.00     0.145 C 
HETATM    7  N2  UNL     1      13.014  33.927  14.781  1.00  0.00    -0.358 N 
HETATM    8  C12 UNL     1      12.054  33.188  13.899  1.00  0.00     0.150 C 
HETATM    9  C13 UNL     1      11.035  34.193  13.440  1.00  0.00     0.109 C 
ENDROOT
BRANCH   7  10
HETATM   10  C5  UNL     1      13.060  33.468  16.079  1.00  0.00     0.148 C 
BRANCH  10  11
HETATM   11  O2  UNL     1      12.825  32.175  16.270  1.00  0.00    -0.346 OA
ATOM     12  H2  UNL     1      12.964  31.836  17.146  1.00  0.00     0.219 HD
ENDBRANCH  10  11
BRANCH  10  13
HETATM   13  C6  UNL     1      13.334  34.226  17.281  1.00  0.00     0.015 A 
HETATM   14  C7  UNL     1      13.075  33.613  18.535  1.00  0.00     0.017 A 
HETATM   15  C8  UNL     1      13.343  34.236  19.722  1.00  0.00     0.026 A 
HETATM   16  C9  UNL     1      13.879  35.500  19.800  1.00  0.00     0.079 A 
HETATM   17  C10 UNL     1      14.136  36.109  18.602  1.00  0.00     0.026 A 
HETATM   18  C11 UNL     1      13.865  35.473  17.371  1.00  0.00     0.017 A 
BRANCH  16  19
HETATM   19  S1  UNL     1      14.201  36.254  21.337  1.00  0.00     0.256 S 
HETATM   20  O3  UNL     1      14.742  37.652  21.170  1.00  0.00    -0.201 OA
HETATM   21  O4  UNL     1      15.283  35.455  22.012  1.00  0.00    -0.201 OA
BRANCH  19  22
HETATM   22  N3  UNL     1      12.788  36.365  22.299  1.00  0.00    -0.324 N 
ATOM     23  H32 UNL     1      12.430  35.591  22.859  1.00  0.00     0.169 HD
ATOM     24  H31 UNL     1      12.361  37.289  22.240  1.00  0.00     0.169 HD
ENDBRANCH  19  22
ENDBRANCH  16  19
ENDBRANCH  10  13
ENDBRANCH   7  10
BRANCH   9  25
HETATM   25  C14 UNL     1      10.241  33.547  12.323  1.00  0.00     0.065 C 
BRANCH  25  26
HETATM   26  C15 UNL     1       8.896  33.177  12.866  1.00  0.00    -0.056 A 
HETATM   27  C16 UNL     1       8.025  32.426  12.115  1.00  0.00     0.007 A 
HETATM   28  C17 UNL     1       6.766  32.074  12.612  1.00  0.00     0.001 A 
HETATM   29  C18 UNL     1       6.404  32.491  13.873  1.00  0.00     0.000 A 
HETATM   30  C19 UNL     1       7.276  33.246  14.632  1.00  0.00     0.001 A 
HETATM   31  C20 UNL     1       8.513  33.581  14.120  1.00  0.00     0.007 A 
ENDBRANCH  25  26
ENDBRANCH   9  25
TORSDOF 7
ENDMDL
