MODEL 4
REMARK VINA RESULT: -7.418617906      2.172      4.918
REMARK  7 active torsions:
REMARK  status: ('A' for Active; 'I' for Inactive)
REMARK       I    between atoms: C2_2  and  N1_4 
REMARK    1  A    between atoms: N2_7  and  C5_8 
REMARK    2  A    between atoms: C5_8  and  O2_9 
REMARK    3  A    between atoms: C5_8  and  C6_11 
REMARK    4  A    between atoms: C9_14  and  S1_15 
REMARK    5  A    between atoms: S1_15  and  N3_16 
REMARK    6  A    between atoms: C13_24  and  C14_25 
REMARK    7  A    between atoms: C14_25  and  C15_26 
ROOT
HETATM    1  C1  UNL     1       8.507  33.753  11.774  1.00  0.00     0.117 C 
HETATM    2  C2  UNL     1       9.916  33.273  11.847  1.00  0.00     0.216 C 
HETATM    3  O1  UNL     1      10.249  32.310  11.084  1.00  0.00    -0.274 OA
HETATM    4  N1  UNL     1      10.827  33.880  12.736  1.00  0.00    -0.344 N 
HETATM    5  C3  UNL     1      10.372  34.954  13.577  1.00  0.00     0.146 C 
HETATM    6  C4  UNL     1      10.831  34.707  15.034  1.00  0.00     0.145 C 
HETATM    7  N2  UNL     1      12.110  34.111  15.067  1.00  0.00    -0.358 N 
HETATM    8  C12 UNL     1      12.945  34.155  13.824  1.00  0.00     0.150 C 
HETATM    9  C13 UNL     1      12.190  33.389  12.775  1.00  0.00     0.109 C 
ENDROOT
BRANCH   7  10
HETATM   10  C5  UNL     1      12.716  33.489  16.137  1.00  0.00     0.148 C 
BRANCH  10  11
HETATM   11  O2  UNL     1      13.005  32.200  16.000  1.00  0.00    -0.346 OA
ATOM     12  H2  UNL     1      13.622  31.966  15.317  1.00  0.00     0.219 HD
ENDBRANCH  10  11
BRANCH  10  13
HETATM   13  C6  UNL     1      13.084  34.069  17.411  1.00  0.00     0.015 A 
HETATM   14  C7  UNL     1      13.716  35.339  17.414  1.00  0.00     0.017 A 
HETATM   15  C8  UNL     1      14.061  35.982  18.571  1.00  0.00     0.026 A 
HETATM   16  C9  UNL     1      13.826  35.454  19.819  1.00  0.00     0.079 A 
HETATM   17  C10 UNL     1      13.218  34.228  19.838  1.00  0.00     0.026 A 
HETATM   18  C11 UNL     1      12.857  33.558  18.650  1.00  0.00     0.017 A 
BRANCH  16  19
HETATM   19  S1  UNL     1      14.286  36.310  21.265  1.00  0.00     0.256 S 
HETATM   20  O3  UNL     1      14.915  37.644  20.946  1.00  0.00    -0.201 OA
HETATM   21  O4  UNL     1      15.345  35.493  21.954  1.00  0.00    -0.201 OA
BRANCH  19  22
HETATM   22  N3  UNL     1      12.941  36.609  22.282  1.00  0.00    -0.324 N 
ATOM     23  H32 UNL     1      12.070  36.082  22.226  1.00  0.00     0.169 HD
ATOM     24  H31 UNL     1      13.122  37.370  22.937  1.00  0.00     0.169 HD
ENDBRANCH  19  22
ENDBRANCH  16  19
ENDBRANCH  10  13
ENDBRANCH   7  10
BRANCH   9  25
HETATM   25  C14 UNL     1      12.861  33.671  11.446  1.00  0.00     0.065 C 
BRANCH  25  26
HETATM   26  C15 UNL     1      13.654  32.461  11.061  1.00  0.00    -0.056 A 
HETATM   27  C16 UNL     1      14.391  32.450   9.902  1.00  0.00     0.007 A 
HETATM   28  C17 UNL     1      15.136  31.326   9.534  1.00  0.00     0.001 A 
HETATM   29  C18 UNL     1      15.124  30.219  10.351  1.00  0.00     0.000 A 
HETATM   30  C19 UNL     1      14.386  30.223  11.518  1.00  0.00     0.001 A 
HETATM   31  C20 UNL     1      13.658  31.346  11.860  1.00  0.00     0.007 A 
ENDBRANCH  25  26
ENDBRANCH   9  25
TORSDOF 7
ENDMDL
