MODEL 13
REMARK VINA RESULT: -7.348723889      4.005      8.713
REMARK  7 active torsions:
REMARK  status: ('A' for Active; 'I' for Inactive)
REMARK    1  A    between atoms: N1_1  and  S1_4 
REMARK    2  A    between atoms: S1_4  and  C1_7 
REMARK    3  A    between atoms: C4_10  and  C5_11 
REMARK    4  A    between atoms: C5_11  and  O3_12 
REMARK    5  A    between atoms: C5_11  and  N2_14 
REMARK    6  A    between atoms: C8_20  and  C9_21 
REMARK    7  A    between atoms: C9_21  and  C10_22 
ROOT
HETATM    1  N2  UNL     1      11.386  34.881  15.005  1.00  0.00    -0.358 N 
HETATM    2  C6  UNL     1      12.432  34.571  14.068  1.00  0.00     0.152 C 
HETATM    3  C7  UNL     1      13.525  33.896  14.904  1.00  0.00     0.252 C 
HETATM    4  N3  UNL     1      14.110  34.943  15.710  1.00  0.00    -0.068 N 
ATOM      5  H31 UNL     1      14.570  35.640  15.125  1.00  0.00     0.277 HD
ATOM      6  H32 UNL     1      14.920  34.597  16.224  1.00  0.00     0.277 HD
HETATM    7  C8  UNL     1      13.170  35.555  16.591  1.00  0.00     0.208 C 
HETATM    8  C16 UNL     1      11.852  35.901  16.009  1.00  0.00     0.158 C 
ENDROOT
BRANCH   1   9
HETATM    9  C5  UNL     1      10.108  34.386  15.161  1.00  0.00     0.148 C 
BRANCH   9  10
HETATM   10  C4  UNL     1       8.900  34.630  14.396  1.00  0.00     0.015 A 
HETATM   11  C3  UNL     1       8.131  33.686  13.771  1.00  0.00     0.017 A 
HETATM   12  C2  UNL     1       7.010  34.037  13.008  1.00  0.00     0.026 A 
HETATM   13  C1  UNL     1       6.620  35.342  12.847  1.00  0.00     0.079 A 
HETATM   14  C18 UNL     1       7.376  36.306  13.466  1.00  0.00     0.026 A 
HETATM   15  C17 UNL     1       8.471  35.951  14.210  1.00  0.00     0.017 A 
BRANCH  13  16
HETATM   16  S1  UNL     1       5.207  35.753  11.882  1.00  0.00     0.256 S 
HETATM   17  O1  UNL     1       5.130  37.231  11.694  1.00  0.00    -0.201 OA
HETATM   18  O2  UNL     1       5.312  35.088  10.542  1.00  0.00    -0.201 OA
BRANCH  16  19
HETATM   19  N1  UNL     1       3.759  35.182  12.636  1.00  0.00    -0.324 N 
ATOM     20  H12 UNL     1       2.819  35.348  12.276  1.00  0.00     0.169 HD
ATOM     21  H11 UNL     1       3.992  34.662  13.482  1.00  0.00     0.169 HD
ENDBRANCH  16  19
ENDBRANCH  13  16
ENDBRANCH   9  10
BRANCH   9  22
HETATM   22  O3  UNL     1       9.973  33.557  16.175  1.00  0.00    -0.346 OA
ATOM     23  H3  UNL     1      10.729  33.014  16.358  1.00  0.00     0.219 HD
ENDBRANCH   9  22
ENDBRANCH   1   9
BRANCH   7  24
HETATM   24  C9  UNL     1      13.136  34.787  17.888  1.00  0.00     0.073 C 
BRANCH  24  25
HETATM   25  C10 UNL     1      13.793  35.473  19.017  1.00  0.00    -0.056 A 
HETATM   26  C11 UNL     1      13.895  34.866  20.274  1.00  0.00     0.007 A 
HETATM   27  C12 UNL     1      14.498  35.533  21.306  1.00  0.00     0.001 A 
HETATM   28  C13 UNL     1      15.007  36.806  21.099  1.00  0.00     0.000 A 
HETATM   29  C14 UNL     1      14.920  37.422  19.874  1.00  0.00     0.001 A 
HETATM   30  C15 UNL     1      14.309  36.740  18.844  1.00  0.00     0.007 A 
ENDBRANCH  24  25
ENDBRANCH   7  24
TORSDOF 7
ENDMDL
