MODEL 2
REMARK VINA RESULT: -7.690273742      2.524      3.328
REMARK  7 active torsions:
REMARK  status: ('A' for Active; 'I' for Inactive)
REMARK    1  A    between atoms: N1_1  and  S1_4 
REMARK    2  A    between atoms: S1_4  and  C1_7 
REMARK    3  A    between atoms: C4_10  and  C5_11 
REMARK    4  A    between atoms: C5_11  and  O3_12 
REMARK    5  A    between atoms: C5_11  and  N2_14 
REMARK    6  A    between atoms: C8_20  and  C9_21 
REMARK    7  A    between atoms: C9_21  and  C10_22 
ROOT
HETATM    1  N2  UNL     1      12.897  34.491  14.291  1.00  0.00    -0.358 N 
HETATM    2  C6  UNL     1      13.549  34.484  13.009  1.00  0.00     0.152 C 
HETATM    3  C7  UNL     1      12.437  34.172  12.001  1.00  0.00     0.252 C 
HETATM    4  N3  UNL     1      12.098  32.782  12.202  1.00  0.00    -0.068 N 
ATOM      5  H31 UNL     1      12.887  32.178  11.972  1.00  0.00     0.277 HD
ATOM      6  H32 UNL     1      11.434  32.463  11.498  1.00  0.00     0.277 HD
HETATM    7  C8  UNL     1      11.616  32.513  13.517  1.00  0.00     0.208 C 
HETATM    8  C16 UNL     1      12.376  33.121  14.634  1.00  0.00     0.158 C 
ENDROOT
BRANCH   1   9
HETATM    9  C5  UNL     1      12.638  35.504  15.191  1.00  0.00     0.148 C 
BRANCH   9  10
HETATM   10  C4  UNL     1      13.090  35.695  16.556  1.00  0.00     0.015 A 
HETATM   11  C3  UNL     1      13.117  34.746  17.540  1.00  0.00     0.017 A 
HETATM   12  C2  UNL     1      13.522  35.052  18.846  1.00  0.00     0.026 A 
HETATM   13  C1  UNL     1      13.915  36.315  19.208  1.00  0.00     0.079 A 
HETATM   14  C18 UNL     1      13.897  37.283  18.235  1.00  0.00     0.026 A 
HETATM   15  C17 UNL     1      13.498  36.973  16.961  1.00  0.00     0.017 A 
BRANCH  13  16
HETATM   16  S1  UNL     1      14.418  36.671  20.856  1.00  0.00     0.256 S 
HETATM   17  O1  UNL     1      15.476  35.709  21.285  1.00  0.00    -0.201 OA
HETATM   18  O2  UNL     1      14.964  38.066  20.917  1.00  0.00    -0.201 OA
BRANCH  16  19
HETATM   19  N1  UNL     1      13.075  36.588  21.942  1.00  0.00    -0.324 N 
ATOM     20  H12 UNL     1      13.087  36.941  22.899  1.00  0.00     0.169 HD
ATOM     21  H11 UNL     1      12.284  36.138  21.481  1.00  0.00     0.169 HD
ENDBRANCH  16  19
ENDBRANCH  13  16
ENDBRANCH   9  10
BRANCH   9  22
HETATM   22  O3  UNL     1      11.846  36.447  14.723  1.00  0.00    -0.346 OA
ATOM     23  H3  UNL     1      11.035  36.141  14.336  1.00  0.00     0.219 HD
ENDBRANCH   9  22
ENDBRANCH   1   9
BRANCH   7  24
HETATM   24  C9  UNL     1      10.122  32.721  13.547  1.00  0.00     0.073 C 
BRANCH  24  25
HETATM   25  C10 UNL     1       9.653  33.591  14.644  1.00  0.00    -0.056 A 
HETATM   26  C11 UNL     1       9.788  33.204  15.982  1.00  0.00     0.007 A 
HETATM   27  C12 UNL     1       9.331  34.025  16.978  1.00  0.00     0.001 A 
HETATM   28  C13 UNL     1       8.738  35.236  16.653  1.00  0.00     0.000 A 
HETATM   29  C14 UNL     1       8.595  35.637  15.347  1.00  0.00     0.001 A 
HETATM   30  C15 UNL     1       9.059  34.801  14.355  1.00  0.00     0.007 A 
ENDBRANCH  24  25
ENDBRANCH   7  24
TORSDOF 7
ENDMDL
