MODEL 11
REMARK VINA RESULT: -7.371929728      4.631      8.580
REMARK  7 active torsions:
REMARK  status: ('A' for Active; 'I' for Inactive)
REMARK    1  A    between atoms: N1_1  and  S1_4 
REMARK    2  A    between atoms: S1_4  and  C1_7 
REMARK    3  A    between atoms: C4_10  and  C5_11 
REMARK    4  A    between atoms: C5_11  and  O3_12 
REMARK    5  A    between atoms: C5_11  and  N2_14 
REMARK    6  A    between atoms: C8_20  and  C9_21 
REMARK    7  A    between atoms: C9_21  and  C10_22 
ROOT
HETATM    1  N2  UNL     1      12.044  34.204  14.367  1.00  0.00    -0.358 N 
HETATM    2  C6  UNL     1      11.352  35.395  13.952  1.00  0.00     0.152 C 
HETATM    3  C7  UNL     1      12.174  36.552  14.531  1.00  0.00     0.252 C 
HETATM    4  N3  UNL     1      11.947  36.524  15.957  1.00  0.00    -0.068 N 
ATOM      5  H31 UNL     1      10.970  36.715  16.175  1.00  0.00     0.277 HD
ATOM      6  H32 UNL     1      12.379  37.329  16.410  1.00  0.00     0.277 HD
HETATM    7  C8  UNL     1      12.377  35.307  16.563  1.00  0.00     0.208 C 
HETATM    8  C16 UNL     1      12.003  34.056  15.864  1.00  0.00     0.158 C 
ENDROOT
BRANCH   1   9
HETATM    9  C5  UNL     1      12.747  33.251  13.661  1.00  0.00     0.148 C 
BRANCH   9  10
HETATM   10  C4  UNL     1      12.562  31.815  13.568  1.00  0.00     0.015 A 
HETATM   11  C3  UNL     1      13.337  30.858  14.166  1.00  0.00     0.017 A 
HETATM   12  C2  UNL     1      13.103  29.492  13.965  1.00  0.00     0.026 A 
HETATM   13  C1  UNL     1      12.087  29.038  13.163  1.00  0.00     0.079 A 
HETATM   14  C18 UNL     1      11.297  29.980  12.555  1.00  0.00     0.026 A 
HETATM   15  C17 UNL     1      11.535  31.316  12.758  1.00  0.00     0.017 A 
BRANCH  13  16
HETATM   16  S1  UNL     1      11.818  27.315  12.929  1.00  0.00     0.256 S 
HETATM   17  O1  UNL     1      10.370  27.054  12.681  1.00  0.00    -0.201 OA
HETATM   18  O2  UNL     1      12.615  26.845  11.750  1.00  0.00    -0.201 OA
BRANCH  16  19
HETATM   19  N1  UNL     1      12.347  26.416  14.309  1.00  0.00    -0.324 N 
ATOM     20  H12 UNL     1      13.088  25.715  14.289  1.00  0.00     0.169 HD
ATOM     21  H11 UNL     1      11.809  26.694  15.130  1.00  0.00     0.169 HD
ENDBRANCH  16  19
ENDBRANCH  13  16
ENDBRANCH   9  10
BRANCH   9  22
HETATM   22  O3  UNL     1      13.752  33.735  12.960  1.00  0.00    -0.346 OA
ATOM     23  H3  UNL     1      13.601  33.795  12.024  1.00  0.00     0.219 HD
ENDBRANCH   9  22
ENDBRANCH   1   9
BRANCH   7  24
HETATM   24  C9  UNL     1      13.829  35.434  16.952  1.00  0.00     0.073 C 
BRANCH  24  25
HETATM   25  C10 UNL     1      14.049  35.769  18.372  1.00  0.00    -0.056 A 
HETATM   26  C11 UNL     1      14.565  37.013  18.752  1.00  0.00     0.007 A 
HETATM   27  C12 UNL     1      14.771  37.290  20.077  1.00  0.00     0.001 A 
HETATM   28  C13 UNL     1      14.466  36.335  21.035  1.00  0.00     0.000 A 
HETATM   29  C14 UNL     1      13.959  35.107  20.687  1.00  0.00     0.001 A 
HETATM   30  C15 UNL     1      13.756  34.841  19.350  1.00  0.00     0.007 A 
ENDBRANCH  24  25
ENDBRANCH   7  24
TORSDOF 7
ENDMDL
