MODEL 4
REMARK VINA RESULT: -7.658148502      2.445      3.452
REMARK  7 active torsions:
REMARK  status: ('A' for Active; 'I' for Inactive)
REMARK    1  A    between atoms: N1_1  and  S1_4 
REMARK    2  A    between atoms: S1_4  and  C1_7 
REMARK    3  A    between atoms: C4_10  and  C5_11 
REMARK    4  A    between atoms: C5_11  and  O3_12 
REMARK    5  A    between atoms: C5_11  and  N2_14 
REMARK    6  A    between atoms: C8_20  and  C9_21 
REMARK    7  A    between atoms: C9_21  and  C10_22 
ROOT
HETATM    1  N2  UNL     1      13.011  34.430  14.152  1.00  0.00    -0.358 N 
HETATM    2  C6  UNL     1      13.783  35.435  13.471  1.00  0.00     0.152 C 
HETATM    3  C7  UNL     1      12.767  36.510  13.068  1.00  0.00     0.252 C 
HETATM    4  N3  UNL     1      11.978  35.931  12.006  1.00  0.00    -0.068 N 
ATOM      5  H31 UNL     1      12.553  35.742  11.185  1.00  0.00     0.277 HD
ATOM      6  H32 UNL     1      11.341  36.620  11.608  1.00  0.00     0.277 HD
HETATM    7  C8  UNL     1      11.272  34.760  12.414  1.00  0.00     0.208 C 
HETATM    8  C16 UNL     1      12.039  33.773  13.209  1.00  0.00     0.158 C 
ENDROOT
BRANCH   1   9
HETATM    9  C5  UNL     1      12.979  34.025  15.469  1.00  0.00     0.148 C 
BRANCH   9  10
HETATM   10  C4  UNL     1      13.305  34.741  16.688  1.00  0.00     0.015 A 
HETATM   11  C3  UNL     1      13.892  35.975  16.769  1.00  0.00     0.017 A 
HETATM   12  C2  UNL     1      14.216  36.555  18.003  1.00  0.00     0.026 A 
HETATM   13  C1  UNL     1      13.962  35.922  19.193  1.00  0.00     0.079 A 
HETATM   14  C18 UNL     1      13.372  34.684  19.134  1.00  0.00     0.026 A 
HETATM   15  C17 UNL     1      13.060  34.125  17.922  1.00  0.00     0.017 A 
BRANCH  13  16
HETATM   16  S1  UNL     1      14.380  36.675  20.727  1.00  0.00     0.256 S 
HETATM   17  O1  UNL     1      15.479  35.912  21.387  1.00  0.00    -0.201 OA
HETATM   18  O2  UNL     1      14.833  38.083  20.480  1.00  0.00    -0.201 OA
BRANCH  16  19
HETATM   19  N1  UNL     1      13.004  36.746  21.774  1.00  0.00    -0.324 N 
ATOM     20  H12 UNL     1      12.872  36.150  22.591  1.00  0.00     0.169 HD
ATOM     21  H11 UNL     1      12.359  37.467  21.449  1.00  0.00     0.169 HD
ENDBRANCH  16  19
ENDBRANCH  13  16
ENDBRANCH   9  10
BRANCH   9  22
HETATM   22  O3  UNL     1      12.589  32.778  15.638  1.00  0.00    -0.346 OA
ATOM     23  H3  UNL     1      13.276  32.165  15.869  1.00  0.00     0.219 HD
ENDBRANCH   9  22
ENDBRANCH   1   9
BRANCH   7  24
HETATM   24  C9  UNL     1       9.933  35.163  12.980  1.00  0.00     0.073 C 
BRANCH  24  25
HETATM   25  C10 UNL     1       9.689  34.689  14.356  1.00  0.00    -0.056 A 
HETATM   26  C11 UNL     1       9.309  33.366  14.609  1.00  0.00     0.007 A 
HETATM   27  C12 UNL     1       9.075  32.957  15.895  1.00  0.00     0.001 A 
HETATM   28  C13 UNL     1       9.219  33.858  16.939  1.00  0.00     0.000 A 
HETATM   29  C14 UNL     1       9.592  35.161  16.716  1.00  0.00     0.001 A 
HETATM   30  C15 UNL     1       9.823  35.559  15.417  1.00  0.00     0.007 A 
ENDBRANCH  24  25
ENDBRANCH   7  24
TORSDOF 7
ENDMDL
