MODEL 9
REMARK VINA RESULT: -7.414384974      1.501      2.012
REMARK  7 active torsions:
REMARK  status: ('A' for Active; 'I' for Inactive)
REMARK    1  A    between atoms: N1_1  and  S1_4 
REMARK    2  A    between atoms: S1_4  and  C1_7 
REMARK    3  A    between atoms: C4_10  and  C5_11 
REMARK    4  A    between atoms: C5_11  and  O3_12 
REMARK    5  A    between atoms: C5_11  and  N2_14 
REMARK    6  A    between atoms: C8_20  and  C9_21 
REMARK    7  A    between atoms: C9_21  and  C10_22 
ROOT
HETATM    1  N2  UNL     1      11.782  33.006  15.260  1.00  0.00    -0.358 N 
HETATM    2  C6  UNL     1      12.996  32.398  14.785  1.00  0.00     0.152 C 
HETATM    3  C7  UNL     1      13.474  33.306  13.646  1.00  0.00     0.252 C 
HETATM    4  N3  UNL     1      12.553  33.090  12.555  1.00  0.00    -0.068 N 
ATOM      5  H31 UNL     1      12.608  32.130  12.214  1.00  0.00     0.277 HD
ATOM      6  H32 UNL     1      12.860  33.582  11.716  1.00  0.00     0.277 HD
HETATM    7  C8  UNL     1      11.209  33.436  12.886  1.00  0.00     0.208 C 
HETATM    8  C16 UNL     1      10.713  32.967  14.201  1.00  0.00     0.158 C 
ENDROOT
BRANCH   1   9
HETATM    9  C5  UNL     1      11.465  33.633  16.447  1.00  0.00     0.148 C 
BRANCH   9  10
HETATM   10  C4  UNL     1      12.304  34.340  17.397  1.00  0.00     0.015 A 
HETATM   11  C3  UNL     1      12.485  34.018  18.714  1.00  0.00     0.017 A 
HETATM   12  C2  UNL     1      13.277  34.804  19.561  1.00  0.00     0.026 A 
HETATM   13  C1  UNL     1      13.916  35.934  19.118  1.00  0.00     0.079 A 
HETATM   14  C18 UNL     1      13.750  36.274  17.799  1.00  0.00     0.026 A 
HETATM   15  C17 UNL     1      12.971  35.498  16.979  1.00  0.00     0.017 A 
BRANCH  13  16
HETATM   16  S1  UNL     1      14.904  36.902  20.205  1.00  0.00     0.256 S 
HETATM   17  O1  UNL     1      14.035  37.792  21.029  1.00  0.00    -0.201 OA
HETATM   18  O2  UNL     1      15.680  35.992  21.110  1.00  0.00    -0.201 OA
BRANCH  16  19
HETATM   19  N1  UNL     1      16.045  37.853  19.318  1.00  0.00    -0.324 N 
ATOM     20  H12 UNL     1      15.842  38.771  18.922  1.00  0.00     0.169 HD
ATOM     21  H11 UNL     1      16.935  37.359  19.257  1.00  0.00     0.169 HD
ENDBRANCH  16  19
ENDBRANCH  13  16
ENDBRANCH   9  10
BRANCH   9  22
HETATM   22  O3  UNL     1      10.188  33.572  16.762  1.00  0.00    -0.346 OA
ATOM     23  H3  UNL     1       9.613  33.275  16.067  1.00  0.00     0.219 HD
ENDBRANCH   9  22
ENDBRANCH   1   9
BRANCH   7  24
HETATM   24  C9  UNL     1      10.986  34.897  12.582  1.00  0.00     0.073 C 
BRANCH  24  25
HETATM   25  C10 UNL     1       9.655  35.401  12.971  1.00  0.00    -0.056 A 
HETATM   26  C11 UNL     1       9.467  36.097  14.171  1.00  0.00     0.007 A 
HETATM   27  C12 UNL     1       8.218  36.542  14.513  1.00  0.00     0.001 A 
HETATM   28  C13 UNL     1       7.147  36.300  13.666  1.00  0.00     0.000 A 
HETATM   29  C14 UNL     1       7.307  35.620  12.483  1.00  0.00     0.001 A 
HETATM   30  C15 UNL     1       8.569  35.178  12.152  1.00  0.00     0.007 A 
ENDBRANCH  24  25
ENDBRANCH   7  24
TORSDOF 7
ENDMDL
