MODEL 14
REMARK VINA RESULT: -6.976872410     10.681     12.201
REMARK  5 active torsions:
REMARK  status: ('A' for Active; 'I' for Inactive)
REMARK    1  A    between atoms: N5_13  and  C6_14 
REMARK    2  A    between atoms: C7_16  and  C8_17 
REMARK    3  A    between atoms: C8_17  and  O2_18 
REMARK    4  A    between atoms: C9_20  and  O3_21 
REMARK    5  A    between atoms: C10_23  and  O4_24 
ROOT
HETATM    1  N1  UNL     1     -16.314  63.942  13.744  1.00  0.00    -0.080 NA
HETATM    2  C1  UNL     1     -17.419  63.296  14.343  1.00  0.00     0.148 A 
HETATM    3  N2  UNL     1     -17.714  63.446  15.660  1.00  0.00    -0.339 N 
ATOM      4  H2  UNL     1     -17.131  64.039  16.251  1.00  0.00     0.167 HD
HETATM    5  C2  UNL     1     -18.775  62.810  16.183  1.00  0.00     0.183 A 
HETATM    6  N3  UNL     1     -19.538  62.030  15.395  1.00  0.00    -0.336 N 
ATOM      7  H3  UNL     1     -20.341  61.553  15.805  1.00  0.00     0.168 HD
HETATM    8  C3  UNL     1     -19.275  61.854  14.067  1.00  0.00     0.142 A 
HETATM    9  C4  UNL     1     -18.198  62.497  13.533  1.00  0.00     0.119 A 
HETATM   10  N4  UNL     1     -18.158  62.162  12.226  1.00  0.00    -0.346 N 
ATOM     11  H4  UNL     1     -17.465  62.483  11.550  1.00  0.00     0.167 HD
HETATM   12  C5  UNL     1     -19.189  61.332  11.961  1.00  0.00     0.188 A 
HETATM   13  N5  UNL     1     -19.872  61.145  13.098  1.00  0.00    -0.297 N 
ENDROOT
BRANCH  13  14
HETATM   14  C6  UNL     1     -21.038  60.343  13.296  1.00  0.00     0.262 C 
HETATM   15  O1  UNL     1     -22.126  61.150  13.613  1.00  0.00    -0.353 OA
HETATM   16  C7  UNL     1     -23.080  60.371  14.211  1.00  0.00     0.179 C 
HETATM   17  C9  UNL     1     -22.434  59.080  14.646  1.00  0.00     0.182 C 
HETATM   18  C10 UNL     1     -20.951  59.443  14.497  1.00  0.00     0.198 C 
BRANCH  16  19
HETATM   19  C8  UNL     1     -23.668  61.029  15.447  1.00  0.00     0.198 C 
BRANCH  19  20
HETATM   20  O2  UNL     1     -23.682  60.201  16.545  1.00  0.00    -0.398 OA
ATOM     21  H2  UNL     1     -24.480  60.271  17.056  1.00  0.00     0.209 HD
ENDBRANCH  19  20
ENDBRANCH  16  19
BRANCH  17  22
HETATM   22  O3  UNL     1     -22.718  58.095  13.692  1.00  0.00    -0.390 OA
ATOM     23  H3  UNL     1     -23.143  57.366  14.127  1.00  0.00     0.210 HD
ENDBRANCH  17  22
BRANCH  18  24
HETATM   24  O4  UNL     1     -20.179  58.313  14.258  1.00  0.00    -0.388 OA
ATOM     25  H4  UNL     1     -20.678  57.610  13.859  1.00  0.00     0.210 HD
ENDBRANCH  18  24
ENDBRANCH  13  14
TORSDOF 5
ENDMDL
