MODEL 1
REMARK VINA RESULT: -8.460135347      0.000      0.000
REMARK  5 active torsions:
REMARK  status: ('A' for Active; 'I' for Inactive)
REMARK    1  A    between atoms: N5_13  and  C6_14 
REMARK    2  A    between atoms: C7_16  and  C8_17 
REMARK    3  A    between atoms: C8_17  and  O2_18 
REMARK    4  A    between atoms: C9_20  and  O3_21 
REMARK    5  A    between atoms: C10_23  and  O4_24 
ROOT
HETATM    1  N1  UNL     1     -16.898  69.520  24.989  1.00  0.00    -0.080 NA
HETATM    2  C1  UNL     1     -16.776  69.589  23.583  1.00  0.00     0.148 A 
HETATM    3  N2  UNL     1     -17.480  70.483  22.841  1.00  0.00    -0.339 N 
ATOM      4  H2  UNL     1     -18.121  71.133  23.296  1.00  0.00     0.167 HD
HETATM    5  C2  UNL     1     -17.329  70.508  21.506  1.00  0.00     0.183 A 
HETATM    6  N3  UNL     1     -16.481  69.646  20.916  1.00  0.00    -0.336 N 
ATOM      7  H3  UNL     1     -16.376  69.676  19.902  1.00  0.00     0.168 HD
HETATM    8  C3  UNL     1     -15.757  68.733  21.626  1.00  0.00     0.142 A 
HETATM    9  C4  UNL     1     -15.907  68.704  22.981  1.00  0.00     0.119 A 
HETATM   10  N4  UNL     1     -15.093  67.728  23.438  1.00  0.00    -0.346 N 
ATOM     11  H4  UNL     1     -14.979  67.457  24.414  1.00  0.00     0.167 HD
HETATM   12  C5  UNL     1     -14.456  67.169  22.388  1.00  0.00     0.188 A 
HETATM   13  N5  UNL     1     -14.868  67.791  21.275  1.00  0.00    -0.297 N 
ENDROOT
BRANCH  13  14
HETATM   14  C6  UNL     1     -14.463  67.535  19.929  1.00  0.00     0.262 C 
HETATM   15  O1  UNL     1     -13.685  66.385  19.873  1.00  0.00    -0.353 OA
HETATM   16  C7  UNL     1     -12.968  66.405  18.707  1.00  0.00     0.179 C 
HETATM   17  C9  UNL     1     -12.993  67.809  18.159  1.00  0.00     0.182 C 
HETATM   18  C10 UNL     1     -13.530  68.576  19.375  1.00  0.00     0.198 C 
BRANCH  16  19
HETATM   19  C8  UNL     1     -11.515  66.021  18.917  1.00  0.00     0.198 C 
BRANCH  19  20
HETATM   20  O2  UNL     1     -11.121  66.091  20.233  1.00  0.00    -0.398 OA
ATOM     21  H2  UNL     1     -10.352  65.567  20.422  1.00  0.00     0.209 HD
ENDBRANCH  19  20
ENDBRANCH  16  19
BRANCH  17  22
HETATM   22  O3  UNL     1     -13.971  67.882  17.160  1.00  0.00    -0.390 OA
ATOM     23  H3  UNL     1     -14.817  68.006  17.572  1.00  0.00     0.210 HD
ENDBRANCH  17  22
BRANCH  18  24
HETATM   24  O4  UNL     1     -14.194  69.732  18.986  1.00  0.00    -0.388 OA
ATOM     25  H4  UNL     1     -14.391  69.743  18.057  1.00  0.00     0.210 HD
ENDBRANCH  18  24
ENDBRANCH  13  14
TORSDOF 5
ENDMDL
