MODEL 13
REMARK VINA RESULT: -6.978970901      1.646      1.851
REMARK  5 active torsions:
REMARK  status: ('A' for Active; 'I' for Inactive)
REMARK    1  A    between atoms: N5_13  and  C6_14 
REMARK    2  A    between atoms: C7_16  and  C8_17 
REMARK    3  A    between atoms: C8_17  and  O2_18 
REMARK    4  A    between atoms: C9_20  and  O3_21 
REMARK    5  A    between atoms: C10_23  and  O4_24 
ROOT
HETATM    1  N1  UNL     1     -17.306  69.988  23.608  1.00  0.00    -0.080 NA
HETATM    2  C1  UNL     1     -16.732  69.655  22.361  1.00  0.00     0.148 A 
HETATM    3  N2  UNL     1     -16.982  70.375  21.237  1.00  0.00    -0.339 N 
ATOM      4  H2  UNL     1     -17.601  71.185  21.275  1.00  0.00     0.167 HD
HETATM    5  C2  UNL     1     -16.411  70.017  20.075  1.00  0.00     0.183 A 
HETATM    6  N3  UNL     1     -15.596  68.948  20.035  1.00  0.00    -0.336 N 
ATOM      7  H3  UNL     1     -15.169  68.687  19.146  1.00  0.00     0.168 HD
HETATM    8  C3  UNL     1     -15.320  68.199  21.142  1.00  0.00     0.142 A 
HETATM    9  C4  UNL     1     -15.897  68.558  22.323  1.00  0.00     0.119 A 
HETATM   10  N4  UNL     1     -15.470  67.670  23.247  1.00  0.00    -0.346 N 
ATOM     11  H4  UNL     1     -15.726  67.670  24.234  1.00  0.00     0.167 HD
HETATM   12  C5  UNL     1     -14.647  66.785  22.648  1.00  0.00     0.188 A 
HETATM   13  N5  UNL     1     -14.559  67.114  21.352  1.00  0.00    -0.297 N 
ENDROOT
BRANCH  13  14
HETATM   14  C6  UNL     1     -13.800  66.460  20.333  1.00  0.00     0.262 C 
HETATM   15  O1  UNL     1     -13.487  65.164  20.726  1.00  0.00    -0.353 OA
HETATM   16  C7  UNL     1     -12.432  64.727  19.972  1.00  0.00     0.179 C 
HETATM   17  C9  UNL     1     -11.785  65.924  19.323  1.00  0.00     0.182 C 
HETATM   18  C10 UNL     1     -12.440  67.063  20.117  1.00  0.00     0.198 C 
BRANCH  16  19
HETATM   19  C8  UNL     1     -11.374  64.031  20.810  1.00  0.00     0.198 C 
BRANCH  19  20
HETATM   20  O2  UNL     1     -11.373  62.665  20.655  1.00  0.00    -0.398 OA
ATOM     21  H2  UNL     1     -10.554  62.329  20.309  1.00  0.00     0.209 HD
ENDBRANCH  19  20
ENDBRANCH  16  19
BRANCH  17  22
HETATM   22  O3  UNL     1     -12.245  66.021  18.004  1.00  0.00    -0.390 OA
ATOM     23  H3  UNL     1     -11.521  65.844  17.417  1.00  0.00     0.210 HD
ENDBRANCH  17  22
BRANCH  18  24
HETATM   24  O4  UNL     1     -12.489  68.232  19.370  1.00  0.00    -0.388 OA
ATOM     25  H4  UNL     1     -12.273  69.001  19.883  1.00  0.00     0.210 HD
ENDBRANCH  18  24
ENDBRANCH  13  14
TORSDOF 5
ENDMDL
