MODEL 15
REMARK VINA RESULT: -6.814044743      3.050      5.498
REMARK  5 active torsions:
REMARK  status: ('A' for Active; 'I' for Inactive)
REMARK    1  A    between atoms: N5_13  and  C6_14 
REMARK    2  A    between atoms: C7_16  and  C8_17 
REMARK    3  A    between atoms: C8_17  and  O2_18 
REMARK    4  A    between atoms: C9_20  and  O3_21 
REMARK    5  A    between atoms: C10_23  and  O4_24 
ROOT
HETATM    1  N1  UNL     1     -10.816  62.594  20.676  1.00  0.00    -0.080 NA
HETATM    2  C1  UNL     1     -11.201  63.901  20.304  1.00  0.00     0.148 A 
HETATM    3  N2  UNL     1     -10.366  64.735  19.632  1.00  0.00    -0.339 N 
ATOM      4  H2  UNL     1      -9.428  64.425  19.379  1.00  0.00     0.167 HD
HETATM    5  C2  UNL     1     -10.780  65.970  19.302  1.00  0.00     0.183 A 
HETATM    6  N3  UNL     1     -12.019  66.369  19.641  1.00  0.00    -0.336 N 
ATOM      7  H3  UNL     1     -12.321  67.309  19.384  1.00  0.00     0.168 HD
HETATM    8  C3  UNL     1     -12.887  65.561  20.316  1.00  0.00     0.142 A 
HETATM    9  C4  UNL     1     -12.472  64.307  20.653  1.00  0.00     0.119 A 
HETATM   10  N4  UNL     1     -13.500  63.722  21.304  1.00  0.00    -0.346 N 
ATOM     11  H4  UNL     1     -13.501  62.776  21.686  1.00  0.00     0.167 HD
HETATM   12  C5  UNL     1     -14.526  64.595  21.365  1.00  0.00     0.188 A 
HETATM   13  N5  UNL     1     -14.144  65.726  20.756  1.00  0.00    -0.297 N 
ENDROOT
BRANCH  13  14
HETATM   14  C6  UNL     1     -14.903  66.924  20.578  1.00  0.00     0.262 C 
HETATM   15  O1  UNL     1     -14.631  67.484  19.335  1.00  0.00    -0.353 OA
HETATM   16  C7  UNL     1     -15.004  68.800  19.364  1.00  0.00     0.179 C 
HETATM   17  C9  UNL     1     -15.173  69.214  20.804  1.00  0.00     0.182 C 
HETATM   18  C10 UNL     1     -14.507  68.029  21.517  1.00  0.00     0.198 C 
BRANCH  16  19
HETATM   19  C8  UNL     1     -13.957  69.709  18.746  1.00  0.00     0.198 C 
BRANCH  19  20
HETATM   20  O2  UNL     1     -12.698  69.158  18.740  1.00  0.00    -0.398 OA
ATOM     21  H2  UNL     1     -12.150  69.468  19.452  1.00  0.00     0.209 HD
ENDBRANCH  19  20
ENDBRANCH  16  19
BRANCH  17  22
HETATM   22  O3  UNL     1     -16.536  69.175  21.123  1.00  0.00    -0.390 OA
ATOM     23  H3  UNL     1     -16.873  68.314  20.906  1.00  0.00     0.210 HD
ENDBRANCH  17  22
BRANCH  18  24
HETATM   24  O4  UNL     1     -15.026  67.855  22.793  1.00  0.00    -0.388 OA
ATOM     25  H4  UNL     1     -15.826  68.349  22.931  1.00  0.00     0.210 HD
ENDBRANCH  18  24
ENDBRANCH  13  14
TORSDOF 5
ENDMDL
