MODEL 6
REMARK VINA RESULT: -7.762298676      1.370      1.445
REMARK  5 active torsions:
REMARK  status: ('A' for Active; 'I' for Inactive)
REMARK    1  A    between atoms: N5_13  and  C6_14 
REMARK    2  A    between atoms: C7_16  and  C8_17 
REMARK    3  A    between atoms: C8_17  and  O2_18 
REMARK    4  A    between atoms: C9_20  and  O3_21 
REMARK    5  A    between atoms: C10_23  and  O4_24 
ROOT
HETATM    1  N1  UNL     1     -17.290  70.407  24.615  1.00  0.00    -0.080 NA
HETATM    2  C1  UNL     1     -17.016  70.105  23.262  1.00  0.00     0.148 A 
HETATM    3  N2  UNL     1     -17.554  70.820  22.241  1.00  0.00    -0.339 N 
ATOM      4  H2  UNL     1     -18.179  71.603  22.437  1.00  0.00     0.167 HD
HETATM    5  C2  UNL     1     -17.262  70.492  20.971  1.00  0.00     0.183 A 
HETATM    6  N3  UNL     1     -16.437  69.459  20.722  1.00  0.00    -0.336 N 
ATOM      7  H3  UNL     1     -16.224  69.221  19.754  1.00  0.00     0.168 HD
HETATM    8  C3  UNL     1     -15.876  68.717  21.721  1.00  0.00     0.142 A 
HETATM    9  C4  UNL     1     -16.171  69.045  23.011  1.00  0.00     0.119 A 
HETATM   10  N4  UNL     1     -15.501  68.171  23.794  1.00  0.00    -0.346 N 
ATOM     11  H4  UNL     1     -15.515  68.155  24.813  1.00  0.00     0.167 HD
HETATM   12  C5  UNL     1     -14.809  67.325  23.003  1.00  0.00     0.188 A 
HETATM   13  N5  UNL     1     -15.044  67.664  21.728  1.00  0.00    -0.297 N 
ENDROOT
BRANCH  13  14
HETATM   14  C6  UNL     1     -14.524  67.048  20.549  1.00  0.00     0.262 C 
HETATM   15  O1  UNL     1     -14.496  65.666  20.702  1.00  0.00    -0.353 OA
HETATM   16  C7  UNL     1     -13.621  65.148  19.787  1.00  0.00     0.179 C 
HETATM   17  C9  UNL     1     -12.756  66.270  19.270  1.00  0.00     0.182 C 
HETATM   18  C10 UNL     1     -13.078  67.368  20.293  1.00  0.00     0.198 C 
BRANCH  16  19
HETATM   19  C8  UNL     1     -12.701  64.104  20.395  1.00  0.00     0.198 C 
BRANCH  19  20
HETATM   20  O2  UNL     1     -12.970  63.853  21.720  1.00  0.00    -0.398 OA
ATOM     21  H2  UNL     1     -12.279  63.370  22.157  1.00  0.00     0.209 HD
ENDBRANCH  19  20
ENDBRANCH  16  19
BRANCH  17  22
HETATM   22  O3  UNL     1     -13.263  66.693  18.035  1.00  0.00    -0.390 OA
ATOM     23  H3  UNL     1     -13.841  66.019  17.698  1.00  0.00     0.210 HD
ENDBRANCH  17  22
BRANCH  18  24
HETATM   24  O4  UNL     1     -12.901  68.632  19.745  1.00  0.00    -0.388 OA
ATOM     25  H4  UNL     1     -12.768  69.299  20.406  1.00  0.00     0.210 HD
ENDBRANCH  18  24
ENDBRANCH  13  14
TORSDOF 5
ENDMDL
