MODEL 11
REMARK VINA RESULT: -7.273113335      3.011      5.725
REMARK  5 active torsions:
REMARK  status: ('A' for Active; 'I' for Inactive)
REMARK    1  A    between atoms: N5_13  and  C6_14 
REMARK    2  A    between atoms: C7_16  and  C8_17 
REMARK    3  A    between atoms: C8_17  and  O2_18 
REMARK    4  A    between atoms: C9_20  and  O3_21 
REMARK    5  A    between atoms: C10_23  and  O4_24 
ROOT
HETATM    1  N1  UNL     1     -12.090  64.775  19.507  1.00  0.00    -0.080 NA
HETATM    2  C1  UNL     1     -12.580  66.099  19.567  1.00  0.00     0.148 A 
HETATM    3  N2  UNL     1     -12.316  67.010  18.596  1.00  0.00    -0.339 N 
ATOM      4  H2  UNL     1     -11.748  66.749  17.789  1.00  0.00     0.167 HD
HETATM    5  C2  UNL     1     -12.805  68.257  18.699  1.00  0.00     0.183 A 
HETATM    6  N3  UNL     1     -13.553  68.592  19.766  1.00  0.00    -0.336 N 
ATOM      7  H3  UNL     1     -13.918  69.542  19.833  1.00  0.00     0.168 HD
HETATM    8  C3  UNL     1     -13.840  67.705  20.763  1.00  0.00     0.142 A 
HETATM    9  C4  UNL     1     -13.346  66.439  20.662  1.00  0.00     0.119 A 
HETATM   10  N4  UNL     1     -13.767  65.772  21.759  1.00  0.00    -0.346 N 
ATOM     11  H4  UNL     1     -13.561  64.798  21.977  1.00  0.00     0.167 HD
HETATM   12  C5  UNL     1     -14.505  66.609  22.517  1.00  0.00     0.188 A 
HETATM   13  N5  UNL     1     -14.546  67.798  21.900  1.00  0.00    -0.297 N 
ENDROOT
BRANCH  13  14
HETATM   14  C6  UNL     1     -15.212  68.986  22.334  1.00  0.00     0.262 C 
HETATM   15  O1  UNL     1     -15.384  68.962  23.714  1.00  0.00    -0.353 OA
HETATM   16  C7  UNL     1     -16.372  69.850  24.041  1.00  0.00     0.179 C 
HETATM   17  C9  UNL     1     -17.140  70.187  22.788  1.00  0.00     0.182 C 
HETATM   18  C10 UNL     1     -16.628  69.094  21.841  1.00  0.00     0.198 C 
BRANCH  16  19
HETATM   19  C8  UNL     1     -17.358  69.272  25.041  1.00  0.00     0.198 C 
BRANCH  19  20
HETATM   20  O2  UNL     1     -17.139  69.704  26.328  1.00  0.00    -0.398 OA
ATOM     21  H2  UNL     1     -17.756  70.369  26.609  1.00  0.00     0.209 HD
ENDBRANCH  19  20
ENDBRANCH  16  19
BRANCH  17  22
HETATM   22  O3  UNL     1     -16.675  71.412  22.295  1.00  0.00    -0.390 OA
ATOM     23  H3  UNL     1     -15.944  71.697  22.831  1.00  0.00     0.210 HD
ENDBRANCH  17  22
BRANCH  18  24
HETATM   24  O4  UNL     1     -16.700  69.503  20.516  1.00  0.00    -0.388 OA
ATOM     25  H4  UNL     1     -17.472  70.027  20.339  1.00  0.00     0.210 HD
ENDBRANCH  18  24
ENDBRANCH  13  14
TORSDOF 5
ENDMDL
