MODEL 1
REMARK VINA RESULT: -6.611504088      0.000      0.000
REMARK  12 active torsions:
REMARK  status: ('A' for Active; 'I' for Inactive)
REMARK    1  A    between atoms: C2_2  and  C3_3 
REMARK    2  A    between atoms: C3_3  and  C4_4 
REMARK    3  A    between atoms: C4_4  and  C6_6 
REMARK    4  A    between atoms: C4_4  and  S1_10 
REMARK    5  A    between atoms: C6_6  and  C7_7 
REMARK    6  A    between atoms: C7_7  and  O1_8 
REMARK    7  A    between atoms: S1_10  and  C8_11 
REMARK    8  A    between atoms: C8_11  and  C9_12 
REMARK    9  A    between atoms: C9_12  and  N1_13 
REMARK   10  A    between atoms: C9_12  and  C10_17 
REMARK       I    between atoms: C10_17  and  N2_19 
REMARK   11  A    between atoms: N2_19  and  C11_21 
REMARK   12  A    between atoms: C11_21  and  C12_22 
ROOT
HETATM    1  C9  UNL     1      25.418   7.089  34.151  1.00  0.00     0.283 C 
ENDROOT
BRANCH   1   2
HETATM    2  C8  UNL     1      24.482   6.314  33.279  1.00  0.00     0.117 C 
BRANCH   2   3
HETATM    3  S1  UNL     1      23.177   5.587  34.232  1.00  0.00    -0.157 SA
BRANCH   3   4
HETATM    4  C4  UNL     1      22.436   4.098  33.599  1.00  0.00     0.006 C 
HETATM    5  C5  UNL     1      22.863   2.860  34.308  1.00  0.00     0.027 C 
BRANCH   4   6
HETATM    6  C3  UNL     1      20.905   4.167  33.687  1.00  0.00     0.020 C 
BRANCH   6   7
HETATM    7  C2  UNL     1      20.322   2.885  34.165  1.00  0.00    -0.003 C 
HETATM    8  C1  UNL     1      18.922   2.777  33.559  1.00  0.00     0.005 C 
ENDBRANCH   6   7
ENDBRANCH   4   6
BRANCH   4   9
HETATM    9  C6  UNL     1      22.819   4.054  32.113  1.00  0.00     0.046 C 
BRANCH   9  10
HETATM   10  C7  UNL     1      21.667   4.646  31.333  1.00  0.00     0.165 C 
BRANCH  10  11
HETATM   11  O1  UNL     1      22.141   5.842  30.759  1.00  0.00    -0.401 OA
ATOM     12  H1  UNL     1      22.486   6.368  31.471  1.00  0.00     0.209 HD
ENDBRANCH  10  11
ENDBRANCH   9  10
ENDBRANCH   4   9
ENDBRANCH   3   4
ENDBRANCH   2   3
ENDBRANCH   1   2
BRANCH   1  13
HETATM   13  N1  UNL     1      25.630   6.352  35.396  1.00  0.00    -0.066 N 
ATOM     14  H13 UNL     1      26.128   6.905  36.093  1.00  0.00     0.275 HD
ATOM     15  H12 UNL     1      24.763   6.212  35.916  1.00  0.00     0.275 HD
ATOM     16  H11 UNL     1      26.104   5.473  35.186  1.00  0.00     0.275 HD
ENDBRANCH   1  13
BRANCH   1  17
HETATM   17  C10 UNL     1      24.856   8.421  34.508  1.00  0.00     0.249 C 
HETATM   18  O2  UNL     1      24.065   8.553  35.498  1.00  0.00    -0.271 OA
HETATM   19  N2  UNL     1      25.186   9.569  33.754  1.00  0.00    -0.349 N 
ATOM     20  H2  UNL     1      25.815   9.495  32.954  1.00  0.00     0.163 HD
BRANCH  19  21
HETATM   21  C11 UNL     1      24.621  10.859  34.130  1.00  0.00     0.235 C 
BRANCH  21  22
HETATM   22  C12 UNL     1      25.659  11.905  34.079  1.00  0.00     0.191 C 
HETATM   23  O3  UNL     1      26.403  11.983  33.080  1.00  0.00    -0.647 OA
HETATM   24  O4  UNL     1      25.824  12.797  35.117  1.00  0.00    -0.647 OA
ENDBRANCH  21  22
ENDBRANCH  19  21
ENDBRANCH   1  17
TORSDOF 12
ENDMDL
