MODEL 3
REMARK VINA RESULT: -6.423066582      1.465      1.699
REMARK  12 active torsions:
REMARK  status: ('A' for Active; 'I' for Inactive)
REMARK    1  A    between atoms: C2_2  and  C3_3 
REMARK    2  A    between atoms: C3_3  and  C4_4 
REMARK    3  A    between atoms: C4_4  and  C6_6 
REMARK    4  A    between atoms: C4_4  and  S1_10 
REMARK    5  A    between atoms: C6_6  and  C7_7 
REMARK    6  A    between atoms: C7_7  and  O1_8 
REMARK    7  A    between atoms: S1_10  and  C8_11 
REMARK    8  A    between atoms: C8_11  and  C9_12 
REMARK    9  A    between atoms: C9_12  and  N1_13 
REMARK   10  A    between atoms: C9_12  and  C10_17 
REMARK       I    between atoms: C10_17  and  N2_19 
REMARK   11  A    between atoms: N2_19  and  C11_21 
REMARK   12  A    between atoms: C11_21  and  C12_22 
ROOT
HETATM    1  C9  UNL     1      25.061   6.301  35.143  1.00  0.00     0.283 C 
ENDROOT
BRANCH   1   2
HETATM    2  C8  UNL     1      24.422   5.062  34.603  1.00  0.00     0.117 C 
BRANCH   2   3
HETATM    3  S1  UNL     1      22.658   5.138  34.747  1.00  0.00    -0.157 SA
BRANCH   3   4
HETATM    4  C4  UNL     1      21.714   3.893  33.893  1.00  0.00     0.006 C 
HETATM    5  C5  UNL     1      21.844   2.529  34.476  1.00  0.00     0.027 C 
BRANCH   4   6
HETATM    6  C3  UNL     1      20.221   4.245  33.887  1.00  0.00     0.020 C 
BRANCH   6   7
HETATM    7  C2  UNL     1      19.368   3.032  33.999  1.00  0.00    -0.003 C 
HETATM    8  C1  UNL     1      18.344   3.099  32.865  1.00  0.00     0.005 C 
ENDBRANCH   6   7
ENDBRANCH   4   6
BRANCH   4   9
HETATM    9  C6  UNL     1      22.212   3.931  32.440  1.00  0.00     0.046 C 
BRANCH   9  10
HETATM   10  C7  UNL     1      21.648   5.182  31.804  1.00  0.00     0.165 C 
BRANCH  10  11
HETATM   11  O1  UNL     1      22.738   5.879  31.249  1.00  0.00    -0.401 OA
ATOM     12  H1  UNL     1      23.106   6.410  31.946  1.00  0.00     0.209 HD
ENDBRANCH  10  11
ENDBRANCH   9  10
ENDBRANCH   4   9
ENDBRANCH   3   4
ENDBRANCH   2   3
ENDBRANCH   1   2
BRANCH   1  13
HETATM   13  N1  UNL     1      24.599   6.517  36.513  1.00  0.00    -0.066 N 
ATOM     14  H13 UNL     1      25.260   7.065  37.063  1.00  0.00     0.275 HD
ATOM     15  H12 UNL     1      23.807   7.158  36.559  1.00  0.00     0.275 HD
ATOM     16  H11 UNL     1      24.393   5.614  36.941  1.00  0.00     0.275 HD
ENDBRANCH   1  13
BRANCH   1  17
HETATM   17  C10 UNL     1      24.682   7.501  34.348  1.00  0.00     0.249 C 
HETATM   18  O2  UNL     1      24.652   7.459  33.074  1.00  0.00    -0.271 OA
HETATM   19  N2  UNL     1      24.349   8.716  34.988  1.00  0.00    -0.349 N 
ATOM     20  H2  UNL     1      24.365   8.782  36.006  1.00  0.00     0.163 HD
BRANCH  19  21
HETATM   21  C11 UNL     1      23.980   9.873  34.181  1.00  0.00     0.235 C 
BRANCH  21  22
HETATM   22  C12 UNL     1      23.681  11.026  35.050  1.00  0.00     0.191 C 
HETATM   23  O3  UNL     1      24.579  11.856  35.298  1.00  0.00    -0.647 OA
HETATM   24  O4  UNL     1      22.426  11.202  35.594  1.00  0.00    -0.647 OA
ENDBRANCH  21  22
ENDBRANCH  19  21
ENDBRANCH   1  17
TORSDOF 12
ENDMDL
