MODEL 2
REMARK VINA RESULT: -6.505568617      1.402      1.581
REMARK  12 active torsions:
REMARK  status: ('A' for Active; 'I' for Inactive)
REMARK    1  A    between atoms: C2_2  and  C3_3 
REMARK    2  A    between atoms: C3_3  and  C4_4 
REMARK    3  A    between atoms: C4_4  and  C6_6 
REMARK    4  A    between atoms: C4_4  and  S1_10 
REMARK    5  A    between atoms: C6_6  and  C7_7 
REMARK    6  A    between atoms: C7_7  and  O1_8 
REMARK    7  A    between atoms: S1_10  and  C8_11 
REMARK    8  A    between atoms: C8_11  and  C9_12 
REMARK    9  A    between atoms: C9_12  and  N1_13 
REMARK   10  A    between atoms: C9_12  and  C10_17 
REMARK       I    between atoms: C10_17  and  N2_19 
REMARK   11  A    between atoms: N2_19  and  C11_21 
REMARK   12  A    between atoms: C11_21  and  C12_22 
ROOT
HETATM    1  C9  UNL     1      25.149   7.412  33.904  1.00  0.00     0.283 C 
ENDROOT
BRANCH   1   2
HETATM    2  C8  UNL     1      24.017   6.435  33.900  1.00  0.00     0.117 C 
BRANCH   2   3
HETATM    3  S1  UNL     1      23.834   5.677  32.309  1.00  0.00    -0.157 SA
BRANCH   3   4
HETATM    4  C4  UNL     1      23.167   4.027  32.262  1.00  0.00     0.006 C 
HETATM    5  C5  UNL     1      23.766   3.103  33.265  1.00  0.00     0.027 C 
BRANCH   4   6
HETATM    6  C3  UNL     1      21.652   4.042  32.504  1.00  0.00     0.020 C 
BRANCH   6   7
HETATM    7  C2  UNL     1      21.309   3.572  33.873  1.00  0.00    -0.003 C 
HETATM    8  C1  UNL     1      19.921   2.933  33.791  1.00  0.00     0.005 C 
ENDBRANCH   6   7
ENDBRANCH   4   6
BRANCH   4   9
HETATM    9  C6  UNL     1      23.410   3.531  30.829  1.00  0.00     0.046 C 
BRANCH   9  10
HETATM   10  C7  UNL     1      24.893   3.271  30.688  1.00  0.00     0.165 C 
BRANCH  10  11
HETATM   11  O1  UNL     1      25.258   3.704  29.399  1.00  0.00    -0.401 OA
ATOM     12  H1  UNL     1      25.590   4.589  29.493  1.00  0.00     0.209 HD
ENDBRANCH  10  11
ENDBRANCH   9  10
ENDBRANCH   4   9
ENDBRANCH   3   4
ENDBRANCH   2   3
ENDBRANCH   1   2
BRANCH   1  13
HETATM   13  N1  UNL     1      26.145   6.984  34.884  1.00  0.00    -0.066 N 
ATOM     14  H13 UNL     1      26.140   7.567  35.721  1.00  0.00     0.275 HD
ATOM     15  H12 UNL     1      25.899   6.098  35.326  1.00  0.00     0.275 HD
ATOM     16  H11 UNL     1      27.061   6.954  34.437  1.00  0.00     0.275 HD
ENDBRANCH   1  13
BRANCH   1  17
HETATM   17  C10 UNL     1      24.692   8.775  34.294  1.00  0.00     0.249 C 
HETATM   18  O2  UNL     1      23.719   8.932  35.103  1.00  0.00    -0.271 OA
HETATM   19  N2  UNL     1      25.326   9.925  33.774  1.00  0.00    -0.349 N 
ATOM     20  H2  UNL     1      26.106   9.832  33.123  1.00  0.00     0.163 HD
BRANCH  19  21
HETATM   21  C11 UNL     1      24.856  11.245  34.177  1.00  0.00     0.235 C 
BRANCH  21  22
HETATM   22  C12 UNL     1      25.952  12.228  34.080  1.00  0.00     0.191 C 
HETATM   23  O3  UNL     1      26.780  12.133  33.151  1.00  0.00    -0.647 OA
HETATM   24  O4  UNL     1      26.078  13.248  35.000  1.00  0.00    -0.647 OA
ENDBRANCH  21  22
ENDBRANCH  19  21
ENDBRANCH   1  17
TORSDOF 12
ENDMDL
