MODEL 4
REMARK VINA RESULT: -9.406600643      3.361      6.378
REMARK  8 active torsions:
REMARK  status: ('A' for Active; 'I' for Inactive)
REMARK    1  A    between atoms: N1_2  and  C2_3 
REMARK    2  A    between atoms: N1_2  and  C9_11 
REMARK    3  A    between atoms: C2_3  and  C3_4 
REMARK    4  A    between atoms: C9_11  and  O1_12 
REMARK    5  A    between atoms: C9_11  and  C10_14 
REMARK    6  A    between atoms: C13_17  and  C14_18 
REMARK    7  A    between atoms: C14_18  and  C15_19 
REMARK    8  A    between atoms: C23_31  and  O2_32 
ROOT
HETATM    1  C10 UNL     1      -0.514  34.047  23.501  1.00  0.00     0.049 A 
HETATM    2  C11 UNL     1       0.738  33.795  24.003  1.00  0.00     0.034 A 
HETATM    3  C12 UNL     1       0.971  33.095  25.190  1.00  0.00     0.017 A 
HETATM    4  C13 UNL     1       2.121  32.727  25.856  1.00  0.00     0.042 A 
HETATM    5  N2  UNL     1       1.699  32.057  26.940  1.00  0.00    -0.303 N 
ATOM      6  H2  UNL     1       2.316  31.648  27.643  1.00  0.00     0.186 HD
HETATM    7  N3  UNL     1       0.384  31.995  26.978  1.00  0.00    -0.300 N 
ATOM      8  H3  UNL     1      -0.171  31.540  27.703  1.00  0.00     0.187 HD
HETATM    9  C21 UNL     1      -0.114  32.643  25.882  1.00  0.00     0.063 A 
HETATM   10  C22 UNL     1      -1.374  32.859  25.441  1.00  0.00     0.069 A 
HETATM   11  C23 UNL     1      -1.605  33.571  24.232  1.00  0.00     0.082 A 
ENDROOT
BRANCH   1  12
HETATM   12  C9  UNL     1      -0.727  34.841  22.318  1.00  0.00     0.151 C 
BRANCH  12  13
HETATM   13  N1  UNL     1      -0.376  36.158  22.016  1.00  0.00    -0.361 N 
HETATM   14  C1  UNL     1      -0.141  36.679  20.707  1.00  0.00     0.152 C 
BRANCH  13  15
HETATM   15  C2  UNL     1      -0.183  37.145  23.107  1.00  0.00     0.162 C 
BRANCH  15  16
HETATM   16  C3  UNL     1       1.130  37.121  23.714  1.00  0.00    -0.040 A 
HETATM   17  C4  UNL     1       2.295  36.945  23.012  1.00  0.00     0.010 A 
HETATM   18  C5  UNL     1       3.555  36.911  23.614  1.00  0.00     0.024 A 
HETATM   19  C6  UNL     1       3.649  37.063  24.987  1.00  0.00     0.034 A 
HETATM   20 CL1  UNL     1       5.207  37.024  25.803  1.00  0.00    -0.084 Cl
HETATM   21  C7  UNL     1       2.486  37.243  25.726  1.00  0.00     0.024 A 
HETATM   22  C8  UNL     1       1.271  37.271  25.103  1.00  0.00     0.010 A 
ENDBRANCH  15  16
ENDBRANCH  13  15
ENDBRANCH  12  13
BRANCH  12  23
HETATM   23  O1  UNL     1      -1.356  34.254  21.332  1.00  0.00    -0.345 OA
ATOM     24  H1  UNL     1      -2.113  34.749  21.040  1.00  0.00     0.219 HD
ENDBRANCH  12  23
ENDBRANCH   1  12
BRANCH  11  25
HETATM   25  O2  UNL     1      -2.879  33.756  23.829  1.00  0.00    -0.360 OA
ATOM     26  H2  UNL     1      -3.622  33.452  24.338  1.00  0.00     0.217 HD
ENDBRANCH  11  25
BRANCH   4  27
HETATM   27  C14 UNL     1       3.522  33.064  25.426  1.00  0.00     0.098 C 
BRANCH  27  28
HETATM   28  C15 UNL     1       4.152  31.737  25.094  1.00  0.00    -0.052 A 
HETATM   29  C16 UNL     1       5.525  31.602  25.205  1.00  0.00     0.007 A 
HETATM   30  C17 UNL     1       6.098  30.379  24.878  1.00  0.00     0.001 A 
HETATM   31  C18 UNL     1       5.342  29.316  24.456  1.00  0.00     0.000 A 
HETATM   32  C19 UNL     1       3.974  29.450  24.348  1.00  0.00     0.001 A 
HETATM   33  C20 UNL     1       3.373  30.681  24.673  1.00  0.00     0.007 A 
ENDBRANCH  27  28
ENDBRANCH   4  27
TORSDOF 8
ENDMDL
