MODEL 2
REMARK VINA RESULT: -9.456351627      2.541      6.291
REMARK  8 active torsions:
REMARK  status: ('A' for Active; 'I' for Inactive)
REMARK    1  A    between atoms: N1_2  and  C2_3 
REMARK    2  A    between atoms: N1_2  and  C9_11 
REMARK    3  A    between atoms: C2_3  and  C3_4 
REMARK    4  A    between atoms: C9_11  and  O1_12 
REMARK    5  A    between atoms: C9_11  and  C10_14 
REMARK    6  A    between atoms: C13_17  and  C14_18 
REMARK    7  A    between atoms: C14_18  and  C15_19 
REMARK    8  A    between atoms: C23_31  and  O2_32 
ROOT
HETATM    1  C10 UNL     1       5.967  34.526  25.466  1.00  0.00     0.049 A 
HETATM    2  C11 UNL     1       6.285  33.646  24.463  1.00  0.00     0.034 A 
HETATM    3  C12 UNL     1       7.591  33.242  24.170  1.00  0.00     0.017 A 
HETATM    4  C13 UNL     1       8.122  32.378  23.236  1.00  0.00     0.042 A 
HETATM    5  N2  UNL     1       9.446  32.394  23.457  1.00  0.00    -0.303 N 
ATOM      6  H2  UNL     1      10.126  31.851  22.925  1.00  0.00     0.186 HD
HETATM    7  N3  UNL     1       9.752  33.203  24.451  1.00  0.00    -0.300 N 
ATOM      8  H3  UNL     1      10.691  33.384  24.804  1.00  0.00     0.187 HD
HETATM    9  C21 UNL     1       8.598  33.759  24.930  1.00  0.00     0.063 A 
HETATM   10  C22 UNL     1       8.352  34.631  25.932  1.00  0.00     0.069 A 
HETATM   11  C23 UNL     1       7.021  35.038  26.226  1.00  0.00     0.082 A 
ENDROOT
BRANCH   1  12
HETATM   12  C9  UNL     1       4.621  34.988  25.693  1.00  0.00     0.151 C 
BRANCH  12  13
HETATM   13  N1  UNL     1       3.620  35.383  24.804  1.00  0.00    -0.361 N 
HETATM   14  C1  UNL     1       3.146  36.717  24.620  1.00  0.00     0.152 C 
BRANCH  13  15
HETATM   15  C2  UNL     1       2.925  34.371  23.969  1.00  0.00     0.162 C 
BRANCH  15  16
HETATM   16  C3  UNL     1       1.766  33.771  24.593  1.00  0.00    -0.040 A 
HETATM   17  C4  UNL     1       1.831  32.751  25.508  1.00  0.00     0.010 A 
HETATM   18  C5  UNL     1       0.701  32.174  26.093  1.00  0.00     0.024 A 
HETATM   19  C6  UNL     1      -0.553  32.645  25.743  1.00  0.00     0.034 A 
HETATM   20 CL1  UNL     1      -2.012  31.954  26.442  1.00  0.00    -0.084 Cl
HETATM   21  C7  UNL     1      -0.651  33.677  24.819  1.00  0.00     0.024 A 
HETATM   22  C8  UNL     1       0.475  34.217  24.267  1.00  0.00     0.010 A 
ENDBRANCH  15  16
ENDBRANCH  13  15
ENDBRANCH  12  13
BRANCH  12  23
HETATM   23  O1  UNL     1       4.235  35.058  26.941  1.00  0.00    -0.345 OA
ATOM     24  H1  UNL     1       4.849  35.540  27.483  1.00  0.00     0.219 HD
ENDBRANCH  12  23
ENDBRANCH   1  12
BRANCH  11  25
HETATM   25  O2  UNL     1       6.824  35.906  27.241  1.00  0.00    -0.360 OA
ATOM     26  H2  UNL     1       6.930  35.656  28.152  1.00  0.00     0.217 HD
ENDBRANCH  11  25
BRANCH   4  27
HETATM   27  C14 UNL     1       7.335  31.630  22.195  1.00  0.00     0.098 C 
BRANCH  27  28
HETATM   28  C15 UNL     1       6.283  30.884  22.971  1.00  0.00    -0.052 A 
HETATM   29  C16 UNL     1       4.966  30.952  22.548  1.00  0.00     0.007 A 
HETATM   30  C17 UNL     1       4.000  30.275  23.282  1.00  0.00     0.001 A 
HETATM   31  C18 UNL     1       4.318  29.549  24.400  1.00  0.00     0.000 A 
HETATM   32  C19 UNL     1       5.629  29.479  24.820  1.00  0.00     0.001 A 
HETATM   33  C20 UNL     1       6.624  30.158  24.092  1.00  0.00     0.007 A 
ENDBRANCH  27  28
ENDBRANCH   4  27
TORSDOF 8
ENDMDL
