MODEL 20
REMARK VINA RESULT: -8.671883714      2.904      5.674
REMARK  8 active torsions:
REMARK  status: ('A' for Active; 'I' for Inactive)
REMARK    1  A    between atoms: N1_2  and  C2_3 
REMARK    2  A    between atoms: N1_2  and  C9_11 
REMARK    3  A    between atoms: C2_3  and  C3_4 
REMARK    4  A    between atoms: C9_11  and  O1_12 
REMARK    5  A    between atoms: C9_11  and  C10_14 
REMARK    6  A    between atoms: C13_17  and  C14_18 
REMARK    7  A    between atoms: C14_18  and  C15_19 
REMARK    8  A    between atoms: C23_31  and  O2_32 
ROOT
HETATM    1  C10 UNL     1       0.401  35.022  24.266  1.00  0.00     0.049 A 
HETATM    2  C11 UNL     1       1.497  34.323  24.706  1.00  0.00     0.034 A 
HETATM    3  C12 UNL     1       1.426  33.052  25.285  1.00  0.00     0.017 A 
HETATM    4  C13 UNL     1       2.380  32.186  25.773  1.00  0.00     0.042 A 
HETATM    5  N2  UNL     1       1.696  31.109  26.190  1.00  0.00    -0.303 N 
ATOM      6  H2  UNL     1       2.121  30.280  26.606  1.00  0.00     0.186 HD
HETATM    7  N3  UNL     1       0.402  31.262  25.991  1.00  0.00    -0.300 N 
ATOM      8  H3  UNL     1      -0.321  30.583  26.226  1.00  0.00     0.187 HD
HETATM    9  C21 UNL     1       0.193  32.485  25.416  1.00  0.00     0.063 A 
HETATM   10  C22 UNL     1      -0.926  33.121  25.003  1.00  0.00     0.069 A 
HETATM   11  C23 UNL     1      -0.848  34.413  24.415  1.00  0.00     0.082 A 
ENDROOT
BRANCH   1  12
HETATM   12  C9  UNL     1       0.495  36.363  23.749  1.00  0.00     0.151 C 
BRANCH  12  13
HETATM   13  N1  UNL     1       1.449  36.972  22.933  1.00  0.00    -0.361 N 
HETATM   14  C1  UNL     1       1.573  36.801  21.521  1.00  0.00     0.152 C 
BRANCH  13  15
HETATM   15  C2  UNL     1       2.476  37.865  23.529  1.00  0.00     0.162 C 
BRANCH  15  16
HETATM   16  C3  UNL     1       3.385  37.208  24.442  1.00  0.00    -0.040 A 
HETATM   17  C4  UNL     1       3.371  37.393  25.801  1.00  0.00     0.010 A 
HETATM   18  C5  UNL     1       4.265  36.761  26.670  1.00  0.00     0.024 A 
HETATM   19  C6  UNL     1       5.216  35.902  26.148  1.00  0.00     0.034 A 
HETATM   20 CL1  UNL     1       6.371  35.081  27.190  1.00  0.00    -0.084 Cl
HETATM   21  C7  UNL     1       5.255  35.694  24.775  1.00  0.00     0.024 A 
HETATM   22  C8  UNL     1       4.366  36.329  23.956  1.00  0.00     0.010 A 
ENDBRANCH  15  16
ENDBRANCH  13  15
ENDBRANCH  12  13
BRANCH  12  23
HETATM   23  O1  UNL     1      -0.472  37.180  24.080  1.00  0.00    -0.345 OA
ATOM     24  H1  UNL     1      -1.200  37.144  23.471  1.00  0.00     0.219 HD
ENDBRANCH  12  23
ENDBRANCH   1  12
BRANCH  11  25
HETATM   25  O2  UNL     1      -1.992  35.006  24.012  1.00  0.00    -0.360 OA
ATOM     26  H2  UNL     1      -2.628  35.353  24.626  1.00  0.00     0.217 HD
ENDBRANCH  11  25
BRANCH   4  27
HETATM   27  C14 UNL     1       3.858  32.460  25.832  1.00  0.00     0.098 C 
BRANCH  27  28
HETATM   28  C15 UNL     1       4.450  31.603  24.745  1.00  0.00    -0.052 A 
HETATM   29  C16 UNL     1       4.617  30.248  24.978  1.00  0.00     0.007 A 
HETATM   30  C17 UNL     1       5.182  29.469  23.975  1.00  0.00     0.001 A 
HETATM   31  C18 UNL     1       5.571  30.005  22.775  1.00  0.00     0.000 A 
HETATM   32  C19 UNL     1       5.402  31.354  22.542  1.00  0.00     0.001 A 
HETATM   33  C20 UNL     1       4.833  32.162  23.545  1.00  0.00     0.007 A 
ENDBRANCH  27  28
ENDBRANCH   4  27
TORSDOF 8
ENDMDL
