MODEL 5
REMARK VINA RESULT: -9.249639127      2.275      6.116
REMARK  8 active torsions:
REMARK  status: ('A' for Active; 'I' for Inactive)
REMARK    1  A    between atoms: N1_2  and  C2_3 
REMARK    2  A    between atoms: N1_2  and  C9_11 
REMARK    3  A    between atoms: C2_3  and  C3_4 
REMARK    4  A    between atoms: C9_11  and  O1_12 
REMARK    5  A    between atoms: C9_11  and  C10_14 
REMARK    6  A    between atoms: C13_17  and  C14_18 
REMARK    7  A    between atoms: C14_18  and  C15_19 
REMARK    8  A    between atoms: C23_31  and  O2_32 
ROOT
HETATM    1  C10 UNL     1       3.978  35.270  24.698  1.00  0.00     0.049 A 
HETATM    2  C11 UNL     1       4.879  34.357  24.209  1.00  0.00     0.034 A 
HETATM    3  C12 UNL     1       6.027  33.954  24.898  1.00  0.00     0.017 A 
HETATM    4  C13 UNL     1       7.036  33.062  24.606  1.00  0.00     0.042 A 
HETATM    5  N2  UNL     1       7.855  33.099  25.669  1.00  0.00    -0.303 N 
ATOM      6  H2  UNL     1       8.706  32.543  25.762  1.00  0.00     0.186 HD
HETATM    7  N3  UNL     1       7.416  33.945  26.578  1.00  0.00    -0.300 N 
ATOM      8  H3  UNL     1       7.866  34.148  27.470  1.00  0.00     0.187 HD
HETATM    9  C21 UNL     1       6.255  34.507  26.124  1.00  0.00     0.063 A 
HETATM   10  C22 UNL     1       5.407  35.413  26.661  1.00  0.00     0.069 A 
HETATM   11  C23 UNL     1       4.240  35.818  25.955  1.00  0.00     0.082 A 
ENDROOT
BRANCH   1  12
HETATM   12  C9  UNL     1       2.847  35.727  23.931  1.00  0.00     0.151 C 
BRANCH  12  13
HETATM   13  N1  UNL     1       1.476  35.532  24.104  1.00  0.00    -0.361 N 
HETATM   14  C1  UNL     1       0.567  36.465  24.689  1.00  0.00     0.152 C 
BRANCH  13  15
HETATM   15  C2  UNL     1       0.849  34.251  23.691  1.00  0.00     0.162 C 
BRANCH  15  16
HETATM   16  C3  UNL     1       0.215  33.519  24.766  1.00  0.00    -0.040 A 
HETATM   17  C4  UNL     1       0.898  32.778  25.696  1.00  0.00     0.010 A 
HETATM   18  C5  UNL     1       0.270  32.067  26.721  1.00  0.00     0.024 A 
HETATM   19  C6  UNL     1      -1.110  32.104  26.818  1.00  0.00     0.034 A 
HETATM   20 CL1  UNL     1      -1.958  31.225  28.084  1.00  0.00    -0.084 Cl
HETATM   21  C7  UNL     1      -1.831  32.846  25.891  1.00  0.00     0.024 A 
HETATM   22  C8  UNL     1      -1.183  33.529  24.902  1.00  0.00     0.010 A 
ENDBRANCH  15  16
ENDBRANCH  13  15
ENDBRANCH  12  13
BRANCH  12  23
HETATM   23  O1  UNL     1       3.118  36.462  22.882  1.00  0.00    -0.345 OA
ATOM     24  H1  UNL     1       2.883  37.373  23.010  1.00  0.00     0.219 HD
ENDBRANCH  12  23
ENDBRANCH   1  12
BRANCH  11  25
HETATM   25  O2  UNL     1       3.420  36.720  26.535  1.00  0.00    -0.360 OA
ATOM     26  H2  UNL     1       3.748  37.484  26.995  1.00  0.00     0.217 HD
ENDBRANCH  11  25
BRANCH   4  27
HETATM   27  C14 UNL     1       7.157  32.271  23.333  1.00  0.00     0.098 C 
BRANCH  27  28
HETATM   28  C15 UNL     1       6.186  31.131  23.496  1.00  0.00    -0.052 A 
HETATM   29  C16 UNL     1       5.253  30.900  22.499  1.00  0.00     0.007 A 
HETATM   30  C17 UNL     1       4.350  29.858  22.667  1.00  0.00     0.001 A 
HETATM   31  C18 UNL     1       4.362  29.063  23.784  1.00  0.00     0.000 A 
HETATM   32  C19 UNL     1       5.292  29.292  24.775  1.00  0.00     0.001 A 
HETATM   33  C20 UNL     1       6.216  30.343  24.625  1.00  0.00     0.007 A 
ENDBRANCH  27  28
ENDBRANCH   4  27
TORSDOF 8
ENDMDL
