MODEL 1
REMARK VINA RESULT: -9.939221823      0.000      0.000
REMARK  8 active torsions:
REMARK  status: ('A' for Active; 'I' for Inactive)
REMARK    1  A    between atoms: N1_2  and  C2_3 
REMARK    2  A    between atoms: N1_2  and  C9_11 
REMARK    3  A    between atoms: C2_3  and  C3_4 
REMARK    4  A    between atoms: C9_11  and  O1_12 
REMARK    5  A    between atoms: C9_11  and  C10_14 
REMARK    6  A    between atoms: C13_17  and  C14_18 
REMARK    7  A    between atoms: C14_18  and  C15_19 
REMARK    8  A    between atoms: C23_31  and  O2_32 
ROOT
HETATM    1  C10 UNL     1       3.464  36.356  25.846  1.00  0.00     0.049 A 
HETATM    2  C11 UNL     1       2.619  35.429  25.290  1.00  0.00     0.034 A 
HETATM    3  C12 UNL     1       1.353  35.738  24.783  1.00  0.00     0.017 A 
HETATM    4  C13 UNL     1       0.369  34.983  24.183  1.00  0.00     0.042 A 
HETATM    5  N2  UNL     1      -0.617  35.850  23.902  1.00  0.00    -0.303 N 
ATOM      6  H2  UNL     1      -1.495  35.598  23.449  1.00  0.00     0.186 HD
HETATM    7  N3  UNL     1      -0.301  37.069  24.289  1.00  0.00    -0.300 N 
ATOM      8  H3  UNL     1      -0.887  37.897  24.185  1.00  0.00     0.187 HD
HETATM    9  C21 UNL     1       0.944  37.038  24.852  1.00  0.00     0.063 A 
HETATM   10  C22 UNL     1       1.729  37.999  25.389  1.00  0.00     0.069 A 
HETATM   11  C23 UNL     1       3.016  37.678  25.903  1.00  0.00     0.082 A 
ENDROOT
BRANCH   1  12
HETATM   12  C9  UNL     1       4.728  35.996  26.435  1.00  0.00     0.151 C 
BRANCH  12  13
HETATM   13  N1  UNL     1       5.859  35.386  25.889  1.00  0.00    -0.361 N 
HETATM   14  C1  UNL     1       6.531  35.790  24.696  1.00  0.00     0.152 C 
BRANCH  13  15
HETATM   15  C2  UNL     1       6.446  34.189  26.542  1.00  0.00     0.162 C 
BRANCH  15  16
HETATM   16  C3  UNL     1       6.074  32.930  25.933  1.00  0.00    -0.040 A 
HETATM   17  C4  UNL     1       6.976  31.977  25.534  1.00  0.00     0.010 A 
HETATM   18  C5  UNL     1       6.603  30.771  24.936  1.00  0.00     0.024 A 
HETATM   19  C6  UNL     1       5.259  30.510  24.732  1.00  0.00     0.034 A 
HETATM   20 CL1  UNL     1       4.727  29.012  23.979  1.00  0.00    -0.084 Cl
HETATM   21  C7  UNL     1       4.321  31.456  25.126  1.00  0.00     0.024 A 
HETATM   22  C8  UNL     1       4.723  32.624  25.707  1.00  0.00     0.010 A 
ENDBRANCH  15  16
ENDBRANCH  13  15
ENDBRANCH  12  13
BRANCH  12  23
HETATM   23  O1  UNL     1       4.878  36.280  27.703  1.00  0.00    -0.345 OA
ATOM     24  H1  UNL     1       4.357  37.027  27.971  1.00  0.00     0.219 HD
ENDBRANCH  12  23
ENDBRANCH   1  12
BRANCH  11  25
HETATM   25  O2  UNL     1       3.765  38.673  26.423  1.00  0.00    -0.360 OA
ATOM     26  H2  UNL     1       3.965  39.466  25.939  1.00  0.00     0.217 HD
ENDBRANCH  11  25
BRANCH   4  27
HETATM   27  C14 UNL     1       0.431  33.498  23.951  1.00  0.00     0.098 C 
BRANCH  27  28
HETATM   28  C15 UNL     1      -0.056  32.887  25.238  1.00  0.00    -0.052 A 
HETATM   29  C16 UNL     1      -1.411  32.916  25.522  1.00  0.00     0.007 A 
HETATM   30  C17 UNL     1      -1.848  32.367  26.721  1.00  0.00     0.001 A 
HETATM   31  C18 UNL     1      -0.978  31.802  27.617  1.00  0.00     0.000 A 
HETATM   32  C19 UNL     1       0.371  31.771  27.334  1.00  0.00     0.001 A 
HETATM   33  C20 UNL     1       0.835  32.324  26.125  1.00  0.00     0.007 A 
ENDBRANCH  27  28
ENDBRANCH   4  27
TORSDOF 8
ENDMDL
