MODEL 2
REMARK VINA RESULT: -10.019811684      3.125      4.615
REMARK  6 active torsions:
REMARK  status: ('A' for Active; 'I' for Inactive)
REMARK    1  A    between atoms: C6_6  and  C7_7 
REMARK    2  A    between atoms: C7_7  and  C8_8 
REMARK    3  A    between atoms: C11_15  and  O1_16 
REMARK    4  A    between atoms: C12_18  and  C13_19 
REMARK       I    between atoms: C13_19  and  N3_21 
REMARK    5  A    between atoms: N3_21  and  C15_23 
REMARK    6  A    between atoms: C15_23  and  C16_24 
ROOT
HETATM    1  C8  UNL     1      74.059  33.545  25.581  1.00  0.00     0.042 A 
HETATM    2  N1  UNL     1      74.986  33.249  26.509  1.00  0.00    -0.303 N 
ATOM      3  H1  UNL     1      75.717  32.546  26.398  1.00  0.00     0.186 HD
HETATM    4  N2  UNL     1      74.819  33.990  27.579  1.00  0.00    -0.300 N 
ATOM      5  H2  UNL     1      75.396  33.950  28.419  1.00  0.00     0.187 HD
HETATM    6  C9  UNL     1      73.761  34.815  27.397  1.00  0.00     0.063 A 
HETATM    7  C10 UNL     1      73.158  35.777  28.175  1.00  0.00     0.069 A 
HETATM    8  C11 UNL     1      72.082  36.438  27.663  1.00  0.00     0.083 A 
HETATM    9  C12 UNL     1      71.539  36.203  26.381  1.00  0.00     0.066 A 
HETATM   10  C22 UNL     1      72.177  35.234  25.647  1.00  0.00     0.035 A 
HETATM   11  C23 UNL     1      73.275  34.543  26.136  1.00  0.00     0.017 A 
ENDROOT
BRANCH   9  12
HETATM   12  C13 UNL     1      70.397  36.925  25.943  1.00  0.00     0.256 C 
HETATM   13  O2  UNL     1      70.516  38.219  25.965  1.00  0.00    -0.267 OA
HETATM   14  N3  UNL     1      69.159  36.479  25.487  1.00  0.00    -0.348 N 
HETATM   15  C14 UNL     1      68.715  35.121  25.316  1.00  0.00     0.153 C 
BRANCH  14  16
HETATM   16  C15 UNL     1      68.129  37.507  25.136  1.00  0.00     0.164 C 
BRANCH  16  17
HETATM   17  C16 UNL     1      68.023  37.584  23.659  1.00  0.00    -0.040 A 
HETATM   18  C17 UNL     1      66.962  37.072  22.971  1.00  0.00     0.010 A 
HETATM   19  C18 UNL     1      66.885  37.154  21.579  1.00  0.00     0.024 A 
HETATM   20  C19 UNL     1      67.876  37.756  20.836  1.00  0.00     0.034 A 
HETATM   21 CL1  UNL     1      67.808  37.874  19.092  1.00  0.00    -0.084 Cl
HETATM   22  C20 UNL     1      68.940  38.269  21.532  1.00  0.00     0.024 A 
HETATM   23  C21 UNL     1      69.030  38.195  22.906  1.00  0.00     0.010 A 
ENDBRANCH  16  17
ENDBRANCH  14  16
ENDBRANCH   9  12
BRANCH   8  24
HETATM   24  O1  UNL     1      71.450  37.414  28.421  1.00  0.00    -0.360 OA
ATOM     25  H1  UNL     1      70.681  37.189  28.932  1.00  0.00     0.217 HD
ENDBRANCH   8  24
BRANCH   1  26
HETATM   26  C7  UNL     1      73.895  32.932  24.218  1.00  0.00     0.098 C 
BRANCH  26  27
HETATM   27  C6  UNL     1      72.994  31.763  24.366  1.00  0.00    -0.052 A 
HETATM   28  C5  UNL     1      73.470  30.492  24.052  1.00  0.00     0.007 A 
HETATM   29  C4  UNL     1      72.669  29.376  24.173  1.00  0.00     0.001 A 
HETATM   30  C3  UNL     1      71.372  29.522  24.614  1.00  0.00     0.007 A 
HETATM   31  C2  UNL     1      70.850  30.773  24.939  1.00  0.00    -0.061 A 
HETATM   32  C1  UNL     1      69.441  30.911  25.415  1.00  0.00     0.048 C 
HETATM   33  C24 UNL     1      71.695  31.851  24.799  1.00  0.00     0.014 A 
ENDBRANCH  26  27
ENDBRANCH   1  26
TORSDOF 6
ENDMDL
