MODEL 4
REMARK VINA RESULT: -9.921069255      3.070      4.541
REMARK  6 active torsions:
REMARK  status: ('A' for Active; 'I' for Inactive)
REMARK    1  A    between atoms: C6_6  and  C7_7 
REMARK    2  A    between atoms: C7_7  and  C8_8 
REMARK    3  A    between atoms: C11_15  and  O1_16 
REMARK    4  A    between atoms: C12_18  and  C13_19 
REMARK       I    between atoms: C13_19  and  N3_21 
REMARK    5  A    between atoms: N3_21  and  C15_23 
REMARK    6  A    between atoms: C15_23  and  C16_24 
ROOT
HETATM    1  C8  UNL     1      74.244  33.433  24.962  1.00  0.00     0.042 A 
HETATM    2  N1  UNL     1      75.358  33.402  25.715  1.00  0.00    -0.303 N 
ATOM      3  H1  UNL     1      76.178  32.829  25.516  1.00  0.00     0.186 HD
HETATM    4  N2  UNL     1      75.244  34.212  26.740  1.00  0.00    -0.300 N 
ATOM      5  H2  UNL     1      75.956  34.362  27.454  1.00  0.00     0.187 HD
HETATM    6  C9  UNL     1      74.033  34.818  26.705  1.00  0.00     0.063 A 
HETATM    7  C10 UNL     1      73.404  35.738  27.514  1.00  0.00     0.069 A 
HETATM    8  C11 UNL     1      72.149  36.143  27.172  1.00  0.00     0.083 A 
HETATM    9  C12 UNL     1      71.445  35.683  26.038  1.00  0.00     0.066 A 
HETATM   10  C22 UNL     1      72.116  34.767  25.266  1.00  0.00     0.035 A 
HETATM   11  C23 UNL     1      73.395  34.333  25.585  1.00  0.00     0.017 A 
ENDROOT
BRANCH   9  12
HETATM   12  C13 UNL     1      70.127  36.146  25.776  1.00  0.00     0.256 C 
HETATM   13  O2  UNL     1      69.189  35.255  25.903  1.00  0.00    -0.267 OA
HETATM   14  N3  UNL     1      69.664  37.405  25.403  1.00  0.00    -0.348 N 
HETATM   15  C14 UNL     1      70.429  38.608  25.205  1.00  0.00     0.153 C 
BRANCH  14  16
HETATM   16  C15 UNL     1      68.197  37.567  25.154  1.00  0.00     0.164 C 
BRANCH  16  17
HETATM   17  C16 UNL     1      67.991  37.848  23.712  1.00  0.00    -0.040 A 
HETATM   18  C17 UNL     1      67.237  38.896  23.268  1.00  0.00     0.010 A 
HETATM   19  C18 UNL     1      67.056  39.140  21.906  1.00  0.00     0.024 A 
HETATM   20  C19 UNL     1      67.629  38.335  20.946  1.00  0.00     0.034 A 
HETATM   21 CL1  UNL     1      67.420  38.616  19.232  1.00  0.00    -0.084 Cl
HETATM   22  C20 UNL     1      68.386  37.285  21.397  1.00  0.00     0.024 A 
HETATM   23  C21 UNL     1      68.574  37.031  22.739  1.00  0.00     0.010 A 
ENDBRANCH  16  17
ENDBRANCH  14  16
ENDBRANCH   9  12
BRANCH   8  24
HETATM   24  O1  UNL     1      71.485  37.070  27.964  1.00  0.00    -0.360 OA
ATOM     25  H1  UNL     1      70.813  36.777  28.569  1.00  0.00     0.217 HD
ENDBRANCH   8  24
BRANCH   1  26
HETATM   26  C7  UNL     1      73.964  32.660  23.704  1.00  0.00     0.098 C 
BRANCH  26  27
HETATM   27  C6  UNL     1      73.013  31.577  24.054  1.00  0.00    -0.052 A 
HETATM   28  C5  UNL     1      73.452  30.255  24.047  1.00  0.00     0.007 A 
HETATM   29  C4  UNL     1      72.605  29.216  24.366  1.00  0.00     0.001 A 
HETATM   30  C3  UNL     1      71.297  29.490  24.698  1.00  0.00     0.007 A 
HETATM   31  C2  UNL     1      70.809  30.796  24.718  1.00  0.00    -0.061 A 
HETATM   32  C1  UNL     1      69.387  31.073  25.080  1.00  0.00     0.048 C 
HETATM   33  C24 UNL     1      71.700  31.793  24.392  1.00  0.00     0.014 A 
ENDBRANCH  26  27
ENDBRANCH   1  26
TORSDOF 6
ENDMDL
