MODEL 3
REMARK VINA RESULT: -9.967390435      3.954      5.965
REMARK  6 active torsions:
REMARK  status: ('A' for Active; 'I' for Inactive)
REMARK    1  A    between atoms: C6_6  and  C7_7 
REMARK    2  A    between atoms: C7_7  and  C8_8 
REMARK    3  A    between atoms: C11_15  and  O1_16 
REMARK    4  A    between atoms: C12_18  and  C13_19 
REMARK       I    between atoms: C13_19  and  N3_21 
REMARK    5  A    between atoms: N3_21  and  C15_23 
REMARK    6  A    between atoms: C15_23  and  C16_24 
ROOT
HETATM    1  C8  UNL     1      74.744  34.671  26.212  1.00  0.00     0.042 A 
HETATM    2  N1  UNL     1      75.894  35.344  26.398  1.00  0.00    -0.303 N 
ATOM      3  H1  UNL     1      76.719  34.967  26.864  1.00  0.00     0.186 HD
HETATM    4  N2  UNL     1      75.807  36.552  25.894  1.00  0.00    -0.300 N 
ATOM      5  H2  UNL     1      76.549  37.252  25.911  1.00  0.00     0.187 HD
HETATM    6  C9  UNL     1      74.580  36.728  25.349  1.00  0.00     0.063 A 
HETATM    7  C10 UNL     1      73.966  37.777  24.703  1.00  0.00     0.069 A 
HETATM    8  C11 UNL     1      72.685  37.605  24.271  1.00  0.00     0.083 A 
HETATM    9  C12 UNL     1      71.940  36.419  24.441  1.00  0.00     0.066 A 
HETATM   10  C22 UNL     1      72.598  35.405  25.092  1.00  0.00     0.035 A 
HETATM   11  C23 UNL     1      73.902  35.545  25.544  1.00  0.00     0.017 A 
ENDROOT
BRANCH   9  12
HETATM   12  C13 UNL     1      70.599  36.342  23.977  1.00  0.00     0.256 C 
HETATM   13  O2  UNL     1      70.445  35.800  22.806  1.00  0.00    -0.267 OA
HETATM   14  N3  UNL     1      69.408  36.752  24.571  1.00  0.00    -0.348 N 
HETATM   15  C14 UNL     1      69.224  37.359  25.863  1.00  0.00     0.153 C 
BRANCH  14  16
HETATM   16  C15 UNL     1      68.139  36.572  23.796  1.00  0.00     0.164 C 
BRANCH  16  17
HETATM   17  C16 UNL     1      67.387  35.435  24.379  1.00  0.00    -0.040 A 
HETATM   18  C17 UNL     1      66.041  35.283  24.214  1.00  0.00     0.010 A 
HETATM   19  C18 UNL     1      65.353  34.204  24.774  1.00  0.00     0.024 A 
HETATM   20  C19 UNL     1      66.001  33.244  25.519  1.00  0.00     0.034 A 
HETATM   21 CL1  UNL     1      65.167  31.882  26.233  1.00  0.00    -0.084 Cl
HETATM   22  C20 UNL     1      67.353  33.401  25.681  1.00  0.00     0.024 A 
HETATM   23  C21 UNL     1      68.046  34.460  25.135  1.00  0.00     0.010 A 
ENDBRANCH  16  17
ENDBRANCH  14  16
ENDBRANCH   9  12
BRANCH   8  24
HETATM   24  O1  UNL     1      72.036  38.643  23.614  1.00  0.00    -0.360 OA
ATOM     25  H1  UNL     1      71.141  38.860  23.848  1.00  0.00     0.217 HD
ENDBRANCH   8  24
BRANCH   1  26
HETATM   26  C7  UNL     1      74.424  33.265  26.634  1.00  0.00     0.098 C 
BRANCH  26  27
HETATM   27  C6  UNL     1      73.643  32.642  25.538  1.00  0.00    -0.052 A 
HETATM   28  C5  UNL     1      74.186  32.592  24.256  1.00  0.00     0.007 A 
HETATM   29  C4  UNL     1      73.497  32.024  23.206  1.00  0.00     0.001 A 
HETATM   30  C3  UNL     1      72.245  31.495  23.429  1.00  0.00     0.007 A 
HETATM   31  C2  UNL     1      71.658  31.523  24.693  1.00  0.00    -0.061 A 
HETATM   32  C1  UNL     1      70.299  30.944  24.915  1.00  0.00     0.048 C 
HETATM   33  C24 UNL     1      72.392  32.101  25.703  1.00  0.00     0.014 A 
ENDBRANCH  26  27
ENDBRANCH   1  26
TORSDOF 6
ENDMDL
