MODEL 7
REMARK VINA RESULT: -10.029023023      2.989      7.138
REMARK  7 active torsions:
REMARK  status: ('A' for Active; 'I' for Inactive)
REMARK    1  A    between atoms: C6_6  and  C7_7 
REMARK    2  A    between atoms: C7_7  and  C8_8 
REMARK    3  A    between atoms: C11_15  and  O1_16 
REMARK    4  A    between atoms: C12_18  and  C13_19 
REMARK    5  A    between atoms: C13_19  and  O2_20 
REMARK    6  A    between atoms: C13_19  and  N3_22 
REMARK    7  A    between atoms: N3_22  and  C15_24 
ROOT
HETATM    1  C8  UNL     1      67.313  36.811  24.895  1.00  0.00     0.042 A 
HETATM    2  N1  UNL     1      66.499  37.845  25.258  1.00  0.00    -0.303 N 
ATOM      3  H1  UNL     1      65.515  37.932  25.003  1.00  0.00     0.186 HD
HETATM    4  N2  UNL     1      67.171  38.716  25.985  1.00  0.00    -0.300 N 
ATOM      5  H2  UNL     1      66.791  39.577  26.378  1.00  0.00     0.187 HD
HETATM    6  C9  UNL     1      68.447  38.286  26.126  1.00  0.00     0.063 A 
HETATM    7  C10 UNL     1      69.555  38.805  26.782  1.00  0.00     0.069 A 
HETATM    8  C11 UNL     1      70.707  38.092  26.719  1.00  0.00     0.082 A 
HETATM    9  C12 UNL     1      70.860  36.871  26.041  1.00  0.00     0.049 A 
HETATM   10  C22 UNL     1      69.736  36.414  25.416  1.00  0.00     0.034 A 
HETATM   11  C23 UNL     1      68.534  37.101  25.448  1.00  0.00     0.017 A 
ENDROOT
BRANCH   9  12
HETATM   12  C13 UNL     1      72.127  36.190  26.056  1.00  0.00     0.155 C 
BRANCH  12  13
HETATM   13  O2  UNL     1      73.081  36.745  25.334  1.00  0.00    -0.345 OA
ATOM     14  H2  UNL     1      72.880  36.868  24.414  1.00  0.00     0.219 HD
ENDBRANCH  12  13
BRANCH  12  15
HETATM   15  N3  UNL     1      72.550  35.028  26.700  1.00  0.00    -0.331 N 
HETATM   16  C14 UNL     1      73.421  34.977  27.843  1.00  0.00     0.158 C 
BRANCH  15  17
HETATM   17  C15 UNL     1      72.075  33.722  26.216  1.00  0.00     0.038 A 
HETATM   18  C16 UNL     1      70.728  33.447  26.148  1.00  0.00     0.032 A 
HETATM   19  C17 UNL     1      70.296  32.218  25.689  1.00  0.00     0.042 A 
HETATM   20  C18 UNL     1      71.213  31.270  25.300  1.00  0.00     0.105 A 
HETATM   21  C19 UNL     1      72.560  31.538  25.366  1.00  0.00     0.107 A 
HETATM   22  O4  UNL     1      71.071  29.983  24.812  1.00  0.00    -0.323 OA
HETATM   23  C20 UNL     1      72.986  32.768  25.824  1.00  0.00     0.069 A 
HETATM   24  O3  UNL     1      73.266  30.403  24.911  1.00  0.00    -0.323 OA
HETATM   25  C21 UNL     1      72.327  29.479  24.385  1.00  0.00     0.352 C 
ENDBRANCH  15  17
ENDBRANCH  12  15
ENDBRANCH   9  12
BRANCH   8  26
HETATM   26  O1  UNL     1      71.824  38.593  27.368  1.00  0.00    -0.360 OA
ATOM     27  H1  UNL     1      72.053  39.504  27.228  1.00  0.00     0.217 HD
ENDBRANCH   8  26
BRANCH   1  28
HETATM   28  C7  UNL     1      66.855  35.687  24.067  1.00  0.00     0.098 C 
BRANCH  28  29
HETATM   29  C6  UNL     1      66.291  34.640  24.955  1.00  0.00    -0.052 A 
HETATM   30  C5  UNL     1      64.914  34.384  24.953  1.00  0.00     0.007 A 
HETATM   31  C4  UNL     1      64.350  33.429  25.767  1.00  0.00     0.001 A 
HETATM   32  C3  UNL     1      65.126  32.682  26.625  1.00  0.00     0.007 A 
HETATM   33  C2  UNL     1      66.482  32.912  26.648  1.00  0.00    -0.061 A 
HETATM   34  C1  UNL     1      67.358  32.128  27.560  1.00  0.00     0.048 C 
HETATM   35  C24 UNL     1      67.025  33.871  25.827  1.00  0.00     0.014 A 
ENDBRANCH  28  29
ENDBRANCH   1  28
TORSDOF 7
ENDMDL
