MODEL 3
REMARK VINA RESULT: -10.243995041      2.945      6.831
REMARK  7 active torsions:
REMARK  status: ('A' for Active; 'I' for Inactive)
REMARK    1  A    between atoms: C6_6  and  C7_7 
REMARK    2  A    between atoms: C7_7  and  C8_8 
REMARK    3  A    between atoms: C11_15  and  O1_16 
REMARK    4  A    between atoms: C12_18  and  C13_19 
REMARK    5  A    between atoms: C13_19  and  O2_20 
REMARK    6  A    between atoms: C13_19  and  N3_22 
REMARK    7  A    between atoms: N3_22  and  C15_24 
ROOT
HETATM    1  C8  UNL     1      66.909  36.713  24.452  1.00  0.00     0.042 A 
HETATM    2  N1  UNL     1      66.080  37.797  24.459  1.00  0.00    -0.303 N 
ATOM      3  H1  UNL     1      65.199  37.862  23.949  1.00  0.00     0.186 HD
HETATM    4  N2  UNL     1      66.584  38.748  25.220  1.00  0.00    -0.300 N 
ATOM      5  H2  UNL     1      66.156  39.659  25.391  1.00  0.00     0.187 HD
HETATM    6  C9  UNL     1      67.760  38.324  25.741  1.00  0.00     0.063 A 
HETATM    7  C10 UNL     1      68.686  38.911  26.591  1.00  0.00     0.069 A 
HETATM    8  C11 UNL     1      69.781  38.181  26.920  1.00  0.00     0.082 A 
HETATM    9  C12 UNL     1      70.045  36.879  26.464  1.00  0.00     0.049 A 
HETATM   10  C22 UNL     1      69.097  36.357  25.631  1.00  0.00     0.034 A 
HETATM   11  C23 UNL     1      67.960  37.058  25.262  1.00  0.00     0.017 A 
ENDROOT
BRANCH   9  12
HETATM   12  C13 UNL     1      71.232  36.189  26.892  1.00  0.00     0.155 C 
BRANCH  12  13
HETATM   13  O2  UNL     1      71.313  35.941  28.185  1.00  0.00    -0.345 OA
ATOM     14  H2  UNL     1      72.106  36.241  28.611  1.00  0.00     0.219 HD
ENDBRANCH  12  13
BRANCH  12  15
HETATM   15  N3  UNL     1      72.341  35.723  26.188  1.00  0.00    -0.331 N 
HETATM   16  C14 UNL     1      73.434  36.532  25.720  1.00  0.00     0.158 C 
BRANCH  15  17
HETATM   17  C15 UNL     1      72.454  34.286  25.891  1.00  0.00     0.038 A 
HETATM   18  C16 UNL     1      73.425  33.519  26.494  1.00  0.00     0.032 A 
HETATM   19  C17 UNL     1      73.519  32.171  26.209  1.00  0.00     0.042 A 
HETATM   20  C18 UNL     1      72.641  31.595  25.321  1.00  0.00     0.105 A 
HETATM   21  C19 UNL     1      71.668  32.355  24.714  1.00  0.00     0.107 A 
HETATM   22  O4  UNL     1      72.502  30.300  24.856  1.00  0.00    -0.323 OA
HETATM   23  C20 UNL     1      71.579  33.701  25.004  1.00  0.00     0.069 A 
HETATM   24  O3  UNL     1      70.914  31.521  23.861  1.00  0.00    -0.323 OA
HETATM   25  C21 UNL     1      71.319  30.179  24.082  1.00  0.00     0.352 C 
ENDBRANCH  15  17
ENDBRANCH  12  15
ENDBRANCH   9  12
BRANCH   8  26
HETATM   26  O1  UNL     1      70.717  38.749  27.768  1.00  0.00    -0.360 OA
ATOM     27  H1  UNL     1      71.586  38.924  27.425  1.00  0.00     0.217 HD
ENDBRANCH   8  26
BRANCH   1  28
HETATM   28  C7  UNL     1      66.625  35.494  23.682  1.00  0.00     0.098 C 
BRANCH  28  29
HETATM   29  C6  UNL     1      66.403  34.373  24.629  1.00  0.00    -0.052 A 
HETATM   30  C5  UNL     1      65.191  34.271  25.325  1.00  0.00     0.007 A 
HETATM   31  C4  UNL     1      64.950  33.253  26.217  1.00  0.00     0.001 A 
HETATM   32  C3  UNL     1      65.899  32.287  26.464  1.00  0.00     0.007 A 
HETATM   33  C2  UNL     1      67.098  32.362  25.795  1.00  0.00    -0.061 A 
HETATM   34  C1  UNL     1      68.152  31.339  26.031  1.00  0.00     0.048 C 
HETATM   35  C24 UNL     1      67.320  33.387  24.907  1.00  0.00     0.014 A 
ENDBRANCH  28  29
ENDBRANCH   1  28
TORSDOF 7
ENDMDL
