MODEL 2
REMARK VINA RESULT: -10.773847186      0.558      1.206
REMARK  7 active torsions:
REMARK  status: ('A' for Active; 'I' for Inactive)
REMARK    1  A    between atoms: C6_6  and  C7_7 
REMARK    2  A    between atoms: C7_7  and  C8_8 
REMARK    3  A    between atoms: C11_15  and  O1_16 
REMARK    4  A    between atoms: C12_18  and  C13_19 
REMARK    5  A    between atoms: C13_19  and  O2_20 
REMARK    6  A    between atoms: C13_19  and  N3_22 
REMARK    7  A    between atoms: N3_22  and  C15_24 
ROOT
HETATM    1  C8  UNL     1      68.990  33.170  26.250  1.00  0.00     0.042 A 
HETATM    2  N1  UNL     1      68.593  32.476  27.357  1.00  0.00    -0.303 N 
ATOM      3  H1  UNL     1      69.223  32.081  28.055  1.00  0.00     0.186 HD
HETATM    4  N2  UNL     1      67.278  32.391  27.390  1.00  0.00    -0.300 N 
ATOM      5  H2  UNL     1      66.734  31.922  28.115  1.00  0.00     0.187 HD
HETATM    6  C9  UNL     1      66.764  33.025  26.310  1.00  0.00     0.063 A 
HETATM    7  C10 UNL     1      65.467  33.236  25.864  1.00  0.00     0.069 A 
HETATM    8  C11 UNL     1      65.310  33.934  24.712  1.00  0.00     0.082 A 
HETATM    9  C12 UNL     1      66.361  34.456  23.940  1.00  0.00     0.049 A 
HETATM   10  C22 UNL     1      67.612  34.215  24.431  1.00  0.00     0.034 A 
HETATM   11  C23 UNL     1      67.830  33.509  25.602  1.00  0.00     0.017 A 
ENDROOT
BRANCH   9  12
HETATM   12  C13 UNL     1      66.078  35.199  22.741  1.00  0.00     0.155 C 
BRANCH  12  13
HETATM   13  O2  UNL     1      65.308  34.589  21.861  1.00  0.00    -0.345 OA
ATOM     14  H2  UNL     1      65.131  35.075  21.064  1.00  0.00     0.219 HD
ENDBRANCH  12  13
BRANCH  12  15
HETATM   15  N3  UNL     1      66.472  36.468  22.319  1.00  0.00    -0.331 N 
HETATM   16  C14 UNL     1      65.996  37.142  21.141  1.00  0.00     0.158 C 
BRANCH  15  17
HETATM   17  C15 UNL     1      67.440  37.227  23.126  1.00  0.00     0.038 A 
HETATM   18  C16 UNL     1      68.746  37.359  22.714  1.00  0.00     0.032 A 
HETATM   19  C17 UNL     1      69.644  38.077  23.480  1.00  0.00     0.042 A 
HETATM   20  C18 UNL     1      69.232  38.659  24.655  1.00  0.00     0.105 A 
HETATM   21  C19 UNL     1      67.928  38.531  25.073  1.00  0.00     0.107 A 
HETATM   22  O4  UNL     1      69.897  39.417  25.602  1.00  0.00    -0.323 OA
HETATM   23  C20 UNL     1      67.035  37.814  24.304  1.00  0.00     0.069 A 
HETATM   24  O3  UNL     1      67.779  39.220  26.297  1.00  0.00    -0.323 OA
HETATM   25  C21 UNL     1      68.977  39.938  26.549  1.00  0.00     0.352 C 
ENDBRANCH  15  17
ENDBRANCH  12  15
ENDBRANCH   9  12
BRANCH   8  26
HETATM   26  O1  UNL     1      64.024  34.155  24.249  1.00  0.00    -0.360 OA
ATOM     27  H1  UNL     1      63.797  33.839  23.383  1.00  0.00     0.217 HD
ENDBRANCH   8  26
BRANCH   1  28
HETATM   28  C7  UNL     1      70.401  33.420  25.927  1.00  0.00     0.098 C 
BRANCH  28  29
HETATM   29  C6  UNL     1      71.008  32.159  25.435  1.00  0.00    -0.052 A 
HETATM   30  C5  UNL     1      70.196  31.148  24.906  1.00  0.00     0.007 A 
HETATM   31  C4  UNL     1      70.719  29.960  24.448  1.00  0.00     0.001 A 
HETATM   32  C3  UNL     1      72.073  29.718  24.494  1.00  0.00     0.007 A 
HETATM   33  C2  UNL     1      72.895  30.693  25.009  1.00  0.00    -0.061 A 
HETATM   34  C1  UNL     1      74.365  30.473  25.078  1.00  0.00     0.048 C 
HETATM   35  C24 UNL     1      72.353  31.872  25.462  1.00  0.00     0.014 A 
ENDBRANCH  28  29
ENDBRANCH   1  28
TORSDOF 7
ENDMDL
