MODEL 1
REMARK VINA RESULT: -10.872554152      0.000      0.000
REMARK  7 active torsions:
REMARK  status: ('A' for Active; 'I' for Inactive)
REMARK    1  A    between atoms: C6_6  and  C7_7 
REMARK    2  A    between atoms: C7_7  and  C8_8 
REMARK    3  A    between atoms: C11_15  and  O1_16 
REMARK    4  A    between atoms: C12_18  and  C13_19 
REMARK    5  A    between atoms: C13_19  and  O2_20 
REMARK    6  A    between atoms: C13_19  and  N3_22 
REMARK    7  A    between atoms: N3_22  and  C15_24 
ROOT
HETATM    1  C8  UNL     1      68.994  33.165  26.256  1.00  0.00     0.042 A 
HETATM    2  N1  UNL     1      68.601  32.472  27.364  1.00  0.00    -0.303 N 
ATOM      3  H1  UNL     1      69.233  32.077  28.061  1.00  0.00     0.186 HD
HETATM    4  N2  UNL     1      67.285  32.387  27.403  1.00  0.00    -0.300 N 
ATOM      5  H2  UNL     1      66.744  31.919  28.130  1.00  0.00     0.187 HD
HETATM    6  C9  UNL     1      66.768  33.021  26.324  1.00  0.00     0.063 A 
HETATM    7  C10 UNL     1      65.469  33.233  25.883  1.00  0.00     0.069 A 
HETATM    8  C11 UNL     1      65.309  33.931  24.731  1.00  0.00     0.082 A 
HETATM    9  C12 UNL     1      66.357  34.452  23.955  1.00  0.00     0.049 A 
HETATM   10  C22 UNL     1      67.610  34.211  24.441  1.00  0.00     0.034 A 
HETATM   11  C23 UNL     1      67.832  33.504  25.612  1.00  0.00     0.017 A 
ENDROOT
BRANCH   9  12
HETATM   12  C13 UNL     1      66.070  35.194  22.756  1.00  0.00     0.155 C 
BRANCH  12  13
HETATM   13  O2  UNL     1      65.325  34.571  21.865  1.00  0.00    -0.345 OA
ATOM     14  H2  UNL     1      64.864  35.132  21.252  1.00  0.00     0.219 HD
ENDBRANCH  12  13
BRANCH  12  15
HETATM   15  N3  UNL     1      66.439  36.474  22.346  1.00  0.00    -0.331 N 
HETATM   16  C14 UNL     1      66.101  37.076  21.084  1.00  0.00     0.158 C 
BRANCH  15  17
HETATM   17  C15 UNL     1      67.224  37.324  23.254  1.00  0.00     0.038 A 
HETATM   18  C16 UNL     1      66.615  37.991  24.293  1.00  0.00     0.032 A 
HETATM   19  C17 UNL     1      67.364  38.784  25.140  1.00  0.00     0.042 A 
HETATM   20  C18 UNL     1      68.720  38.906  24.945  1.00  0.00     0.105 A 
HETATM   21  C19 UNL     1      69.335  38.243  23.909  1.00  0.00     0.107 A 
HETATM   22  O4  UNL     1      69.698  39.614  25.620  1.00  0.00    -0.323 OA
HETATM   23  C20 UNL     1      68.582  37.452  23.067  1.00  0.00     0.069 A 
HETATM   24  O3  UNL     1      70.715  38.542  23.941  1.00  0.00    -0.323 OA
HETATM   25  C21 UNL     1      70.984  39.265  25.132  1.00  0.00     0.352 C 
ENDBRANCH  15  17
ENDBRANCH  12  15
ENDBRANCH   9  12
BRANCH   8  26
HETATM   26  O1  UNL     1      64.021  34.153  24.273  1.00  0.00    -0.360 OA
ATOM     27  H1  UNL     1      63.909  34.473  23.385  1.00  0.00     0.217 HD
ENDBRANCH   8  26
BRANCH   1  28
HETATM   28  C7  UNL     1      70.404  33.414  25.928  1.00  0.00     0.098 C 
BRANCH  28  29
HETATM   29  C6  UNL     1      71.009  32.151  25.437  1.00  0.00    -0.052 A 
HETATM   30  C5  UNL     1      70.196  31.144  24.902  1.00  0.00     0.007 A 
HETATM   31  C4  UNL     1      70.717  29.956  24.444  1.00  0.00     0.001 A 
HETATM   32  C3  UNL     1      72.070  29.709  24.496  1.00  0.00     0.007 A 
HETATM   33  C2  UNL     1      72.893  30.680  25.016  1.00  0.00    -0.061 A 
HETATM   34  C1  UNL     1      74.361  30.455  25.091  1.00  0.00     0.048 C 
HETATM   35  C24 UNL     1      72.353  31.861  25.468  1.00  0.00     0.014 A 
ENDBRANCH  28  29
ENDBRANCH   1  28
TORSDOF 7
ENDMDL
