MODEL 8
REMARK VINA RESULT: -9.927649922      2.485      5.524
REMARK  7 active torsions:
REMARK  status: ('A' for Active; 'I' for Inactive)
REMARK    1  A    between atoms: C6_6  and  C7_7 
REMARK    2  A    between atoms: C7_7  and  C8_8 
REMARK    3  A    between atoms: C11_15  and  O1_16 
REMARK    4  A    between atoms: C12_18  and  C13_19 
REMARK    5  A    between atoms: C13_19  and  O2_20 
REMARK    6  A    between atoms: C13_19  and  N3_22 
REMARK    7  A    between atoms: N3_22  and  C15_24 
ROOT
HETATM    1  C8  UNL     1      69.115  31.762  25.859  1.00  0.00     0.042 A 
HETATM    2  N1  UNL     1      69.652  30.852  24.994  1.00  0.00    -0.303 N 
ATOM      3  H1  UNL     1      69.223  29.961  24.744  1.00  0.00     0.186 HD
HETATM    4  N2  UNL     1      70.805  31.293  24.531  1.00  0.00    -0.300 N 
ATOM      5  H2  UNL     1      71.404  30.799  23.869  1.00  0.00     0.187 HD
HETATM    6  C9  UNL     1      71.067  32.506  25.073  1.00  0.00     0.063 A 
HETATM    7  C10 UNL     1      72.120  33.399  24.931  1.00  0.00     0.069 A 
HETATM    8  C11 UNL     1      72.056  34.554  25.640  1.00  0.00     0.082 A 
HETATM    9  C12 UNL     1      71.006  34.911  26.503  1.00  0.00     0.049 A 
HETATM   10  C22 UNL     1      70.002  33.992  26.599  1.00  0.00     0.034 A 
HETATM   11  C23 UNL     1      70.015  32.796  25.899  1.00  0.00     0.017 A 
ENDROOT
BRANCH   9  12
HETATM   12  C13 UNL     1      71.034  36.173  27.192  1.00  0.00     0.155 C 
BRANCH  12  13
HETATM   13  O2  UNL     1      71.703  36.189  28.328  1.00  0.00    -0.345 OA
ATOM     14  H2  UNL     1      72.093  37.022  28.563  1.00  0.00     0.219 HD
ENDBRANCH  12  13
BRANCH  12  15
HETATM   15  N3  UNL     1      70.474  37.412  26.883  1.00  0.00    -0.331 N 
HETATM   16  C14 UNL     1      70.739  38.644  27.577  1.00  0.00     0.158 C 
BRANCH  15  17
HETATM   17  C15 UNL     1      69.543  37.520  25.749  1.00  0.00     0.038 A 
HETATM   18  C16 UNL     1      68.185  37.603  25.962  1.00  0.00     0.032 A 
HETATM   19  C17 UNL     1      67.322  37.707  24.889  1.00  0.00     0.042 A 
HETATM   20  C18 UNL     1      67.820  37.726  23.607  1.00  0.00     0.105 A 
HETATM   21  C19 UNL     1      69.175  37.643  23.387  1.00  0.00     0.107 A 
HETATM   22  O4  UNL     1      67.206  37.819  22.371  1.00  0.00    -0.323 OA
HETATM   23  C20 UNL     1      70.032  37.541  24.463  1.00  0.00     0.069 A 
HETATM   24  O3  UNL     1      69.407  37.686  21.995  1.00  0.00    -0.323 OA
HETATM   25  C21 UNL     1      68.178  37.981  21.350  1.00  0.00     0.352 C 
ENDBRANCH  15  17
ENDBRANCH  12  15
ENDBRANCH   9  12
BRANCH   8  26
HETATM   26  O1  UNL     1      73.097  35.459  25.513  1.00  0.00    -0.360 OA
ATOM     27  H1  UNL     1      73.299  36.017  26.254  1.00  0.00     0.217 HD
ENDBRANCH   8  26
BRANCH   1  28
HETATM   28  C7  UNL     1      67.837  31.549  26.551  1.00  0.00     0.098 C 
BRANCH  28  29
HETATM   29  C6  UNL     1      66.828  32.477  25.984  1.00  0.00    -0.052 A 
HETATM   30  C5  UNL     1      65.659  32.765  26.699  1.00  0.00     0.007 A 
HETATM   31  C4  UNL     1      64.694  33.612  26.205  1.00  0.00     0.001 A 
HETATM   32  C3  UNL     1      64.842  34.213  24.975  1.00  0.00     0.007 A 
HETATM   33  C2  UNL     1      65.981  33.948  24.250  1.00  0.00    -0.061 A 
HETATM   34  C1  UNL     1      66.182  34.576  22.917  1.00  0.00     0.048 C 
HETATM   35  C24 UNL     1      66.933  33.099  24.763  1.00  0.00     0.014 A 
ENDBRANCH  28  29
ENDBRANCH   1  28
TORSDOF 7
ENDMDL
