MODEL 4
REMARK VINA RESULT: -9.875711295      3.164      5.231
REMARK  5 active torsions:
REMARK  status: ('A' for Active; 'I' for Inactive)
REMARK    1  A    between atoms: O1_1  and  C1_3 
REMARK    2  A    between atoms: C4_10  and  C5_11 
REMARK    3  A    between atoms: C5_11  and  C6_12 
REMARK    4  A    between atoms: C14_20  and  C15_21 
REMARK    5  A    between atoms: N4_26  and  C18_27 
ROOT
HETATM    1  C1  UNL     1      65.469  34.079  24.806  1.00  0.00     0.080 A 
HETATM    2  C2  UNL     1      65.572  33.174  25.881  1.00  0.00     0.069 A 
HETATM    3  C3  UNL     1      66.789  32.726  26.312  1.00  0.00     0.063 A 
HETATM    4  N1  UNL     1      67.167  31.848  27.283  1.00  0.00    -0.300 N 
ATOM      5  H1  UNL     1      66.536  31.356  27.915  1.00  0.00     0.187 HD
HETATM    6  N2  UNL     1      68.471  31.738  27.275  1.00  0.00    -0.303 N 
ATOM      7  H2  UNL     1      69.014  31.144  27.902  1.00  0.00     0.186 HD
HETATM    8  C4  UNL     1      68.994  32.545  26.292  1.00  0.00     0.042 A 
HETATM    9  C12 UNL     1      67.946  33.173  25.676  1.00  0.00     0.017 A 
HETATM   10  C13 UNL     1      67.818  34.062  24.619  1.00  0.00     0.032 A 
HETATM   11  C14 UNL     1      66.584  34.536  24.150  1.00  0.00     0.027 A 
ENDROOT
BRANCH  11  12
HETATM   12  C15 UNL     1      66.534  35.283  22.880  1.00  0.00     0.071 A 
HETATM   13  C16 UNL     1      65.811  34.855  21.759  1.00  0.00     0.051 A 
HETATM   14  C17 UNL     1      65.899  35.807  20.762  1.00  0.00     0.110 A 
HETATM   15  N3  UNL     1      66.645  36.769  21.255  1.00  0.00    -0.304 N 
HETATM   16  N4  UNL     1      67.031  36.461  22.530  1.00  0.00    -0.256 N 
ATOM     17  H3  UNL     1      66.899  37.623  20.758  1.00  0.00     0.186 HD
BRANCH  16  18
HETATM   18  C18 UNL     1      67.829  37.346  23.309  1.00  0.00     0.057 A 
HETATM   19  C19 UNL     1      67.257  38.159  24.276  1.00  0.00     0.031 A 
HETATM   20  C20 UNL     1      67.996  38.983  25.109  1.00  0.00     0.002 A 
HETATM   21  C21 UNL     1      69.363  39.002  24.977  1.00  0.00     0.000 A 
HETATM   22  C22 UNL     1      69.965  38.213  24.031  1.00  0.00     0.002 A 
HETATM   23  C23 UNL     1      69.195  37.394  23.207  1.00  0.00     0.031 A 
ENDBRANCH  16  18
ENDBRANCH  11  12
BRANCH   1  24
HETATM   24  O1  UNL     1      64.208  34.479  24.473  1.00  0.00    -0.360 OA
ATOM     25  H1  UNL     1      63.496  34.051  24.934  1.00  0.00     0.217 HD
ENDBRANCH   1  24
BRANCH   8  26
HETATM   26  C5  UNL     1      70.426  32.711  26.018  1.00  0.00     0.098 C 
BRANCH  26  27
HETATM   27  C6  UNL     1      71.058  31.572  25.328  1.00  0.00    -0.052 A 
HETATM   28  C7  UNL     1      72.441  31.516  25.334  1.00  0.00     0.007 A 
HETATM   29  C8  UNL     1      73.121  30.486  24.723  1.00  0.00     0.001 A 
HETATM   30  C9  UNL     1      72.394  29.498  24.097  1.00  0.00     0.000 A 
HETATM   31  C10 UNL     1      71.000  29.520  24.069  1.00  0.00     0.001 A 
HETATM   32  C11 UNL     1      70.355  30.585  24.703  1.00  0.00     0.007 A 
ENDBRANCH  26  27
ENDBRANCH   8  26
TORSDOF 5
ENDMDL
