MODEL 19
REMARK VINA RESULT: -8.695692354      2.901      5.389
REMARK  5 active torsions:
REMARK  status: ('A' for Active; 'I' for Inactive)
REMARK    1  A    between atoms: O1_1  and  C1_3 
REMARK    2  A    between atoms: C4_10  and  C5_11 
REMARK    3  A    between atoms: C5_11  and  C6_12 
REMARK    4  A    between atoms: C14_20  and  C15_21 
REMARK    5  A    between atoms: N4_26  and  C18_27 
ROOT
HETATM    1  C1  UNL     1      65.741  34.062  24.919  1.00  0.00     0.080 A 
HETATM    2  C2  UNL     1      65.887  33.078  25.917  1.00  0.00     0.069 A 
HETATM    3  C3  UNL     1      67.058  32.388  26.062  1.00  0.00     0.063 A 
HETATM    4  N1  UNL     1      67.451  31.389  26.902  1.00  0.00    -0.300 N 
ATOM      5  H1  UNL     1      66.879  30.975  27.638  1.00  0.00     0.187 HD
HETATM    6  N2  UNL     1      68.679  31.046  26.612  1.00  0.00    -0.303 N 
ATOM      7  H2  UNL     1      69.216  30.321  27.088  1.00  0.00     0.186 HD
HETATM    8  C4  UNL     1      69.136  31.814  25.565  1.00  0.00     0.042 A 
HETATM    9  C12 UNL     1      68.124  32.664  25.209  1.00  0.00     0.017 A 
HETATM   10  C13 UNL     1      67.955  33.634  24.233  1.00  0.00     0.032 A 
HETATM   11  C14 UNL     1      66.766  34.355  24.055  1.00  0.00     0.027 A 
ENDROOT
BRANCH  11  12
HETATM   12  C15 UNL     1      66.601  35.189  22.849  1.00  0.00     0.071 A 
HETATM   13  C16 UNL     1      65.838  34.802  21.740  1.00  0.00     0.051 A 
HETATM   14  C17 UNL     1      65.817  35.828  20.814  1.00  0.00     0.110 A 
HETATM   15  N3  UNL     1      66.537  36.793  21.338  1.00  0.00    -0.304 N 
HETATM   16  N4  UNL     1      67.012  36.416  22.563  1.00  0.00    -0.256 N 
ATOM     17  H3  UNL     1      66.715  37.694  20.894  1.00  0.00     0.186 HD
BRANCH  16  18
HETATM   18  C18 UNL     1      67.806  37.287  23.362  1.00  0.00     0.057 A 
HETATM   19  C19 UNL     1      67.271  37.922  24.473  1.00  0.00     0.031 A 
HETATM   20  C20 UNL     1      68.018  38.721  25.324  1.00  0.00     0.002 A 
HETATM   21  C21 UNL     1      69.354  38.898  25.062  1.00  0.00     0.000 A 
HETATM   22  C22 UNL     1      69.919  38.287  23.972  1.00  0.00     0.002 A 
HETATM   23  C23 UNL     1      69.142  37.489  23.133  1.00  0.00     0.031 A 
ENDBRANCH  16  18
ENDBRANCH  11  12
BRANCH   1  24
HETATM   24  O1  UNL     1      64.540  34.705  24.877  1.00  0.00    -0.360 OA
ATOM     25  H1  UNL     1      64.335  35.160  24.069  1.00  0.00     0.217 HD
ENDBRANCH   1  24
BRANCH   8  26
HETATM   26  C5  UNL     1      70.486  31.739  24.996  1.00  0.00     0.098 C 
BRANCH  26  27
HETATM   27  C6  UNL     1      71.467  32.650  25.612  1.00  0.00    -0.052 A 
HETATM   28  C7  UNL     1      72.792  32.251  25.607  1.00  0.00     0.007 A 
HETATM   29  C8  UNL     1      73.781  33.040  26.153  1.00  0.00     0.001 A 
HETATM   30  C9  UNL     1      73.427  34.248  26.711  1.00  0.00     0.000 A 
HETATM   31  C10 UNL     1      72.102  34.683  26.736  1.00  0.00     0.001 A 
HETATM   32  C11 UNL     1      71.134  33.849  26.170  1.00  0.00     0.007 A 
ENDBRANCH  26  27
ENDBRANCH   8  26
TORSDOF 5
ENDMDL
