MODEL 6
REMARK VINA RESULT: -9.358369375      2.599      6.381
REMARK  5 active torsions:
REMARK  status: ('A' for Active; 'I' for Inactive)
REMARK    1  A    between atoms: O1_1  and  C1_3 
REMARK    2  A    between atoms: C4_10  and  C5_11 
REMARK    3  A    between atoms: C5_11  and  C6_12 
REMARK    4  A    between atoms: C14_20  and  C15_21 
REMARK    5  A    between atoms: N4_26  and  C18_27 
ROOT
HETATM    1  C1  UNL     1      68.636  37.327  23.144  1.00  0.00     0.080 A 
HETATM    2  C2  UNL     1      67.944  36.654  22.117  1.00  0.00     0.069 A 
HETATM    3  C3  UNL     1      66.991  35.718  22.403  1.00  0.00     0.063 A 
HETATM    4  N1  UNL     1      66.212  34.915  21.625  1.00  0.00    -0.300 N 
ATOM      5  H1  UNL     1      66.207  34.904  20.605  1.00  0.00     0.187 HD
HETATM    6  N2  UNL     1      65.472  34.161  22.396  1.00  0.00    -0.303 N 
ATOM      7  H2  UNL     1      64.798  33.469  22.070  1.00  0.00     0.186 HD
HETATM    8  C4  UNL     1      65.742  34.446  23.714  1.00  0.00     0.042 A 
HETATM    9  C12 UNL     1      66.699  35.425  23.734  1.00  0.00     0.017 A 
HETATM   10  C13 UNL     1      67.394  36.099  24.727  1.00  0.00     0.032 A 
HETATM   11  C14 UNL     1      68.381  37.060  24.466  1.00  0.00     0.027 A 
ENDROOT
BRANCH  11  12
HETATM   12  C15 UNL     1      69.227  37.545  25.572  1.00  0.00     0.071 A 
HETATM   13  C16 UNL     1      68.960  38.715  26.295  1.00  0.00     0.051 A 
HETATM   14  C17 UNL     1      69.887  38.852  27.310  1.00  0.00     0.110 A 
HETATM   15  N3  UNL     1      70.683  37.812  27.206  1.00  0.00    -0.304 N 
HETATM   16  N4  UNL     1      70.292  37.021  26.162  1.00  0.00    -0.256 N 
ATOM     17  H3  UNL     1      71.478  37.623  27.817  1.00  0.00     0.186 HD
BRANCH  16  18
HETATM   18  C18 UNL     1      70.970  35.811  25.840  1.00  0.00     0.057 A 
HETATM   19  C19 UNL     1      72.214  35.832  25.228  1.00  0.00     0.031 A 
HETATM   20  C20 UNL     1      72.948  34.687  24.959  1.00  0.00     0.002 A 
HETATM   21  C21 UNL     1      72.424  33.468  25.314  1.00  0.00     0.000 A 
HETATM   22  C22 UNL     1      71.196  33.407  25.921  1.00  0.00     0.002 A 
HETATM   23  C23 UNL     1      70.481  34.576  26.178  1.00  0.00     0.031 A 
ENDBRANCH  16  18
ENDBRANCH  11  12
BRANCH   1  24
HETATM   24  O1  UNL     1      69.550  38.258  22.747  1.00  0.00    -0.360 OA
ATOM     25  H1  UNL     1      70.460  38.054  22.921  1.00  0.00     0.217 HD
ENDBRANCH   1  24
BRANCH   8  26
HETATM   26  C5  UNL     1      65.071  33.826  24.862  1.00  0.00     0.098 C 
BRANCH  26  27
HETATM   27  C6  UNL     1      65.949  33.023  25.731  1.00  0.00    -0.052 A 
HETATM   28  C7  UNL     1      65.518  32.787  27.025  1.00  0.00     0.007 A 
HETATM   29  C8  UNL     1      66.268  32.041  27.907  1.00  0.00     0.001 A 
HETATM   30  C9  UNL     1      67.469  31.526  27.478  1.00  0.00     0.000 A 
HETATM   31  C10 UNL     1      67.939  31.742  26.182  1.00  0.00     0.001 A 
HETATM   32  C11 UNL     1      67.143  32.505  25.323  1.00  0.00     0.007 A 
ENDBRANCH  26  27
ENDBRANCH   8  26
TORSDOF 5
ENDMDL
