MODEL 1
REMARK VINA RESULT: -9.969777702      0.000      0.000
REMARK  5 active torsions:
REMARK  status: ('A' for Active; 'I' for Inactive)
REMARK    1  A    between atoms: O1_1  and  C1_3 
REMARK    2  A    between atoms: C4_10  and  C5_11 
REMARK    3  A    between atoms: C5_11  and  C6_12 
REMARK    4  A    between atoms: C14_20  and  C15_21 
REMARK    5  A    between atoms: N4_26  and  C18_27 
ROOT
HETATM    1  C1  UNL     1      71.026  36.420  26.276  1.00  0.00     0.080 A 
HETATM    2  C2  UNL     1      72.160  36.291  27.102  1.00  0.00     0.069 A 
HETATM    3  C3  UNL     1      73.220  35.513  26.729  1.00  0.00     0.063 A 
HETATM    4  N1  UNL     1      74.399  35.194  27.333  1.00  0.00    -0.300 N 
ATOM      5  H1  UNL     1      74.711  35.539  28.242  1.00  0.00     0.187 HD
HETATM    6  N2  UNL     1      75.067  34.375  26.563  1.00  0.00    -0.303 N 
ATOM      7  H2  UNL     1      75.983  33.981  26.777  1.00  0.00     0.186 HD
HETATM    8  C4  UNL     1      74.344  34.128  25.419  1.00  0.00     0.042 A 
HETATM    9  C12 UNL     1      73.177  34.838  25.510  1.00  0.00     0.017 A 
HETATM   10  C13 UNL     1      72.049  34.979  24.716  1.00  0.00     0.032 A 
HETATM   11  C14 UNL     1      70.944  35.765  25.073  1.00  0.00     0.027 A 
ENDROOT
BRANCH  11  12
HETATM   12  C15 UNL     1      69.702  35.665  24.283  1.00  0.00     0.071 A 
HETATM   13  C16 UNL     1      69.284  36.643  23.372  1.00  0.00     0.051 A 
HETATM   14  C17 UNL     1      68.131  36.222  22.739  1.00  0.00     0.110 A 
HETATM   15  N3  UNL     1      67.859  35.041  23.246  1.00  0.00    -0.304 N 
HETATM   16  N4  UNL     1      68.801  34.699  24.176  1.00  0.00    -0.256 N 
ATOM     17  H3  UNL     1      67.061  34.463  22.983  1.00  0.00     0.186 HD
BRANCH  16  18
HETATM   18  C18 UNL     1      68.760  33.454  24.866  1.00  0.00     0.057 A 
HETATM   19  C19 UNL     1      67.750  33.175  25.775  1.00  0.00     0.031 A 
HETATM   20  C20 UNL     1      67.623  31.954  26.418  1.00  0.00     0.002 A 
HETATM   21  C21 UNL     1      68.538  30.966  26.147  1.00  0.00     0.000 A 
HETATM   22  C22 UNL     1      69.551  31.204  25.254  1.00  0.00     0.002 A 
HETATM   23  C23 UNL     1      69.653  32.444  24.623  1.00  0.00     0.031 A 
ENDBRANCH  16  18
ENDBRANCH  11  12
BRANCH   1  24
HETATM   24  O1  UNL     1      70.036  37.239  26.734  1.00  0.00    -0.360 OA
ATOM     25  H1  UNL     1      69.857  37.201  27.665  1.00  0.00     0.217 HD
ENDBRANCH   1  24
BRANCH   8  26
HETATM   26  C5  UNL     1      74.797  33.288  24.305  1.00  0.00     0.098 C 
BRANCH  26  27
HETATM   27  C6  UNL     1      73.986  32.079  24.074  1.00  0.00    -0.052 A 
HETATM   28  C7  UNL     1      73.450  31.908  22.809  1.00  0.00     0.007 A 
HETATM   29  C8  UNL     1      72.685  30.806  22.497  1.00  0.00     0.001 A 
HETATM   30  C9  UNL     1      72.458  29.863  23.474  1.00  0.00     0.000 A 
HETATM   31  C10 UNL     1      72.982  30.000  24.760  1.00  0.00     0.001 A 
HETATM   32  C11 UNL     1      73.752  31.135  25.030  1.00  0.00     0.007 A 
ENDBRANCH  26  27
ENDBRANCH   8  26
TORSDOF 5
ENDMDL
