MODEL 5
REMARK VINA RESULT: -9.459786131      1.337      3.167
REMARK  5 active torsions:
REMARK  status: ('A' for Active; 'I' for Inactive)
REMARK    1  A    between atoms: O1_1  and  C1_3 
REMARK    2  A    between atoms: C4_10  and  C5_11 
REMARK    3  A    between atoms: C5_11  and  C6_12 
REMARK    4  A    between atoms: C14_20  and  C15_21 
REMARK    5  A    between atoms: N4_26  and  C18_27 
ROOT
HETATM    1  C1  UNL     1      71.588  35.227  26.428  1.00  0.00     0.080 A 
HETATM    2  C2  UNL     1      72.964  35.524  26.503  1.00  0.00     0.069 A 
HETATM    3  C3  UNL     1      73.883  34.793  25.805  1.00  0.00     0.063 A 
HETATM    4  N1  UNL     1      75.243  34.843  25.722  1.00  0.00    -0.300 N 
ATOM      5  H1  UNL     1      75.841  35.515  26.202  1.00  0.00     0.187 HD
HETATM    6  N2  UNL     1      75.658  33.891  24.927  1.00  0.00    -0.303 N 
ATOM      7  H2  UNL     1      76.632  33.704  24.691  1.00  0.00     0.186 HD
HETATM    8  C4  UNL     1      74.577  33.180  24.459  1.00  0.00     0.042 A 
HETATM    9  C12 UNL     1      73.452  33.737  25.004  1.00  0.00     0.017 A 
HETATM   10  C13 UNL     1      72.094  33.463  24.948  1.00  0.00     0.032 A 
HETATM   11  C14 UNL     1      71.126  34.190  25.657  1.00  0.00     0.027 A 
ENDROOT
BRANCH  11  12
HETATM   12  C15 UNL     1      69.744  33.679  25.723  1.00  0.00     0.071 A 
HETATM   13  C16 UNL     1      69.392  32.483  26.361  1.00  0.00     0.051 A 
HETATM   14  C17 UNL     1      68.020  32.324  26.317  1.00  0.00     0.110 A 
HETATM   15  N3  UNL     1      67.561  33.375  25.678  1.00  0.00    -0.304 N 
HETATM   16  N4  UNL     1      68.593  34.195  25.316  1.00  0.00    -0.256 N 
ATOM     17  H3  UNL     1      66.577  33.553  25.479  1.00  0.00     0.186 HD
BRANCH  16  18
HETATM   18  C18 UNL     1      68.374  35.422  24.628  1.00  0.00     0.057 A 
HETATM   19  C19 UNL     1      68.739  35.570  23.298  1.00  0.00     0.031 A 
HETATM   20  C20 UNL     1      68.482  36.716  22.563  1.00  0.00     0.002 A 
HETATM   21  C21 UNL     1      67.834  37.762  23.174  1.00  0.00     0.000 A 
HETATM   22  C22 UNL     1      67.459  37.654  24.488  1.00  0.00     0.002 A 
HETATM   23  C23 UNL     1      67.731  36.488  25.202  1.00  0.00     0.031 A 
ENDBRANCH  16  18
ENDBRANCH  11  12
BRANCH   1  24
HETATM   24  O1  UNL     1      70.756  36.033  27.146  1.00  0.00    -0.360 OA
ATOM     25  H1  UNL     1      71.047  36.928  27.276  1.00  0.00     0.217 HD
ENDBRANCH   1  24
BRANCH   8  26
HETATM   26  C5  UNL     1      74.654  32.064  23.509  1.00  0.00     0.098 C 
BRANCH  26  27
HETATM   27  C6  UNL     1      73.560  31.082  23.621  1.00  0.00    -0.052 A 
HETATM   28  C7  UNL     1      72.693  30.975  22.547  1.00  0.00     0.007 A 
HETATM   29  C8  UNL     1      71.646  30.081  22.557  1.00  0.00     0.001 A 
HETATM   30  C9  UNL     1      71.471  29.283  23.665  1.00  0.00     0.000 A 
HETATM   31  C10 UNL     1      72.323  29.362  24.766  1.00  0.00     0.001 A 
HETATM   32  C11 UNL     1      73.372  30.284  24.710  1.00  0.00     0.007 A 
ENDBRANCH  26  27
ENDBRANCH   8  26
TORSDOF 5
ENDMDL
