MODEL 10
REMARK VINA RESULT: -9.313029238      3.117      4.505
REMARK  8 active torsions:
REMARK  status: ('A' for Active; 'I' for Inactive)
REMARK    1  A    between atoms: N1_5  and  C4_6 
REMARK    2  A    between atoms: C5_8  and  C6_9 
REMARK    3  A    between atoms: C6_9  and  O3_10 
REMARK    4  A    between atoms: O3_10  and  P1_11 
REMARK    5  A    between atoms: P1_11  and  O6_14 
REMARK    6  A    between atoms: O6_14  and  P2_15 
REMARK    7  A    between atoms: C7_19  and  O10_20 
REMARK    8  A    between atoms: C8_22  and  O11_23 
ROOT
HETATM    1  C4  UNL     1     -12.836  -7.597 -33.046  1.00  0.00     0.263 C 
HETATM    2  O2  UNL     1     -13.490  -6.400 -32.798  1.00  0.00    -0.353 OA
HETATM    3  C5  UNL     1     -14.227  -6.075 -33.909  1.00  0.00     0.180 C 
HETATM    4  C7  UNL     1     -14.441  -7.331 -34.715  1.00  0.00     0.182 C 
HETATM    5  C8  UNL     1     -13.952  -8.398 -33.730  1.00  0.00     0.198 C 
ENDROOT
BRANCH   3   6
HETATM    6  C6  UNL     1     -15.573  -5.570 -33.453  1.00  0.00     0.216 C 
BRANCH   6   7
HETATM    7  O3  UNL     1     -15.469  -5.063 -32.190  1.00  0.00    -0.287 OA
BRANCH   7   8
HETATM    8  P1  UNL     1     -14.974  -3.518 -32.026  1.00  0.00     0.418 P 
HETATM    9  O4  UNL     1     -13.908  -3.802 -30.981  1.00  0.00    -0.624 OA
HETATM   10  O5  UNL     1     -13.734  -2.961 -33.070  1.00  0.00    -0.624 OA
BRANCH   8  11
HETATM   11  O6  UNL     1     -15.771  -2.436 -31.119  1.00  0.00    -0.173 OA
BRANCH  11  12
HETATM   12  P2  UNL     1     -17.169  -1.918 -31.408  1.00  0.00     0.431 P 
HETATM   13  O7  UNL     1     -16.820  -0.425 -30.844  1.00  0.00    -0.616 OA
HETATM   14  O8  UNL     1     -17.092  -2.227 -33.027  1.00  0.00    -0.616 OA
HETATM   15  O9  UNL     1     -17.791  -3.049 -30.360  1.00  0.00    -0.616 OA
ENDBRANCH  11  12
ENDBRANCH   8  11
ENDBRANCH   7   8
ENDBRANCH   6   7
ENDBRANCH   3   6
BRANCH   4  16
HETATM   16  O10 UNL     1     -13.599  -7.308 -35.815  1.00  0.00    -0.390 OA
ATOM     17  H10 UNL     1     -12.955  -6.620 -35.695  1.00  0.00     0.210 HD
ENDBRANCH   4  16
BRANCH   1  18
HETATM   18  N1  UNL     1     -12.458  -8.281 -31.835  1.00  0.00    -0.280 N 
HETATM   19  C3  UNL     1     -13.239  -9.171 -31.210  1.00  0.00     0.104 A 
HETATM   20  C2  UNL     1     -12.779  -9.768 -30.055  1.00  0.00     0.092 A 
HETATM   21  C1  UNL     1     -11.532  -9.481 -29.513  1.00  0.00     0.250 A 
HETATM   22  O1  UNL     1     -11.135 -10.039 -28.458  1.00  0.00    -0.268 OA
HETATM   23  N2  UNL     1     -10.788  -8.581 -30.179  1.00  0.00    -0.275 N 
HETATM   24  C9  UNL     1     -11.252  -8.004 -31.309  1.00  0.00     0.331 A 
ATOM     25  H2  UNL     1      -9.864  -8.330 -29.827  1.00  0.00     0.173 HD
HETATM   26  O12 UNL     1     -10.498  -7.165 -31.886  1.00  0.00    -0.246 OA
ENDBRANCH   1  18
BRANCH   5  27
HETATM   27  O11 UNL     1     -13.475  -9.515 -34.368  1.00  0.00    -0.388 OA
ATOM     28  H11 UNL     1     -13.583 -10.302 -33.847  1.00  0.00     0.210 HD
ENDBRANCH   5  27
TORSDOF 8
ENDMDL
