MODEL 14
REMARK VINA RESULT: -8.868726178      3.796      6.843
REMARK  8 active torsions:
REMARK  status: ('A' for Active; 'I' for Inactive)
REMARK    1  A    between atoms: N1_5  and  C4_6 
REMARK    2  A    between atoms: C5_8  and  C6_9 
REMARK    3  A    between atoms: C6_9  and  O3_10 
REMARK    4  A    between atoms: O3_10  and  P1_11 
REMARK    5  A    between atoms: P1_11  and  O6_14 
REMARK    6  A    between atoms: O6_14  and  P2_15 
REMARK    7  A    between atoms: C7_19  and  O10_20 
REMARK    8  A    between atoms: C8_22  and  O11_23 
ROOT
HETATM    1  C4  UNL     1     -14.984  -6.885 -33.881  1.00  0.00     0.263 C 
HETATM    2  O2  UNL     1     -14.160  -7.847 -33.319  1.00  0.00    -0.353 OA
HETATM    3  C5  UNL     1     -13.759  -8.705 -34.312  1.00  0.00     0.180 C 
HETATM    4  C7  UNL     1     -13.934  -8.004 -35.635  1.00  0.00     0.182 C 
HETATM    5  C8  UNL     1     -14.218  -6.571 -35.173  1.00  0.00     0.198 C 
ENDROOT
BRANCH   3   6
HETATM    6  C6  UNL     1     -12.292  -8.997 -34.121  1.00  0.00     0.216 C 
BRANCH   6   7
HETATM    7  O3  UNL     1     -11.708  -7.978 -33.425  1.00  0.00    -0.287 OA
BRANCH   7   8
HETATM    8  P1  UNL     1     -10.401  -8.327 -32.514  1.00  0.00     0.418 P 
HETATM    9  O4  UNL     1      -9.928  -9.500 -33.357  1.00  0.00    -0.624 OA
HETATM   10  O5  UNL     1      -8.931  -7.528 -32.888  1.00  0.00    -0.624 OA
BRANCH   8  11
HETATM   11  O6  UNL     1     -10.495  -9.176 -31.137  1.00  0.00    -0.173 OA
BRANCH  11  12
HETATM   12  P2  UNL     1     -11.303  -8.770 -29.917  1.00  0.00     0.431 P 
HETATM   13  O7  UNL     1     -12.710  -9.259 -30.586  1.00  0.00    -0.616 OA
HETATM   14  O8  UNL     1     -10.491  -9.767 -28.883  1.00  0.00    -0.616 OA
HETATM   15  O9  UNL     1     -10.814  -7.195 -30.131  1.00  0.00    -0.616 OA
ENDBRANCH  11  12
ENDBRANCH   8  11
ENDBRANCH   7   8
ENDBRANCH   6   7
ENDBRANCH   3   6
BRANCH   4  16
HETATM   16  O10 UNL     1     -15.059  -8.511 -36.266  1.00  0.00    -0.390 OA
ATOM     17  H10 UNL     1     -14.828  -8.762 -37.152  1.00  0.00     0.210 HD
ENDBRANCH   4  16
BRANCH   1  18
HETATM   18  N1  UNL     1     -15.054  -5.684 -33.088  1.00  0.00    -0.280 N 
HETATM   19  C3  UNL     1     -14.067  -5.265 -32.286  1.00  0.00     0.104 A 
HETATM   20  C2  UNL     1     -14.239  -4.100 -31.568  1.00  0.00     0.092 A 
HETATM   21  C1  UNL     1     -15.400  -3.341 -31.646  1.00  0.00     0.250 A 
HETATM   22  O1  UNL     1     -15.533  -2.281 -30.982  1.00  0.00    -0.268 OA
HETATM   23  N2  UNL     1     -16.360  -3.807 -32.465  1.00  0.00    -0.275 N 
HETATM   24  C9  UNL     1     -16.178  -4.949 -33.161  1.00  0.00     0.331 A 
ATOM     25  H2  UNL     1     -17.235  -3.291 -32.561  1.00  0.00     0.173 HD
HETATM   26  O12 UNL     1     -17.123  -5.329 -33.914  1.00  0.00    -0.246 OA
ENDBRANCH   1  18
BRANCH   5  27
HETATM   27  O11 UNL     1     -14.983  -5.876 -36.077  1.00  0.00    -0.388 OA
ATOM     28  H11 UNL     1     -14.679  -4.984 -36.196  1.00  0.00     0.210 HD
ENDBRANCH   5  27
TORSDOF 8
ENDMDL
