MODEL 3
REMARK VINA RESULT: -9.986946601      0.937      1.487
REMARK  8 active torsions:
REMARK  status: ('A' for Active; 'I' for Inactive)
REMARK    1  A    between atoms: N1_5  and  C4_6 
REMARK    2  A    between atoms: C5_8  and  C6_9 
REMARK    3  A    between atoms: C6_9  and  O3_10 
REMARK    4  A    between atoms: O3_10  and  P1_11 
REMARK    5  A    between atoms: P1_11  and  O6_14 
REMARK    6  A    between atoms: O6_14  and  P2_15 
REMARK    7  A    between atoms: C7_19  and  O10_20 
REMARK    8  A    between atoms: C8_22  and  O11_23 
ROOT
HETATM    1  C4  UNL     1     -12.244  -8.576 -31.153  1.00  0.00     0.263 C 
HETATM    2  O2  UNL     1     -13.248  -7.898 -31.828  1.00  0.00    -0.353 OA
HETATM    3  C5  UNL     1     -12.692  -7.282 -32.920  1.00  0.00     0.180 C 
HETATM    4  C7  UNL     1     -11.389  -7.971 -33.235  1.00  0.00     0.182 C 
HETATM    5  C8  UNL     1     -11.481  -9.203 -32.328  1.00  0.00     0.198 C 
ENDROOT
BRANCH   3   6
HETATM    6  C6  UNL     1     -13.623  -7.469 -34.093  1.00  0.00     0.216 C 
BRANCH   6   7
HETATM    7  O3  UNL     1     -14.902  -7.183 -33.713  1.00  0.00    -0.287 OA
BRANCH   7   8
HETATM    8  P1  UNL     1     -15.974  -6.790 -34.877  1.00  0.00     0.418 P 
HETATM    9  O4  UNL     1     -15.706  -8.001 -35.755  1.00  0.00    -0.624 OA
HETATM   10  O5  UNL     1     -17.588  -7.339 -34.695  1.00  0.00    -0.624 OA
BRANCH   8  11
HETATM   11  O6  UNL     1     -15.649  -5.705 -36.036  1.00  0.00    -0.173 OA
BRANCH  11  12
HETATM   12  P2  UNL     1     -16.434  -4.428 -36.280  1.00  0.00     0.431 P 
HETATM   13  O7  UNL     1     -17.550  -5.192 -37.194  1.00  0.00    -0.616 OA
HETATM   14  O8  UNL     1     -16.729  -4.148 -34.680  1.00  0.00    -0.616 OA
HETATM   15  O9  UNL     1     -15.102  -3.764 -37.021  1.00  0.00    -0.616 OA
ENDBRANCH  11  12
ENDBRANCH   8  11
ENDBRANCH   7   8
ENDBRANCH   6   7
ENDBRANCH   3   6
BRANCH   4  16
HETATM   16  O10 UNL     1     -10.342  -7.169 -32.809  1.00  0.00    -0.390 OA
ATOM     17  H10 UNL     1      -9.521  -7.595 -33.024  1.00  0.00     0.210 HD
ENDBRANCH   4  16
BRANCH   1  18
HETATM   18  N1  UNL     1     -12.754  -9.636 -30.321  1.00  0.00    -0.280 N 
HETATM   19  C3  UNL     1     -13.863 -10.331 -30.601  1.00  0.00     0.104 A 
HETATM   20  C2  UNL     1     -14.264 -11.327 -29.735  1.00  0.00     0.092 A 
HETATM   21  C1  UNL     1     -13.559 -11.637 -28.579  1.00  0.00     0.250 A 
HETATM   22  O1  UNL     1     -13.945 -12.550 -27.804  1.00  0.00    -0.268 OA
HETATM   23  N2  UNL     1     -12.454 -10.908 -28.344  1.00  0.00    -0.275 N 
HETATM   24  C9  UNL     1     -12.073  -9.937 -29.201  1.00  0.00     0.331 A 
ATOM     25  H2  UNL     1     -11.897 -11.091 -27.509  1.00  0.00     0.173 HD
HETATM   26  O12 UNL     1     -11.022  -9.290 -28.919  1.00  0.00    -0.246 OA
ENDBRANCH   1  18
BRANCH   5  27
HETATM   27  O11 UNL     1     -10.245  -9.668 -31.958  1.00  0.00    -0.388 OA
ATOM     28  H11 UNL     1     -10.227 -10.614 -31.871  1.00  0.00     0.210 HD
ENDBRANCH   5  27
TORSDOF 8
ENDMDL
