MODEL 17
REMARK VINA RESULT: -8.604199195      4.280      7.380
REMARK  8 active torsions:
REMARK  status: ('A' for Active; 'I' for Inactive)
REMARK    1  A    between atoms: N1_5  and  C4_6 
REMARK    2  A    between atoms: C5_8  and  C6_9 
REMARK    3  A    between atoms: C6_9  and  O3_10 
REMARK    4  A    between atoms: O3_10  and  P1_11 
REMARK    5  A    between atoms: P1_11  and  O6_14 
REMARK    6  A    between atoms: O6_14  and  P2_15 
REMARK    7  A    between atoms: C7_19  and  O10_20 
REMARK    8  A    between atoms: C8_22  and  O11_23 
ROOT
HETATM    1  C4  UNL     1     -15.513  -3.811 -33.737  1.00  0.00     0.263 C 
HETATM    2  O2  UNL     1     -14.495  -4.703 -33.435  1.00  0.00    -0.353 OA
HETATM    3  C5  UNL     1     -14.086  -4.469 -32.147  1.00  0.00     0.180 C 
HETATM    4  C7  UNL     1     -15.190  -3.734 -31.430  1.00  0.00     0.182 C 
HETATM    5  C8  UNL     1     -16.334  -3.863 -32.442  1.00  0.00     0.198 C 
ENDROOT
BRANCH   3   6
HETATM    6  C6  UNL     1     -13.884  -5.799 -31.466  1.00  0.00     0.216 C 
BRANCH   6   7
HETATM    7  O3  UNL     1     -14.206  -6.809 -32.327  1.00  0.00    -0.287 OA
BRANCH   7   8
HETATM    8  P1  UNL     1     -13.044  -7.887 -32.707  1.00  0.00     0.418 P 
HETATM    9  O4  UNL     1     -11.913  -7.160 -31.999  1.00  0.00    -0.624 OA
HETATM   10  O5  UNL     1     -12.798  -9.207 -31.640  1.00  0.00    -0.624 OA
BRANCH   8  11
HETATM   11  O6  UNL     1     -12.309  -7.910 -34.152  1.00  0.00    -0.173 OA
BRANCH  11  12
HETATM   12  P2  UNL     1     -12.905  -8.489 -35.423  1.00  0.00     0.431 P 
HETATM   13  O7  UNL     1     -13.704  -9.659 -34.612  1.00  0.00    -0.616 OA
HETATM   14  O8  UNL     1     -13.685  -7.099 -35.849  1.00  0.00    -0.616 OA
HETATM   15  O9  UNL     1     -11.371  -8.803 -35.984  1.00  0.00    -0.616 OA
ENDBRANCH  11  12
ENDBRANCH   8  11
ENDBRANCH   7   8
ENDBRANCH   6   7
ENDBRANCH   3   6
BRANCH   4  16
HETATM   16  O10 UNL     1     -14.837  -2.399 -31.311  1.00  0.00    -0.390 OA
ATOM     17  H10 UNL     1     -15.474  -1.960 -30.760  1.00  0.00     0.210 HD
ENDBRANCH   4  16
BRANCH   1  18
HETATM   18  N1  UNL     1     -16.343  -4.266 -34.824  1.00  0.00    -0.280 N 
HETATM   19  C3  UNL     1     -16.759  -5.531 -34.961  1.00  0.00     0.104 A 
HETATM   20  C2  UNL     1     -17.551  -5.860 -36.041  1.00  0.00     0.092 A 
HETATM   21  C1  UNL     1     -17.936  -4.927 -36.995  1.00  0.00     0.250 A 
HETATM   22  O1  UNL     1     -18.659  -5.251 -37.972  1.00  0.00    -0.268 OA
HETATM   23  N2  UNL     1     -17.490  -3.671 -36.811  1.00  0.00    -0.275 N 
HETATM   24  C9  UNL     1     -16.715  -3.363 -35.749  1.00  0.00     0.331 A 
ATOM     25  H2  UNL     1     -17.740  -2.943 -37.481  1.00  0.00     0.173 HD
HETATM   26  O12 UNL     1     -16.332  -2.162 -35.636  1.00  0.00    -0.246 OA
ENDBRANCH   1  18
BRANCH   5  27
HETATM   27  O11 UNL     1     -17.229  -2.827 -32.350  1.00  0.00    -0.388 OA
ATOM     28  H11 UNL     1     -17.977  -3.044 -31.806  1.00  0.00     0.210 HD
ENDBRANCH   5  27
TORSDOF 8
ENDMDL
