MODEL 1
REMARK VINA RESULT: -10.652303790      0.000      0.000
REMARK  8 active torsions:
REMARK  status: ('A' for Active; 'I' for Inactive)
REMARK    1  A    between atoms: N1_5  and  C4_6 
REMARK    2  A    between atoms: C5_8  and  C6_9 
REMARK    3  A    between atoms: C6_9  and  O3_10 
REMARK    4  A    between atoms: O3_10  and  P1_11 
REMARK    5  A    between atoms: P1_11  and  O6_14 
REMARK    6  A    between atoms: O6_14  and  P2_15 
REMARK    7  A    between atoms: C7_19  and  O10_20 
REMARK    8  A    between atoms: C8_22  and  O11_23 
ROOT
HETATM    1  C4  UNL     1     -12.141  -8.591 -31.001  1.00  0.00     0.263 C 
HETATM    2  O2  UNL     1     -13.091  -7.644 -31.355  1.00  0.00    -0.353 OA
HETATM    3  C5  UNL     1     -12.637  -6.972 -32.461  1.00  0.00     0.180 C 
HETATM    4  C7  UNL     1     -11.591  -7.825 -33.133  1.00  0.00     0.182 C 
HETATM    5  C8  UNL     1     -11.765  -9.149 -32.380  1.00  0.00     0.198 C 
ENDROOT
BRANCH   3   6
HETATM    6  C6  UNL     1     -13.791  -6.798 -33.416  1.00  0.00     0.216 C 
BRANCH   6   7
HETATM    7  O3  UNL     1     -14.471  -7.976 -33.533  1.00  0.00    -0.287 OA
BRANCH   7   8
HETATM    8  P1  UNL     1     -15.168  -8.316 -34.967  1.00  0.00     0.418 P 
HETATM    9  O4  UNL     1     -13.872  -8.433 -35.751  1.00  0.00    -0.624 OA
HETATM   10  O5  UNL     1     -15.481  -9.961 -35.333  1.00  0.00    -0.624 OA
BRANCH   8  11
HETATM   11  O6  UNL     1     -15.805  -7.173 -35.923  1.00  0.00    -0.173 OA
BRANCH  11  12
HETATM   12  P2  UNL     1     -17.074  -6.394 -35.624  1.00  0.00     0.431 P 
HETATM   13  O7  UNL     1     -17.604  -7.510 -34.556  1.00  0.00    -0.616 OA
HETATM   14  O8  UNL     1     -16.280  -5.050 -35.087  1.00  0.00    -0.616 OA
HETATM   15  O9  UNL     1     -17.520  -6.530 -37.220  1.00  0.00    -0.616 OA
ENDBRANCH  11  12
ENDBRANCH   8  11
ENDBRANCH   7   8
ENDBRANCH   6   7
ENDBRANCH   3   6
BRANCH   4  16
HETATM   16  O10 UNL     1     -10.338  -7.303 -32.852  1.00  0.00    -0.390 OA
ATOM     17  H10 UNL     1      -9.935  -7.018 -33.664  1.00  0.00     0.210 HD
ENDBRANCH   4  16
BRANCH   1  18
HETATM   18  N1  UNL     1     -12.695  -9.661 -30.210  1.00  0.00    -0.280 N 
HETATM   19  C3  UNL     1     -13.834 -10.296 -30.513  1.00  0.00     0.104 A 
HETATM   20  C2  UNL     1     -14.275 -11.307 -29.685  1.00  0.00     0.092 A 
HETATM   21  C1  UNL     1     -13.581 -11.694 -28.547  1.00  0.00     0.250 A 
HETATM   22  O1  UNL     1     -14.003 -12.620 -27.807  1.00  0.00    -0.268 OA
HETATM   23  N2  UNL     1     -12.443 -11.024 -28.288  1.00  0.00    -0.275 N 
HETATM   24  C9  UNL     1     -12.024 -10.036 -29.107  1.00  0.00     0.331 A 
ATOM     25  H2  UNL     1     -11.892 -11.265 -27.464  1.00  0.00     0.173 HD
HETATM   26  O12 UNL     1     -10.944  -9.448 -28.804  1.00  0.00    -0.246 OA
ENDBRANCH   1  18
BRANCH   5  27
HETATM   27  O11 UNL     1     -10.606  -9.883 -32.347  1.00  0.00    -0.388 OA
ATOM     28  H11 UNL     1     -10.410 -10.286 -33.184  1.00  0.00     0.210 HD
ENDBRANCH   5  27
TORSDOF 8
ENDMDL
