MODEL 2
REMARK VINA RESULT: -8.759441144      2.991      4.800
REMARK  14 active torsions:
REMARK  status: ('A' for Active; 'I' for Inactive)
REMARK    1  A    between atoms: C1_2  and  C2_4 
REMARK    2  A    between atoms: C2_4  and  C3_5 
REMARK    3  A    between atoms: C3_5  and  C4_6 
REMARK    4  A    between atoms: C4_6  and  C5_7 
REMARK    5  A    between atoms: C5_7  and  C6_8 
REMARK    6  A    between atoms: C6_8  and  C7_9 
REMARK    7  A    between atoms: C7_9  and  C8_10 
REMARK    8  A    between atoms: C8_10  and  C9_11 
REMARK    9  A    between atoms: C9_11  and  C10_12 
REMARK   10  A    between atoms: C10_12  and  C11_13 
REMARK   11  A    between atoms: C11_13  and  C12_14 
REMARK   12  A    between atoms: C12_14  and  N1_15 
REMARK   13  A    between atoms: N1_15  and  C13_17 
REMARK   14  A    between atoms: C16_20  and  N2_21 
ROOT
HETATM    1  N1  UNL     1     -25.186  12.649  26.685  1.00  0.00    -0.388 N 
ATOM      2  H1  UNL     1     -25.934  12.192  27.206  1.00  0.00     0.159 HD
ENDROOT
BRANCH   1   3
HETATM    3  C12 UNL     1     -24.603  13.834  27.262  1.00  0.00     0.120 C 
BRANCH   3   4
HETATM    4  C11 UNL     1     -24.087  13.491  28.623  1.00  0.00     0.020 C 
BRANCH   4   5
HETATM    5  C10 UNL     1     -23.167  14.557  29.209  1.00  0.00     0.002 C 
BRANCH   5   6
HETATM    6  C9  UNL     1     -23.700  15.115  30.488  1.00  0.00     0.000 C 
BRANCH   6   7
HETATM    7  C8  UNL     1     -25.189  15.186  30.462  1.00  0.00     0.000 C 
BRANCH   7   8
HETATM    8  C7  UNL     1     -25.732  15.917  31.625  1.00  0.00     0.000 C 
BRANCH   8   9
HETATM    9  C6  UNL     1     -27.159  15.529  31.947  1.00  0.00     0.000 C 
BRANCH   9  10
HETATM   10  C5  UNL     1     -27.414  14.075  31.763  1.00  0.00     0.000 C 
BRANCH  10  11
HETATM   11  C4  UNL     1     -28.688  13.778  31.001  1.00  0.00     0.001 C 
BRANCH  11  12
HETATM   12  C3  UNL     1     -28.631  12.460  30.294  1.00  0.00     0.010 C 
BRANCH  12  13
HETATM   13  C2  UNL     1     -27.347  12.291  29.529  1.00  0.00     0.113 C 
BRANCH  13  14
HETATM   14  C1  UNL     1     -27.171  10.853  29.229  1.00  0.00     0.172 C 
HETATM   15  O1  UNL     1     -27.830   9.940  29.781  1.00  0.00    -0.648 OA
HETATM   16  O2  UNL     1     -26.230  10.418  28.281  1.00  0.00    -0.648 OA
ENDBRANCH  13  14
ENDBRANCH  12  13
ENDBRANCH  11  12
ENDBRANCH  10  11
ENDBRANCH   9  10
ENDBRANCH   8   9
ENDBRANCH   7   8
ENDBRANCH   6   7
ENDBRANCH   5   6
ENDBRANCH   4   5
ENDBRANCH   3   4
ENDBRANCH   1   3
BRANCH   1  17
HETATM   17  C13 UNL     1     -24.808  12.077  25.466  1.00  0.00     0.059 A 
HETATM   18  C14 UNL     1     -25.110  12.590  24.235  1.00  0.00     0.034 A 
HETATM   19  C15 UNL     1     -24.724  11.973  23.047  1.00  0.00     0.041 A 
HETATM   20  C16 UNL     1     -24.008  10.797  23.118  1.00  0.00     0.134 A 
HETATM   21  C17 UNL     1     -23.680  10.242  24.349  1.00  0.00     0.120 A 
HETATM   22  N3  UNL     1     -23.020   9.156  24.731  1.00  0.00    -0.237 N 
HETATM   23  C18 UNL     1     -24.078  10.881  25.487  1.00  0.00     0.114 A 
HETATM   24  O5  UNL     1     -23.018   9.137  26.029  1.00  0.00    -0.156 OA
ATOM     25  H3  UNL     1     -22.591   8.463  24.117  1.00  0.00     0.197 HD
HETATM   26  N4  UNL     1     -23.642  10.154  26.529  1.00  0.00    -0.237 N 
ATOM     27  H4  UNL     1     -23.776  10.362  27.518  1.00  0.00     0.197 HD
BRANCH  20  28
HETATM   28  N2  UNL     1     -23.569  10.095  21.969  1.00  0.00    -0.113 N 
HETATM   29  O3  UNL     1     -24.361   9.850  21.038  1.00  0.00    -0.532 OA
HETATM   30  O4  UNL     1     -22.284   9.675  21.856  1.00  0.00    -0.532 OA
ENDBRANCH  20  28
ENDBRANCH   1  17
TORSDOF 14
ENDMDL
