MODEL 8
REMARK VINA RESULT: -8.494984236      3.218      9.356
REMARK  14 active torsions:
REMARK  status: ('A' for Active; 'I' for Inactive)
REMARK    1  A    between atoms: C1_2  and  C2_4 
REMARK    2  A    between atoms: C2_4  and  C3_5 
REMARK    3  A    between atoms: C3_5  and  C4_6 
REMARK    4  A    between atoms: C4_6  and  C5_7 
REMARK    5  A    between atoms: C5_7  and  C6_8 
REMARK    6  A    between atoms: C6_8  and  C7_9 
REMARK    7  A    between atoms: C7_9  and  C8_10 
REMARK    8  A    between atoms: C8_10  and  C9_11 
REMARK    9  A    between atoms: C9_11  and  C10_12 
REMARK   10  A    between atoms: C10_12  and  C11_13 
REMARK   11  A    between atoms: C11_13  and  C12_14 
REMARK   12  A    between atoms: C12_14  and  N1_15 
REMARK   13  A    between atoms: N1_15  and  C13_17 
REMARK   14  A    between atoms: C16_20  and  N2_21 
ROOT
HETATM    1  N1  UNL     1     -25.209  12.797  28.224  1.00  0.00    -0.388 N 
ATOM      2  H1  UNL     1     -25.406  13.153  27.289  1.00  0.00     0.159 HD
ENDROOT
BRANCH   1   3
HETATM    3  C12 UNL     1     -24.533  11.528  28.323  1.00  0.00     0.120 C 
BRANCH   3   4
HETATM    4  C11 UNL     1     -23.070  11.786  28.503  1.00  0.00     0.020 C 
BRANCH   4   5
HETATM    5  C10 UNL     1     -22.189  10.925  27.605  1.00  0.00     0.002 C 
BRANCH   5   6
HETATM    6  C9  UNL     1     -22.993  10.002  26.748  1.00  0.00     0.000 C 
BRANCH   6   7
HETATM    7  C8  UNL     1     -22.644  10.169  25.308  1.00  0.00     0.000 C 
BRANCH   7   8
HETATM    8  C7  UNL     1     -23.210   9.092  24.470  1.00  0.00     0.000 C 
BRANCH   8   9
HETATM    9  C6  UNL     1     -22.307   8.711  23.317  1.00  0.00     0.000 C 
BRANCH   9  10
HETATM   10  C5  UNL     1     -22.328   9.711  22.216  1.00  0.00     0.000 C 
BRANCH  10  11
HETATM   11  C4  UNL     1     -23.694   9.891  21.589  1.00  0.00     0.001 C 
BRANCH  11  12
HETATM   12  C3  UNL     1     -24.059  11.333  21.430  1.00  0.00     0.010 C 
BRANCH  12  13
HETATM   13  C2  UNL     1     -24.921  11.820  22.563  1.00  0.00     0.113 C 
BRANCH  13  14
HETATM   14  C1  UNL     1     -25.608  13.054  22.126  1.00  0.00     0.172 C 
HETATM   15  O1  UNL     1     -25.426  13.597  21.010  1.00  0.00    -0.648 OA
HETATM   16  O2  UNL     1     -26.531  13.707  22.961  1.00  0.00    -0.648 OA
ENDBRANCH  13  14
ENDBRANCH  12  13
ENDBRANCH  11  12
ENDBRANCH  10  11
ENDBRANCH   9  10
ENDBRANCH   8   9
ENDBRANCH   7   8
ENDBRANCH   6   7
ENDBRANCH   5   6
ENDBRANCH   4   5
ENDBRANCH   3   4
ENDBRANCH   1   3
BRANCH   1  17
HETATM   17  C13 UNL     1     -25.618  13.578  29.311  1.00  0.00     0.059 A 
HETATM   18  C14 UNL     1     -24.939  14.662  29.793  1.00  0.00     0.034 A 
HETATM   19  C15 UNL     1     -25.379  15.399  30.890  1.00  0.00     0.041 A 
HETATM   20  C16 UNL     1     -26.547  15.017  31.514  1.00  0.00     0.134 A 
HETATM   21  C17 UNL     1     -27.268  13.921  31.056  1.00  0.00     0.120 A 
HETATM   22  N3  UNL     1     -28.393  13.327  31.433  1.00  0.00    -0.237 N 
HETATM   23  C18 UNL     1     -26.800  13.229  29.977  1.00  0.00     0.114 A 
HETATM   24  O5  UNL     1     -28.596  12.329  30.628  1.00  0.00    -0.156 OA
ATOM     25  H3  UNL     1     -28.990  13.604  32.213  1.00  0.00     0.197 HD
HETATM   26  N4  UNL     1     -27.665  12.230  29.736  1.00  0.00    -0.237 N 
ATOM     27  H4  UNL     1     -27.601  11.531  28.995  1.00  0.00     0.197 HD
BRANCH  20  28
HETATM   28  N2  UNL     1     -27.078  15.701  32.635  1.00  0.00    -0.113 N 
HETATM   29  O3  UNL     1     -27.391  16.905  32.549  1.00  0.00    -0.532 OA
HETATM   30  O4  UNL     1     -27.257  15.067  33.820  1.00  0.00    -0.532 OA
ENDBRANCH  20  28
ENDBRANCH   1  17
TORSDOF 14
ENDMDL
