MODEL 3
REMARK VINA RESULT: -8.747037005      1.844      2.721
REMARK  14 active torsions:
REMARK  status: ('A' for Active; 'I' for Inactive)
REMARK    1  A    between atoms: C1_2  and  C2_4 
REMARK    2  A    between atoms: C2_4  and  C3_5 
REMARK    3  A    between atoms: C3_5  and  C4_6 
REMARK    4  A    between atoms: C4_6  and  C5_7 
REMARK    5  A    between atoms: C5_7  and  C6_8 
REMARK    6  A    between atoms: C6_8  and  C7_9 
REMARK    7  A    between atoms: C7_9  and  C8_10 
REMARK    8  A    between atoms: C8_10  and  C9_11 
REMARK    9  A    between atoms: C9_11  and  C10_12 
REMARK   10  A    between atoms: C10_12  and  C11_13 
REMARK   11  A    between atoms: C11_13  and  C12_14 
REMARK   12  A    between atoms: C12_14  and  N1_15 
REMARK   13  A    between atoms: N1_15  and  C13_17 
REMARK   14  A    between atoms: C16_20  and  N2_21 
ROOT
HETATM    1  N1  UNL     1     -25.137  10.513  25.221  1.00  0.00    -0.388 N 
ATOM      2  H1  UNL     1     -26.067  10.142  25.413  1.00  0.00     0.159 HD
ENDROOT
BRANCH   1   3
HETATM    3  C12 UNL     1     -24.294  10.809  26.351  1.00  0.00     0.120 C 
BRANCH   3   4
HETATM    4  C11 UNL     1     -25.050  11.702  27.283  1.00  0.00     0.020 C 
BRANCH   4   5
HETATM    5  C10 UNL     1     -24.383  11.859  28.645  1.00  0.00     0.002 C 
BRANCH   5   6
HETATM    6  C9  UNL     1     -23.304  12.892  28.625  1.00  0.00     0.000 C 
BRANCH   6   7
HETATM    7  C8  UNL     1     -23.858  14.250  28.894  1.00  0.00     0.000 C 
BRANCH   7   8
HETATM    8  C7  UNL     1     -23.274  14.860  30.105  1.00  0.00     0.000 C 
BRANCH   8   9
HETATM    9  C6  UNL     1     -24.311  15.515  30.991  1.00  0.00     0.000 C 
BRANCH   9  10
HETATM   10  C5  UNL     1     -25.704  15.197  30.576  1.00  0.00     0.000 C 
BRANCH  10  11
HETATM   11  C4  UNL     1     -26.644  14.972  31.741  1.00  0.00     0.001 C 
BRANCH  11  12
HETATM   12  C3  UNL     1     -27.651  13.902  31.457  1.00  0.00     0.010 C 
BRANCH  12  13
HETATM   13  C2  UNL     1     -27.392  13.225  30.140  1.00  0.00     0.113 C 
BRANCH  13  14
HETATM   14  C1  UNL     1     -28.136  11.947  30.121  1.00  0.00     0.172 C 
HETATM   15  O1  UNL     1     -27.756  10.927  29.497  1.00  0.00    -0.648 OA
HETATM   16  O2  UNL     1     -29.344  11.799  30.822  1.00  0.00    -0.648 OA
ENDBRANCH  13  14
ENDBRANCH  12  13
ENDBRANCH  11  12
ENDBRANCH  10  11
ENDBRANCH   9  10
ENDBRANCH   8   9
ENDBRANCH   7   8
ENDBRANCH   6   7
ENDBRANCH   5   6
ENDBRANCH   4   5
ENDBRANCH   3   4
ENDBRANCH   1   3
BRANCH   1  17
HETATM   17  C13 UNL     1     -24.780  10.694  23.880  1.00  0.00     0.059 A 
HETATM   18  C14 UNL     1     -24.003   9.834  23.156  1.00  0.00     0.034 A 
HETATM   19  C15 UNL     1     -23.661  10.067  21.826  1.00  0.00     0.041 A 
HETATM   20  C16 UNL     1     -24.126  11.213  21.218  1.00  0.00     0.134 A 
HETATM   21  C17 UNL     1     -24.919  12.114  21.918  1.00  0.00     0.120 A 
HETATM   22  N3  UNL     1     -25.502  13.268  21.616  1.00  0.00    -0.237 N 
HETATM   23  C18 UNL     1     -25.230  11.844  23.219  1.00  0.00     0.114 A 
HETATM   24  O5  UNL     1     -26.130  13.676  22.676  1.00  0.00    -0.156 OA
ATOM     25  H3  UNL     1     -25.463  13.746  20.716  1.00  0.00     0.197 HD
HETATM   26  N4  UNL     1     -25.996  12.853  23.665  1.00  0.00    -0.237 N 
ATOM     27  H4  UNL     1     -26.394  12.951  24.599  1.00  0.00     0.197 HD
BRANCH  20  28
HETATM   28  N2  UNL     1     -23.836  11.540  19.870  1.00  0.00    -0.113 N 
HETATM   29  O3  UNL     1     -22.706  11.310  19.394  1.00  0.00    -0.532 OA
HETATM   30  O4  UNL     1     -24.774  12.107  19.071  1.00  0.00    -0.532 OA
ENDBRANCH  20  28
ENDBRANCH   1  17
TORSDOF 14
ENDMDL
