MODEL 1
REMARK VINA RESULT: -8.856488828      0.000      0.000
REMARK  14 active torsions:
REMARK  status: ('A' for Active; 'I' for Inactive)
REMARK    1  A    between atoms: C1_2  and  C2_4 
REMARK    2  A    between atoms: C2_4  and  C3_5 
REMARK    3  A    between atoms: C3_5  and  C4_6 
REMARK    4  A    between atoms: C4_6  and  C5_7 
REMARK    5  A    between atoms: C5_7  and  C6_8 
REMARK    6  A    between atoms: C6_8  and  C7_9 
REMARK    7  A    between atoms: C7_9  and  C8_10 
REMARK    8  A    between atoms: C8_10  and  C9_11 
REMARK    9  A    between atoms: C9_11  and  C10_12 
REMARK   10  A    between atoms: C10_12  and  C11_13 
REMARK   11  A    between atoms: C11_13  and  C12_14 
REMARK   12  A    between atoms: C12_14  and  N1_15 
REMARK   13  A    between atoms: N1_15  and  C13_17 
REMARK   14  A    between atoms: C16_20  and  N2_21 
ROOT
HETATM    1  N1  UNL     1     -24.521   9.949  24.007  1.00  0.00    -0.388 N 
ATOM      2  H1  UNL     1     -25.455  10.036  24.406  1.00  0.00     0.159 HD
ENDROOT
BRANCH   1   3
HETATM    3  C12 UNL     1     -23.575   9.119  24.709  1.00  0.00     0.120 C 
BRANCH   3   4
HETATM    4  C11 UNL     1     -22.674  10.004  25.511  1.00  0.00     0.020 C 
BRANCH   4   5
HETATM    5  C10 UNL     1     -23.216  10.320  26.900  1.00  0.00     0.002 C 
BRANCH   5   6
HETATM    6  C9  UNL     1     -22.201  11.009  27.754  1.00  0.00     0.000 C 
BRANCH   6   7
HETATM    7  C8  UNL     1     -22.850  11.985  28.674  1.00  0.00     0.000 C 
BRANCH   7   8
HETATM    8  C7  UNL     1     -24.175  12.416  28.185  1.00  0.00     0.000 C 
BRANCH   8   9
HETATM    9  C6  UNL     1     -24.506  13.842  28.566  1.00  0.00     0.000 C 
BRANCH   9  10
HETATM   10  C5  UNL     1     -23.356  14.552  29.188  1.00  0.00     0.000 C 
BRANCH  10  11
HETATM   11  C4  UNL     1     -23.687  15.180  30.526  1.00  0.00     0.001 C 
BRANCH  11  12
HETATM   12  C3  UNL     1     -25.157  15.181  30.802  1.00  0.00     0.010 C 
BRANCH  12  13
HETATM   13  C2  UNL     1     -25.522  16.163  31.882  1.00  0.00     0.113 C 
BRANCH  13  14
HETATM   14  C1  UNL     1     -26.631  15.589  32.675  1.00  0.00     0.172 C 
HETATM   15  O1  UNL     1     -26.860  15.887  33.871  1.00  0.00    -0.648 OA
HETATM   16  O2  UNL     1     -27.514  14.650  32.116  1.00  0.00    -0.648 OA
ENDBRANCH  13  14
ENDBRANCH  12  13
ENDBRANCH  11  12
ENDBRANCH  10  11
ENDBRANCH   9  10
ENDBRANCH   8   9
ENDBRANCH   7   8
ENDBRANCH   6   7
ENDBRANCH   5   6
ENDBRANCH   4   5
ENDBRANCH   3   4
ENDBRANCH   1   3
BRANCH   1  17
HETATM   17  C13 UNL     1     -24.257  10.644  22.822  1.00  0.00     0.059 A 
HETATM   18  C14 UNL     1     -23.441  10.199  21.820  1.00  0.00     0.034 A 
HETATM   19  C15 UNL     1     -23.197  10.938  20.665  1.00  0.00     0.041 A 
HETATM   20  C16 UNL     1     -23.805  12.167  20.529  1.00  0.00     0.134 A 
HETATM   21  C17 UNL     1     -24.641  12.658  21.523  1.00  0.00     0.120 A 
HETATM   22  N3  UNL     1     -25.349  13.770  21.677  1.00  0.00    -0.237 N 
HETATM   23  C18 UNL     1     -24.853  11.899  22.639  1.00  0.00     0.114 A 
HETATM   24  O5  UNL     1     -25.955  13.691  22.822  1.00  0.00    -0.156 OA
ATOM     25  H3  UNL     1     -25.407  14.545  21.016  1.00  0.00     0.197 HD
HETATM   26  N4  UNL     1     -25.688  12.585  23.437  1.00  0.00    -0.237 N 
ATOM     27  H4  UNL     1     -26.041  12.291  24.347  1.00  0.00     0.197 HD
BRANCH  20  28
HETATM   28  N2  UNL     1     -23.622  12.993  19.392  1.00  0.00    -0.113 N 
HETATM   29  O3  UNL     1     -23.425  12.487  18.269  1.00  0.00    -0.532 OA
HETATM   30  O4  UNL     1     -23.655  14.345  19.497  1.00  0.00    -0.532 OA
ENDBRANCH  20  28
ENDBRANCH   1  17
TORSDOF 14
ENDMDL
