MODEL 18
REMARK VINA RESULT: -8.269643503      3.175      9.541
REMARK  14 active torsions:
REMARK  status: ('A' for Active; 'I' for Inactive)
REMARK    1  A    between atoms: C1_2  and  C2_4 
REMARK    2  A    between atoms: C2_4  and  C3_5 
REMARK    3  A    between atoms: C3_5  and  C4_6 
REMARK    4  A    between atoms: C4_6  and  C5_7 
REMARK    5  A    between atoms: C5_7  and  C6_8 
REMARK    6  A    between atoms: C6_8  and  C7_9 
REMARK    7  A    between atoms: C7_9  and  C8_10 
REMARK    8  A    between atoms: C8_10  and  C9_11 
REMARK    9  A    between atoms: C9_11  and  C10_12 
REMARK   10  A    between atoms: C10_12  and  C11_13 
REMARK   11  A    between atoms: C11_13  and  C12_14 
REMARK   12  A    between atoms: C12_14  and  N1_15 
REMARK   13  A    between atoms: N1_15  and  C13_17 
REMARK   14  A    between atoms: C16_20  and  N2_21 
ROOT
HETATM    1  N1  UNL     1     -25.059  12.607  28.120  1.00  0.00    -0.388 N 
ATOM      2  H1  UNL     1     -25.136  12.991  27.178  1.00  0.00     0.159 HD
ENDROOT
BRANCH   1   3
HETATM    3  C12 UNL     1     -24.527  11.274  28.252  1.00  0.00     0.120 C 
BRANCH   3   4
HETATM    4  C11 UNL     1     -23.118  11.277  27.750  1.00  0.00     0.020 C 
BRANCH   4   5
HETATM    5  C10 UNL     1     -22.796  10.092  26.845  1.00  0.00     0.002 C 
BRANCH   5   6
HETATM    6  C9  UNL     1     -22.746  10.486  25.404  1.00  0.00     0.000 C 
BRANCH   6   7
HETATM    7  C8  UNL     1     -23.758   9.734  24.609  1.00  0.00     0.000 C 
BRANCH   7   8
HETATM    8  C7  UNL     1     -23.151   9.017  23.469  1.00  0.00     0.000 C 
BRANCH   8   9
HETATM    9  C6  UNL     1     -23.458   9.667  22.138  1.00  0.00     0.000 C 
BRANCH   9  10
HETATM   10  C5  UNL     1     -22.246  10.222  21.477  1.00  0.00     0.000 C 
BRANCH  10  11
HETATM   11  C4  UNL     1     -22.536  10.897  20.153  1.00  0.00     0.001 C 
BRANCH  11  12
HETATM   12  C3  UNL     1     -23.889  11.536  20.128  1.00  0.00     0.010 C 
BRANCH  12  13
HETATM   13  C2  UNL     1     -23.799  13.036  20.076  1.00  0.00     0.113 C 
BRANCH  13  14
HETATM   14  C1  UNL     1     -24.692  13.591  21.117  1.00  0.00     0.172 C 
HETATM   15  O1  UNL     1     -25.783  13.070  21.450  1.00  0.00    -0.648 OA
HETATM   16  O2  UNL     1     -24.358  14.766  21.810  1.00  0.00    -0.648 OA
ENDBRANCH  13  14
ENDBRANCH  12  13
ENDBRANCH  11  12
ENDBRANCH  10  11
ENDBRANCH   9  10
ENDBRANCH   8   9
ENDBRANCH   7   8
ENDBRANCH   6   7
ENDBRANCH   5   6
ENDBRANCH   4   5
ENDBRANCH   3   4
ENDBRANCH   1   3
BRANCH   1  17
HETATM   17  C13 UNL     1     -25.479  13.415  29.181  1.00  0.00     0.059 A 
HETATM   18  C14 UNL     1     -24.778  14.479  29.678  1.00  0.00     0.034 A 
HETATM   19  C15 UNL     1     -25.231  15.244  30.750  1.00  0.00     0.041 A 
HETATM   20  C16 UNL     1     -26.435  14.913  31.332  1.00  0.00     0.134 A 
HETATM   21  C17 UNL     1     -27.180  13.840  30.859  1.00  0.00     0.120 A 
HETATM   22  N3  UNL     1     -28.340  13.292  31.199  1.00  0.00    -0.237 N 
HETATM   23  C18 UNL     1     -26.697  13.118  29.806  1.00  0.00     0.114 A 
HETATM   24  O5  UNL     1     -28.549  12.293  30.398  1.00  0.00    -0.156 OA
ATOM     25  H3  UNL     1     -28.954  13.601  31.952  1.00  0.00     0.197 HD
HETATM   26  N4  UNL     1     -27.589  12.149  29.542  1.00  0.00    -0.237 N 
ATOM     27  H4  UNL     1     -27.523  11.440  28.812  1.00  0.00     0.197 HD
BRANCH  20  28
HETATM   28  N2  UNL     1     -26.982  15.630  32.425  1.00  0.00    -0.113 N 
HETATM   29  O3  UNL     1     -27.286  16.834  32.302  1.00  0.00    -0.532 OA
HETATM   30  O4  UNL     1     -27.186  15.028  33.623  1.00  0.00    -0.532 OA
ENDBRANCH  20  28
ENDBRANCH   1  17
TORSDOF 14
ENDMDL
