MODEL 11
REMARK VINA RESULT: -6.428190088      3.652      6.621
REMARK  11 active torsions:
REMARK  status: ('A' for Active; 'I' for Inactive)
REMARK    1  A    between atoms: N1_1  and  C1_5 
REMARK    2  A    between atoms: C1_5  and  C2_6 
REMARK    3  A    between atoms: C1_5  and  C10_26 
REMARK    4  A    between atoms: C2_6  and  C3_7 
REMARK    5  A    between atoms: C3_7  and  C4_8 
REMARK       I    between atoms: C4_8  and  N2_10 
REMARK    6  A    between atoms: N2_10  and  C5_12 
REMARK    7  A    between atoms: C5_12  and  C6_13 
REMARK    8  A    between atoms: C5_12  and  C7_18 
REMARK    9  A    between atoms: C6_13  and  S1_14 
REMARK       I    between atoms: C7_18  and  N3_20 
REMARK   10  A    between atoms: N3_20  and  C8_22 
REMARK   11  A    between atoms: C8_22  and  C9_23 
ROOT
HETATM    1  C4  UNL     1     -44.357  42.858 -33.506  1.00  0.00     0.218 C 
HETATM    2  O1  UNL     1     -43.225  43.147 -33.009  1.00  0.00    -0.274 OA
HETATM    3  N2  UNL     1     -44.464  41.626 -34.191  1.00  0.00    -0.347 N 
ATOM      4  H2  UNL     1     -45.359  41.360 -34.604  1.00  0.00     0.163 HD
ENDROOT
BRANCH   3   5
HETATM    5  C5  UNL     1     -43.315  40.720 -34.321  1.00  0.00     0.193 C 
BRANCH   5   6
HETATM    6  C6  UNL     1     -43.799  39.292 -34.196  1.00  0.00     0.200 C 
BRANCH   6   7
HETATM    7  S1  UNL     1     -43.585  38.710 -32.568  1.00  0.00     0.104 S 
HETATM    8  O2  UNL     1     -44.907  37.766 -32.230  1.00  0.00    -0.595 OA
HETATM    9  O3  UNL     1     -43.819  40.167 -31.608  1.00  0.00    -0.595 OA
HETATM   10  O4  UNL     1     -42.334  38.081 -32.238  1.00  0.00    -0.595 OA
ENDBRANCH   6   7
ENDBRANCH   5   6
BRANCH   5  11
HETATM   11  C7  UNL     1     -42.640  40.891 -35.606  1.00  0.00     0.241 C 
HETATM   12  O5  UNL     1     -43.280  40.475 -36.634  1.00  0.00    -0.271 OA
HETATM   13  N3  UNL     1     -41.360  41.474 -35.807  1.00  0.00    -0.349 N 
ATOM     14  H3  UNL     1     -40.815  41.824 -35.019  1.00  0.00     0.163 HD
BRANCH  13  15
HETATM   15  C8  UNL     1     -40.848  41.560 -37.153  1.00  0.00     0.235 C 
BRANCH  15  16
HETATM   16  C9  UNL     1     -39.685  42.426 -37.283  1.00  0.00     0.191 C 
HETATM   17  O6  UNL     1     -38.565  41.949 -37.569  1.00  0.00    -0.647 OA
HETATM   18  O7  UNL     1     -39.798  43.788 -37.092  1.00  0.00    -0.647 OA
ENDBRANCH  15  16
ENDBRANCH  13  15
ENDBRANCH   5  11
ENDBRANCH   3   5
BRANCH   1  19
HETATM   19  C3  UNL     1     -45.525  43.787 -33.369  1.00  0.00     0.105 C 
BRANCH  19  20
HETATM   20  C2  UNL     1     -45.663  44.196 -31.924  1.00  0.00     0.053 C 
BRANCH  20  21
HETATM   21  C1  UNL     1     -47.019  44.829 -31.698  1.00  0.00     0.283 C 
BRANCH  21  22
HETATM   22  N1  UNL     1     -46.991  45.750 -30.580  1.00  0.00    -0.065 N 
ATOM     23  H13 UNL     1     -46.970  45.255 -29.688  1.00  0.00     0.275 HD
ATOM     24  H12 UNL     1     -46.095  46.231 -30.514  1.00  0.00     0.275 HD
ATOM     25  H11 UNL     1     -47.768  46.409 -30.624  1.00  0.00     0.275 HD
ENDBRANCH  21  22
BRANCH  21  26
HETATM   26  C10 UNL     1     -48.036  43.802 -31.473  1.00  0.00     0.204 C 
HETATM   27  O8  UNL     1     -48.154  43.281 -30.340  1.00  0.00    -0.646 OA
HETATM   28  O9  UNL     1     -48.890  43.374 -32.489  1.00  0.00    -0.646 OA
ENDBRANCH  21  26
ENDBRANCH  20  21
ENDBRANCH  19  20
ENDBRANCH   1  19
TORSDOF 11
ENDMDL
