MODEL 2
REMARK VINA RESULT: -6.732965023      1.091      1.635
REMARK  11 active torsions:
REMARK  status: ('A' for Active; 'I' for Inactive)
REMARK    1  A    between atoms: N1_1  and  C1_5 
REMARK    2  A    between atoms: C1_5  and  C2_6 
REMARK    3  A    between atoms: C1_5  and  C10_26 
REMARK    4  A    between atoms: C2_6  and  C3_7 
REMARK    5  A    between atoms: C3_7  and  C4_8 
REMARK       I    between atoms: C4_8  and  N2_10 
REMARK    6  A    between atoms: N2_10  and  C5_12 
REMARK    7  A    between atoms: C5_12  and  C6_13 
REMARK    8  A    between atoms: C5_12  and  C7_18 
REMARK    9  A    between atoms: C6_13  and  S1_14 
REMARK       I    between atoms: C7_18  and  N3_20 
REMARK   10  A    between atoms: N3_20  and  C8_22 
REMARK   11  A    between atoms: C8_22  and  C9_23 
ROOT
HETATM    1  C4  UNL     1     -43.561  41.029 -32.385  1.00  0.00     0.218 C 
HETATM    2  O1  UNL     1     -44.605  40.540 -32.913  1.00  0.00    -0.274 OA
HETATM    3  N2  UNL     1     -43.720  42.194 -31.598  1.00  0.00    -0.347 N 
ATOM      4  H2  UNL     1     -42.903  42.615 -31.157  1.00  0.00     0.163 HD
ENDROOT
BRANCH   3   5
HETATM    5  C5  UNL     1     -45.040  42.810 -31.403  1.00  0.00     0.193 C 
BRANCH   5   6
HETATM    6  C6  UNL     1     -44.984  43.718 -30.195  1.00  0.00     0.200 C 
BRANCH   6   7
HETATM    7  S1  UNL     1     -46.547  43.828 -29.433  1.00  0.00     0.104 S 
HETATM    8  O2  UNL     1     -46.382  44.898 -28.177  1.00  0.00    -0.595 OA
HETATM    9  O3  UNL     1     -46.705  42.254 -28.661  1.00  0.00    -0.595 OA
HETATM   10  O4  UNL     1     -47.685  44.099 -30.270  1.00  0.00    -0.595 OA
ENDBRANCH   6   7
ENDBRANCH   5   6
BRANCH   5  11
HETATM   11  C7  UNL     1     -45.448  43.584 -32.573  1.00  0.00     0.241 C 
HETATM   12  O5  UNL     1     -44.508  44.184 -33.202  1.00  0.00    -0.271 OA
HETATM   13  N3  UNL     1     -46.774  43.722 -33.064  1.00  0.00    -0.349 N 
ATOM     14  H3  UNL     1     -47.555  43.259 -32.599  1.00  0.00     0.163 HD
BRANCH  13  15
HETATM   15  C8  UNL     1     -46.991  44.533 -34.238  1.00  0.00     0.235 C 
BRANCH  15  16
HETATM   16  C9  UNL     1     -48.152  44.130 -35.021  1.00  0.00     0.191 C 
HETATM   17  O6  UNL     1     -49.266  43.980 -34.473  1.00  0.00    -0.647 OA
HETATM   18  O7  UNL     1     -48.042  43.907 -36.377  1.00  0.00    -0.647 OA
ENDBRANCH  15  16
ENDBRANCH  13  15
ENDBRANCH   5  11
ENDBRANCH   3   5
BRANCH   1  19
HETATM   19  C3  UNL     1     -42.218  40.395 -32.588  1.00  0.00     0.105 C 
BRANCH  19  20
HETATM   20  C2  UNL     1     -42.164  39.098 -31.821  1.00  0.00     0.053 C 
BRANCH  20  21
HETATM   21  C1  UNL     1     -42.248  37.931 -32.781  1.00  0.00     0.283 C 
BRANCH  21  22
HETATM   22  N1  UNL     1     -42.460  38.382 -34.141  1.00  0.00    -0.065 N 
ATOM     23  H13 UNL     1     -42.806  37.629 -34.736  1.00  0.00     0.275 HD
ATOM     24  H12 UNL     1     -43.259  39.013 -34.206  1.00  0.00     0.275 HD
ATOM     25  H11 UNL     1     -41.617  38.806 -34.527  1.00  0.00     0.275 HD
ENDBRANCH  21  22
BRANCH  21  26
HETATM   26  C10 UNL     1     -43.318  37.016 -32.387  1.00  0.00     0.204 C 
HETATM   27  O8  UNL     1     -44.477  37.456 -32.202  1.00  0.00    -0.646 OA
HETATM   28  O9  UNL     1     -43.094  35.652 -32.205  1.00  0.00    -0.646 OA
ENDBRANCH  21  26
ENDBRANCH  20  21
ENDBRANCH  19  20
ENDBRANCH   1  19
TORSDOF 11
ENDMDL
