MODEL 6
REMARK VINA RESULT: -6.562512617      3.528      6.600
REMARK  11 active torsions:
REMARK  status: ('A' for Active; 'I' for Inactive)
REMARK    1  A    between atoms: N1_1  and  C1_5 
REMARK    2  A    between atoms: C1_5  and  C2_6 
REMARK    3  A    between atoms: C1_5  and  C10_26 
REMARK    4  A    between atoms: C2_6  and  C3_7 
REMARK    5  A    between atoms: C3_7  and  C4_8 
REMARK       I    between atoms: C4_8  and  N2_10 
REMARK    6  A    between atoms: N2_10  and  C5_12 
REMARK    7  A    between atoms: C5_12  and  C6_13 
REMARK    8  A    between atoms: C5_12  and  C7_18 
REMARK    9  A    between atoms: C6_13  and  S1_14 
REMARK       I    between atoms: C7_18  and  N3_20 
REMARK   10  A    between atoms: N3_20  and  C8_22 
REMARK   11  A    between atoms: C8_22  and  C9_23 
ROOT
HETATM    1  C4  UNL     1     -44.703  42.563 -33.425  1.00  0.00     0.218 C 
HETATM    2  O1  UNL     1     -43.637  42.957 -32.860  1.00  0.00    -0.274 OA
HETATM    3  N2  UNL     1     -44.637  41.353 -34.156  1.00  0.00    -0.347 N 
ATOM      4  H2  UNL     1     -45.474  41.005 -34.622  1.00  0.00     0.163 HD
ENDROOT
BRANCH   3   5
HETATM    5  C5  UNL     1     -43.387  40.588 -34.256  1.00  0.00     0.193 C 
BRANCH   5   6
HETATM    6  C6  UNL     1     -43.707  39.112 -34.186  1.00  0.00     0.200 C 
BRANCH   6   7
HETATM    7  S1  UNL     1     -43.794  38.579 -32.529  1.00  0.00     0.104 S 
HETATM    8  O2  UNL     1     -43.710  39.946 -31.592  1.00  0.00    -0.595 OA
HETATM    9  O3  UNL     1     -42.238  37.786 -32.303  1.00  0.00    -0.595 OA
HETATM   10  O4  UNL     1     -44.869  37.698 -32.161  1.00  0.00    -0.595 OA
ENDBRANCH   6   7
ENDBRANCH   5   6
BRANCH   5  11
HETATM   11  C7  UNL     1     -42.685  40.873 -35.506  1.00  0.00     0.241 C 
HETATM   12  O5  UNL     1     -43.292  40.528 -36.579  1.00  0.00    -0.271 OA
HETATM   13  N3  UNL     1     -41.411  41.491 -35.628  1.00  0.00    -0.349 N 
ATOM     14  H3  UNL     1     -40.892  41.786 -34.802  1.00  0.00     0.163 HD
BRANCH  13  15
HETATM   15  C8  UNL     1     -40.869  41.691 -36.951  1.00  0.00     0.235 C 
BRANCH  15  16
HETATM   16  C9  UNL     1     -39.629  42.455 -36.965  1.00  0.00     0.191 C 
HETATM   17  O6  UNL     1     -38.557  41.934 -36.586  1.00  0.00    -0.647 OA
HETATM   18  O7  UNL     1     -39.615  43.765 -37.396  1.00  0.00    -0.647 OA
ENDBRANCH  15  16
ENDBRANCH  13  15
ENDBRANCH   5  11
ENDBRANCH   3   5
BRANCH   1  19
HETATM   19  C3  UNL     1     -45.976  43.348 -33.317  1.00  0.00     0.105 C 
BRANCH  19  20
HETATM   20  C2  UNL     1     -46.031  44.014 -31.965  1.00  0.00     0.053 C 
BRANCH  20  21
HETATM   21  C1  UNL     1     -47.147  43.409 -31.141  1.00  0.00     0.283 C 
BRANCH  21  22
HETATM   22  N1  UNL     1     -48.385  44.141 -31.312  1.00  0.00    -0.065 N 
ATOM     23  H13 UNL     1     -49.163  43.677 -30.843  1.00  0.00     0.275 HD
ATOM     24  H12 UNL     1     -48.380  45.013 -30.783  1.00  0.00     0.275 HD
ATOM     25  H11 UNL     1     -48.586  44.304 -32.299  1.00  0.00     0.275 HD
ENDBRANCH  21  22
BRANCH  21  26
HETATM   26  C10 UNL     1     -46.781  43.374 -29.725  1.00  0.00     0.204 C 
HETATM   27  O8  UNL     1     -46.510  42.279 -29.179  1.00  0.00    -0.646 OA
HETATM   28  O9  UNL     1     -46.722  44.531 -28.949  1.00  0.00    -0.646 OA
ENDBRANCH  21  26
ENDBRANCH  20  21
ENDBRANCH  19  20
ENDBRANCH   1  19
TORSDOF 11
ENDMDL
