MODEL 4
REMARK VINA RESULT: -6.684291805      3.581      6.572
REMARK  11 active torsions:
REMARK  status: ('A' for Active; 'I' for Inactive)
REMARK    1  A    between atoms: N1_1  and  C1_5 
REMARK    2  A    between atoms: C1_5  and  C2_6 
REMARK    3  A    between atoms: C1_5  and  C10_26 
REMARK    4  A    between atoms: C2_6  and  C3_7 
REMARK    5  A    between atoms: C3_7  and  C4_8 
REMARK       I    between atoms: C4_8  and  N2_10 
REMARK    6  A    between atoms: N2_10  and  C5_12 
REMARK    7  A    between atoms: C5_12  and  C6_13 
REMARK    8  A    between atoms: C5_12  and  C7_18 
REMARK    9  A    between atoms: C6_13  and  S1_14 
REMARK       I    between atoms: C7_18  and  N3_20 
REMARK   10  A    between atoms: N3_20  and  C8_22 
REMARK   11  A    between atoms: C8_22  and  C9_23 
ROOT
HETATM    1  C4  UNL     1     -44.637  42.611 -33.440  1.00  0.00     0.218 C 
HETATM    2  O1  UNL     1     -43.602  43.144 -32.935  1.00  0.00    -0.274 OA
HETATM    3  N2  UNL     1     -44.466  41.376 -34.109  1.00  0.00    -0.347 N 
ATOM      4  H2  UNL     1     -45.275  40.918 -34.527  1.00  0.00     0.163 HD
ENDROOT
BRANCH   3   5
HETATM    5  C5  UNL     1     -43.145  40.740 -34.213  1.00  0.00     0.193 C 
BRANCH   5   6
HETATM    6  C6  UNL     1     -43.294  39.257 -33.959  1.00  0.00     0.200 C 
BRANCH   6   7
HETATM    7  S1  UNL     1     -43.558  38.946 -32.265  1.00  0.00     0.104 S 
HETATM    8  O2  UNL     1     -42.268  38.040 -31.748  1.00  0.00    -0.595 OA
HETATM    9  O3  UNL     1     -44.912  37.820 -32.292  1.00  0.00    -0.595 OA
HETATM   10  O4  UNL     1     -43.849  40.068 -31.413  1.00  0.00    -0.595 OA
ENDBRANCH   6   7
ENDBRANCH   5   6
BRANCH   5  11
HETATM   11  C7  UNL     1     -42.554  40.948 -35.534  1.00  0.00     0.241 C 
HETATM   12  O5  UNL     1     -43.261  40.565 -36.530  1.00  0.00    -0.271 OA
HETATM   13  N3  UNL     1     -41.287  41.533 -35.800  1.00  0.00    -0.349 N 
ATOM     14  H3  UNL     1     -40.691  41.858 -35.039  1.00  0.00     0.163 HD
BRANCH  13  15
HETATM   15  C8  UNL     1     -40.863  41.657 -37.174  1.00  0.00     0.235 C 
BRANCH  15  16
HETATM   16  C9  UNL     1     -39.680  42.489 -37.347  1.00  0.00     0.191 C 
HETATM   17  O6  UNL     1     -39.746  43.729 -37.196  1.00  0.00    -0.647 OA
HETATM   18  O7  UNL     1     -38.466  41.924 -37.681  1.00  0.00    -0.647 OA
ENDBRANCH  15  16
ENDBRANCH  13  15
ENDBRANCH   5  11
ENDBRANCH   3   5
BRANCH   1  19
HETATM   19  C3  UNL     1     -45.981  43.265 -33.328  1.00  0.00     0.105 C 
BRANCH  19  20
HETATM   20  C2  UNL     1     -46.071  43.983 -32.006  1.00  0.00     0.053 C 
BRANCH  20  21
HETATM   21  C1  UNL     1     -47.207  43.409 -31.187  1.00  0.00     0.283 C 
BRANCH  21  22
HETATM   22  N1  UNL     1     -48.417  44.190 -31.342  1.00  0.00    -0.065 N 
ATOM     23  H13 UNL     1     -48.257  45.017 -31.918  1.00  0.00     0.275 HD
ATOM     24  H12 UNL     1     -49.096  43.714 -31.936  1.00  0.00     0.275 HD
ATOM     25  H11 UNL     1     -48.818  44.435 -30.437  1.00  0.00     0.275 HD
ENDBRANCH  21  22
BRANCH  21  26
HETATM   26  C10 UNL     1     -46.838  43.337 -29.773  1.00  0.00     0.204 C 
HETATM   27  O8  UNL     1     -46.854  44.376 -29.072  1.00  0.00    -0.646 OA
HETATM   28  O9  UNL     1     -46.462  42.138 -29.168  1.00  0.00    -0.646 OA
ENDBRANCH  21  26
ENDBRANCH  20  21
ENDBRANCH  19  20
ENDBRANCH   1  19
TORSDOF 11
ENDMDL
