MODEL 13
REMARK VINA RESULT: -6.412977599      3.610      6.838
REMARK  11 active torsions:
REMARK  status: ('A' for Active; 'I' for Inactive)
REMARK    1  A    between atoms: N1_1  and  C1_5 
REMARK    2  A    between atoms: C1_5  and  C2_6 
REMARK    3  A    between atoms: C1_5  and  C10_26 
REMARK    4  A    between atoms: C2_6  and  C3_7 
REMARK    5  A    between atoms: C3_7  and  C4_8 
REMARK       I    between atoms: C4_8  and  N2_10 
REMARK    6  A    between atoms: N2_10  and  C5_12 
REMARK    7  A    between atoms: C5_12  and  C6_13 
REMARK    8  A    between atoms: C5_12  and  C7_18 
REMARK    9  A    between atoms: C6_13  and  S1_14 
REMARK       I    between atoms: C7_18  and  N3_20 
REMARK   10  A    between atoms: N3_20  and  C8_22 
REMARK   11  A    between atoms: C8_22  and  C9_23 
ROOT
HETATM    1  C4  UNL     1     -44.335  42.166 -33.209  1.00  0.00     0.218 C 
HETATM    2  O1  UNL     1     -43.209  42.505 -32.731  1.00  0.00    -0.274 OA
HETATM    3  N2  UNL     1     -44.360  41.037 -34.062  1.00  0.00    -0.347 N 
ATOM      4  H2  UNL     1     -45.247  40.735 -34.464  1.00  0.00     0.163 HD
ENDROOT
BRANCH   3   5
HETATM    5  C5  UNL     1     -43.134  40.292 -34.380  1.00  0.00     0.193 C 
BRANCH   5   6
HETATM    6  C6  UNL     1     -43.457  38.815 -34.429  1.00  0.00     0.200 C 
BRANCH   6   7
HETATM    7  S1  UNL     1     -43.656  38.175 -32.820  1.00  0.00     0.104 S 
HETATM    8  O2  UNL     1     -42.924  39.253 -31.793  1.00  0.00    -0.595 OA
HETATM    9  O3  UNL     1     -42.588  36.775 -32.833  1.00  0.00    -0.595 OA
HETATM   10  O4  UNL     1     -44.980  37.799 -32.406  1.00  0.00    -0.595 OA
ENDBRANCH   6   7
ENDBRANCH   5   6
BRANCH   5  11
HETATM   11  C7  UNL     1     -42.574  40.708 -35.664  1.00  0.00     0.241 C 
HETATM   12  O5  UNL     1     -43.280  40.438 -36.697  1.00  0.00    -0.271 OA
HETATM   13  N3  UNL     1     -41.335  41.378 -35.859  1.00  0.00    -0.349 N 
ATOM     14  H3  UNL     1     -40.741  41.618 -35.065  1.00  0.00     0.163 HD
BRANCH  13  15
HETATM   15  C8  UNL     1     -40.939  41.710 -37.206  1.00  0.00     0.235 C 
BRANCH  15  16
HETATM   16  C9  UNL     1     -39.640  42.365 -37.288  1.00  0.00     0.191 C 
HETATM   17  O6  UNL     1     -38.594  41.690 -37.402  1.00  0.00    -0.647 OA
HETATM   18  O7  UNL     1     -39.542  43.740 -37.241  1.00  0.00    -0.647 OA
ENDBRANCH  15  16
ENDBRANCH  13  15
ENDBRANCH   5  11
ENDBRANCH   3   5
BRANCH   1  19
HETATM   19  C3  UNL     1     -45.581  42.930 -32.879  1.00  0.00     0.105 C 
BRANCH  19  20
HETATM   20  C2  UNL     1     -45.541  44.265 -33.579  1.00  0.00     0.053 C 
BRANCH  20  21
HETATM   21  C1  UNL     1     -46.888  44.945 -33.464  1.00  0.00     0.283 C 
BRANCH  21  22
HETATM   22  N1  UNL     1     -47.303  45.061 -32.081  1.00  0.00    -0.065 N 
ATOM     23  H13 UNL     1     -47.850  44.252 -31.785  1.00  0.00     0.275 HD
ATOM     24  H12 UNL     1     -46.514  44.958 -31.444  1.00  0.00     0.275 HD
ATOM     25  H11 UNL     1     -47.805  45.933 -31.917  1.00  0.00     0.275 HD
ENDBRANCH  21  22
BRANCH  21  26
HETATM   26  C10 UNL     1     -47.900  44.215 -34.228  1.00  0.00     0.204 C 
HETATM   27  O8  UNL     1     -48.879  43.703 -33.636  1.00  0.00    -0.646 OA
HETATM   28  O9  UNL     1     -47.814  44.064 -35.612  1.00  0.00    -0.646 OA
ENDBRANCH  21  26
ENDBRANCH  20  21
ENDBRANCH  19  20
ENDBRANCH   1  19
TORSDOF 11
ENDMDL
