MODEL 12
REMARK VINA RESULT: -4.739339621      1.734      1.809
REMARK  4 active torsions:
REMARK  status: ('A' for Active; 'I' for Inactive)
REMARK    1  A    between atoms: O1_1  and  C1_3 
REMARK    2  A    between atoms: C1_3  and  C2_4 
REMARK    3  A    between atoms: C4_9  and  O2_10 
REMARK    4  A    between atoms: C5_12  and  O3_13 
ROOT
HETATM    1  C2  UNL     1     -11.799   5.521 -28.424  1.00  0.00     0.240 C 
HETATM    2  N1  UNL     1     -11.703   6.611 -27.465  1.00  0.00    -0.064 N 
ATOM      3  H11 UNL     1     -12.586   6.988 -27.121  1.00  0.00     0.277 HD
ATOM      4  H12 UNL     1     -11.377   7.506 -27.831  1.00  0.00     0.277 HD
HETATM    5  C3  UNL     1     -10.838   5.964 -26.463  1.00  0.00     0.267 C 
HETATM    6  C4  UNL     1      -9.787   5.260 -27.299  1.00  0.00     0.174 C 
HETATM    7  C5  UNL     1     -10.327   5.339 -28.729  1.00  0.00     0.181 C 
ENDROOT
BRANCH   1   8
HETATM    8  C1  UNL     1     -12.607   5.871 -29.630  1.00  0.00     0.199 C 
BRANCH   8   9
HETATM    9  O1  UNL     1     -12.414   4.928 -30.623  1.00  0.00    -0.399 OA
ATOM     10  H1  UNL     1     -12.361   5.352 -31.471  1.00  0.00     0.209 HD
ENDBRANCH   8   9
ENDBRANCH   1   8
BRANCH   7  11
HETATM   11  O3  UNL     1     -10.063   4.202 -29.453  1.00  0.00    -0.391 OA
ATOM     12  H3  UNL     1     -10.165   3.405 -28.946  1.00  0.00     0.210 HD
ENDBRANCH   7  11
BRANCH   6  13
HETATM   13  O2  UNL     1      -8.567   5.906 -27.176  1.00  0.00    -0.391 OA
ATOM     14  H2  UNL     1      -8.111   5.907 -28.010  1.00  0.00     0.210 HD
ENDBRANCH   6  13
TORSDOF 4
ENDMDL
