MODEL 1
REMARK VINA RESULT: -5.139411939      0.000      0.000
REMARK  4 active torsions:
REMARK  status: ('A' for Active; 'I' for Inactive)
REMARK    1  A    between atoms: O1_1  and  C1_3 
REMARK    2  A    between atoms: C1_3  and  C2_4 
REMARK    3  A    between atoms: C4_9  and  O2_10 
REMARK    4  A    between atoms: C5_12  and  O3_13 
ROOT
HETATM    1  C2  UNL     1     -11.198   5.657 -28.824  1.00  0.00     0.240 C 
HETATM    2  N1  UNL     1     -10.044   6.504 -29.084  1.00  0.00    -0.064 N 
ATOM      3  H11 UNL     1     -10.157   7.496 -28.874  1.00  0.00     0.277 HD
ATOM      4  H12 UNL     1      -9.812   6.661 -30.065  1.00  0.00     0.277 HD
HETATM    5  C3  UNL     1      -9.038   5.781 -28.286  1.00  0.00     0.267 C 
HETATM    6  C4  UNL     1      -9.313   4.323 -28.602  1.00  0.00     0.174 C 
HETATM    7  C5  UNL     1     -10.652   4.342 -29.341  1.00  0.00     0.181 C 
ENDROOT
BRANCH   1   8
HETATM    8  C1  UNL     1     -12.428   6.104 -29.543  1.00  0.00     0.199 C 
BRANCH   8   9
HETATM    9  O1  UNL     1     -12.671   5.281 -30.627  1.00  0.00    -0.399 OA
ATOM     10  H1  UNL     1     -13.601   5.102 -30.699  1.00  0.00     0.209 HD
ENDBRANCH   8   9
ENDBRANCH   1   8
BRANCH   7  11
HETATM   11  O3  UNL     1     -11.444   3.267 -29.021  1.00  0.00    -0.391 OA
ATOM     12  H3  UNL     1     -11.777   2.809 -29.783  1.00  0.00     0.210 HD
ENDBRANCH   7  11
BRANCH   6  13
HETATM   13  O2  UNL     1      -8.298   3.808 -29.394  1.00  0.00    -0.391 OA
ATOM     14  H2  UNL     1      -8.289   2.859 -29.339  1.00  0.00     0.210 HD
ENDBRANCH   6  13
TORSDOF 4
ENDMDL
