MODEL 3
REMARK VINA RESULT: -7.916815247      3.666      6.702
REMARK  8 active torsions:
REMARK  status: ('A' for Active; 'I' for Inactive)
REMARK    1  A    between atoms: O1_2  and  C2_3 
REMARK    2  A    between atoms: C5_6  and  C6_7 
REMARK    3  A    between atoms: C11_17  and  C12_18 
REMARK    4  A    between atoms: C16_25  and  O3_26 
REMARK    5  A    between atoms: O3_26  and  C17_27 
REMARK    6  A    between atoms: C17_27  and  C18_28 
REMARK    7  A    between atoms: C18_28  and  C19_29 
REMARK    8  A    between atoms: C19_29  and  C20_30 
ROOT
HETATM    1  C6  UNL     1      67.790  37.743  26.390  1.00  0.00     0.013 A 
HETATM    2  C7  UNL     1      68.451  36.739  27.053  1.00  0.00     0.097 A 
HETATM    3  C8  UNL     1      68.412  35.386  26.506  1.00  0.00     0.104 C 
HETATM    4  N1  UNL     1      68.373  34.300  26.090  1.00  0.00    -0.191 NA
HETATM    5  C9  UNL     1      69.163  36.908  28.224  1.00  0.00     0.139 A 
HETATM    6  N2  UNL     1      69.824  35.837  28.867  1.00  0.00    -0.081 NA
HETATM    7  N3  UNL     1      69.177  38.172  28.708  1.00  0.00    -0.337 N 
ATOM      8  H3  UNL     1      69.685  38.368  29.570  1.00  0.00     0.167 HD
HETATM    9  C10 UNL     1      68.526  39.192  28.069  1.00  0.00     0.089 A 
HETATM   10  S1  UNL     1      68.379  40.854  28.413  1.00  0.00    -0.064 SA
HETATM   11  C11 UNL     1      67.422  41.327  27.080  1.00  0.00     0.097 A 
HETATM   12  C13 UNL     1      67.244  40.152  26.397  1.00  0.00     0.082 A 
HETATM   13  N5  UNL     1      66.463  40.191  25.172  1.00  0.00    -0.100 NA
HETATM   14  C14 UNL     1      67.819  39.047  26.912  1.00  0.00     0.036 A 
ENDROOT
BRANCH   1  15
HETATM   15  C5  UNL     1      67.095  37.415  25.147  1.00  0.00    -0.021 A 
HETATM   16  C4  UNL     1      67.704  37.614  23.908  1.00  0.00     0.015 A 
HETATM   17  C3  UNL     1      67.013  37.274  22.767  1.00  0.00     0.040 A 
HETATM   18  C2  UNL     1      65.747  36.741  22.764  1.00  0.00     0.101 A 
HETATM   19  C16 UNL     1      65.160  36.551  24.027  1.00  0.00     0.102 A 
HETATM   20  C15 UNL     1      65.829  36.886  25.186  1.00  0.00     0.052 A 
BRANCH  18  21
HETATM   21  O1  UNL     1      65.044  36.397  21.608  1.00  0.00    -0.353 OA
HETATM   22  C1  UNL     1      65.214  37.251  20.480  1.00  0.00     0.210 C 
ENDBRANCH  18  21
BRANCH  19  23
HETATM   23  O3  UNL     1      63.887  36.011  24.016  1.00  0.00    -0.348 OA
BRANCH  23  24
HETATM   24  C17 UNL     1      63.591  34.645  23.853  1.00  0.00     0.176 C 
BRANCH  24  25
HETATM   25  C18 UNL     1      63.121  33.995  25.111  1.00  0.00     0.037 C 
BRANCH  25  26
HETATM   26  C19 UNL     1      64.076  33.032  25.733  1.00  0.00     0.115 C 
BRANCH  26  27
HETATM   27  C20 UNL     1      63.804  32.910  27.192  1.00  0.00     0.172 C 
HETATM   28  O4  UNL     1      62.607  33.170  27.576  1.00  0.00    -0.648 OA
HETATM   29  O5  UNL     1      64.731  32.544  28.140  1.00  0.00    -0.648 OA
ENDBRANCH  26  27
ENDBRANCH  25  26
ENDBRANCH  24  25
ENDBRANCH  23  24
ENDBRANCH  19  23
ENDBRANCH   1  15
BRANCH  11  30
HETATM   30  C12 UNL     1      66.903  42.674  26.732  1.00  0.00     0.273 C 
HETATM   31  N4  UNL     1      67.801  43.772  26.857  1.00  0.00    -0.057 NA
HETATM   32  O2  UNL     1      65.736  42.851  26.343  1.00  0.00    -0.270 OA
ENDBRANCH  11  30
TORSDOF 8
ENDMDL
