MODEL 1
REMARK VINA RESULT: -8.322475694      0.000      0.000
REMARK  8 active torsions:
REMARK  status: ('A' for Active; 'I' for Inactive)
REMARK    1  A    between atoms: O1_2  and  C2_3 
REMARK    2  A    between atoms: C5_6  and  C6_7 
REMARK    3  A    between atoms: C11_17  and  C12_18 
REMARK    4  A    between atoms: C16_25  and  O3_26 
REMARK    5  A    between atoms: O3_26  and  C17_27 
REMARK    6  A    between atoms: C17_27  and  C18_28 
REMARK    7  A    between atoms: C18_28  and  C19_29 
REMARK    8  A    between atoms: C19_29  and  C20_30 
ROOT
HETATM    1  C6  UNL     1      65.529  34.533  24.932  1.00  0.00     0.013 A 
HETATM    2  C7  UNL     1      64.656  33.717  25.607  1.00  0.00     0.097 A 
HETATM    3  C8  UNL     1      65.089  33.093  26.854  1.00  0.00     0.104 C 
HETATM    4  N1  UNL     1      65.430  32.577  27.839  1.00  0.00    -0.191 NA
HETATM    5  C9  UNL     1      63.371  33.429  25.190  1.00  0.00     0.139 A 
HETATM    6  N2  UNL     1      62.512  32.579  25.924  1.00  0.00    -0.081 NA
HETATM    7  N3  UNL     1      63.000  34.017  24.030  1.00  0.00    -0.337 N 
ATOM      8  H3  UNL     1      62.063  33.848  23.664  1.00  0.00     0.167 HD
HETATM    9  C10 UNL     1      63.850  34.835  23.336  1.00  0.00     0.089 A 
HETATM   10  S1  UNL     1      63.671  35.715  21.889  1.00  0.00    -0.064 SA
HETATM   11  C11 UNL     1      65.214  36.442  21.815  1.00  0.00     0.097 A 
HETATM   12  C13 UNL     1      65.832  35.965  22.943  1.00  0.00     0.082 A 
HETATM   13  N5  UNL     1      67.193  36.401  23.206  1.00  0.00    -0.100 NA
HETATM   14  C14 UNL     1      65.121  35.133  23.729  1.00  0.00     0.036 A 
ENDROOT
BRANCH   1  15
HETATM   15  C5  UNL     1      66.853  34.761  25.509  1.00  0.00    -0.021 A 
HETATM   16  C4  UNL     1      67.870  33.818  25.372  1.00  0.00     0.015 A 
HETATM   17  C3  UNL     1      69.104  34.087  25.921  1.00  0.00     0.040 A 
HETATM   18  C2  UNL     1      69.407  35.240  26.602  1.00  0.00     0.101 A 
HETATM   19  C16 UNL     1      68.362  36.172  26.723  1.00  0.00     0.102 A 
HETATM   20  C15 UNL     1      67.116  35.926  26.185  1.00  0.00     0.052 A 
BRANCH  18  21
HETATM   21  O1  UNL     1      70.657  35.514  27.160  1.00  0.00    -0.353 OA
HETATM   22  C1  UNL     1      71.624  34.469  27.106  1.00  0.00     0.210 C 
ENDBRANCH  18  21
BRANCH  19  23
HETATM   23  O3  UNL     1      68.677  37.333  27.408  1.00  0.00    -0.348 OA
BRANCH  23  24
HETATM   24  C17 UNL     1      68.430  38.636  26.942  1.00  0.00     0.176 C 
BRANCH  24  25
HETATM   25  C18 UNL     1      67.300  39.305  27.650  1.00  0.00     0.037 C 
BRANCH  25  26
HETATM   26  C19 UNL     1      65.937  38.992  27.129  1.00  0.00     0.115 C 
BRANCH  26  27
HETATM   27  C20 UNL     1      65.766  39.566  25.766  1.00  0.00     0.172 C 
HETATM   28  O4  UNL     1      65.223  38.806  24.887  1.00  0.00    -0.648 OA
HETATM   29  O5  UNL     1      66.143  40.835  25.392  1.00  0.00    -0.648 OA
ENDBRANCH  26  27
ENDBRANCH  25  26
ENDBRANCH  24  25
ENDBRANCH  23  24
ENDBRANCH  19  23
ENDBRANCH   1  15
BRANCH  11  30
HETATM   30  C12 UNL     1      65.767  37.364  20.792  1.00  0.00     0.273 C 
HETATM   31  N4  UNL     1      66.920  36.931  20.078  1.00  0.00    -0.057 NA
HETATM   32  O2  UNL     1      65.254  38.471  20.555  1.00  0.00    -0.270 OA
ENDBRANCH  11  30
TORSDOF 8
ENDMDL
