MODEL 4
REMARK VINA RESULT: -7.574585955      2.545      4.419
REMARK  8 active torsions:
REMARK  status: ('A' for Active; 'I' for Inactive)
REMARK    1  A    between atoms: O1_2  and  C2_3 
REMARK    2  A    between atoms: C5_6  and  C6_7 
REMARK    3  A    between atoms: C11_17  and  C12_18 
REMARK    4  A    between atoms: C16_25  and  O3_26 
REMARK    5  A    between atoms: O3_26  and  C17_27 
REMARK    6  A    between atoms: C17_27  and  C18_28 
REMARK    7  A    between atoms: C18_28  and  C19_29 
REMARK    8  A    between atoms: C19_29  and  C20_30 
ROOT
HETATM    1  C6  UNL     1      65.359  36.623  23.064  1.00  0.00     0.013 A 
HETATM    2  C7  UNL     1      64.280  35.778  23.152  1.00  0.00     0.097 A 
HETATM    3  C8  UNL     1      63.939  35.198  24.448  1.00  0.00     0.104 C 
HETATM    4  N1  UNL     1      63.669  34.716  25.471  1.00  0.00    -0.191 NA
HETATM    5  C9  UNL     1      63.475  35.422  22.088  1.00  0.00     0.139 A 
HETATM    6  N2  UNL     1      62.375  34.545  22.234  1.00  0.00    -0.081 NA
HETATM    7  N3  UNL     1      63.818  35.972  20.901  1.00  0.00    -0.337 N 
ATOM      8  H3  UNL     1      63.265  35.752  20.072  1.00  0.00     0.167 HD
HETATM    9  C10 UNL     1      64.889  36.816  20.784  1.00  0.00     0.089 A 
HETATM   10  S1  UNL     1      65.545  37.661  19.459  1.00  0.00    -0.064 SA
HETATM   11  C11 UNL     1      66.830  38.460  20.250  1.00  0.00     0.097 A 
HETATM   12  C13 UNL     1      66.704  38.033  21.547  1.00  0.00     0.082 A 
HETATM   13  N5  UNL     1      67.656  38.538  22.523  1.00  0.00    -0.100 NA
HETATM   14  C14 UNL     1      65.696  37.182  21.820  1.00  0.00     0.036 A 
ENDROOT
BRANCH   1  15
HETATM   15  C5  UNL     1      66.106  36.924  24.284  1.00  0.00    -0.021 A 
HETATM   16  C4  UNL     1      65.730  37.978  25.116  1.00  0.00     0.015 A 
HETATM   17  C3  UNL     1      66.457  38.211  26.262  1.00  0.00     0.040 A 
HETATM   18  C2  UNL     1      67.542  37.464  26.649  1.00  0.00     0.101 A 
HETATM   19  C16 UNL     1      67.896  36.408  25.791  1.00  0.00     0.102 A 
HETATM   20  C15 UNL     1      67.186  36.154  24.636  1.00  0.00     0.052 A 
BRANCH  18  21
HETATM   21  O1  UNL     1      68.281  37.699  27.809  1.00  0.00    -0.353 OA
HETATM   22  C1  UNL     1      68.699  39.042  28.038  1.00  0.00     0.210 C 
ENDBRANCH  18  21
BRANCH  19  23
HETATM   23  O3  UNL     1      68.988  35.658  26.191  1.00  0.00    -0.348 OA
BRANCH  23  24
HETATM   24  C17 UNL     1      69.124  34.271  26.006  1.00  0.00     0.176 C 
BRANCH  24  25
HETATM   25  C18 UNL     1      67.875  33.515  26.316  1.00  0.00     0.037 C 
BRANCH  25  26
HETATM   26  C19 UNL     1      67.323  32.697  25.196  1.00  0.00     0.115 C 
BRANCH  26  27
HETATM   27  C20 UNL     1      66.216  31.833  25.690  1.00  0.00     0.172 C 
HETATM   28  O4  UNL     1      65.550  32.272  26.696  1.00  0.00    -0.648 OA
HETATM   29  O5  UNL     1      65.863  30.617  25.151  1.00  0.00    -0.648 OA
ENDBRANCH  26  27
ENDBRANCH  25  26
ENDBRANCH  24  25
ENDBRANCH  23  24
ENDBRANCH  19  23
ENDBRANCH   1  15
BRANCH  11  30
HETATM   30  C12 UNL     1      67.842  39.389  19.689  1.00  0.00     0.273 C 
HETATM   31  N4  UNL     1      67.675  40.777  19.962  1.00  0.00    -0.057 NA
HETATM   32  O2  UNL     1      68.803  38.989  19.010  1.00  0.00    -0.270 OA
ENDBRANCH  11  30
TORSDOF 8
ENDMDL
