MODEL 10
REMARK VINA RESULT: -6.858142117      1.538      1.928
REMARK  8 active torsions:
REMARK  status: ('A' for Active; 'I' for Inactive)
REMARK    1  A    between atoms: O1_2  and  C2_3 
REMARK    2  A    between atoms: C5_6  and  C6_7 
REMARK    3  A    between atoms: C11_17  and  C12_18 
REMARK    4  A    between atoms: C16_25  and  O3_26 
REMARK    5  A    between atoms: O3_26  and  C17_27 
REMARK    6  A    between atoms: C17_27  and  C18_28 
REMARK    7  A    between atoms: C18_28  and  C19_29 
REMARK    8  A    between atoms: C19_29  and  C20_30 
ROOT
HETATM    1  C6  UNL     1      65.523  35.604  23.895  1.00  0.00     0.013 A 
HETATM    2  C7  UNL     1      64.398  34.882  24.206  1.00  0.00     0.097 A 
HETATM    3  C8  UNL     1      64.334  34.190  25.490  1.00  0.00     0.104 C 
HETATM    4  N1  UNL     1      64.279  33.620  26.503  1.00  0.00    -0.191 NA
HETATM    5  C9  UNL     1      63.297  34.751  23.382  1.00  0.00     0.139 A 
HETATM    6  N2  UNL     1      62.163  33.992  23.752  1.00  0.00    -0.081 NA
HETATM    7  N3  UNL     1      63.387  35.400  22.199  1.00  0.00    -0.337 N 
ATOM      8  H3  UNL     1      62.609  35.346  21.541  1.00  0.00     0.167 HD
HETATM    9  C10 UNL     1      64.498  36.126  21.861  1.00  0.00     0.089 A 
HETATM   10  S1  UNL     1      64.892  37.048  20.484  1.00  0.00    -0.064 SA
HETATM   11  C11 UNL     1      66.441  37.594  20.953  1.00  0.00     0.097 A 
HETATM   12  C13 UNL     1      66.604  37.029  22.192  1.00  0.00     0.082 A 
HETATM   13  N5  UNL     1      67.842  37.300  22.903  1.00  0.00    -0.100 NA
HETATM   14  C14 UNL     1      65.594  36.269  22.660  1.00  0.00     0.036 A 
ENDROOT
BRANCH   1  15
HETATM   15  C5  UNL     1      66.601  35.668  24.879  1.00  0.00    -0.021 A 
HETATM   16  C4  UNL     1      67.457  34.586  25.080  1.00  0.00     0.015 A 
HETATM   17  C3  UNL     1      68.467  34.702  26.009  1.00  0.00     0.040 A 
HETATM   18  C2  UNL     1      68.695  35.829  26.761  1.00  0.00     0.101 A 
HETATM   19  C16 UNL     1      67.817  36.902  26.535  1.00  0.00     0.102 A 
HETATM   20  C15 UNL     1      66.795  36.812  25.613  1.00  0.00     0.052 A 
BRANCH  18  21
HETATM   21  O1  UNL     1      69.717  35.947  27.703  1.00  0.00    -0.353 OA
HETATM   22  C1  UNL     1      70.967  35.349  27.369  1.00  0.00     0.210 C 
ENDBRANCH  18  21
BRANCH  19  23
HETATM   23  O3  UNL     1      68.056  38.035  27.294  1.00  0.00    -0.348 OA
BRANCH  23  24
HETATM   24  C17 UNL     1      67.155  39.103  27.454  1.00  0.00     0.176 C 
BRANCH  24  25
HETATM   25  C18 UNL     1      67.833  40.427  27.565  1.00  0.00     0.037 C 
BRANCH  25  26
HETATM   26  C19 UNL     1      68.607  40.857  26.363  1.00  0.00     0.115 C 
BRANCH  26  27
HETATM   27  C20 UNL     1      67.695  41.012  25.196  1.00  0.00     0.172 C 
HETATM   28  O4  UNL     1      68.027  40.392  24.123  1.00  0.00    -0.648 OA
HETATM   29  O5  UNL     1      66.542  41.762  25.190  1.00  0.00    -0.648 OA
ENDBRANCH  26  27
ENDBRANCH  25  26
ENDBRANCH  24  25
ENDBRANCH  23  24
ENDBRANCH  19  23
ENDBRANCH   1  15
BRANCH  11  30
HETATM   30  C12 UNL     1      67.389  38.465  20.215  1.00  0.00     0.273 C 
HETATM   31  N4  UNL     1      67.551  39.800  20.687  1.00  0.00    -0.057 NA
HETATM   32  O2  UNL     1      68.024  38.062  19.226  1.00  0.00    -0.270 OA
ENDBRANCH  11  30
TORSDOF 8
ENDMDL
