MODEL 2
REMARK VINA RESULT: -8.177870061      1.306      2.114
REMARK  8 active torsions:
REMARK  status: ('A' for Active; 'I' for Inactive)
REMARK    1  A    between atoms: O1_2  and  C2_3 
REMARK    2  A    between atoms: C5_6  and  C6_7 
REMARK    3  A    between atoms: C11_17  and  C12_18 
REMARK    4  A    between atoms: C16_25  and  O3_26 
REMARK    5  A    between atoms: O3_26  and  C17_27 
REMARK    6  A    between atoms: C17_27  and  C18_28 
REMARK    7  A    between atoms: C18_28  and  C19_29 
REMARK    8  A    between atoms: C19_29  and  C20_30 
ROOT
HETATM    1  C6  UNL     1      65.518  34.582  24.931  1.00  0.00     0.013 A 
HETATM    2  C7  UNL     1      64.649  33.756  25.599  1.00  0.00     0.097 A 
HETATM    3  C8  UNL     1      65.079  33.143  26.853  1.00  0.00     0.104 C 
HETATM    4  N1  UNL     1      65.416  32.635  27.844  1.00  0.00    -0.191 NA
HETATM    5  C9  UNL     1      63.373  33.449  25.171  1.00  0.00     0.139 A 
HETATM    6  N2  UNL     1      62.518  32.589  25.899  1.00  0.00    -0.081 NA
HETATM    7  N3  UNL     1      63.005  34.028  24.005  1.00  0.00    -0.337 N 
ATOM      8  H3  UNL     1      62.075  33.845  23.630  1.00  0.00     0.167 HD
HETATM    9  C10 UNL     1      63.852  34.855  23.316  1.00  0.00     0.089 A 
HETATM   10  S1  UNL     1      63.675  35.728  21.864  1.00  0.00    -0.064 SA
HETATM   11  C11 UNL     1      65.208  36.476  21.804  1.00  0.00     0.097 A 
HETATM   12  C13 UNL     1      65.821  36.012  22.940  1.00  0.00     0.082 A 
HETATM   13  N5  UNL     1      67.174  36.467  23.215  1.00  0.00    -0.100 NA
HETATM   14  C14 UNL     1      65.114  35.172  23.722  1.00  0.00     0.036 A 
ENDROOT
BRANCH   1  15
HETATM   15  C5  UNL     1      66.832  34.831  25.520  1.00  0.00    -0.021 A 
HETATM   16  C4  UNL     1      67.847  33.877  25.444  1.00  0.00     0.015 A 
HETATM   17  C3  UNL     1      69.072  34.166  26.002  1.00  0.00     0.040 A 
HETATM   18  C2  UNL     1      69.369  35.348  26.636  1.00  0.00     0.101 A 
HETATM   19  C16 UNL     1      68.328  36.289  26.695  1.00  0.00     0.102 A 
HETATM   20  C15 UNL     1      67.090  36.024  26.147  1.00  0.00     0.052 A 
BRANCH  18  21
HETATM   21  O1  UNL     1      70.610  35.641  27.203  1.00  0.00    -0.353 OA
HETATM   22  C1  UNL     1      71.591  34.608  27.165  1.00  0.00     0.210 C 
ENDBRANCH  18  21
BRANCH  19  23
HETATM   23  O3  UNL     1      68.636  37.478  27.332  1.00  0.00    -0.348 OA
BRANCH  23  24
HETATM   24  C17 UNL     1      68.087  38.732  27.010  1.00  0.00     0.176 C 
BRANCH  24  25
HETATM   25  C18 UNL     1      67.604  39.482  28.206  1.00  0.00     0.037 C 
BRANCH  25  26
HETATM   26  C19 UNL     1      68.668  39.969  29.132  1.00  0.00     0.115 C 
BRANCH  26  27
HETATM   27  C20 UNL     1      68.569  39.266  30.441  1.00  0.00     0.172 C 
HETATM   28  O4  UNL     1      67.955  39.888  31.381  1.00  0.00    -0.648 OA
HETATM   29  O5  UNL     1      69.082  38.018  30.707  1.00  0.00    -0.648 OA
ENDBRANCH  26  27
ENDBRANCH  25  26
ENDBRANCH  24  25
ENDBRANCH  23  24
ENDBRANCH  19  23
ENDBRANCH   1  15
BRANCH  11  30
HETATM   30  C12 UNL     1      65.758  37.402  20.784  1.00  0.00     0.273 C 
HETATM   31  N4  UNL     1      66.928  36.985  20.086  1.00  0.00    -0.057 NA
HETATM   32  O2  UNL     1      65.231  38.499  20.534  1.00  0.00    -0.270 OA
ENDBRANCH  11  30
TORSDOF 8
ENDMDL
