MODEL 5
REMARK VINA RESULT: -7.461488816      3.690      6.895
REMARK  8 active torsions:
REMARK  status: ('A' for Active; 'I' for Inactive)
REMARK    1  A    between atoms: O1_2  and  C2_3 
REMARK    2  A    between atoms: C5_6  and  C6_7 
REMARK    3  A    between atoms: C11_17  and  C12_18 
REMARK    4  A    between atoms: C16_25  and  O3_26 
REMARK    5  A    between atoms: O3_26  and  C17_27 
REMARK    6  A    between atoms: C17_27  and  C18_28 
REMARK    7  A    between atoms: C18_28  and  C19_29 
REMARK    8  A    between atoms: C19_29  and  C20_30 
ROOT
HETATM    1  C6  UNL     1      67.634  37.760  26.375  1.00  0.00     0.013 A 
HETATM    2  C7  UNL     1      68.304  36.738  26.999  1.00  0.00     0.097 A 
HETATM    3  C8  UNL     1      68.099  35.369  26.534  1.00  0.00     0.104 C 
HETATM    4  N1  UNL     1      67.929  34.273  26.184  1.00  0.00    -0.191 NA
HETATM    5  C9  UNL     1      69.175  36.903  28.059  1.00  0.00     0.139 A 
HETATM    6  N2  UNL     1      69.839  35.812  28.667  1.00  0.00    -0.081 NA
HETATM    7  N3  UNL     1      69.342  38.180  28.469  1.00  0.00    -0.337 N 
ATOM      8  H3  UNL     1      69.972  38.375  29.248  1.00  0.00     0.167 HD
HETATM    9  C10 UNL     1      68.686  39.219  27.867  1.00  0.00     0.089 A 
HETATM   10  S1  UNL     1      68.702  40.901  28.139  1.00  0.00    -0.064 SA
HETATM   11  C11 UNL     1      67.613  41.388  26.918  1.00  0.00     0.097 A 
HETATM   12  C13 UNL     1      67.264  40.202  26.326  1.00  0.00     0.082 A 
HETATM   13  N5  UNL     1      66.333  40.248  25.211  1.00  0.00    -0.100 NA
HETATM   14  C14 UNL     1      67.823  39.080  26.820  1.00  0.00     0.036 A 
ENDROOT
BRANCH   1  15
HETATM   15  C5  UNL     1      66.760  37.433  25.251  1.00  0.00    -0.021 A 
HETATM   16  C4  UNL     1      65.389  37.254  25.434  1.00  0.00     0.015 A 
HETATM   17  C3  UNL     1      64.605  36.962  24.340  1.00  0.00     0.040 A 
HETATM   18  C2  UNL     1      65.088  36.836  23.061  1.00  0.00     0.101 A 
HETATM   19  C16 UNL     1      66.472  37.022  22.908  1.00  0.00     0.102 A 
HETATM   20  C15 UNL     1      67.280  37.313  23.987  1.00  0.00     0.052 A 
BRANCH  18  21
HETATM   21  O1  UNL     1      64.296  36.538  21.951  1.00  0.00    -0.353 OA
HETATM   22  C1  UNL     1      63.577  35.308  21.990  1.00  0.00     0.210 C 
ENDBRANCH  18  21
BRANCH  19  23
HETATM   23  O3  UNL     1      66.950  36.897  21.615  1.00  0.00    -0.348 OA
BRANCH  23  24
HETATM   24  C17 UNL     1      67.076  37.953  20.695  1.00  0.00     0.176 C 
BRANCH  24  25
HETATM   25  C18 UNL     1      66.438  37.660  19.378  1.00  0.00     0.037 C 
BRANCH  25  26
HETATM   26  C19 UNL     1      65.319  38.566  18.989  1.00  0.00     0.115 C 
BRANCH  26  27
HETATM   27  C20 UNL     1      65.484  39.007  17.577  1.00  0.00     0.172 C 
HETATM   28  O4  UNL     1      66.586  39.597  17.285  1.00  0.00    -0.648 OA
HETATM   29  O5  UNL     1      64.553  38.829  16.580  1.00  0.00    -0.648 OA
ENDBRANCH  26  27
ENDBRANCH  25  26
ENDBRANCH  24  25
ENDBRANCH  23  24
ENDBRANCH  19  23
ENDBRANCH   1  15
BRANCH  11  30
HETATM   30  C12 UNL     1      67.149  42.754  26.569  1.00  0.00     0.273 C 
HETATM   31  N4  UNL     1      67.779  43.395  25.464  1.00  0.00    -0.057 NA
HETATM   32  O2  UNL     1      66.246  43.327  27.203  1.00  0.00    -0.270 OA
ENDBRANCH  11  30
TORSDOF 8
ENDMDL
