MODEL 2
REMARK VINA RESULT: -6.742277863      1.070      1.892
REMARK  3 active torsions:
REMARK  status: ('A' for Active; 'I' for Inactive)
REMARK    1  A    between atoms: C2_2  and  O1_3 
REMARK    2  A    between atoms: O1_3  and  C3_4 
REMARK    3  A    between atoms: C3_4  and  C4_6 
ROOT
HETATM    1  C4  UNL     1       0.821  -8.094 -17.046  1.00  0.00     0.054 A 
HETATM    2  C5  UNL     1       1.308  -7.393 -18.125  1.00  0.00     0.036 A 
HETATM    3  C6  UNL     1       2.650  -7.430 -18.440  1.00  0.00     0.090 A 
HETATM    4  N1  UNL     1       3.517  -8.134 -17.725  1.00  0.00    -0.352 N 
ATOM      5  H1  UNL     1       4.505  -8.144 -17.979  1.00  0.00     0.166 HD
HETATM    6  C7  UNL     1       3.086  -8.833 -16.665  1.00  0.00     0.116 A 
HETATM    7  N2  UNL     1       3.701  -9.620 -15.768  1.00  0.00    -0.352 N 
ATOM      8  H2  UNL     1       4.700  -9.827 -15.761  1.00  0.00     0.166 HD
HETATM    9  C8  UNL     1       2.813 -10.099 -14.880  1.00  0.00     0.090 A 
HETATM   10  C9  UNL     1       1.551  -9.606 -15.202  1.00  0.00     0.033 A 
HETATM   11  C10 UNL     1       1.733  -8.823 -16.309  1.00  0.00     0.025 A 
ENDROOT
BRANCH   1  12
HETATM   12  C3  UNL     1      -0.582  -8.066 -16.701  1.00  0.00     0.294 C 
HETATM   13  O2  UNL     1      -1.053  -7.574 -15.663  1.00  0.00    -0.259 OA
BRANCH  12  14
HETATM   14  O1  UNL     1      -1.491  -8.630 -17.587  1.00  0.00    -0.318 OA
BRANCH  14  15
HETATM   15  C2  UNL     1      -1.740  -9.998 -17.710  1.00  0.00     0.174 C 
HETATM   16  C1  UNL     1      -1.432 -10.379 -19.159  1.00  0.00     0.034 C 
ENDBRANCH  14  15
ENDBRANCH  12  14
ENDBRANCH   1  12
TORSDOF 3
ENDMDL
