MODEL 8
REMARK VINA RESULT: -6.085841100      3.448      5.221
REMARK  3 active torsions:
REMARK  status: ('A' for Active; 'I' for Inactive)
REMARK    1  A    between atoms: C2_2  and  O1_3 
REMARK    2  A    between atoms: O1_3  and  C3_4 
REMARK    3  A    between atoms: C3_4  and  C4_6 
ROOT
HETATM    1  C4  UNL     1      -2.161  -9.154 -17.685  1.00  0.00     0.054 A 
HETATM    2  C5  UNL     1      -3.322  -9.077 -18.419  1.00  0.00     0.036 A 
HETATM    3  C6  UNL     1      -4.510  -8.712 -17.821  1.00  0.00     0.090 A 
HETATM    4  N1  UNL     1      -4.583  -8.425 -16.528  1.00  0.00    -0.352 N 
ATOM      5  H1  UNL     1      -5.474  -8.159 -16.110  1.00  0.00     0.166 HD
HETATM    6  C7  UNL     1      -3.476  -8.487 -15.774  1.00  0.00     0.116 A 
HETATM    7  N2  UNL     1      -3.233  -8.262 -14.473  1.00  0.00    -0.352 N 
ATOM      8  H2  UNL     1      -3.935  -7.977 -13.790  1.00  0.00     0.166 HD
HETATM    9  C8  UNL     1      -1.933  -8.465 -14.199  1.00  0.00     0.090 A 
HETATM   10  C9  UNL     1      -1.284  -8.842 -15.371  1.00  0.00     0.033 A 
HETATM   11  C10 UNL     1      -2.249  -8.853 -16.339  1.00  0.00     0.025 A 
ENDROOT
BRANCH   1  12
HETATM   12  C3  UNL     1      -0.907  -9.534 -18.295  1.00  0.00     0.294 C 
HETATM   13  O2  UNL     1      -0.533 -10.702 -18.491  1.00  0.00    -0.259 OA
BRANCH  12  14
HETATM   14  O1  UNL     1      -0.039  -8.529 -18.699  1.00  0.00    -0.318 OA
BRANCH  14  15
HETATM   15  C2  UNL     1       1.154  -8.200 -18.054  1.00  0.00     0.174 C 
HETATM   16  C1  UNL     1       1.782  -7.046 -18.837  1.00  0.00     0.034 C 
ENDBRANCH  14  15
ENDBRANCH  12  14
ENDBRANCH   1  12
TORSDOF 3
ENDMDL
