MODEL 1
REMARK VINA RESULT: -6.855289409      0.000      0.000
REMARK  3 active torsions:
REMARK  status: ('A' for Active; 'I' for Inactive)
REMARK    1  A    between atoms: C2_2  and  O1_3 
REMARK    2  A    between atoms: O1_3  and  C3_4 
REMARK    3  A    between atoms: C3_4  and  C4_6 
ROOT
HETATM    1  C4  UNL     1       0.867  -8.123 -17.287  1.00  0.00     0.054 A 
HETATM    2  C5  UNL     1       1.399  -7.390 -18.323  1.00  0.00     0.036 A 
HETATM    3  C6  UNL     1       2.761  -7.371 -18.544  1.00  0.00     0.090 A 
HETATM    4  N1  UNL     1       3.604  -8.048 -17.777  1.00  0.00    -0.352 N 
ATOM      5  H1  UNL     1       4.606  -8.016 -17.961  1.00  0.00     0.166 HD
HETATM    6  C7  UNL     1       3.129  -8.776 -16.755  1.00  0.00     0.116 A 
HETATM    7  N2  UNL     1       3.711  -9.549 -15.825  1.00  0.00    -0.352 N 
ATOM      8  H2  UNL     1       4.714  -9.716 -15.751  1.00  0.00     0.166 HD
HETATM    9  C8  UNL     1       2.783 -10.073 -15.006  1.00  0.00     0.090 A 
HETATM   10  C9  UNL     1       1.528  -9.627 -15.411  1.00  0.00     0.033 A 
HETATM   11  C10 UNL     1       1.755  -8.824 -16.494  1.00  0.00     0.025 A 
ENDROOT
BRANCH   1  12
HETATM   12  C3  UNL     1      -0.557  -8.155 -17.041  1.00  0.00     0.294 C 
HETATM   13  O2  UNL     1      -1.379  -8.821 -17.691  1.00  0.00    -0.259 OA
BRANCH  12  14
HETATM   14  O1  UNL     1      -1.063  -7.389 -16.000  1.00  0.00    -0.318 OA
BRANCH  14  15
HETATM   15  C2  UNL     1      -2.283  -7.619 -15.362  1.00  0.00     0.174 C 
HETATM   16  C1  UNL     1      -2.005  -8.567 -14.195  1.00  0.00     0.034 C 
ENDBRANCH  14  15
ENDBRANCH  12  14
ENDBRANCH   1  12
TORSDOF 3
ENDMDL
