MODEL 7
REMARK VINA RESULT: -6.125788046      3.575      5.466
REMARK  3 active torsions:
REMARK  status: ('A' for Active; 'I' for Inactive)
REMARK    1  A    between atoms: C2_2  and  O1_3 
REMARK    2  A    between atoms: O1_3  and  C3_4 
REMARK    3  A    between atoms: C3_4  and  C4_6 
ROOT
HETATM    1  C4  UNL     1      -1.421  -8.771 -16.354  1.00  0.00     0.054 A 
HETATM    2  C5  UNL     1      -1.504  -7.870 -15.317  1.00  0.00     0.036 A 
HETATM    3  C6  UNL     1      -2.654  -7.773 -14.560  1.00  0.00     0.090 A 
HETATM    4  N1  UNL     1      -3.714  -8.533 -14.797  1.00  0.00    -0.352 N 
ATOM      5  H1  UNL     1      -4.552  -8.440 -14.223  1.00  0.00     0.166 HD
HETATM    6  C7  UNL     1      -3.677  -9.425 -15.798  1.00  0.00     0.116 A 
HETATM    7  N2  UNL     1      -4.564 -10.313 -16.274  1.00  0.00    -0.352 N 
ATOM      8  H2  UNL     1      -5.503 -10.456 -15.902  1.00  0.00     0.166 HD
HETATM    9  C8  UNL     1      -4.039 -10.987 -17.312  1.00  0.00     0.090 A 
HETATM   10  C9  UNL     1      -2.745 -10.524 -17.535  1.00  0.00     0.033 A 
HETATM   11  C10 UNL     1      -2.532  -9.558 -16.591  1.00  0.00     0.025 A 
ENDROOT
BRANCH   1  12
HETATM   12  C3  UNL     1      -0.226  -8.888 -17.157  1.00  0.00     0.294 C 
HETATM   13  O2  UNL     1       0.340  -9.955 -17.445  1.00  0.00    -0.259 OA
BRANCH  12  14
HETATM   14  O1  UNL     1       0.350  -7.726 -17.655  1.00  0.00    -0.318 OA
BRANCH  14  15
HETATM   15  C2  UNL     1       0.992  -7.622 -18.889  1.00  0.00     0.174 C 
HETATM   16  C1  UNL     1       2.448  -7.248 -18.606  1.00  0.00     0.034 C 
ENDBRANCH  14  15
ENDBRANCH  12  14
ENDBRANCH   1  12
TORSDOF 3
ENDMDL
