MODEL 5
REMARK VINA RESULT: -6.300656881      3.339      5.460
REMARK  3 active torsions:
REMARK  status: ('A' for Active; 'I' for Inactive)
REMARK    1  A    between atoms: C2_2  and  O1_3 
REMARK    2  A    between atoms: O1_3  and  C3_4 
REMARK    3  A    between atoms: C3_4  and  C4_6 
ROOT
HETATM    1  C4  UNL     1      -0.975  -8.651 -16.270  1.00  0.00     0.054 A 
HETATM    2  C5  UNL     1      -0.961  -8.532 -14.899  1.00  0.00     0.036 A 
HETATM    3  C6  UNL     1      -2.139  -8.413 -14.191  1.00  0.00     0.090 A 
HETATM    4  N1  UNL     1      -3.320  -8.407 -14.794  1.00  0.00    -0.352 N 
ATOM      5  H1  UNL     1      -4.176  -8.316 -14.247  1.00  0.00     0.166 HD
HETATM    6  C7  UNL     1      -3.381  -8.520 -16.129  1.00  0.00     0.116 A 
HETATM    7  N2  UNL     1      -4.397  -8.545 -17.006  1.00  0.00    -0.352 N 
ATOM      8  H2  UNL     1      -5.383  -8.475 -16.758  1.00  0.00     0.166 HD
HETATM    9  C8  UNL     1      -3.929  -8.677 -18.259  1.00  0.00     0.090 A 
HETATM   10  C9  UNL     1      -2.539  -8.742 -18.211  1.00  0.00     0.033 A 
HETATM   11  C10 UNL     1      -2.211  -8.643 -16.887  1.00  0.00     0.025 A 
ENDROOT
BRANCH   1  12
HETATM   12  C3  UNL     1       0.248  -8.777 -17.028  1.00  0.00     0.294 C 
HETATM   13  O2  UNL     1       0.813  -9.849 -17.301  1.00  0.00    -0.259 OA
BRANCH  12  14
HETATM   14  O1  UNL     1       0.857  -7.620 -17.496  1.00  0.00    -0.318 OA
BRANCH  14  15
HETATM   15  C2  UNL     1       1.247  -7.405 -18.818  1.00  0.00     0.174 C 
HETATM   16  C1  UNL     1       2.732  -7.040 -18.792  1.00  0.00     0.034 C 
ENDBRANCH  14  15
ENDBRANCH  12  14
ENDBRANCH   1  12
TORSDOF 3
ENDMDL
