MODEL 4
REMARK VINA RESULT: -6.640126525      1.714      4.633
REMARK  4 active torsions:
REMARK  status: ('A' for Active; 'I' for Inactive)
REMARK    1  A    between atoms: N2_6  and  C5_7 
REMARK    2  A    between atoms: C5_7  and  C6_8 
REMARK    3  A    between atoms: C6_8  and  N3_9 
REMARK    4  A    between atoms: C6_8  and  C7_13 
ROOT
HETATM    1  C1  UNL     1     -45.752 -22.181 -22.163  1.00  0.00     0.310 C 
HETATM    2  N1  UNL     1     -45.976 -21.324 -21.001  1.00  0.00     0.094 N 
HETATM    3  C2  UNL     1     -44.790 -21.270 -20.207  1.00  0.00     0.318 C 
HETATM    4  C3  UNL     1     -45.316 -21.181 -18.820  1.00  0.00     0.063 A 
HETATM    5  C4  UNL     1     -46.646 -21.582 -18.796  1.00  0.00     0.062 A 
HETATM    6  N2  UNL     1     -47.357 -21.592 -17.656  1.00  0.00    -0.277 N 
HETATM    7  C8  UNL     1     -46.731 -21.202 -16.533  1.00  0.00     0.333 A 
HETATM    8  O3  UNL     1     -47.361 -21.202 -15.471  1.00  0.00    -0.246 OA
HETATM    9  N4  UNL     1     -45.447 -20.808 -16.514  1.00  0.00    -0.275 N 
ATOM     10  H4  UNL     1     -45.020 -20.521 -15.633  1.00  0.00     0.173 HD
HETATM   11  C9  UNL     1     -44.724 -20.789 -17.633  1.00  0.00     0.259 A 
HETATM   12  O4  UNL     1     -43.514 -20.422 -17.638  1.00  0.00    -0.267 OA
HETATM   13  C10 UNL     1     -46.995 -21.966 -20.166  1.00  0.00     0.330 C 
ENDROOT
BRANCH   6  14
HETATM   14  C5  UNL     1     -48.707 -21.967 -17.620  1.00  0.00     0.118 C 
BRANCH  14  15
HETATM   15  C6  UNL     1     -49.091 -23.386 -17.536  1.00  0.00     0.322 C 
BRANCH  15  16
HETATM   16  N3  UNL     1     -48.473 -23.905 -16.297  1.00  0.00    -0.061 N 
ATOM     17  H33 UNL     1     -47.645 -24.476 -16.464  1.00  0.00     0.275 HD
ATOM     18  H32 UNL     1     -48.015 -23.184 -15.738  1.00  0.00     0.275 HD
ATOM     19  H31 UNL     1     -49.213 -24.398 -15.797  1.00  0.00     0.275 HD
ENDBRANCH  15  16
BRANCH  15  20
HETATM   20  C7  UNL     1     -48.687 -24.239 -18.649  1.00  0.00     0.209 C 
HETATM   21  O1  UNL     1     -47.635 -24.929 -18.618  1.00  0.00    -0.646 OA
HETATM   22  O2  UNL     1     -49.454 -24.336 -19.816  1.00  0.00    -0.646 OA
ENDBRANCH  15  20
ENDBRANCH  14  15
ENDBRANCH   6  14
TORSDOF 4
ENDMDL
