MODEL 2
REMARK VINA RESULT: -7.552769915      1.603      3.170
REMARK  4 active torsions:
REMARK  status: ('A' for Active; 'I' for Inactive)
REMARK    1  A    between atoms: N2_6  and  C5_7 
REMARK    2  A    between atoms: C5_7  and  C6_8 
REMARK    3  A    between atoms: C6_8  and  N3_9 
REMARK    4  A    between atoms: C6_8  and  C7_13 
ROOT
HETATM    1  C1  UNL     1     -48.567 -21.813 -15.362  1.00  0.00     0.310 C 
HETATM    2  N1  UNL     1     -48.402 -21.774 -16.814  1.00  0.00     0.094 N 
HETATM    3  C2  UNL     1     -48.653 -23.069 -17.362  1.00  0.00     0.318 C 
HETATM    4  C3  UNL     1     -47.701 -23.145 -18.499  1.00  0.00     0.063 A 
HETATM    5  C4  UNL     1     -46.712 -22.180 -18.349  1.00  0.00     0.062 A 
HETATM    6  N2  UNL     1     -45.725 -22.039 -19.249  1.00  0.00    -0.277 N 
HETATM    7  C8  UNL     1     -45.727 -22.870 -20.305  1.00  0.00     0.333 A 
HETATM    8  O3  UNL     1     -44.830 -22.762 -21.147  1.00  0.00    -0.246 OA
HETATM    9  N4  UNL     1     -46.663 -23.816 -20.486  1.00  0.00    -0.275 N 
ATOM     10  H4  UNL     1     -46.617 -24.421 -21.306  1.00  0.00     0.173 HD
HETATM   11  C9  UNL     1     -47.651 -23.972 -19.606  1.00  0.00     0.259 A 
HETATM   12  O4  UNL     1     -48.543 -24.855 -19.758  1.00  0.00    -0.267 OA
HETATM   13  C10 UNL     1     -46.993 -21.482 -17.092  1.00  0.00     0.330 C 
ENDROOT
BRANCH   6  14
HETATM   14  C5  UNL     1     -44.736 -21.052 -19.126  1.00  0.00     0.118 C 
BRANCH  14  15
HETATM   15  C6  UNL     1     -43.488 -21.327 -18.394  1.00  0.00     0.322 C 
BRANCH  15  16
HETATM   16  N3  UNL     1     -43.851 -21.345 -16.960  1.00  0.00    -0.061 N 
ATOM     17  H33 UNL     1     -44.427 -20.553 -16.677  1.00  0.00     0.275 HD
ATOM     18  H32 UNL     1     -44.519 -22.078 -16.719  1.00  0.00     0.275 HD
ATOM     19  H31 UNL     1     -42.971 -21.411 -16.448  1.00  0.00     0.275 HD
ENDBRANCH  15  16
BRANCH  15  20
HETATM   20  C7  UNL     1     -42.396 -20.378 -18.585  1.00  0.00     0.209 C 
HETATM   21  O1  UNL     1     -41.955 -20.083 -19.726  1.00  0.00    -0.646 OA
HETATM   22  O2  UNL     1     -41.779 -19.740 -17.501  1.00  0.00    -0.646 OA
ENDBRANCH  15  20
ENDBRANCH  14  15
ENDBRANCH   6  14
TORSDOF 4
ENDMDL
