MODEL 6
REMARK VINA RESULT: -6.340434826      1.720      3.354
REMARK  4 active torsions:
REMARK  status: ('A' for Active; 'I' for Inactive)
REMARK    1  A    between atoms: N2_6  and  C5_7 
REMARK    2  A    between atoms: C5_7  and  C6_8 
REMARK    3  A    between atoms: C6_8  and  N3_9 
REMARK    4  A    between atoms: C6_8  and  C7_13 
ROOT
HETATM    1  C1  UNL     1     -48.046 -21.675 -15.301  1.00  0.00     0.310 C 
HETATM    2  N1  UNL     1     -48.176 -21.616 -16.755  1.00  0.00     0.094 N 
HETATM    3  C2  UNL     1     -48.596 -22.887 -17.253  1.00  0.00     0.318 C 
HETATM    4  C3  UNL     1     -47.898 -22.985 -18.561  1.00  0.00     0.063 A 
HETATM    5  C4  UNL     1     -46.853 -22.069 -18.605  1.00  0.00     0.062 A 
HETATM    6  N2  UNL     1     -46.063 -21.956 -19.685  1.00  0.00    -0.277 N 
HETATM    7  C8  UNL     1     -46.319 -22.766 -20.727  1.00  0.00     0.333 A 
HETATM    8  O3  UNL     1     -45.606 -22.683 -21.732  1.00  0.00    -0.246 OA
HETATM    9  N4  UNL     1     -47.317 -23.664 -20.724  1.00  0.00    -0.275 N 
ATOM     10  H4  UNL     1     -47.468 -24.254 -21.542  1.00  0.00     0.173 HD
HETATM   11  C9  UNL     1     -48.114 -23.791 -19.663  1.00  0.00     0.259 A 
HETATM   12  O4  UNL     1     -49.060 -24.630 -19.639  1.00  0.00    -0.267 OA
HETATM   13  C10 UNL     1     -46.840 -21.384 -17.311  1.00  0.00     0.330 C 
ENDROOT
BRANCH   6  14
HETATM   14  C5  UNL     1     -45.022 -21.019 -19.756  1.00  0.00     0.118 C 
BRANCH  14  15
HETATM   15  C6  UNL     1     -43.638 -21.408 -19.437  1.00  0.00     0.322 C 
BRANCH  15  16
HETATM   16  N3  UNL     1     -43.693 -22.834 -19.048  1.00  0.00    -0.061 N 
ATOM     17  H33 UNL     1     -44.456 -23.051 -18.406  1.00  0.00     0.275 HD
ATOM     18  H32 UNL     1     -43.989 -23.451 -19.805  1.00  0.00     0.275 HD
ATOM     19  H31 UNL     1     -42.771 -23.060 -18.675  1.00  0.00     0.275 HD
ENDBRANCH  15  16
BRANCH  15  20
HETATM   20  C7  UNL     1     -42.978 -20.661 -18.371  1.00  0.00     0.209 C 
HETATM   21  O1  UNL     1     -43.315 -20.775 -17.164  1.00  0.00    -0.646 OA
HETATM   22  O2  UNL     1     -41.928 -19.774 -18.638  1.00  0.00    -0.646 OA
ENDBRANCH  15  20
ENDBRANCH  14  15
ENDBRANCH   6  14
TORSDOF 4
ENDMDL
