MODEL 7
REMARK VINA RESULT: -6.249965041      1.359      4.607
REMARK  4 active torsions:
REMARK  status: ('A' for Active; 'I' for Inactive)
REMARK    1  A    between atoms: N2_6  and  C5_7 
REMARK    2  A    between atoms: C5_7  and  C6_8 
REMARK    3  A    between atoms: C6_8  and  N3_9 
REMARK    4  A    between atoms: C6_8  and  C7_13 
ROOT
HETATM    1  C1  UNL     1     -45.954 -23.723 -22.099  1.00  0.00     0.310 C 
HETATM    2  N1  UNL     1     -45.856 -22.522 -21.272  1.00  0.00     0.094 N 
HETATM    3  C2  UNL     1     -44.611 -22.518 -20.574  1.00  0.00     0.318 C 
HETATM    4  C3  UNL     1     -44.952 -21.880 -19.277  1.00  0.00     0.063 A 
HETATM    5  C4  UNL     1     -46.328 -21.915 -19.085  1.00  0.00     0.062 A 
HETATM    6  N2  UNL     1     -46.898 -21.398 -17.983  1.00  0.00    -0.277 N 
HETATM    7  C8  UNL     1     -46.084 -20.847 -17.067  1.00  0.00     0.333 A 
HETATM    8  O3  UNL     1     -46.582 -20.365 -16.044  1.00  0.00    -0.246 OA
HETATM    9  N4  UNL     1     -44.750 -20.794 -17.214  1.00  0.00    -0.275 N 
ATOM     10  H4  UNL     1     -44.179 -20.363 -16.487  1.00  0.00     0.173 HD
HETATM   11  C9  UNL     1     -44.166 -21.298 -18.299  1.00  0.00     0.259 A 
HETATM   12  O4  UNL     1     -42.912 -21.259 -18.458  1.00  0.00    -0.267 OA
HETATM   13  C10 UNL     1     -46.897 -22.605 -20.245  1.00  0.00     0.330 C 
ENDROOT
BRANCH   6  14
HETATM   14  C5  UNL     1     -48.286 -21.401 -17.787  1.00  0.00     0.118 C 
BRANCH  14  15
HETATM   15  C6  UNL     1     -48.922 -22.416 -16.931  1.00  0.00     0.322 C 
BRANCH  15  16
HETATM   16  N3  UNL     1     -48.060 -22.542 -15.736  1.00  0.00    -0.061 N 
ATOM     17  H33 UNL     1     -48.062 -23.478 -15.330  1.00  0.00     0.275 HD
ATOM     18  H32 UNL     1     -47.063 -22.500 -15.947  1.00  0.00     0.275 HD
ATOM     19  H31 UNL     1     -48.370 -21.817 -15.087  1.00  0.00     0.275 HD
ENDBRANCH  15  16
BRANCH  15  20
HETATM   20  C7  UNL     1     -49.105 -23.742 -17.514  1.00  0.00     0.209 C 
HETATM   21  O1  UNL     1     -49.153 -24.783 -16.810  1.00  0.00    -0.646 OA
HETATM   22  O2  UNL     1     -49.236 -23.924 -18.896  1.00  0.00    -0.646 OA
ENDBRANCH  15  20
ENDBRANCH  14  15
ENDBRANCH   6  14
TORSDOF 4
ENDMDL
