MODEL 15
REMARK VINA RESULT: -5.369398612      2.033      3.489
REMARK  4 active torsions:
REMARK  status: ('A' for Active; 'I' for Inactive)
REMARK    1  A    between atoms: N2_6  and  C5_7 
REMARK    2  A    between atoms: C5_7  and  C6_8 
REMARK    3  A    between atoms: C6_8  and  N3_9 
REMARK    4  A    between atoms: C6_8  and  C7_13 
ROOT
HETATM    1  C1  UNL     1     -48.601 -22.935 -15.960  1.00  0.00     0.310 C 
HETATM    2  N1  UNL     1     -48.587 -22.719 -17.405  1.00  0.00     0.094 N 
HETATM    3  C2  UNL     1     -48.775 -23.963 -18.080  1.00  0.00     0.318 C 
HETATM    4  C3  UNL     1     -47.940 -23.816 -19.299  1.00  0.00     0.063 A 
HETATM    5  C4  UNL     1     -47.032 -22.778 -19.123  1.00  0.00     0.062 A 
HETATM    6  N2  UNL     1     -46.157 -22.439 -20.084  1.00  0.00    -0.277 N 
HETATM    7  C8  UNL     1     -46.190 -23.143 -21.228  1.00  0.00     0.333 A 
HETATM    8  O3  UNL     1     -45.397 -22.852 -22.128  1.00  0.00    -0.246 OA
HETATM    9  N4  UNL     1     -47.051 -24.153 -21.438  1.00  0.00    -0.275 N 
ATOM     10  H4  UNL     1     -47.034 -24.655 -22.325  1.00  0.00     0.173 HD
HETATM   11  C9  UNL     1     -47.928 -24.505 -20.498  1.00  0.00     0.259 A 
HETATM   12  O4  UNL     1     -48.747 -25.451 -20.674  1.00  0.00    -0.267 OA
HETATM   13  C10 UNL     1     -47.246 -22.257 -17.771  1.00  0.00     0.330 C 
ENDROOT
BRANCH   6  14
HETATM   14  C5  UNL     1     -45.253 -21.377 -19.933  1.00  0.00     0.118 C 
BRANCH  14  15
HETATM   15  C6  UNL     1     -43.898 -21.614 -19.407  1.00  0.00     0.322 C 
BRANCH  15  16
HETATM   16  N3  UNL     1     -43.784 -23.075 -19.212  1.00  0.00    -0.061 N 
ATOM     17  H33 UNL     1     -43.897 -23.365 -18.241  1.00  0.00     0.275 HD
ATOM     18  H32 UNL     1     -44.574 -23.599 -19.591  1.00  0.00     0.275 HD
ATOM     19  H31 UNL     1     -42.887 -23.345 -19.616  1.00  0.00     0.275 HD
ENDBRANCH  15  16
BRANCH  15  20
HETATM   20  C7  UNL     1     -43.558 -20.950 -18.153  1.00  0.00     0.209 C 
HETATM   21  O1  UNL     1     -42.368 -20.722 -17.815  1.00  0.00    -0.646 OA
HETATM   22  O2  UNL     1     -44.546 -20.528 -17.254  1.00  0.00    -0.646 OA
ENDBRANCH  15  20
ENDBRANCH  14  15
ENDBRANCH   6  14
TORSDOF 4
ENDMDL
