MODEL 5
REMARK VINA RESULT: -6.344080633      2.211      5.059
REMARK  4 active torsions:
REMARK  status: ('A' for Active; 'I' for Inactive)
REMARK    1  A    between atoms: N2_6  and  C5_7 
REMARK    2  A    between atoms: C5_7  and  C6_8 
REMARK    3  A    between atoms: C6_8  and  N3_9 
REMARK    4  A    between atoms: C6_8  and  C7_13 
ROOT
HETATM    1  C1  UNL     1     -42.717 -20.099 -17.888  1.00  0.00     0.310 C 
HETATM    2  N1  UNL     1     -43.601 -21.243 -18.105  1.00  0.00     0.094 N 
HETATM    3  C2  UNL     1     -43.554 -21.634 -19.478  1.00  0.00     0.318 C 
HETATM    4  C3  UNL     1     -44.942 -22.088 -19.747  1.00  0.00     0.063 A 
HETATM    5  C4  UNL     1     -45.795 -21.601 -18.764  1.00  0.00     0.062 A 
HETATM    6  N2  UNL     1     -47.110 -21.872 -18.777  1.00  0.00    -0.277 N 
HETATM    7  C8  UNL     1     -47.576 -22.633 -19.782  1.00  0.00     0.333 A 
HETATM    8  O3  UNL     1     -48.781 -22.896 -19.818  1.00  0.00    -0.246 OA
HETATM    9  N4  UNL     1     -46.786 -23.123 -20.751  1.00  0.00    -0.275 N 
ATOM     10  H4  UNL     1     -47.190 -23.696 -21.491  1.00  0.00     0.173 HD
HETATM   11  C9  UNL     1     -45.478 -22.868 -20.756  1.00  0.00     0.259 A 
HETATM   12  O4  UNL     1     -44.716 -23.319 -21.658  1.00  0.00    -0.267 OA
HETATM   13  C10 UNL     1     -44.974 -20.796 -17.857  1.00  0.00     0.330 C 
ENDROOT
BRANCH   6  14
HETATM   14  C5  UNL     1     -47.979 -21.410 -17.778  1.00  0.00     0.118 C 
BRANCH  14  15
HETATM   15  C6  UNL     1     -48.393 -22.294 -16.675  1.00  0.00     0.322 C 
BRANCH  15  16
HETATM   16  N3  UNL     1     -49.872 -22.281 -16.673  1.00  0.00    -0.061 N 
ATOM     17  H33 UNL     1     -50.282 -22.608 -17.547  1.00  0.00     0.275 HD
ATOM     18  H32 UNL     1     -50.284 -22.992 -16.069  1.00  0.00     0.275 HD
ATOM     19  H31 UNL     1     -50.145 -21.329 -16.426  1.00  0.00     0.275 HD
ENDBRANCH  15  16
BRANCH  15  20
HETATM   20  C7  UNL     1     -47.923 -21.936 -15.340  1.00  0.00     0.209 C 
HETATM   21  O1  UNL     1     -47.105 -21.001 -15.145  1.00  0.00    -0.646 OA
HETATM   22  O2  UNL     1     -48.363 -22.620 -14.199  1.00  0.00    -0.646 OA
ENDBRANCH  15  20
ENDBRANCH  14  15
ENDBRANCH   6  14
TORSDOF 4
ENDMDL
