MODEL 2
REMARK VINA RESULT: -7.624064817      1.269      1.435
REMARK  6 active torsions:
REMARK  status: ('A' for Active; 'I' for Inactive)
REMARK    1  A    between atoms: C5_5  and  C6_6 
REMARK    2  A    between atoms: C6_6  and  N1_7 
REMARK       I    between atoms: N1_7  and  C7_9 
REMARK       I    between atoms: C7_9  and  N2_11 
REMARK    3  A    between atoms: N2_11  and  C8_13 
REMARK    4  A    between atoms: C10_15  and  S1_16 
REMARK    5  A    between atoms: S1_16  and  N3_17 
REMARK    6  A    between atoms: C13_24  and  O4_25 
ROOT
HETATM    1  C8  UNL     1      12.785  35.176  17.076  1.00  0.00     0.071 A 
HETATM    2  C9  UNL     1      13.494  35.872  18.023  1.00  0.00     0.057 A 
HETATM    3  C10 UNL     1      13.581  35.527  19.363  1.00  0.00     0.081 A 
HETATM    4  C11 UNL     1      12.914  34.408  19.797  1.00  0.00     0.028 A 
HETATM    5  C12 UNL     1      12.188  33.672  18.888  1.00  0.00     0.040 A 
HETATM    6  C13 UNL     1      12.116  34.040  17.543  1.00  0.00     0.092 A 
ENDROOT
BRANCH   1   7
HETATM    7  N2  UNL     1      12.700  35.535  15.709  1.00  0.00    -0.306 N 
HETATM    8  C7  UNL     1      13.208  34.813  14.616  1.00  0.00     0.321 C 
HETATM    9  N1  UNL     1      13.053  35.294  13.265  1.00  0.00    -0.339 N 
HETATM   10  O1  UNL     1      13.803  33.746  14.782  1.00  0.00    -0.247 OA
ATOM     11  H1  UNL     1      12.566  36.172  13.086  1.00  0.00     0.164 HD
ATOM     12  H2  UNL     1      12.218  36.409  15.495  1.00  0.00     0.171 HD
BRANCH   9  13
HETATM   13  C6  UNL     1      13.587  34.526  12.173  1.00  0.00     0.162 C 
BRANCH  13  14
HETATM   14  C5  UNL     1      14.287  35.415  11.215  1.00  0.00    -0.040 A 
HETATM   15  C4  UNL     1      15.344  34.955  10.459  1.00  0.00     0.009 A 
HETATM   16  C3  UNL     1      15.984  35.800   9.573  1.00  0.00     0.007 A 
HETATM   17  C2  UNL     1      15.576  37.118   9.428  1.00  0.00    -0.062 A 
HETATM   18  C1  UNL     1      16.262  38.030   8.474  1.00  0.00     0.048 C 
HETATM   19  C15 UNL     1      14.532  37.573  10.173  1.00  0.00     0.007 A 
HETATM   20  C14 UNL     1      13.895  36.726  11.058  1.00  0.00     0.009 A 
ENDBRANCH  13  14
ENDBRANCH   9  13
ENDBRANCH   1   7
BRANCH   6  21
HETATM   21  O4  UNL     1      11.363  33.230  16.738  1.00  0.00    -0.358 OA
ATOM     22  H4  UNL     1      10.517  32.883  16.994  1.00  0.00     0.217 HD
ENDBRANCH   6  21
BRANCH   3  23
HETATM   23  S1  UNL     1      14.516  36.492  20.481  1.00  0.00     0.256 S 
HETATM   24  O2  UNL     1      13.508  37.307  21.278  1.00  0.00    -0.201 OA
HETATM   25  O3  UNL     1      15.337  35.631  21.372  1.00  0.00    -0.201 OA
BRANCH  23  26
HETATM   26  N3  UNL     1      15.501  37.576  19.560  1.00  0.00    -0.324 N 
ATOM     27  H32 UNL     1      15.184  38.456  19.153  1.00  0.00     0.169 HD
ATOM     28  H31 UNL     1      16.439  37.179  19.502  1.00  0.00     0.169 HD
ENDBRANCH  23  26
ENDBRANCH   3  23
TORSDOF 6
ENDMDL
