MODEL 1
REMARK VINA RESULT: -7.688768088      0.000      0.000
REMARK  6 active torsions:
REMARK  status: ('A' for Active; 'I' for Inactive)
REMARK    1  A    between atoms: C5_5  and  C6_6 
REMARK    2  A    between atoms: C6_6  and  N1_7 
REMARK       I    between atoms: N1_7  and  C7_9 
REMARK       I    between atoms: C7_9  and  N2_11 
REMARK    3  A    between atoms: N2_11  and  C8_13 
REMARK    4  A    between atoms: C10_15  and  S1_16 
REMARK    5  A    between atoms: S1_16  and  N3_17 
REMARK    6  A    between atoms: C13_24  and  O4_25 
ROOT
HETATM    1  C8  UNL     1      13.981  34.516  17.030  1.00  0.00     0.071 A 
HETATM    2  C9  UNL     1      14.206  35.377  18.075  1.00  0.00     0.057 A 
HETATM    3  C10 UNL     1      13.729  35.203  19.365  1.00  0.00     0.081 A 
HETATM    4  C11 UNL     1      12.972  34.090  19.640  1.00  0.00     0.028 A 
HETATM    5  C12 UNL     1      12.716  33.193  18.628  1.00  0.00     0.040 A 
HETATM    6  C13 UNL     1      13.207  33.390  17.336  1.00  0.00     0.092 A 
ENDROOT
BRANCH   1   7
HETATM    7  N2  UNL     1      14.470  34.700  15.714  1.00  0.00    -0.306 N 
HETATM    8  C7  UNL     1      13.708  34.968  14.564  1.00  0.00     0.321 C 
HETATM    9  N1  UNL     1      14.335  35.135  13.275  1.00  0.00    -0.339 N 
HETATM   10  O1  UNL     1      12.481  35.068  14.624  1.00  0.00    -0.247 OA
ATOM     11  H1  UNL     1      15.348  35.059  13.183  1.00  0.00     0.164 HD
ATOM     12  H2  UNL     1      15.480  34.632  15.587  1.00  0.00     0.171 HD
BRANCH   9  13
HETATM   13  C6  UNL     1      13.522  35.408  12.121  1.00  0.00     0.162 C 
BRANCH  13  14
HETATM   14  C5  UNL     1      14.352  35.972  11.031  1.00  0.00    -0.040 A 
HETATM   15  C4  UNL     1      15.258  35.188  10.348  1.00  0.00     0.009 A 
HETATM   16  C3  UNL     1      16.024  35.732   9.335  1.00  0.00     0.007 A 
HETATM   17  C2  UNL     1      15.895  37.070   8.988  1.00  0.00    -0.062 A 
HETATM   18  C1  UNL     1      16.717  37.659   7.897  1.00  0.00     0.048 C 
HETATM   19  C15 UNL     1      15.000  37.844   9.660  1.00  0.00     0.007 A 
HETATM   20  C14 UNL     1      14.237  37.297  10.672  1.00  0.00     0.009 A 
ENDBRANCH  13  14
ENDBRANCH   9  13
ENDBRANCH   1   7
BRANCH   6  21
HETATM   21  O4  UNL     1      12.886  32.430  16.417  1.00  0.00    -0.358 OA
ATOM     22  H4  UNL     1      12.344  32.599  15.656  1.00  0.00     0.217 HD
ENDBRANCH   6  21
BRANCH   3  23
HETATM   23  S1  UNL     1      14.080  36.370  20.618  1.00  0.00     0.256 S 
HETATM   24  O2  UNL     1      15.319  35.856  21.336  1.00  0.00    -0.201 OA
HETATM   25  O3  UNL     1      14.313  37.719  20.040  1.00  0.00    -0.201 OA
BRANCH  23  26
HETATM   26  N3  UNL     1      12.756  36.374  21.732  1.00  0.00    -0.324 N 
ATOM     27  H32 UNL     1      12.444  35.571  22.277  1.00  0.00     0.169 HD
ATOM     28  H31 UNL     1      12.354  37.312  21.742  1.00  0.00     0.169 HD
ENDBRANCH  23  26
ENDBRANCH   3  23
TORSDOF 6
ENDMDL
