MODEL 11
REMARK VINA RESULT: -7.095345827      4.791      6.198
REMARK  6 active torsions:
REMARK  status: ('A' for Active; 'I' for Inactive)
REMARK    1  A    between atoms: C5_5  and  C6_6 
REMARK    2  A    between atoms: C6_6  and  N1_7 
REMARK       I    between atoms: N1_7  and  C7_9 
REMARK       I    between atoms: C7_9  and  N2_11 
REMARK    3  A    between atoms: N2_11  and  C8_13 
REMARK    4  A    between atoms: C10_15  and  S1_16 
REMARK    5  A    between atoms: S1_16  and  N3_17 
REMARK    6  A    between atoms: C13_24  and  O4_25 
ROOT
HETATM    1  C8  UNL     1      12.469  35.831  17.036  1.00  0.00     0.071 A 
HETATM    2  C9  UNL     1      12.882  35.347  18.252  1.00  0.00     0.057 A 
HETATM    3  C10 UNL     1      13.498  36.102  19.239  1.00  0.00     0.081 A 
HETATM    4  C11 UNL     1      13.721  37.436  19.002  1.00  0.00     0.028 A 
HETATM    5  C12 UNL     1      13.326  37.973  17.799  1.00  0.00     0.040 A 
HETATM    6  C13 UNL     1      12.707  37.193  16.819  1.00  0.00     0.092 A 
ENDROOT
BRANCH   1   7
HETATM    7  N2  UNL     1      11.842  35.055  16.031  1.00  0.00    -0.306 N 
HETATM    8  C7  UNL     1      10.585  34.432  16.111  1.00  0.00     0.321 C 
HETATM    9  N1  UNL     1      10.060  33.664  15.009  1.00  0.00    -0.339 N 
HETATM   10  O1  UNL     1       9.894  34.525  17.128  1.00  0.00    -0.247 OA
ATOM     11  H1  UNL     1      10.601  33.564  14.150  1.00  0.00     0.164 HD
ATOM     12  H2  UNL     1      12.356  34.935  15.158  1.00  0.00     0.171 HD
BRANCH   9  13
HETATM   13  C6  UNL     1       8.769  33.042  15.129  1.00  0.00     0.162 C 
BRANCH  13  14
HETATM   14  C5  UNL     1       7.765  33.787  14.334  1.00  0.00    -0.040 A 
HETATM   15  C4  UNL     1       6.746  33.130  13.677  1.00  0.00     0.009 A 
HETATM   16  C3  UNL     1       5.819  33.843  12.940  1.00  0.00     0.007 A 
HETATM   17  C2  UNL     1       5.897  35.225  12.850  1.00  0.00    -0.062 A 
HETATM   18  C1  UNL     1       4.901  35.996  12.058  1.00  0.00     0.048 C 
HETATM   19  C15 UNL     1       6.901  35.876  13.498  1.00  0.00     0.007 A 
HETATM   20  C14 UNL     1       7.825  35.160  14.233  1.00  0.00     0.009 A 
ENDBRANCH  13  14
ENDBRANCH   9  13
ENDBRANCH   1   7
BRANCH   6  21
HETATM   21  O4  UNL     1      12.361  37.839  15.665  1.00  0.00    -0.358 OA
ATOM     22  H4  UNL     1      12.933  38.454  15.222  1.00  0.00     0.217 HD
ENDBRANCH   6  21
BRANCH   3  23
HETATM   23  S1  UNL     1      13.983  35.376  20.754  1.00  0.00     0.256 S 
HETATM   24  O2  UNL     1      13.836  33.873  20.566  1.00  0.00    -0.201 OA
HETATM   25  O3  UNL     1      15.382  35.742  21.097  1.00  0.00    -0.201 OA
BRANCH  23  26
HETATM   26  N3  UNL     1      12.873  35.894  21.976  1.00  0.00    -0.324 N 
ATOM     27  H32 UNL     1      11.899  36.152  21.814  1.00  0.00     0.169 HD
ATOM     28  H31 UNL     1      13.364  35.892  22.870  1.00  0.00     0.169 HD
ENDBRANCH  23  26
ENDBRANCH   3  23
TORSDOF 6
ENDMDL
