MODEL 3
REMARK VINA RESULT: -7.617507698      0.844      1.365
REMARK  6 active torsions:
REMARK  status: ('A' for Active; 'I' for Inactive)
REMARK    1  A    between atoms: C5_5  and  C6_6 
REMARK    2  A    between atoms: C6_6  and  N1_7 
REMARK       I    between atoms: N1_7  and  C7_9 
REMARK       I    between atoms: C7_9  and  N2_11 
REMARK    3  A    between atoms: N2_11  and  C8_13 
REMARK    4  A    between atoms: C10_15  and  S1_16 
REMARK    5  A    between atoms: S1_16  and  N3_17 
REMARK    6  A    between atoms: C13_24  and  O4_25 
ROOT
HETATM    1  C8  UNL     1      13.749  34.572  16.954  1.00  0.00     0.071 A 
HETATM    2  C9  UNL     1      14.018  35.468  17.959  1.00  0.00     0.057 A 
HETATM    3  C10 UNL     1      13.760  35.253  19.304  1.00  0.00     0.081 A 
HETATM    4  C11 UNL     1      13.193  34.061  19.681  1.00  0.00     0.028 A 
HETATM    5  C12 UNL     1      12.902  33.127  18.713  1.00  0.00     0.040 A 
HETATM    6  C13 UNL     1      13.171  33.366  17.364  1.00  0.00     0.092 A 
ENDROOT
BRANCH   1   7
HETATM    7  N2  UNL     1      14.014  34.799  15.581  1.00  0.00    -0.306 N 
HETATM    8  C7  UNL     1      13.110  35.279  14.618  1.00  0.00     0.321 C 
HETATM    9  N1  UNL     1      13.510  35.465  13.245  1.00  0.00    -0.339 N 
HETATM   10  O1  UNL     1      11.948  35.557  14.921  1.00  0.00    -0.247 OA
ATOM     11  H1  UNL     1      14.463  35.247  12.954  1.00  0.00     0.164 HD
ATOM     12  H2  UNL     1      14.959  34.591  15.257  1.00  0.00     0.171 HD
BRANCH   9  13
HETATM   13  C6  UNL     1      12.557  35.959  12.289  1.00  0.00     0.162 C 
BRANCH  13  14
HETATM   14  C5  UNL     1      13.246  36.737  11.232  1.00  0.00    -0.040 A 
HETATM   15  C4  UNL     1      12.613  37.779  10.588  1.00  0.00     0.009 A 
HETATM   16  C3  UNL     1      13.272  38.492   9.605  1.00  0.00     0.007 A 
HETATM   17  C2  UNL     1      14.576  38.174   9.251  1.00  0.00    -0.062 A 
HETATM   18  C1  UNL     1      15.290  38.940   8.194  1.00  0.00     0.048 C 
HETATM   19  C15 UNL     1      15.202  37.146   9.887  1.00  0.00     0.007 A 
HETATM   20  C14 UNL     1      14.540  36.436  10.869  1.00  0.00     0.009 A 
ENDBRANCH  13  14
ENDBRANCH   9  13
ENDBRANCH   1   7
BRANCH   6  21
HETATM   21  O4  UNL     1      12.838  32.362  16.497  1.00  0.00    -0.358 OA
ATOM     22  H4  UNL     1      12.604  31.486  16.780  1.00  0.00     0.217 HD
ENDBRANCH   6  21
BRANCH   3  23
HETATM   23  S1  UNL     1      14.146  36.469  20.499  1.00  0.00     0.256 S 
HETATM   24  O2  UNL     1      15.389  35.970  21.221  1.00  0.00    -0.201 OA
HETATM   25  O3  UNL     1      14.389  37.788  19.857  1.00  0.00    -0.201 OA
BRANCH  23  26
HETATM   26  N3  UNL     1      12.839  36.544  21.630  1.00  0.00    -0.324 N 
ATOM     27  H32 UNL     1      12.505  37.392  22.086  1.00  0.00     0.169 HD
ATOM     28  H31 UNL     1      12.473  35.599  21.752  1.00  0.00     0.169 HD
ENDBRANCH  23  26
ENDBRANCH   3  23
TORSDOF 6
ENDMDL
