MODEL 7
REMARK VINA RESULT: -7.231454141      2.159      6.894
REMARK  10 active torsions:
REMARK  status: ('A' for Active; 'I' for Inactive)
REMARK    1  A    between atoms: C2_2  and  C4_4 
REMARK    2  A    between atoms: C4_4  and  O1_5 
REMARK    3  A    between atoms: O1_5  and  C5_6 
REMARK    4  A    between atoms: C5_6  and  C6_7 
REMARK    5  A    between atoms: C6_7  and  C7_8 
REMARK    6  A    between atoms: C6_7  and  N2_23 
REMARK    7  A    between atoms: C7_8  and  N1_9 
REMARK    8  A    between atoms: N1_9  and  C8_10 
REMARK    9  A    between atoms: N1_9  and  C15_17 
REMARK   10  A    between atoms: C8_10  and  C9_11 
ROOT
HETATM    1  N1  UNL     1     -47.153  11.937  -4.552  1.00  0.00    -0.354 N 
ENDROOT
BRANCH   1   2
HETATM    2  C7  UNL     1     -47.514  13.104  -5.309  1.00  0.00     0.092 C 
BRANCH   2   3
HETATM    3  C6  UNL     1     -46.702  13.452  -6.456  1.00  0.00     0.150 C 
BRANCH   3   4
HETATM    4  C5  UNL     1     -47.054  14.747  -7.108  1.00  0.00     0.198 C 
BRANCH   4   5
HETATM    5  O1  UNL     1     -46.154  15.584  -7.594  1.00  0.00    -0.388 OA
BRANCH   5   6
HETATM    6  C4  UNL     1     -46.282  16.322  -8.701  1.00  0.00     0.171 C 
BRANCH   6   7
HETATM    7  C2  UNL     1     -44.902  16.615  -9.351  1.00  0.00     0.001 C 
HETATM    8  C1  UNL     1     -43.823  15.983  -8.514  1.00  0.00     0.011 C 
HETATM    9  C3  UNL     1     -44.702  18.114  -9.330  1.00  0.00     0.011 C 
ENDBRANCH   6   7
ENDBRANCH   5   6
ENDBRANCH   4   5
ENDBRANCH   3   4
BRANCH   3  10
HETATM   10  N2  UNL     1     -46.514  12.491  -7.502  1.00  0.00    -0.362 N 
HETATM   11  C21 UNL     1     -45.213  12.338  -7.993  1.00  0.00     0.064 C 
HETATM   12  C22 UNL     1     -45.330  12.660  -9.458  1.00  0.00     0.050 C 
HETATM   13  C23 UNL     1     -46.752  12.231  -9.785  1.00  0.00     0.050 C 
HETATM   14  C24 UNL     1     -47.517  12.403  -8.474  1.00  0.00     0.064 C 
ENDBRANCH   3  10
ENDBRANCH   2   3
ENDBRANCH   1   2
BRANCH   1  15
HETATM   15  C8  UNL     1     -45.828  11.666  -4.050  1.00  0.00     0.166 C 
BRANCH  15  16
HETATM   16  C9  UNL     1     -45.448  12.590  -2.954  1.00  0.00    -0.040 A 
HETATM   17  C10 UNL     1     -46.015  12.518  -1.721  1.00  0.00     0.009 A 
HETATM   18  C11 UNL     1     -45.641  13.397  -0.700  1.00  0.00     0.001 A 
HETATM   19  C12 UNL     1     -44.683  14.346  -0.964  1.00  0.00     0.000 A 
HETATM   20  C13 UNL     1     -44.119  14.403  -2.223  1.00  0.00     0.001 A 
HETATM   21  C14 UNL     1     -44.490  13.541  -3.215  1.00  0.00     0.009 A 
ENDBRANCH  15  16
ENDBRANCH   1  15
BRANCH   1  22
HETATM   22  C15 UNL     1     -48.190  11.020  -4.285  1.00  0.00     0.034 A 
HETATM   23  C16 UNL     1     -48.192   9.845  -5.040  1.00  0.00     0.029 A 
HETATM   24  C17 UNL     1     -49.145   8.877  -4.861  1.00  0.00     0.002 A 
HETATM   25  C18 UNL     1     -50.110   9.104  -3.903  1.00  0.00     0.000 A 
HETATM   26  C19 UNL     1     -50.131  10.261  -3.139  1.00  0.00     0.002 A 
HETATM   27  C20 UNL     1     -49.162  11.228  -3.331  1.00  0.00     0.029 A 
ENDBRANCH   1  22
TORSDOF 10
ENDMDL
