MODEL 1
REMARK VINA RESULT: -7.801710451      0.000      0.000
REMARK  10 active torsions:
REMARK  status: ('A' for Active; 'I' for Inactive)
REMARK    1  A    between atoms: C2_2  and  C4_4 
REMARK    2  A    between atoms: C4_4  and  O1_5 
REMARK    3  A    between atoms: O1_5  and  C5_6 
REMARK    4  A    between atoms: C5_6  and  C6_7 
REMARK    5  A    between atoms: C6_7  and  C7_8 
REMARK    6  A    between atoms: C6_7  and  N2_23 
REMARK    7  A    between atoms: C7_8  and  N1_9 
REMARK    8  A    between atoms: N1_9  and  C8_10 
REMARK    9  A    between atoms: N1_9  and  C15_17 
REMARK   10  A    between atoms: C8_10  and  C9_11 
ROOT
HETATM    1  N1  UNL     1     -46.567  12.404  -8.710  1.00  0.00    -0.354 N 
ENDROOT
BRANCH   1   2
HETATM    2  C7  UNL     1     -47.295  12.196  -7.488  1.00  0.00     0.092 C 
BRANCH   2   3
HETATM    3  C6  UNL     1     -46.640  11.476  -6.416  1.00  0.00     0.150 C 
BRANCH   3   4
HETATM    4  C5  UNL     1     -47.449  10.382  -5.805  1.00  0.00     0.198 C 
BRANCH   4   5
HETATM    5  O1  UNL     1     -48.322  10.582  -4.832  1.00  0.00    -0.388 OA
BRANCH   5   6
HETATM    6  C4  UNL     1     -48.337   9.960  -3.649  1.00  0.00     0.171 C 
BRANCH   6   7
HETATM    7  C2  UNL     1     -49.768   9.924  -3.046  1.00  0.00     0.001 C 
HETATM    8  C1  UNL     1     -50.703   9.288  -4.038  1.00  0.00     0.011 C 
HETATM    9  C3  UNL     1     -50.204  11.356  -2.832  1.00  0.00     0.011 C 
ENDBRANCH   6   7
ENDBRANCH   5   6
ENDBRANCH   4   5
ENDBRANCH   3   4
BRANCH   3  10
HETATM   10  N2  UNL     1     -46.042  12.210  -5.341  1.00  0.00    -0.362 N 
HETATM   11  C21 UNL     1     -46.321  13.580  -5.279  1.00  0.00     0.064 C 
HETATM   12  C22 UNL     1     -44.971  14.237  -5.363  1.00  0.00     0.050 C 
HETATM   13  C23 UNL     1     -44.054  13.209  -4.717  1.00  0.00     0.050 C 
HETATM   14  C24 UNL     1     -44.732  11.867  -4.986  1.00  0.00     0.064 C 
ENDBRANCH   3  10
ENDBRANCH   2   3
ENDBRANCH   1   2
BRANCH   1  15
HETATM   15  C8  UNL     1     -45.243  12.969  -8.785  1.00  0.00     0.166 C 
BRANCH  15  16
HETATM   16  C9  UNL     1     -45.274  14.445  -8.926  1.00  0.00    -0.040 A 
HETATM   17  C10 UNL     1     -46.413  15.164  -8.737  1.00  0.00     0.009 A 
HETATM   18  C11 UNL     1     -46.422  16.555  -8.872  1.00  0.00     0.001 A 
HETATM   19  C12 UNL     1     -45.251  17.194  -9.203  1.00  0.00     0.000 A 
HETATM   20  C13 UNL     1     -44.105  16.446  -9.391  1.00  0.00     0.001 A 
HETATM   21  C14 UNL     1     -44.104  15.087  -9.257  1.00  0.00     0.009 A 
ENDBRANCH  15  16
ENDBRANCH   1  15
BRANCH   1  22
HETATM   22  C15 UNL     1     -47.213  12.006  -9.898  1.00  0.00     0.034 A 
HETATM   23  C16 UNL     1     -48.414  11.307  -9.750  1.00  0.00     0.029 A 
HETATM   24  C17 UNL     1     -49.134  10.878 -10.834  1.00  0.00     0.002 A 
HETATM   25  C18 UNL     1     -48.630  11.161 -12.085  1.00  0.00     0.000 A 
HETATM   26  C19 UNL     1     -47.441  11.853 -12.261  1.00  0.00     0.002 A 
HETATM   27  C20 UNL     1     -46.725  12.279 -11.157  1.00  0.00     0.029 A 
ENDBRANCH   1  22
TORSDOF 10
ENDMDL
