MODEL 5
REMARK VINA RESULT: -7.363869658      2.206      6.909
REMARK  10 active torsions:
REMARK  status: ('A' for Active; 'I' for Inactive)
REMARK    1  A    between atoms: C2_2  and  C4_4 
REMARK    2  A    between atoms: C4_4  and  O1_5 
REMARK    3  A    between atoms: O1_5  and  C5_6 
REMARK    4  A    between atoms: C5_6  and  C6_7 
REMARK    5  A    between atoms: C6_7  and  C7_8 
REMARK    6  A    between atoms: C6_7  and  N2_23 
REMARK    7  A    between atoms: C7_8  and  N1_9 
REMARK    8  A    between atoms: N1_9  and  C8_10 
REMARK    9  A    between atoms: N1_9  and  C15_17 
REMARK   10  A    between atoms: C8_10  and  C9_11 
ROOT
HETATM    1  N1  UNL     1     -47.094  11.872  -4.598  1.00  0.00    -0.354 N 
ENDROOT
BRANCH   1   2
HETATM    2  C7  UNL     1     -47.460  13.067  -5.308  1.00  0.00     0.092 C 
BRANCH   2   3
HETATM    3  C6  UNL     1     -46.684  13.434  -6.474  1.00  0.00     0.150 C 
BRANCH   3   4
HETATM    4  C5  UNL     1     -47.072  14.727  -7.108  1.00  0.00     0.198 C 
BRANCH   4   5
HETATM    5  O1  UNL     1     -46.195  15.608  -7.558  1.00  0.00    -0.388 OA
BRANCH   5   6
HETATM    6  C4  UNL     1     -46.252  16.246  -8.731  1.00  0.00     0.171 C 
BRANCH   6   7
HETATM    7  C2  UNL     1     -44.832  16.496  -9.310  1.00  0.00     0.001 C 
HETATM    8  C1  UNL     1     -43.813  15.879  -8.391  1.00  0.00     0.011 C 
HETATM    9  C3  UNL     1     -44.610  17.992  -9.330  1.00  0.00     0.011 C 
ENDBRANCH   6   7
ENDBRANCH   5   6
ENDBRANCH   4   5
ENDBRANCH   3   4
BRANCH   3  10
HETATM   10  N2  UNL     1     -46.509  12.482  -7.530  1.00  0.00    -0.362 N 
HETATM   11  C21 UNL     1     -45.226  12.375  -8.078  1.00  0.00     0.064 C 
HETATM   12  C22 UNL     1     -45.417  12.696  -9.535  1.00  0.00     0.050 C 
HETATM   13  C23 UNL     1     -46.837  12.220  -9.802  1.00  0.00     0.050 C 
HETATM   14  C24 UNL     1     -47.550  12.363  -8.458  1.00  0.00     0.064 C 
ENDBRANCH   3  10
ENDBRANCH   2   3
ENDBRANCH   1   2
BRANCH   1  15
HETATM   15  C8  UNL     1     -45.789  11.623  -4.036  1.00  0.00     0.166 C 
BRANCH  15  16
HETATM   16  C9  UNL     1     -45.484  12.537  -2.909  1.00  0.00    -0.040 A 
HETATM   17  C10 UNL     1     -44.592  13.556  -3.028  1.00  0.00     0.009 A 
HETATM   18  C11 UNL     1     -44.318  14.409  -1.955  1.00  0.00     0.001 A 
HETATM   19  C12 UNL     1     -44.972  14.201  -0.764  1.00  0.00     0.000 A 
HETATM   20  C13 UNL     1     -45.875  13.160  -0.663  1.00  0.00     0.001 A 
HETATM   21  C14 UNL     1     -46.136  12.332  -1.716  1.00  0.00     0.009 A 
ENDBRANCH  15  16
ENDBRANCH   1  15
BRANCH   1  22
HETATM   22  C15 UNL     1     -48.105  10.901  -4.444  1.00  0.00     0.034 A 
HETATM   23  C16 UNL     1     -49.150  11.224  -3.575  1.00  0.00     0.029 A 
HETATM   24  C17 UNL     1     -50.193  10.362  -3.354  1.00  0.00     0.002 A 
HETATM   25  C18 UNL     1     -50.176   9.158  -4.024  1.00  0.00     0.000 A 
HETATM   26  C19 UNL     1     -49.151   8.813  -4.892  1.00  0.00     0.002 A 
HETATM   27  C20 UNL     1     -48.106   9.692  -5.104  1.00  0.00     0.029 A 
ENDBRANCH   1  22
TORSDOF 10
ENDMDL
