MODEL 6
REMARK VINA RESULT: -7.310298442      1.994      5.937
REMARK  10 active torsions:
REMARK  status: ('A' for Active; 'I' for Inactive)
REMARK    1  A    between atoms: C2_2  and  C4_4 
REMARK    2  A    between atoms: C4_4  and  O1_5 
REMARK    3  A    between atoms: O1_5  and  C5_6 
REMARK    4  A    between atoms: C5_6  and  C6_7 
REMARK    5  A    between atoms: C6_7  and  C7_8 
REMARK    6  A    between atoms: C6_7  and  N2_23 
REMARK    7  A    between atoms: C7_8  and  N1_9 
REMARK    8  A    between atoms: N1_9  and  C8_10 
REMARK    9  A    between atoms: N1_9  and  C15_17 
REMARK   10  A    between atoms: C8_10  and  C9_11 
ROOT
HETATM    1  N1  UNL     1     -45.919  13.162  -5.319  1.00  0.00    -0.354 N 
ENDROOT
BRANCH   1   2
HETATM    2  C7  UNL     1     -47.196  12.547  -5.077  1.00  0.00     0.092 C 
BRANCH   2   3
HETATM    3  C6  UNL     1     -47.311  11.116  -5.266  1.00  0.00     0.150 C 
BRANCH   3   4
HETATM    4  C5  UNL     1     -47.732  10.694  -6.633  1.00  0.00     0.198 C 
BRANCH   4   5
HETATM    5  O1  UNL     1     -47.231  11.215  -7.741  1.00  0.00    -0.388 OA
BRANCH   5   6
HETATM    6  C4  UNL     1     -47.931  11.775  -8.732  1.00  0.00     0.171 C 
BRANCH   6   7
HETATM    7  C2  UNL     1     -46.997  12.431  -9.785  1.00  0.00     0.001 C 
HETATM    8  C1  UNL     1     -47.322  11.874 -11.145  1.00  0.00     0.011 C 
HETATM    9  C3  UNL     1     -45.578  12.037  -9.438  1.00  0.00     0.011 C 
ENDBRANCH   6   7
ENDBRANCH   5   6
ENDBRANCH   4   5
ENDBRANCH   3   4
BRANCH   3  10
HETATM   10  N2  UNL     1     -48.075  10.343  -4.332  1.00  0.00    -0.362 N 
HETATM   11  C21 UNL     1     -48.962   9.403  -4.867  1.00  0.00     0.064 C 
HETATM   12  C22 UNL     1     -50.307   9.819  -4.338  1.00  0.00     0.050 C 
HETATM   13  C23 UNL     1     -49.960  10.459  -3.002  1.00  0.00     0.050 C 
HETATM   14  C24 UNL     1     -48.546  11.005  -3.193  1.00  0.00     0.064 C 
ENDBRANCH   3  10
ENDBRANCH   2   3
ENDBRANCH   1   2
BRANCH   1  15
HETATM   15  C8  UNL     1     -44.717  12.870  -4.579  1.00  0.00     0.166 C 
BRANCH  15  16
HETATM   16  C9  UNL     1     -44.728  13.492  -3.232  1.00  0.00    -0.040 A 
HETATM   17  C10 UNL     1     -45.521  13.028  -2.230  1.00  0.00     0.009 A 
HETATM   18  C11 UNL     1     -45.516  13.627  -0.966  1.00  0.00     0.001 A 
HETATM   19  C12 UNL     1     -44.689  14.702  -0.749  1.00  0.00     0.000 A 
HETATM   20  C13 UNL     1     -43.891  15.158  -1.780  1.00  0.00     0.001 A 
HETATM   21  C14 UNL     1     -43.902  14.568  -3.011  1.00  0.00     0.009 A 
ENDBRANCH  15  16
ENDBRANCH   1  15
BRANCH   1  22
HETATM   22  C15 UNL     1     -45.868  14.101  -6.369  1.00  0.00     0.034 A 
HETATM   23  C16 UNL     1     -44.607  14.361  -6.912  1.00  0.00     0.029 A 
HETATM   24  C17 UNL     1     -44.436  15.248  -7.942  1.00  0.00     0.002 A 
HETATM   25  C18 UNL     1     -45.560  15.880  -8.430  1.00  0.00     0.000 A 
HETATM   26  C19 UNL     1     -46.823  15.641  -7.911  1.00  0.00     0.002 A 
HETATM   27  C20 UNL     1     -46.979  14.744  -6.871  1.00  0.00     0.029 A 
ENDBRANCH   1  22
TORSDOF 10
ENDMDL
