MODEL 1
REMARK VINA RESULT: -7.448453965      0.000      0.000
REMARK  5 active torsions:
REMARK  status: ('A' for Active; 'I' for Inactive)
REMARK    1  A    between atoms: O1_1  and  C1_3 
REMARK    2  A    between atoms: C1_3  and  C2_4 
REMARK    3  A    between atoms: C3_5  and  O2_6 
REMARK    4  A    between atoms: C4_8  and  O3_9 
REMARK    5  A    between atoms: C5_11  and  O4_12 
ROOT
HETATM    1  C2  UNL     1      21.027 123.374  -8.980  1.00  0.00     0.145 C 
HETATM    2  C3  UNL     1      22.458 122.895  -9.024  1.00  0.00     0.175 C 
HETATM    3  C4  UNL     1      23.069 123.637 -10.221  1.00  0.00     0.185 C 
HETATM    4  C5  UNL     1      23.240 125.066  -9.773  1.00  0.00     0.217 C 
HETATM    5  C6  UNL     1      22.085 125.510  -8.980  1.00  0.00     0.115 A 
HETATM    6  N1  UNL     1      21.884 126.777  -8.502  1.00  0.00    -0.352 N 
ATOM      7  H1  UNL     1      22.518 127.563  -8.644  1.00  0.00     0.166 HD
HETATM    8  C7  UNL     1      20.737 126.831  -7.824  1.00  0.00     0.106 A 
HETATM    9  C8  UNL     1      20.213 125.558  -7.886  1.00  0.00     0.110 A 
HETATM   10  N2  UNL     1      21.047 124.757  -8.597  1.00  0.00    -0.334 N 
ENDROOT
BRANCH   1  11
HETATM   11  C1  UNL     1      20.137 122.507  -8.161  1.00  0.00     0.192 C 
BRANCH  11  12
HETATM   12  O1  UNL     1      20.782 122.194  -6.974  1.00  0.00    -0.399 OA
ATOM     13  H1  UNL     1      20.292 122.565  -6.250  1.00  0.00     0.209 HD
ENDBRANCH  11  12
ENDBRANCH   1  11
BRANCH   2  14
HETATM   14  O2  UNL     1      22.569 121.533  -9.156  1.00  0.00    -0.391 OA
ATOM     15  H2  UNL     1      22.533 121.071  -8.327  1.00  0.00     0.210 HD
ENDBRANCH   2  14
BRANCH   3  16
HETATM   16  O3  UNL     1      24.223 123.046 -10.660  1.00  0.00    -0.390 OA
ATOM     17  H3  UNL     1      24.898 123.685 -10.859  1.00  0.00     0.210 HD
ENDBRANCH   3  16
BRANCH   4  18
HETATM   18  O4  UNL     1      24.368 125.141  -8.930  1.00  0.00    -0.385 OA
ATOM     19  H4  UNL     1      24.462 126.038  -8.629  1.00  0.00     0.210 HD
ENDBRANCH   4  18
TORSDOF 5
ENDMDL
