MODEL 14
REMARK VINA RESULT: -5.188571626      4.400      5.555
REMARK  5 active torsions:
REMARK  status: ('A' for Active; 'I' for Inactive)
REMARK    1  A    between atoms: O1_1  and  C1_3 
REMARK    2  A    between atoms: C1_3  and  C2_4 
REMARK    3  A    between atoms: C3_5  and  O2_6 
REMARK    4  A    between atoms: C4_8  and  O3_9 
REMARK    5  A    between atoms: C5_11  and  O4_12 
ROOT
HETATM    1  C2  UNL     1      19.232 127.863  -8.561  1.00  0.00     0.145 C 
HETATM    2  C3  UNL     1      20.706 127.935  -8.248  1.00  0.00     0.175 C 
HETATM    3  C4  UNL     1      20.941 129.404  -7.868  1.00  0.00     0.185 C 
HETATM    4  C5  UNL     1      20.331 129.576  -6.501  1.00  0.00     0.217 C 
HETATM    5  C6  UNL     1      19.056 128.851  -6.399  1.00  0.00     0.115 A 
HETATM    6  N1  UNL     1      18.206 128.877  -5.327  1.00  0.00    -0.352 N 
ATOM      7  H1  UNL     1      18.361 129.406  -4.470  1.00  0.00     0.166 HD
HETATM    8  C7  UNL     1      17.144 128.107  -5.570  1.00  0.00     0.106 A 
HETATM    9  C8  UNL     1      17.345 127.591  -6.832  1.00  0.00     0.110 A 
HETATM   10  N2  UNL     1      18.519 128.053  -7.331  1.00  0.00    -0.334 N 
ENDROOT
BRANCH   1  11
HETATM   11  C1  UNL     1      18.848 126.647  -9.329  1.00  0.00     0.192 C 
BRANCH  11  12
HETATM   12  O1  UNL     1      18.951 126.920 -10.685  1.00  0.00    -0.399 OA
ATOM     13  H1  UNL     1      18.356 126.352 -11.160  1.00  0.00     0.209 HD
ENDBRANCH  11  12
ENDBRANCH   1  11
BRANCH   2  14
HETATM   14  O2  UNL     1      21.503 127.545  -9.296  1.00  0.00    -0.391 OA
ATOM     15  H2  UNL     1      22.144 128.200  -9.544  1.00  0.00     0.210 HD
ENDBRANCH   2  14
BRANCH   3  16
HETATM   16  O3  UNL     1      22.264 129.749  -7.937  1.00  0.00    -0.390 OA
ATOM     17  H3  UNL     1      22.421 130.438  -8.572  1.00  0.00     0.210 HD
ENDBRANCH   3  16
BRANCH   4  18
HETATM   18  O4  UNL     1      21.200 129.010  -5.545  1.00  0.00    -0.385 OA
ATOM     19  H4  UNL     1      21.805 128.431  -5.992  1.00  0.00     0.210 HD
ENDBRANCH   4  18
TORSDOF 5
ENDMDL
