MODEL 7
REMARK VINA RESULT: -5.744686434      1.889      4.443
REMARK  5 active torsions:
REMARK  status: ('A' for Active; 'I' for Inactive)
REMARK    1  A    between atoms: O1_1  and  C1_3 
REMARK    2  A    between atoms: C1_3  and  C2_4 
REMARK    3  A    between atoms: C3_5  and  O2_6 
REMARK    4  A    between atoms: C4_8  and  O3_9 
REMARK    5  A    between atoms: C5_11  and  O4_12 
ROOT
HETATM    1  C2  UNL     1      22.322 125.190  -9.464  1.00  0.00     0.145 C 
HETATM    2  C3  UNL     1      21.875 125.675  -8.106  1.00  0.00     0.175 C 
HETATM    3  C4  UNL     1      20.345 125.736  -8.211  1.00  0.00     0.185 C 
HETATM    4  C5  UNL     1      19.875 124.304  -8.193  1.00  0.00     0.217 C 
HETATM    5  C6  UNL     1      20.762 123.450  -8.995  1.00  0.00     0.115 A 
HETATM    6  N1  UNL     1      20.567 122.121  -9.259  1.00  0.00    -0.352 N 
ATOM      7  H1  UNL     1      19.778 121.568  -8.927  1.00  0.00     0.166 HD
HETATM    8  C7  UNL     1      21.563 121.656 -10.016  1.00  0.00     0.106 A 
HETATM    9  C8  UNL     1      22.398 122.733 -10.225  1.00  0.00     0.110 A 
HETATM   10  N2  UNL     1      21.899 123.826  -9.596  1.00  0.00    -0.334 N 
ENDROOT
BRANCH   1  11
HETATM   11  C1  UNL     1      23.767 125.429  -9.732  1.00  0.00     0.192 C 
BRANCH  11  12
HETATM   12  O1  UNL     1      24.491 125.137  -8.586  1.00  0.00    -0.399 OA
ATOM     13  H1  UNL     1      23.911 124.738  -7.948  1.00  0.00     0.209 HD
ENDBRANCH  11  12
ENDBRANCH   1  11
BRANCH   2  14
HETATM   14  O2  UNL     1      22.412 126.890  -7.761  1.00  0.00    -0.391 OA
ATOM     15  H2  UNL     1      22.874 126.874  -6.931  1.00  0.00     0.210 HD
ENDBRANCH   2  14
BRANCH   3  16
HETATM   16  O3  UNL     1      19.791 126.518  -7.234  1.00  0.00    -0.390 OA
ATOM     17  H3  UNL     1      19.540 127.374  -7.561  1.00  0.00     0.210 HD
ENDBRANCH   3  16
BRANCH   4  18
HETATM   18  O4  UNL     1      19.937 123.827  -6.868  1.00  0.00    -0.385 OA
ATOM     19  H4  UNL     1      19.072 123.894  -6.481  1.00  0.00     0.210 HD
ENDBRANCH   4  18
TORSDOF 5
ENDMDL
