MODEL 16
REMARK VINA RESULT: -4.975612263      3.146      4.576
REMARK  5 active torsions:
REMARK  status: ('A' for Active; 'I' for Inactive)
REMARK    1  A    between atoms: O1_1  and  C1_3 
REMARK    2  A    between atoms: C1_3  and  C2_4 
REMARK    3  A    between atoms: C3_5  and  O2_6 
REMARK    4  A    between atoms: C4_8  and  O3_9 
REMARK    5  A    between atoms: C5_11  and  O4_12 
ROOT
HETATM    1  C2  UNL     1      20.432 126.371  -8.574  1.00  0.00     0.145 C 
HETATM    2  C3  UNL     1      21.431 127.009  -7.640  1.00  0.00     0.175 C 
HETATM    3  C4  UNL     1      21.273 128.516  -7.890  1.00  0.00     0.185 C 
HETATM    4  C5  UNL     1      19.965 128.904  -7.249  1.00  0.00     0.217 C 
HETATM    5  C6  UNL     1      18.940 127.877  -7.485  1.00  0.00     0.115 A 
HETATM    6  N1  UNL     1      17.624 127.964  -7.118  1.00  0.00    -0.352 N 
ATOM      7  H1  UNL     1      17.202 128.757  -6.636  1.00  0.00     0.166 HD
HETATM    8  C7  UNL     1      16.976 126.858  -7.485  1.00  0.00     0.106 A 
HETATM    9  C8  UNL     1      17.921 126.064  -8.098  1.00  0.00     0.110 A 
HETATM   10  N2  UNL     1      19.121 126.698  -8.093  1.00  0.00    -0.334 N 
ENDROOT
BRANCH   1  11
HETATM   11  C1  UNL     1      20.676 124.920  -8.799  1.00  0.00     0.192 C 
BRANCH  11  12
HETATM   12  O1  UNL     1      20.886 124.304  -7.574  1.00  0.00    -0.399 OA
ATOM     13  H1  UNL     1      20.153 123.730  -7.388  1.00  0.00     0.209 HD
ENDBRANCH  11  12
ENDBRANCH   1  11
BRANCH   2  14
HETATM   14  O2  UNL     1      22.719 126.589  -7.854  1.00  0.00    -0.391 OA
ATOM     15  H2  UNL     1      23.372 127.199  -7.531  1.00  0.00     0.210 HD
ENDBRANCH   2  14
BRANCH   3  16
HETATM   16  O3  UNL     1      22.350 129.230  -7.438  1.00  0.00    -0.390 OA
ATOM     17  H3  UNL     1      22.994 128.675  -7.013  1.00  0.00     0.210 HD
ENDBRANCH   3  16
BRANCH   4  18
HETATM   18  O4  UNL     1      20.153 128.981  -5.854  1.00  0.00    -0.385 OA
ATOM     19  H4  UNL     1      19.545 128.384  -5.433  1.00  0.00     0.210 HD
ENDBRANCH   4  18
TORSDOF 5
ENDMDL
