MODEL 4
REMARK VINA RESULT: -3.425785339      9.540      9.915
REMARK  5 active torsions:
REMARK  status: ('A' for Active; 'I' for Inactive)
REMARK    1  A    between atoms: N1_1  and  C1_5 
REMARK    2  A    between atoms: C1_5  and  C2_6 
REMARK    3  A    between atoms: C2_6  and  C3_7 
REMARK    4  A    between atoms: C3_7  and  C4_8 
REMARK    5  A    between atoms: C4_8  and  N2_9 
ROOT
HETATM    1  C2  UNL     1      55.174  78.659  47.517  1.00  0.00     0.029 C 
ENDROOT
BRANCH   1   2
HETATM    2  C1  UNL     1      55.988  79.923  47.506  1.00  0.00     0.229 C 
BRANCH   2   3
HETATM    3  N1  UNL     1      57.187  79.721  48.298  1.00  0.00    -0.079 N 
ATOM      4  H13 UNL     1      57.955  80.321  47.999  1.00  0.00     0.274 HD
ATOM      5  H12 UNL     1      57.089  80.078  49.249  1.00  0.00     0.274 HD
ATOM      6  H11 UNL     1      57.437  78.732  48.278  1.00  0.00     0.274 HD
ENDBRANCH   2   3
ENDBRANCH   1   2
BRANCH   1   7
HETATM    7  C3  UNL     1      54.170  78.708  46.416  1.00  0.00     0.029 C 
BRANCH   7   8
HETATM    8  C4  UNL     1      54.257  77.561  45.458  1.00  0.00     0.229 C 
BRANCH   8   9
HETATM    9  N2  UNL     1      52.923  76.983  45.232  1.00  0.00    -0.079 N 
ATOM     10  H23 UNL     1      52.976  76.014  44.919  1.00  0.00     0.274 HD
ATOM     11  H22 UNL     1      52.421  76.832  46.107  1.00  0.00     0.274 HD
ATOM     12  H21 UNL     1      52.392  77.563  44.583  1.00  0.00     0.274 HD
ENDBRANCH   8   9
ENDBRANCH   7   8
ENDBRANCH   1   7
TORSDOF 5
ENDMDL
