MODEL 5
REMARK VINA RESULT: -3.381829530      9.306      9.595
REMARK  5 active torsions:
REMARK  status: ('A' for Active; 'I' for Inactive)
REMARK    1  A    between atoms: N1_1  and  C1_5 
REMARK    2  A    between atoms: C1_5  and  C2_6 
REMARK    3  A    between atoms: C2_6  and  C3_7 
REMARK    4  A    between atoms: C3_7  and  C4_8 
REMARK    5  A    between atoms: C4_8  and  N2_9 
ROOT
HETATM    1  C2  UNL     1      54.289  78.743  46.132  1.00  0.00     0.029 C 
ENDROOT
BRANCH   1   2
HETATM    2  C1  UNL     1      54.273  77.468  45.336  1.00  0.00     0.229 C 
BRANCH   2   3
HETATM    3  N1  UNL     1      52.926  76.930  45.331  1.00  0.00    -0.079 N 
ATOM      4  H13 UNL     1      52.729  76.385  44.491  1.00  0.00     0.274 HD
ATOM      5  H12 UNL     1      52.803  76.185  46.017  1.00  0.00     0.274 HD
ATOM      6  H11 UNL     1      52.262  77.693  45.463  1.00  0.00     0.274 HD
ENDBRANCH   2   3
ENDBRANCH   1   2
BRANCH   1   7
HETATM    7  C3  UNL     1      54.474  78.423  47.577  1.00  0.00     0.029 C 
BRANCH   7   8
HETATM    8  C4  UNL     1      55.763  78.920  48.153  1.00  0.00     0.229 C 
BRANCH   8   9
HETATM    9  N2  UNL     1      56.147  80.191  47.522  1.00  0.00    -0.079 N 
ATOM     10  H23 UNL     1      57.145  80.228  47.316  1.00  0.00     0.274 HD
ATOM     11  H22 UNL     1      55.793  80.264  46.567  1.00  0.00     0.274 HD
ATOM     12  H21 UNL     1      55.849  80.978  48.099  1.00  0.00     0.274 HD
ENDBRANCH   8   9
ENDBRANCH   7   8
ENDBRANCH   1   7
TORSDOF 5
ENDMDL
