MODEL 2
REMARK VINA RESULT: -4.024951861      0.211      3.624
REMARK  5 active torsions:
REMARK  status: ('A' for Active; 'I' for Inactive)
REMARK    1  A    between atoms: N1_1  and  C1_5 
REMARK    2  A    between atoms: C1_5  and  C2_6 
REMARK    3  A    between atoms: C2_6  and  C3_7 
REMARK    4  A    between atoms: C3_7  and  C4_8 
REMARK    5  A    between atoms: C4_8  and  N2_9 
ROOT
HETATM    1  C2  UNL     1      52.259  73.143  38.657  1.00  0.00     0.029 C 
ENDROOT
BRANCH   1   2
HETATM    2  C1  UNL     1      51.959  74.615  38.677  1.00  0.00     0.229 C 
BRANCH   2   3
HETATM    3  N1  UNL     1      53.200  75.349  38.843  1.00  0.00    -0.079 N 
ATOM      4  H13 UNL     1      53.977  74.914  38.346  1.00  0.00     0.274 HD
ATOM      5  H12 UNL     1      53.193  76.240  38.347  1.00  0.00     0.274 HD
ATOM      6  H11 UNL     1      53.390  75.460  39.839  1.00  0.00     0.274 HD
ENDBRANCH   2   3
ENDBRANCH   1   2
BRANCH   1   7
HETATM    7  C3  UNL     1      51.699  72.506  39.884  1.00  0.00     0.029 C 
BRANCH   7   8
HETATM    8  C4  UNL     1      52.303  71.177  40.212  1.00  0.00     0.229 C 
BRANCH   8   9
HETATM    9  N2  UNL     1      53.341  71.329  41.242  1.00  0.00    -0.079 N 
ATOM     10  H23 UNL     1      54.259  71.502  40.834  1.00  0.00     0.274 HD
ATOM     11  H22 UNL     1      53.239  72.202  41.760  1.00  0.00     0.274 HD
ATOM     12  H21 UNL     1      53.348  70.518  41.861  1.00  0.00     0.274 HD
ENDBRANCH   8   9
ENDBRANCH   7   8
ENDBRANCH   1   7
TORSDOF 5
ENDMDL
