MODEL 2
REMARK VINA RESULT: -9.494414903      1.274      2.486
REMARK  15 active torsions:
REMARK  status: ('A' for Active; 'I' for Inactive)
REMARK       I    between atoms: C2_2  and  N1_4 
REMARK    1  A    between atoms: N1_4  and  C3_6 
REMARK    2  A    between atoms: C3_6  and  C4_7 
REMARK    3  A    between atoms: C3_6  and  C6_11 
REMARK    4  A    between atoms: C4_7  and  C5_8 
REMARK       I    between atoms: C6_11  and  N2_13 
REMARK    5  A    between atoms: N2_13  and  C7_15 
REMARK    6  A    between atoms: C7_15  and  C8_16 
REMARK    7  A    between atoms: C8_16  and  C9_17 
REMARK    8  A    between atoms: C8_16  and  C25_40 
REMARK    9  A    between atoms: C9_17  and  C10_18 
REMARK   10  A    between atoms: C10_18  and  C11_19 
REMARK       I    between atoms: C11_19  and  N3_21 
REMARK   11  A    between atoms: N3_21  and  C12_23 
REMARK   12  A    between atoms: C12_23  and  C13_24 
REMARK   13  A    between atoms: C12_23  and  C20_33 
REMARK   14  A    between atoms: C13_24  and  C14_25 
REMARK   15  A    between atoms: C17_28  and  O6_29 
ROOT
HETATM    1  C10 UNL     1     -14.201  -8.464  25.219  1.00  0.00     0.042 C 
HETATM    2  C21 UNL     1     -15.592  -8.059  25.000  1.00  0.00     0.019 C 
HETATM    3  C22 UNL     1     -15.880  -6.922  25.993  1.00  0.00     0.001 C 
HETATM    4  C23 UNL     1     -14.563  -6.245  26.125  1.00  0.00     0.001 C 
HETATM    5  C24 UNL     1     -13.485  -7.193  25.686  1.00  0.00     0.019 C 
ENDROOT
BRANCH   1   6
HETATM    6  C9  UNL     1     -13.421  -9.124  24.187  1.00  0.00     0.040 C 
BRANCH   6   7
HETATM    7  C8  UNL     1     -13.798  -9.008  22.737  1.00  0.00     0.126 C 
BRANCH   7   8
HETATM    8  C7  UNL     1     -12.800  -8.049  22.136  1.00  0.00     0.079 C 
BRANCH   8   9
HETATM    9  N2  UNL     1     -12.825  -7.866  20.743  1.00  0.00    -0.338 N 
HETATM   10  C6  UNL     1     -13.537  -6.959  19.961  1.00  0.00     0.244 C 
HETATM   11  O4  UNL     1     -14.316  -6.147  20.470  1.00  0.00    -0.271 OA
ATOM     12  H2  UNL     1     -12.223  -8.501  20.219  1.00  0.00     0.167 HD
BRANCH  10  13
HETATM   13  C3  UNL     1     -13.409  -6.907  18.459  1.00  0.00     0.186 C 
BRANCH  13  14
HETATM   14  N1  UNL     1     -13.401  -5.563  17.995  1.00  0.00    -0.348 N 
HETATM   15  C2  UNL     1     -14.135  -5.094  16.869  1.00  0.00     0.214 C 
HETATM   16  C1  UNL     1     -14.119  -3.701  16.397  1.00  0.00     0.117 C 
HETATM   17  O1  UNL     1     -14.829  -5.929  16.255  1.00  0.00    -0.274 OA
ATOM     18  H1  UNL     1     -12.830  -4.888  18.506  1.00  0.00     0.163 HD
ENDBRANCH  13  14
BRANCH  13  19
HETATM   19  C4  UNL     1     -12.244  -7.740  17.997  1.00  0.00     0.147 C 
BRANCH  19  20
HETATM   20  C5  UNL     1     -11.064  -6.814  17.890  1.00  0.00     0.175 C 
HETATM   21  O2  UNL     1     -10.423  -6.502  18.924  1.00  0.00    -0.648 OA
HETATM   22  O3  UNL     1     -10.650  -6.281  16.685  1.00  0.00    -0.648 OA
ENDBRANCH  19  20
ENDBRANCH  13  19
ENDBRANCH  10  13
ENDBRANCH   8   9
ENDBRANCH   7   8
BRANCH   7  23
HETATM   23  C25 UNL     1     -13.611 -10.342  22.148  1.00  0.00     0.182 C 
HETATM   24  O9  UNL     1     -13.305 -11.281  22.962  1.00  0.00    -0.647 OA
HETATM   25  O10 UNL     1     -13.741 -10.655  20.802  1.00  0.00    -0.647 OA
ENDBRANCH   7  23
ENDBRANCH   6   7
ENDBRANCH   1   6
BRANCH   1  26
HETATM   26  C11 UNL     1     -14.243  -9.448  26.383  1.00  0.00     0.227 C 
HETATM   27  O5  UNL     1     -13.551  -9.176  27.402  1.00  0.00    -0.273 OA
HETATM   28  N3  UNL     1     -14.997 -10.623  26.379  1.00  0.00    -0.346 N 
ATOM     29  H3  UNL     1     -15.568 -10.857  25.568  1.00  0.00     0.163 HD
BRANCH  28  30
HETATM   30  C12 UNL     1     -14.969 -11.525  27.543  1.00  0.00     0.189 C 
BRANCH  30  31
HETATM   31  C13 UNL     1     -16.431 -11.805  27.845  1.00  0.00     0.074 C 
BRANCH  31  32
HETATM   32  C14 UNL     1     -17.286 -10.619  27.752  1.00  0.00    -0.056 A 
HETATM   33  C15 UNL     1     -17.308  -9.697  28.761  1.00  0.00     0.010 A 
HETATM   34  C16 UNL     1     -18.097  -8.569  28.692  1.00  0.00     0.037 A 
HETATM   35  C17 UNL     1     -18.880  -8.386  27.560  1.00  0.00     0.065 A 
HETATM   36  C18 UNL     1     -18.854  -9.314  26.548  1.00  0.00     0.037 A 
HETATM   37  C19 UNL     1     -18.063 -10.432  26.632  1.00  0.00     0.010 A 
BRANCH  35  38
HETATM   38  O6  UNL     1     -19.685  -7.268  27.452  1.00  0.00    -0.361 OA
ATOM     39  H6  UNL     1     -19.297  -6.420  27.268  1.00  0.00     0.217 HD
ENDBRANCH  35  38
ENDBRANCH  31  32
ENDBRANCH  30  31
BRANCH  30  40
HETATM   40  C20 UNL     1     -14.290 -12.758  27.128  1.00  0.00     0.197 C 
HETATM   41  O7  UNL     1     -14.668 -13.409  26.112  1.00  0.00    -0.646 OA
HETATM   42  O8  UNL     1     -13.200 -13.290  27.811  1.00  0.00    -0.646 OA
ENDBRANCH  30  40
ENDBRANCH  28  30
ENDBRANCH   1  26
TORSDOF 15
ENDMDL
