MODEL 7
REMARK VINA RESULT: -9.202940497      3.446      6.042
REMARK  15 active torsions:
REMARK  status: ('A' for Active; 'I' for Inactive)
REMARK       I    between atoms: C2_2  and  N1_4 
REMARK    1  A    between atoms: N1_4  and  C3_6 
REMARK    2  A    between atoms: C3_6  and  C4_7 
REMARK    3  A    between atoms: C3_6  and  C6_11 
REMARK    4  A    between atoms: C4_7  and  C5_8 
REMARK       I    between atoms: C6_11  and  N2_13 
REMARK    5  A    between atoms: N2_13  and  C7_15 
REMARK    6  A    between atoms: C7_15  and  C8_16 
REMARK    7  A    between atoms: C8_16  and  C9_17 
REMARK    8  A    between atoms: C8_16  and  C25_40 
REMARK    9  A    between atoms: C9_17  and  C10_18 
REMARK   10  A    between atoms: C10_18  and  C11_19 
REMARK       I    between atoms: C11_19  and  N3_21 
REMARK   11  A    between atoms: N3_21  and  C12_23 
REMARK   12  A    between atoms: C12_23  and  C13_24 
REMARK   13  A    between atoms: C12_23  and  C20_33 
REMARK   14  A    between atoms: C13_24  and  C14_25 
REMARK   15  A    between atoms: C17_28  and  O6_29 
ROOT
HETATM    1  C10 UNL     1     -14.095  -8.256  20.678  1.00  0.00     0.042 C 
HETATM    2  C21 UNL     1     -14.099  -9.603  20.104  1.00  0.00     0.019 C 
HETATM    3  C22 UNL     1     -14.848 -10.504  21.099  1.00  0.00     0.001 C 
HETATM    4  C23 UNL     1     -15.844  -9.582  21.707  1.00  0.00     0.001 C 
HETATM    5  C24 UNL     1     -15.387  -8.168  21.498  1.00  0.00     0.019 C 
ENDROOT
BRANCH   1   6
HETATM    6  C9  UNL     1     -13.946  -7.069  19.856  1.00  0.00     0.040 C 
BRANCH   6   7
HETATM    7  C8  UNL     1     -13.867  -7.168  18.358  1.00  0.00     0.126 C 
BRANCH   7   8
HETATM    8  C7  UNL     1     -14.759  -6.071  17.834  1.00  0.00     0.079 C 
BRANCH   8   9
HETATM    9  N2  UNL     1     -14.150  -4.992  17.171  1.00  0.00    -0.338 N 
HETATM   10  C6  UNL     1     -14.451  -4.392  15.951  1.00  0.00     0.244 C 
HETATM   11  O4  UNL     1     -15.376  -4.804  15.244  1.00  0.00    -0.271 OA
ATOM     12  H2  UNL     1     -13.357  -4.581  17.664  1.00  0.00     0.167 HD
BRANCH  10  13
HETATM   13  C3  UNL     1     -13.678  -3.212  15.413  1.00  0.00     0.186 C 
BRANCH  13  14
HETATM   14  N1  UNL     1     -14.090  -2.894  14.091  1.00  0.00    -0.348 N 
HETATM   15  C2  UNL     1     -13.201  -2.658  13.004  1.00  0.00     0.214 C 
HETATM   16  C1  UNL     1     -13.637  -2.329  11.639  1.00  0.00     0.117 C 
HETATM   17  O1  UNL     1     -11.979  -2.739  13.241  1.00  0.00    -0.274 OA
ATOM     18  H1  UNL     1     -15.092  -2.831  13.908  1.00  0.00     0.163 HD
ENDBRANCH  13  14
BRANCH  13  19
HETATM   19  C4  UNL     1     -13.727  -2.062  16.382  1.00  0.00     0.147 C 
BRANCH  19  20
HETATM   20  C5  UNL     1     -14.392  -0.919  15.667  1.00  0.00     0.175 C 
HETATM   21  O2  UNL     1     -15.644  -0.897  15.561  1.00  0.00    -0.648 OA
HETATM   22  O3  UNL     1     -13.676   0.122  15.110  1.00  0.00    -0.648 OA
ENDBRANCH  19  20
ENDBRANCH  13  19
ENDBRANCH  10  13
ENDBRANCH   8   9
ENDBRANCH   7   8
BRANCH   7  23
HETATM   23  C25 UNL     1     -12.473  -6.883  17.992  1.00  0.00     0.182 C 
HETATM   24  O9  UNL     1     -12.040  -7.447  16.929  1.00  0.00    -0.647 OA
HETATM   25  O10 UNL     1     -11.606  -6.060  18.699  1.00  0.00    -0.647 OA
ENDBRANCH   7  23
ENDBRANCH   6   7
ENDBRANCH   1   6
BRANCH   1  26
HETATM   26  C11 UNL     1     -12.913  -8.230  21.641  1.00  0.00     0.227 C 
HETATM   27  O5  UNL     1     -11.756  -8.344  21.149  1.00  0.00    -0.273 OA
HETATM   28  N3  UNL     1     -13.042  -8.091  23.024  1.00  0.00    -0.346 N 
ATOM     29  H3  UNL     1     -13.967  -7.991  23.440  1.00  0.00     0.163 HD
BRANCH  28  30
HETATM   30  C12 UNL     1     -11.846  -8.089  23.884  1.00  0.00     0.189 C 
BRANCH  30  31
HETATM   31  C13 UNL     1     -12.216  -7.190  25.051  1.00  0.00     0.074 C 
BRANCH  31  32
HETATM   32  C14 UNL     1     -13.575  -7.408  25.551  1.00  0.00    -0.056 A 
HETATM   33  C15 UNL     1     -13.796  -8.206  26.639  1.00  0.00     0.010 A 
HETATM   34  C16 UNL     1     -15.064  -8.419  27.134  1.00  0.00     0.037 A 
HETATM   35  C17 UNL     1     -16.128  -7.798  26.495  1.00  0.00     0.065 A 
HETATM   36  C18 UNL     1     -15.903  -6.996  25.402  1.00  0.00     0.037 A 
HETATM   37  C19 UNL     1     -14.633  -6.795  24.922  1.00  0.00     0.010 A 
BRANCH  35  38
HETATM   38  O6  UNL     1     -17.417  -7.985  26.959  1.00  0.00    -0.361 OA
ATOM     39  H6  UNL     1     -17.659  -7.674  27.823  1.00  0.00     0.217 HD
ENDBRANCH  35  38
ENDBRANCH  31  32
ENDBRANCH  30  31
BRANCH  30  40
HETATM   40  C20 UNL     1     -11.635  -9.465  24.348  1.00  0.00     0.197 C 
HETATM   41  O7  UNL     1     -10.578  -9.801  24.956  1.00  0.00    -0.646 OA
HETATM   42  O8  UNL     1     -12.567 -10.481  24.156  1.00  0.00    -0.646 OA
ENDBRANCH  30  40
ENDBRANCH  28  30
ENDBRANCH   1  26
TORSDOF 15
ENDMDL
