MODEL 1
REMARK VINA RESULT: -9.575725684      0.000      0.000
REMARK  15 active torsions:
REMARK  status: ('A' for Active; 'I' for Inactive)
REMARK       I    between atoms: C2_2  and  N1_4 
REMARK    1  A    between atoms: N1_4  and  C3_6 
REMARK    2  A    between atoms: C3_6  and  C4_7 
REMARK    3  A    between atoms: C3_6  and  C6_11 
REMARK    4  A    between atoms: C4_7  and  C5_8 
REMARK       I    between atoms: C6_11  and  N2_13 
REMARK    5  A    between atoms: N2_13  and  C7_15 
REMARK    6  A    between atoms: C7_15  and  C8_16 
REMARK    7  A    between atoms: C8_16  and  C9_17 
REMARK    8  A    between atoms: C8_16  and  C25_40 
REMARK    9  A    between atoms: C9_17  and  C10_18 
REMARK   10  A    between atoms: C10_18  and  C11_19 
REMARK       I    between atoms: C11_19  and  N3_21 
REMARK   11  A    between atoms: N3_21  and  C12_23 
REMARK   12  A    between atoms: C12_23  and  C13_24 
REMARK   13  A    between atoms: C12_23  and  C20_33 
REMARK   14  A    between atoms: C13_24  and  C14_25 
REMARK   15  A    between atoms: C17_28  and  O6_29 
ROOT
HETATM    1  C10 UNL     1     -13.927  -8.542  25.301  1.00  0.00     0.042 C 
HETATM    2  C21 UNL     1     -15.277  -8.225  24.829  1.00  0.00     0.019 C 
HETATM    3  C22 UNL     1     -15.799  -7.089  25.722  1.00  0.00     0.001 C 
HETATM    4  C23 UNL     1     -14.566  -6.332  26.064  1.00  0.00     0.001 C 
HETATM    5  C24 UNL     1     -13.376  -7.222  25.850  1.00  0.00     0.019 C 
ENDROOT
BRANCH   1   6
HETATM    6  C9  UNL     1     -12.941  -9.174  24.443  1.00  0.00     0.040 C 
BRANCH   6   7
HETATM    7  C8  UNL     1     -13.049 -10.628  24.077  1.00  0.00     0.126 C 
BRANCH   7   8
HETATM    8  C7  UNL     1     -13.441 -10.649  22.620  1.00  0.00     0.079 C 
BRANCH   8   9
HETATM    9  N2  UNL     1     -13.219  -9.484  21.866  1.00  0.00    -0.338 N 
HETATM   10  C6  UNL     1     -13.474  -9.212  20.524  1.00  0.00     0.244 C 
HETATM   11  O4  UNL     1     -13.959 -10.068  19.777  1.00  0.00    -0.271 OA
ATOM     12  H2  UNL     1     -12.803  -8.712  22.386  1.00  0.00     0.167 HD
BRANCH  10  13
HETATM   13  C3  UNL     1     -13.178  -7.872  19.896  1.00  0.00     0.186 C 
BRANCH  13  14
HETATM   14  N1  UNL     1     -12.710  -8.027  18.563  1.00  0.00    -0.348 N 
HETATM   15  C2  UNL     1     -11.416  -7.638  18.112  1.00  0.00     0.214 C 
HETATM   16  C1  UNL     1     -10.942  -7.801  16.730  1.00  0.00     0.117 C 
HETATM   17  O1  UNL     1     -10.650  -7.129  18.955  1.00  0.00    -0.274 OA
ATOM     18  H1  UNL     1     -13.345  -8.445  17.883  1.00  0.00     0.163 HD
ENDBRANCH  13  14
BRANCH  13  19
HETATM   19  C4  UNL     1     -14.354  -6.946  20.048  1.00  0.00     0.147 C 
BRANCH  19  20
HETATM   20  C5  UNL     1     -14.245  -5.923  18.952  1.00  0.00     0.175 C 
HETATM   21  O2  UNL     1     -13.501  -4.923  19.107  1.00  0.00    -0.648 OA
HETATM   22  O3  UNL     1     -14.940  -6.037  17.764  1.00  0.00    -0.648 OA
ENDBRANCH  19  20
ENDBRANCH  13  19
ENDBRANCH  10  13
ENDBRANCH   8   9
ENDBRANCH   7   8
BRANCH   7  23
HETATM   23  C25 UNL     1     -11.704 -11.200  24.231  1.00  0.00     0.182 C 
HETATM   24  O9  UNL     1     -10.758 -10.593  23.620  1.00  0.00    -0.647 OA
HETATM   25  O10 UNL     1     -11.388 -12.326  24.979  1.00  0.00    -0.647 OA
ENDBRANCH   7  23
ENDBRANCH   6   7
ENDBRANCH   1   6
BRANCH   1  26
HETATM   26  C11 UNL     1     -14.121  -9.504  26.468  1.00  0.00     0.227 C 
HETATM   27  O5  UNL     1     -13.540  -9.229  27.554  1.00  0.00    -0.273 OA
HETATM   28  N3  UNL     1     -14.895 -10.663  26.398  1.00  0.00    -0.346 N 
ATOM     29  H3  UNL     1     -15.377 -10.900  25.531  1.00  0.00     0.163 HD
BRANCH  28  30
HETATM   30  C12 UNL     1     -15.018 -11.546  27.571  1.00  0.00     0.189 C 
BRANCH  30  31
HETATM   31  C13 UNL     1     -16.507 -11.819  27.690  1.00  0.00     0.074 C 
BRANCH  31  32
HETATM   32  C14 UNL     1     -17.332 -10.611  27.622  1.00  0.00    -0.056 A 
HETATM   33  C15 UNL     1     -18.056 -10.325  26.498  1.00  0.00     0.010 A 
HETATM   34  C16 UNL     1     -18.847  -9.199  26.414  1.00  0.00     0.037 A 
HETATM   35  C17 UNL     1     -18.893  -8.349  27.510  1.00  0.00     0.065 A 
HETATM   36  C18 UNL     1     -18.164  -8.639  28.638  1.00  0.00     0.037 A 
HETATM   37  C19 UNL     1     -17.381  -9.765  28.705  1.00  0.00     0.010 A 
BRANCH  35  38
HETATM   38  O6  UNL     1     -19.673  -7.209  27.467  1.00  0.00    -0.361 OA
ATOM     39  H6  UNL     1     -19.857  -6.730  28.266  1.00  0.00     0.217 HD
ENDBRANCH  35  38
ENDBRANCH  31  32
ENDBRANCH  30  31
BRANCH  30  40
HETATM   40  C20 UNL     1     -14.296 -12.786  27.266  1.00  0.00     0.197 C 
HETATM   41  O7  UNL     1     -14.657 -13.545  26.321  1.00  0.00    -0.646 OA
HETATM   42  O8  UNL     1     -13.180 -13.209  27.983  1.00  0.00    -0.646 OA
ENDBRANCH  30  40
ENDBRANCH  28  30
ENDBRANCH   1  26
TORSDOF 15
ENDMDL
