MODEL 4
REMARK VINA RESULT: -9.328930760      1.334      1.769
REMARK  15 active torsions:
REMARK  status: ('A' for Active; 'I' for Inactive)
REMARK       I    between atoms: C2_2  and  N1_4 
REMARK    1  A    between atoms: N1_4  and  C3_6 
REMARK    2  A    between atoms: C3_6  and  C4_7 
REMARK    3  A    between atoms: C3_6  and  C6_11 
REMARK    4  A    between atoms: C4_7  and  C5_8 
REMARK       I    between atoms: C6_11  and  N2_13 
REMARK    5  A    between atoms: N2_13  and  C7_15 
REMARK    6  A    between atoms: C7_15  and  C8_16 
REMARK    7  A    between atoms: C8_16  and  C9_17 
REMARK    8  A    between atoms: C8_16  and  C25_40 
REMARK    9  A    between atoms: C9_17  and  C10_18 
REMARK   10  A    between atoms: C10_18  and  C11_19 
REMARK       I    between atoms: C11_19  and  N3_21 
REMARK   11  A    between atoms: N3_21  and  C12_23 
REMARK   12  A    between atoms: C12_23  and  C13_24 
REMARK   13  A    between atoms: C12_23  and  C20_33 
REMARK   14  A    between atoms: C13_24  and  C14_25 
REMARK   15  A    between atoms: C17_28  and  O6_29 
ROOT
HETATM    1  C10 UNL     1     -14.206  -8.307  25.046  1.00  0.00     0.042 C 
HETATM    2  C21 UNL     1     -15.607  -7.966  24.790  1.00  0.00     0.019 C 
HETATM    3  C22 UNL     1     -15.974  -6.845  25.775  1.00  0.00     0.001 C 
HETATM    4  C23 UNL     1     -14.693  -6.109  25.943  1.00  0.00     0.001 C 
HETATM    5  C24 UNL     1     -13.561  -7.005  25.533  1.00  0.00     0.019 C 
ENDROOT
BRANCH   1   6
HETATM    6  C9  UNL     1     -13.368  -8.929  24.036  1.00  0.00     0.040 C 
BRANCH   6   7
HETATM    7  C8  UNL     1     -13.792  -8.969  22.595  1.00  0.00     0.126 C 
BRANCH   7   8
HETATM    8  C7  UNL     1     -12.617  -8.434  21.814  1.00  0.00     0.079 C 
BRANCH   8   9
HETATM    9  N2  UNL     1     -12.874  -7.841  20.566  1.00  0.00    -0.338 N 
HETATM   10  C6  UNL     1     -12.052  -7.679  19.454  1.00  0.00     0.244 C 
HETATM   11  O4  UNL     1     -10.881  -8.069  19.459  1.00  0.00    -0.271 OA
ATOM     12  H2  UNL     1     -13.818  -7.469  20.458  1.00  0.00     0.167 HD
BRANCH  10  13
HETATM   13  C3  UNL     1     -12.529  -7.024  18.180  1.00  0.00     0.186 C 
BRANCH  13  14
HETATM   14  N1  UNL     1     -12.075  -7.739  17.039  1.00  0.00    -0.348 N 
HETATM   15  C2  UNL     1     -11.009  -7.318  16.195  1.00  0.00     0.214 C 
HETATM   16  C1  UNL     1     -10.547  -8.066  15.016  1.00  0.00     0.117 C 
HETATM   17  O1  UNL     1     -10.442  -6.246  16.488  1.00  0.00    -0.274 OA
ATOM     18  H1  UNL     1     -12.545  -8.616  16.810  1.00  0.00     0.163 HD
ENDBRANCH  13  14
BRANCH  13  19
HETATM   19  C4  UNL     1     -14.015  -6.793  18.229  1.00  0.00     0.147 C 
BRANCH  19  20
HETATM   20  C5  UNL     1     -14.313  -5.682  17.260  1.00  0.00     0.175 C 
HETATM   21  O2  UNL     1     -14.683  -5.959  16.092  1.00  0.00    -0.648 OA
HETATM   22  O3  UNL     1     -14.194  -4.350  17.604  1.00  0.00    -0.648 OA
ENDBRANCH  19  20
ENDBRANCH  13  19
ENDBRANCH  10  13
ENDBRANCH   8   9
ENDBRANCH   7   8
BRANCH   7  23
HETATM   23  C25 UNL     1     -14.000 -10.384  22.258  1.00  0.00     0.182 C 
HETATM   24  O9  UNL     1     -13.648 -10.743  21.082  1.00  0.00    -0.647 OA
HETATM   25  O10 UNL     1     -14.536 -11.343  23.106  1.00  0.00    -0.647 OA
ENDBRANCH   7  23
ENDBRANCH   6   7
ENDBRANCH   1   6
BRANCH   1  26
HETATM   26  C11 UNL     1     -14.234  -9.293  26.209  1.00  0.00     0.227 C 
HETATM   27  O5  UNL     1     -13.572  -8.998  27.242  1.00  0.00    -0.273 OA
HETATM   28  N3  UNL     1     -14.943 -10.495  26.189  1.00  0.00    -0.346 N 
ATOM     29  H3  UNL     1     -15.490 -10.750  25.366  1.00  0.00     0.163 HD
BRANCH  28  30
HETATM   30  C12 UNL     1     -14.905 -11.398  27.352  1.00  0.00     0.189 C 
BRANCH  30  31
HETATM   31  C13 UNL     1     -16.363 -11.720  27.634  1.00  0.00     0.074 C 
BRANCH  31  32
HETATM   32  C14 UNL     1     -17.241 -10.549  27.590  1.00  0.00    -0.056 A 
HETATM   33  C15 UNL     1     -18.044 -10.323  26.507  1.00  0.00     0.010 A 
HETATM   34  C16 UNL     1     -18.886  -9.233  26.446  1.00  0.00     0.037 A 
HETATM   35  C17 UNL     1     -18.901  -8.357  27.522  1.00  0.00     0.065 A 
HETATM   36  C18 UNL     1     -18.092  -8.587  28.609  1.00  0.00     0.037 A 
HETATM   37  C19 UNL     1     -17.260  -9.678  28.654  1.00  0.00     0.010 A 
BRANCH  35  38
HETATM   38  O6  UNL     1     -19.730  -7.252  27.501  1.00  0.00    -0.361 OA
ATOM     39  H6  UNL     1     -19.356  -6.378  27.498  1.00  0.00     0.217 HD
ENDBRANCH  35  38
ENDBRANCH  31  32
ENDBRANCH  30  31
BRANCH  30  40
HETATM   40  C20 UNL     1     -14.186 -12.610  26.946  1.00  0.00     0.197 C 
HETATM   41  O7  UNL     1     -14.454 -13.204  25.861  1.00  0.00    -0.646 OA
HETATM   42  O8  UNL     1     -13.174 -13.184  27.711  1.00  0.00    -0.646 OA
ENDBRANCH  30  40
ENDBRANCH  28  30
ENDBRANCH   1  26
TORSDOF 15
ENDMDL
