MODEL 6
REMARK VINA RESULT: -9.208456401      3.098      5.832
REMARK  15 active torsions:
REMARK  status: ('A' for Active; 'I' for Inactive)
REMARK       I    between atoms: C2_2  and  N1_4 
REMARK    1  A    between atoms: N1_4  and  C3_6 
REMARK    2  A    between atoms: C3_6  and  C4_7 
REMARK    3  A    between atoms: C3_6  and  C6_11 
REMARK    4  A    between atoms: C4_7  and  C5_8 
REMARK       I    between atoms: C6_11  and  N2_13 
REMARK    5  A    between atoms: N2_13  and  C7_15 
REMARK    6  A    between atoms: C7_15  and  C8_16 
REMARK    7  A    between atoms: C8_16  and  C9_17 
REMARK    8  A    between atoms: C8_16  and  C25_40 
REMARK    9  A    between atoms: C9_17  and  C10_18 
REMARK   10  A    between atoms: C10_18  and  C11_19 
REMARK       I    between atoms: C11_19  and  N3_21 
REMARK   11  A    between atoms: N3_21  and  C12_23 
REMARK   12  A    between atoms: C12_23  and  C13_24 
REMARK   13  A    between atoms: C12_23  and  C20_33 
REMARK   14  A    between atoms: C13_24  and  C14_25 
REMARK   15  A    between atoms: C17_28  and  O6_29 
ROOT
HETATM    1  C10 UNL     1     -14.164  -8.336  20.902  1.00  0.00     0.042 C 
HETATM    2  C21 UNL     1     -14.196  -9.686  20.334  1.00  0.00     0.019 C 
HETATM    3  C22 UNL     1     -14.961 -10.566  21.336  1.00  0.00     0.001 C 
HETATM    4  C23 UNL     1     -15.938  -9.622  21.940  1.00  0.00     0.001 C 
HETATM    5  C24 UNL     1     -15.453  -8.218  21.722  1.00  0.00     0.019 C 
ENDROOT
BRANCH   1   6
HETATM    6  C9  UNL     1     -13.993  -7.157  20.073  1.00  0.00     0.040 C 
BRANCH   6   7
HETATM    7  C8  UNL     1     -13.932  -7.264  18.575  1.00  0.00     0.126 C 
BRANCH   7   8
HETATM    8  C7  UNL     1     -14.672  -6.057  18.053  1.00  0.00     0.079 C 
BRANCH   8   9
HETATM    9  N2  UNL     1     -13.967  -5.163  17.229  1.00  0.00    -0.338 N 
HETATM   10  C6  UNL     1     -14.213  -4.750  15.922  1.00  0.00     0.244 C 
HETATM   11  O4  UNL     1     -15.172  -5.190  15.280  1.00  0.00    -0.271 OA
ATOM     12  H2  UNL     1     -13.140  -4.748  17.659  1.00  0.00     0.167 HD
BRANCH  10  13
HETATM   13  C3  UNL     1     -13.337  -3.751  15.208  1.00  0.00     0.186 C 
BRANCH  13  14
HETATM   14  N1  UNL     1     -13.710  -2.420  15.537  1.00  0.00    -0.348 N 
HETATM   15  C2  UNL     1     -14.210  -1.467  14.604  1.00  0.00     0.214 C 
HETATM   16  C1  UNL     1     -14.593  -0.092  14.955  1.00  0.00     0.117 C 
HETATM   17  O1  UNL     1     -14.324  -1.839  13.418  1.00  0.00    -0.274 OA
ATOM     18  H1  UNL     1     -13.614  -2.127  16.510  1.00  0.00     0.163 HD
ENDBRANCH  13  14
BRANCH  13  19
HETATM   19  C4  UNL     1     -11.882  -4.070  15.427  1.00  0.00     0.147 C 
BRANCH  19  20
HETATM   20  C5  UNL     1     -11.345  -3.023  16.362  1.00  0.00     0.175 C 
HETATM   21  O2  UNL     1     -11.526  -3.144  17.599  1.00  0.00    -0.648 OA
HETATM   22  O3  UNL     1     -10.651  -1.917  15.913  1.00  0.00    -0.648 OA
ENDBRANCH  19  20
ENDBRANCH  13  19
ENDBRANCH  10  13
ENDBRANCH   8   9
ENDBRANCH   7   8
BRANCH   7  23
HETATM   23  C25 UNL     1     -12.513  -7.167  18.205  1.00  0.00     0.182 C 
HETATM   24  O9  UNL     1     -12.177  -7.719  17.101  1.00  0.00    -0.647 OA
HETATM   25  O10 UNL     1     -11.529  -6.530  18.948  1.00  0.00    -0.647 OA
ENDBRANCH   7  23
ENDBRANCH   6   7
ENDBRANCH   1   6
BRANCH   1  26
HETATM   26  C11 UNL     1     -12.980  -8.328  21.863  1.00  0.00     0.227 C 
HETATM   27  O5  UNL     1     -11.848  -8.636  21.398  1.00  0.00    -0.273 OA
HETATM   28  N3  UNL     1     -13.083  -8.004  23.217  1.00  0.00    -0.346 N 
ATOM     29  H3  UNL     1     -13.987  -7.746  23.610  1.00  0.00     0.163 HD
BRANCH  28  30
HETATM   30  C12 UNL     1     -11.889  -8.035  24.079  1.00  0.00     0.189 C 
BRANCH  30  31
HETATM   31  C13 UNL     1     -12.258  -7.173  25.274  1.00  0.00     0.074 C 
BRANCH  31  32
HETATM   32  C14 UNL     1     -13.650  -7.329  25.701  1.00  0.00    -0.056 A 
HETATM   33  C15 UNL     1     -14.652  -6.642  25.074  1.00  0.00     0.010 A 
HETATM   34  C16 UNL     1     -15.970  -6.780  25.452  1.00  0.00     0.037 A 
HETATM   35  C17 UNL     1     -16.264  -7.643  26.498  1.00  0.00     0.065 A 
HETATM   36  C18 UNL     1     -15.255  -8.333  27.126  1.00  0.00     0.037 A 
HETATM   37  C19 UNL     1     -13.947  -8.184  26.737  1.00  0.00     0.010 A 
BRANCH  35  38
HETATM   38  O6  UNL     1     -17.573  -7.810  26.908  1.00  0.00    -0.361 OA
ATOM     39  H6  UNL     1     -18.118  -7.050  27.075  1.00  0.00     0.217 HD
ENDBRANCH  35  38
ENDBRANCH  31  32
ENDBRANCH  30  31
BRANCH  30  40
HETATM   40  C20 UNL     1     -11.684  -9.425  24.498  1.00  0.00     0.197 C 
HETATM   41  O7  UNL     1     -10.588  -9.809  25.000  1.00  0.00    -0.646 OA
HETATM   42  O8  UNL     1     -12.665 -10.406  24.378  1.00  0.00    -0.646 OA
ENDBRANCH  30  40
ENDBRANCH  28  30
ENDBRANCH   1  26
TORSDOF 15
ENDMDL
