MODEL 8
REMARK VINA RESULT: -9.162879293      3.101      5.823
REMARK  15 active torsions:
REMARK  status: ('A' for Active; 'I' for Inactive)
REMARK       I    between atoms: C2_2  and  N1_4 
REMARK    1  A    between atoms: N1_4  and  C3_6 
REMARK    2  A    between atoms: C3_6  and  C4_7 
REMARK    3  A    between atoms: C3_6  and  C6_11 
REMARK    4  A    between atoms: C4_7  and  C5_8 
REMARK       I    between atoms: C6_11  and  N2_13 
REMARK    5  A    between atoms: N2_13  and  C7_15 
REMARK    6  A    between atoms: C7_15  and  C8_16 
REMARK    7  A    between atoms: C8_16  and  C9_17 
REMARK    8  A    between atoms: C8_16  and  C25_40 
REMARK    9  A    between atoms: C9_17  and  C10_18 
REMARK   10  A    between atoms: C10_18  and  C11_19 
REMARK       I    between atoms: C11_19  and  N3_21 
REMARK   11  A    between atoms: N3_21  and  C12_23 
REMARK   12  A    between atoms: C12_23  and  C13_24 
REMARK   13  A    between atoms: C12_23  and  C20_33 
REMARK   14  A    between atoms: C13_24  and  C14_25 
REMARK   15  A    between atoms: C17_28  and  O6_29 
ROOT
HETATM    1  C10 UNL     1     -14.107  -8.178  20.643  1.00  0.00     0.042 C 
HETATM    2  C21 UNL     1     -14.138  -9.540  20.105  1.00  0.00     0.019 C 
HETATM    3  C22 UNL     1     -14.918 -10.395  21.116  1.00  0.00     0.001 C 
HETATM    4  C23 UNL     1     -15.897  -9.434  21.689  1.00  0.00     0.001 C 
HETATM    5  C24 UNL     1     -15.404  -8.037  21.446  1.00  0.00     0.019 C 
ENDROOT
BRANCH   1   6
HETATM    6  C9  UNL     1     -13.921  -7.018  19.791  1.00  0.00     0.040 C 
BRANCH   6   7
HETATM    7  C8  UNL     1     -13.812  -7.161  18.298  1.00  0.00     0.126 C 
BRANCH   7   8
HETATM    8  C7  UNL     1     -14.724  -6.107  17.723  1.00  0.00     0.079 C 
BRANCH   8   9
HETATM    9  N2  UNL     1     -14.130  -4.987  17.116  1.00  0.00    -0.338 N 
HETATM   10  C6  UNL     1     -14.479  -4.292  15.960  1.00  0.00     0.244 C 
HETATM   11  O4  UNL     1     -15.441  -4.639  15.269  1.00  0.00    -0.271 OA
ATOM     12  H2  UNL     1     -13.310  -4.624  17.601  1.00  0.00     0.167 HD
BRANCH  10  13
HETATM   13  C3  UNL     1     -13.714  -3.083  15.479  1.00  0.00     0.186 C 
BRANCH  13  14
HETATM   14  N1  UNL     1     -12.359  -3.413  15.208  1.00  0.00    -0.348 N 
HETATM   15  C2  UNL     1     -11.302  -3.326  16.158  1.00  0.00     0.214 C 
HETATM   16  C1  UNL     1      -9.902  -3.669  15.867  1.00  0.00     0.117 C 
HETATM   17  O1  UNL     1     -11.599  -2.932  17.304  1.00  0.00    -0.274 OA
ATOM     18  H1  UNL     1     -12.128  -3.735  14.267  1.00  0.00     0.163 HD
ENDBRANCH  13  14
BRANCH  13  19
HETATM   19  C4  UNL     1     -14.440  -2.417  14.341  1.00  0.00     0.147 C 
BRANCH  19  20
HETATM   20  C5  UNL     1     -14.704  -0.999  14.766  1.00  0.00     0.175 C 
HETATM   21  O2  UNL     1     -15.462  -0.774  15.742  1.00  0.00    -0.648 OA
HETATM   22  O3  UNL     1     -14.140   0.083  14.119  1.00  0.00    -0.648 OA
ENDBRANCH  19  20
ENDBRANCH  13  19
ENDBRANCH  10  13
ENDBRANCH   8   9
ENDBRANCH   7   8
BRANCH   7  23
HETATM   23  C25 UNL     1     -12.419  -6.848  17.949  1.00  0.00     0.182 C 
HETATM   24  O9  UNL     1     -11.975  -7.373  16.870  1.00  0.00    -0.647 OA
HETATM   25  O10 UNL     1     -11.566  -6.038  18.685  1.00  0.00    -0.647 OA
ENDBRANCH   7  23
ENDBRANCH   6   7
ENDBRANCH   1   6
BRANCH   1  26
HETATM   26  C11 UNL     1     -12.934  -8.154  21.617  1.00  0.00     0.227 C 
HETATM   27  O5  UNL     1     -11.773  -8.266  21.136  1.00  0.00    -0.273 OA
HETATM   28  N3  UNL     1     -13.077  -8.018  22.999  1.00  0.00    -0.346 N 
ATOM     29  H3  UNL     1     -14.006  -7.920  23.407  1.00  0.00     0.163 HD
BRANCH  28  30
HETATM   30  C12 UNL     1     -11.889  -8.018  23.870  1.00  0.00     0.189 C 
BRANCH  30  31
HETATM   31  C13 UNL     1     -12.275  -7.132  25.042  1.00  0.00     0.074 C 
BRANCH  31  32
HETATM   32  C14 UNL     1     -13.628  -7.380  25.544  1.00  0.00    -0.056 A 
HETATM   33  C15 UNL     1     -13.829  -8.185  26.631  1.00  0.00     0.010 A 
HETATM   34  C16 UNL     1     -15.092  -8.427  27.127  1.00  0.00     0.037 A 
HETATM   35  C17 UNL     1     -16.171  -7.827  26.492  1.00  0.00     0.065 A 
HETATM   36  C18 UNL     1     -15.965  -7.018  25.401  1.00  0.00     0.037 A 
HETATM   37  C19 UNL     1     -14.700  -6.788  24.919  1.00  0.00     0.010 A 
BRANCH  35  38
HETATM   38  O6  UNL     1     -17.454  -8.043  26.958  1.00  0.00    -0.361 OA
ATOM     39  H6  UNL     1     -18.195  -7.930  26.375  1.00  0.00     0.217 HD
ENDBRANCH  35  38
ENDBRANCH  31  32
ENDBRANCH  30  31
BRANCH  30  40
HETATM   40  C20 UNL     1     -11.675  -9.397  24.324  1.00  0.00     0.197 C 
HETATM   41  O7  UNL     1     -12.522 -10.307  24.090  1.00  0.00    -0.646 OA
HETATM   42  O8  UNL     1     -10.544  -9.795  25.032  1.00  0.00    -0.646 OA
ENDBRANCH  30  40
ENDBRANCH  28  30
ENDBRANCH   1  26
TORSDOF 15
ENDMDL
