MODEL 2
REMARK VINA RESULT: -9.283831050      5.191      8.813
REMARK  19 active torsions:
REMARK  status: ('A' for Active; 'I' for Inactive)
REMARK    1  A    between atoms: S1_2  and  N1_5 
REMARK    2  A    between atoms: N1_5  and  C2_7 
REMARK    3  A    between atoms: C2_7  and  C3_8 
REMARK    4  A    between atoms: C2_7  and  C7_16 
REMARK    5  A    between atoms: C3_8  and  C4_9 
REMARK    6  A    between atoms: C4_9  and  C5_10 
REMARK    7  A    between atoms: C5_10  and  C6_11 
REMARK    8  A    between atoms: C6_11  and  N2_12 
REMARK       I    between atoms: C7_16  and  N3_18 
REMARK    9  A    between atoms: N3_18  and  C8_20 
REMARK   10  A    between atoms: C8_20  and  C9_21 
REMARK   11  A    between atoms: C9_21  and  C10_22 
REMARK   12  A    between atoms: C9_21  and  C26_45 
REMARK   13  A    between atoms: C10_22  and  C11_23 
REMARK   14  A    between atoms: C11_23  and  C12_24 
REMARK       I    between atoms: C12_24  and  N4_26 
REMARK   15  A    between atoms: N4_26  and  C13_28 
REMARK   16  A    between atoms: C13_28  and  C14_29 
REMARK   17  A    between atoms: C13_28  and  C21_38 
REMARK   18  A    between atoms: C14_29  and  C15_30 
REMARK   19  A    between atoms: C18_33  and  O5_34 
ROOT
HETATM    1  C9  UNL     1       1.742 -14.774 -22.935  1.00  0.00     0.033 C 
ENDROOT
BRANCH   1   2
HETATM    2  C8  UNL     1       1.977 -14.731 -24.426  1.00  0.00     0.168 C 
BRANCH   2   3
HETATM    3  N3  UNL     1       3.097 -13.798 -24.655  1.00  0.00    -0.355 N 
HETATM    4  C7  UNL     1       3.185 -13.027 -25.843  1.00  0.00     0.241 C 
HETATM    5  O3  UNL     1       2.293 -13.155 -26.709  1.00  0.00    -0.271 OA
ATOM      6  H3  UNL     1       3.822 -13.705 -23.945  1.00  0.00     0.162 HD
BRANCH   4   7
HETATM    7  C2  UNL     1       4.344 -12.075 -26.038  1.00  0.00     0.184 C 
BRANCH   7   8
HETATM    8  N1  UNL     1       4.204 -11.337 -27.253  1.00  0.00    -0.306 N 
ATOM      9  H1  UNL     1       3.586 -10.534 -27.369  1.00  0.00     0.173 HD
BRANCH   8  10
HETATM   10  S1  UNL     1       5.203 -11.968 -28.485  1.00  0.00     0.223 S 
HETATM   11  C1  UNL     1       4.293 -12.848 -29.704  1.00  0.00     0.185 C 
HETATM   12  O1  UNL     1       6.241 -12.912 -27.922  1.00  0.00    -0.206 OA
HETATM   13  O2  UNL     1       5.949 -10.837 -29.170  1.00  0.00    -0.206 OA
ENDBRANCH   8  10
ENDBRANCH   7   8
BRANCH   7  14
HETATM   14  C3  UNL     1       4.439 -11.156 -24.826  1.00  0.00     0.035 C 
BRANCH  14  15
HETATM   15  C4  UNL     1       5.154  -9.874 -25.175  1.00  0.00     0.004 C 
BRANCH  15  16
HETATM   16  C5  UNL     1       6.626  -9.970 -24.874  1.00  0.00     0.027 C 
BRANCH  16  17
HETATM   17  C6  UNL     1       7.457  -9.601 -26.075  1.00  0.00     0.229 C 
BRANCH  17  18
HETATM   18  N2  UNL     1       8.016 -10.808 -26.657  1.00  0.00    -0.079 N 
ATOM     19  H23 UNL     1       7.295 -11.455 -26.975  1.00  0.00     0.274 HD
ATOM     20  H22 UNL     1       8.461 -10.633 -27.558  1.00  0.00     0.274 HD
ATOM     21  H21 UNL     1       8.655 -11.238 -25.987  1.00  0.00     0.274 HD
ENDBRANCH  17  18
ENDBRANCH  16  17
ENDBRANCH  15  16
ENDBRANCH  14  15
ENDBRANCH   7  14
ENDBRANCH   4   7
ENDBRANCH   2   3
ENDBRANCH   1   2
BRANCH   1  22
HETATM   22  C10 UNL     1       2.710 -15.457 -22.100  1.00  0.00     0.008 C 
BRANCH  22  23
HETATM   23  C11 UNL     1       3.453 -14.942 -20.985  1.00  0.00     0.059 C 
HETATM   24  C22 UNL     1       4.210 -15.848 -20.071  1.00  0.00     0.023 C 
HETATM   25  C23 UNL     1       4.765 -14.918 -18.975  1.00  0.00     0.002 C 
HETATM   26  C24 UNL     1       3.867 -13.700 -18.968  1.00  0.00     0.002 C 
HETATM   27  C25 UNL     1       2.812 -13.937 -20.061  1.00  0.00     0.023 C 
BRANCH  23  28
HETATM   28  C12 UNL     1       4.564 -14.094 -21.620  1.00  0.00     0.231 C 
HETATM   29  O4  UNL     1       4.461 -12.851 -21.737  1.00  0.00    -0.272 OA
HETATM   30  N4  UNL     1       5.741 -14.724 -22.093  1.00  0.00    -0.345 N 
ATOM     31  H4  UNL     1       5.835 -15.735 -22.001  1.00  0.00     0.163 HD
BRANCH  30  32
HETATM   32  C13 UNL     1       6.809 -13.975 -22.701  1.00  0.00     0.189 C 
BRANCH  32  33
HETATM   33  C14 UNL     1       8.162 -14.305 -22.123  1.00  0.00     0.074 C 
BRANCH  33  34
HETATM   34  C15 UNL     1       8.386 -15.708 -21.804  1.00  0.00    -0.056 A 
HETATM   35  C16 UNL     1       8.432 -16.116 -20.488  1.00  0.00     0.010 A 
HETATM   36  C17 UNL     1       8.644 -17.426 -20.120  1.00  0.00     0.037 A 
HETATM   37  C18 UNL     1       8.819 -18.376 -21.087  1.00  0.00     0.065 A 
HETATM   38  C19 UNL     1       8.781 -18.009 -22.410  1.00  0.00     0.037 A 
HETATM   39  C20 UNL     1       8.563 -16.671 -22.769  1.00  0.00     0.010 A 
BRANCH  37  40
HETATM   40  O5  UNL     1       9.036 -19.706 -20.712  1.00  0.00    -0.361 OA
ATOM     41  H5  UNL     1       9.843 -20.136 -20.966  1.00  0.00     0.217 HD
ENDBRANCH  37  40
ENDBRANCH  33  34
ENDBRANCH  32  33
BRANCH  32  42
HETATM   42  C21 UNL     1       6.824 -14.067 -24.158  1.00  0.00     0.197 C 
HETATM   43  O6  UNL     1       6.053 -14.848 -24.746  1.00  0.00    -0.646 OA
HETATM   44  O7  UNL     1       7.691 -13.288 -24.892  1.00  0.00    -0.646 OA
ENDBRANCH  32  42
ENDBRANCH  30  32
ENDBRANCH  23  28
ENDBRANCH  22  23
ENDBRANCH   1  22
BRANCH   1  45
HETATM   45  C26 UNL     1       0.304 -14.939 -22.616  1.00  0.00     0.206 C 
HETATM   46  O8  UNL     1      -0.549 -14.023 -22.623  1.00  0.00    -0.644 OA
HETATM   47  O9  UNL     1      -0.166 -16.187 -22.281  1.00  0.00    -0.644 OA
ENDBRANCH   1  45
TORSDOF 19
ENDMDL
