MODEL 12
REMARK VINA RESULT: -8.956760194      1.524      2.914
REMARK  19 active torsions:
REMARK  status: ('A' for Active; 'I' for Inactive)
REMARK    1  A    between atoms: S1_2  and  N1_5 
REMARK    2  A    between atoms: N1_5  and  C2_7 
REMARK    3  A    between atoms: C2_7  and  C3_8 
REMARK    4  A    between atoms: C2_7  and  C7_16 
REMARK    5  A    between atoms: C3_8  and  C4_9 
REMARK    6  A    between atoms: C4_9  and  C5_10 
REMARK    7  A    between atoms: C5_10  and  C6_11 
REMARK    8  A    between atoms: C6_11  and  N2_12 
REMARK       I    between atoms: C7_16  and  N3_18 
REMARK    9  A    between atoms: N3_18  and  C8_20 
REMARK   10  A    between atoms: C8_20  and  C9_21 
REMARK   11  A    between atoms: C9_21  and  C10_22 
REMARK   12  A    between atoms: C9_21  and  C26_45 
REMARK   13  A    between atoms: C10_22  and  C11_23 
REMARK   14  A    between atoms: C11_23  and  C12_24 
REMARK       I    between atoms: C12_24  and  N4_26 
REMARK   15  A    between atoms: N4_26  and  C13_28 
REMARK   16  A    between atoms: C13_28  and  C14_29 
REMARK   17  A    between atoms: C13_28  and  C21_38 
REMARK   18  A    between atoms: C14_29  and  C15_30 
REMARK   19  A    between atoms: C18_33  and  O5_34 
ROOT
HETATM    1  C9  UNL     1      -1.239 -16.427 -23.411  1.00  0.00     0.033 C 
ENDROOT
BRANCH   1   2
HETATM    2  C8  UNL     1      -1.938 -17.762 -23.520  1.00  0.00     0.168 C 
BRANCH   2   3
HETATM    3  N3  UNL     1      -3.388 -17.489 -23.480  1.00  0.00    -0.355 N 
HETATM    4  C7  UNL     1      -4.274 -18.311 -22.739  1.00  0.00     0.241 C 
HETATM    5  O3  UNL     1      -3.806 -19.288 -22.116  1.00  0.00    -0.271 OA
ATOM      6  H3  UNL     1      -3.760 -16.693 -23.997  1.00  0.00     0.162 HD
BRANCH   4   7
HETATM    7  C2  UNL     1      -5.753 -17.995 -22.716  1.00  0.00     0.184 C 
BRANCH   7   8
HETATM    8  N1  UNL     1      -6.052 -16.868 -23.542  1.00  0.00    -0.306 N 
ATOM      9  H1  UNL     1      -5.875 -16.829 -24.546  1.00  0.00     0.173 HD
BRANCH   8  10
HETATM   10  S1  UNL     1      -6.741 -15.597 -22.636  1.00  0.00     0.223 S 
HETATM   11  C1  UNL     1      -7.021 -16.040 -20.959  1.00  0.00     0.185 C 
HETATM   12  O1  UNL     1      -8.068 -15.163 -23.219  1.00  0.00    -0.206 OA
HETATM   13  O2  UNL     1      -5.822 -14.389 -22.664  1.00  0.00    -0.206 OA
ENDBRANCH   8  10
ENDBRANCH   7   8
BRANCH   7  14
HETATM   14  C3  UNL     1      -6.530 -19.234 -23.147  1.00  0.00     0.035 C 
BRANCH  14  15
HETATM   15  C4  UNL     1      -7.684 -19.498 -22.212  1.00  0.00     0.004 C 
BRANCH  15  16
HETATM   16  C5  UNL     1      -7.200 -19.939 -20.857  1.00  0.00     0.027 C 
BRANCH  16  17
HETATM   17  C6  UNL     1      -6.579 -21.310 -20.915  1.00  0.00     0.229 C 
BRANCH  17  18
HETATM   18  N2  UNL     1      -5.242 -21.253 -20.352  1.00  0.00    -0.079 N 
ATOM     19  H23 UNL     1      -5.100 -20.423 -19.777  1.00  0.00     0.274 HD
ATOM     20  H22 UNL     1      -5.096 -21.956 -19.628  1.00  0.00     0.274 HD
ATOM     21  H21 UNL     1      -4.558 -21.325 -21.105  1.00  0.00     0.274 HD
ENDBRANCH  17  18
ENDBRANCH  16  17
ENDBRANCH  15  16
ENDBRANCH  14  15
ENDBRANCH   7  14
ENDBRANCH   4   7
ENDBRANCH   2   3
ENDBRANCH   1   2
BRANCH   1  22
HETATM   22  C10 UNL     1       0.076 -16.380 -22.802  1.00  0.00     0.008 C 
BRANCH  22  23
HETATM   23  C11 UNL     1       1.248 -15.686 -23.253  1.00  0.00     0.059 C 
HETATM   24  C22 UNL     1       1.254 -14.926 -24.539  1.00  0.00     0.023 C 
HETATM   25  C23 UNL     1       2.706 -14.433 -24.690  1.00  0.00     0.002 C 
HETATM   26  C24 UNL     1       3.554 -15.370 -23.858  1.00  0.00     0.002 C 
HETATM   27  C25 UNL     1       2.584 -16.385 -23.230  1.00  0.00     0.023 C 
BRANCH  23  28
HETATM   28  C12 UNL     1       1.472 -14.586 -22.207  1.00  0.00     0.231 C 
HETATM   29  O4  UNL     1       0.708 -13.597 -22.112  1.00  0.00    -0.272 OA
HETATM   30  N4  UNL     1       2.572 -14.678 -21.319  1.00  0.00    -0.345 N 
ATOM     31  H4  UNL     1       3.198 -15.480 -21.386  1.00  0.00     0.163 HD
BRANCH  30  32
HETATM   32  C13 UNL     1       2.829 -13.671 -20.324  1.00  0.00     0.189 C 
BRANCH  32  33
HETATM   33  C14 UNL     1       3.656 -14.181 -19.170  1.00  0.00     0.074 C 
BRANCH  33  34
HETATM   34  C15 UNL     1       4.665 -15.174 -19.510  1.00  0.00    -0.056 A 
HETATM   35  C16 UNL     1       4.370 -16.517 -19.409  1.00  0.00     0.010 A 
HETATM   36  C17 UNL     1       5.281 -17.505 -19.711  1.00  0.00     0.037 A 
HETATM   37  C18 UNL     1       6.535 -17.159 -20.128  1.00  0.00     0.065 A 
HETATM   38  C19 UNL     1       6.868 -15.831 -20.240  1.00  0.00     0.037 A 
HETATM   39  C20 UNL     1       5.929 -14.836 -19.930  1.00  0.00     0.010 A 
BRANCH  37  40
HETATM   40  O5  UNL     1       7.459 -18.164 -20.432  1.00  0.00    -0.361 OA
ATOM     41  H5  UNL     1       8.296 -17.928 -20.813  1.00  0.00     0.217 HD
ENDBRANCH  37  40
ENDBRANCH  33  34
ENDBRANCH  32  33
BRANCH  32  42
HETATM   42  C21 UNL     1       3.397 -12.445 -20.875  1.00  0.00     0.197 C 
HETATM   43  O6  UNL     1       4.171 -12.493 -21.849  1.00  0.00    -0.646 OA
HETATM   44  O7  UNL     1       3.079 -11.224 -20.323  1.00  0.00    -0.646 OA
ENDBRANCH  32  42
ENDBRANCH  30  32
ENDBRANCH  23  28
ENDBRANCH  22  23
ENDBRANCH   1  22
BRANCH   1  45
HETATM   45  C26 UNL     1      -2.194 -15.338 -23.098  1.00  0.00     0.206 C 
HETATM   46  O8  UNL     1      -2.570 -15.011 -21.951  1.00  0.00    -0.644 OA
HETATM   47  O9  UNL     1      -2.729 -14.603 -24.130  1.00  0.00    -0.644 OA
ENDBRANCH   1  45
TORSDOF 19
ENDMDL
