MODEL 4
REMARK VINA RESULT: -9.246885085      5.098      8.794
REMARK  19 active torsions:
REMARK  status: ('A' for Active; 'I' for Inactive)
REMARK    1  A    between atoms: S1_2  and  N1_5 
REMARK    2  A    between atoms: N1_5  and  C2_7 
REMARK    3  A    between atoms: C2_7  and  C3_8 
REMARK    4  A    between atoms: C2_7  and  C7_16 
REMARK    5  A    between atoms: C3_8  and  C4_9 
REMARK    6  A    between atoms: C4_9  and  C5_10 
REMARK    7  A    between atoms: C5_10  and  C6_11 
REMARK    8  A    between atoms: C6_11  and  N2_12 
REMARK       I    between atoms: C7_16  and  N3_18 
REMARK    9  A    between atoms: N3_18  and  C8_20 
REMARK   10  A    between atoms: C8_20  and  C9_21 
REMARK   11  A    between atoms: C9_21  and  C10_22 
REMARK   12  A    between atoms: C9_21  and  C26_45 
REMARK   13  A    between atoms: C10_22  and  C11_23 
REMARK   14  A    between atoms: C11_23  and  C12_24 
REMARK       I    between atoms: C12_24  and  N4_26 
REMARK   15  A    between atoms: N4_26  and  C13_28 
REMARK   16  A    between atoms: C13_28  and  C14_29 
REMARK   17  A    between atoms: C13_28  and  C21_38 
REMARK   18  A    between atoms: C14_29  and  C15_30 
REMARK   19  A    between atoms: C18_33  and  O5_34 
ROOT
HETATM    1  C9  UNL     1       2.170 -16.012 -22.527  1.00  0.00     0.033 C 
ENDROOT
BRANCH   1   2
HETATM    2  C8  UNL     1       2.498 -16.367 -23.958  1.00  0.00     0.168 C 
BRANCH   2   3
HETATM    3  N3  UNL     1       3.414 -15.324 -24.458  1.00  0.00    -0.355 N 
HETATM    4  C7  UNL     1       2.942 -14.240 -25.240  1.00  0.00     0.241 C 
HETATM    5  O3  UNL     1       1.723 -14.181 -25.511  1.00  0.00    -0.271 OA
ATOM      6  H3  UNL     1       4.407 -15.384 -24.236  1.00  0.00     0.162 HD
BRANCH   4   7
HETATM    7  C2  UNL     1       3.909 -13.185 -25.728  1.00  0.00     0.184 C 
BRANCH   7   8
HETATM    8  N1  UNL     1       3.322 -12.381 -26.753  1.00  0.00    -0.306 N 
ATOM      9  H1  UNL     1       2.545 -11.737 -26.603  1.00  0.00     0.173 HD
BRANCH   8  10
HETATM   10  S1  UNL     1       4.084 -12.635 -28.258  1.00  0.00     0.223 S 
HETATM   11  C1  UNL     1       5.196 -11.341 -28.676  1.00  0.00     0.185 C 
HETATM   12  O1  UNL     1       3.071 -12.742 -29.377  1.00  0.00    -0.206 OA
HETATM   13  O2  UNL     1       4.859 -13.940 -28.229  1.00  0.00    -0.206 OA
ENDBRANCH   8  10
ENDBRANCH   7   8
BRANCH   7  14
HETATM   14  C3  UNL     1       4.365 -12.344 -24.541  1.00  0.00     0.035 C 
BRANCH  14  15
HETATM   15  C4  UNL     1       5.849 -12.081 -24.604  1.00  0.00     0.004 C 
BRANCH  15  16
HETATM   16  C5  UNL     1       6.591 -13.264 -25.165  1.00  0.00     0.027 C 
BRANCH  16  17
HETATM   17  C6  UNL     1       7.611 -12.838 -26.188  1.00  0.00     0.229 C 
BRANCH  17  18
HETATM   18  N2  UNL     1       8.416 -13.985 -26.565  1.00  0.00    -0.079 N 
ATOM     19  H23 UNL     1       9.372 -13.920 -26.216  1.00  0.00     0.274 HD
ATOM     20  H22 UNL     1       8.139 -14.833 -26.069  1.00  0.00     0.274 HD
ATOM     21  H21 UNL     1       8.381 -14.101 -27.578  1.00  0.00     0.274 HD
ENDBRANCH  17  18
ENDBRANCH  16  17
ENDBRANCH  15  16
ENDBRANCH  14  15
ENDBRANCH   7  14
ENDBRANCH   4   7
ENDBRANCH   2   3
ENDBRANCH   1   2
BRANCH   1  22
HETATM   22  C10 UNL     1       3.066 -16.459 -21.478  1.00  0.00     0.008 C 
BRANCH  22  23
HETATM   23  C11 UNL     1       3.942 -15.676 -20.654  1.00  0.00     0.059 C 
HETATM   24  C22 UNL     1       4.255 -16.079 -19.251  1.00  0.00     0.023 C 
HETATM   25  C23 UNL     1       5.130 -14.934 -18.705  1.00  0.00     0.002 C 
HETATM   26  C24 UNL     1       4.804 -13.722 -19.550  1.00  0.00     0.002 C 
HETATM   27  C25 UNL     1       3.756 -14.181 -20.576  1.00  0.00     0.023 C 
BRANCH  23  28
HETATM   28  C12 UNL     1       5.308 -15.768 -21.348  1.00  0.00     0.231 C 
HETATM   29  O4  UNL     1       5.570 -15.111 -22.382  1.00  0.00    -0.272 OA
HETATM   30  N4  UNL     1       6.308 -16.619 -20.815  1.00  0.00    -0.345 N 
ATOM     31  H4  UNL     1       6.105 -17.156 -19.972  1.00  0.00     0.163 HD
BRANCH  30  32
HETATM   32  C13 UNL     1       7.602 -16.744 -21.430  1.00  0.00     0.189 C 
BRANCH  32  33
HETATM   33  C14 UNL     1       8.631 -15.819 -20.830  1.00  0.00     0.074 C 
BRANCH  33  34
HETATM   34  C15 UNL     1       8.852 -14.572 -21.548  1.00  0.00    -0.056 A 
HETATM   35  C16 UNL     1       9.728 -14.536 -22.612  1.00  0.00     0.010 A 
HETATM   36  C17 UNL     1       9.984 -13.388 -23.329  1.00  0.00     0.037 A 
HETATM   37  C18 UNL     1       9.352 -12.226 -22.986  1.00  0.00     0.065 A 
HETATM   38  C19 UNL     1       8.473 -12.221 -21.931  1.00  0.00     0.037 A 
HETATM   39  C20 UNL     1       8.222 -13.398 -21.210  1.00  0.00     0.010 A 
BRANCH  37  40
HETATM   40  O5  UNL     1       9.614 -11.061 -23.714  1.00  0.00    -0.361 OA
ATOM     41  H5  UNL     1       8.898 -10.603 -24.136  1.00  0.00     0.217 HD
ENDBRANCH  37  40
ENDBRANCH  33  34
ENDBRANCH  32  33
BRANCH  32  42
HETATM   42  C21 UNL     1       8.093 -18.119 -21.471  1.00  0.00     0.197 C 
HETATM   43  O6  UNL     1       7.866 -18.838 -22.462  1.00  0.00    -0.646 OA
HETATM   44  O7  UNL     1       8.811 -18.630 -20.413  1.00  0.00    -0.646 OA
ENDBRANCH  32  42
ENDBRANCH  30  32
ENDBRANCH  23  28
ENDBRANCH  22  23
ENDBRANCH   1  22
BRANCH   1  45
HETATM   45  C26 UNL     1       0.711 -16.071 -22.272  1.00  0.00     0.206 C 
HETATM   46  O8  UNL     1       0.097 -17.055 -21.806  1.00  0.00    -0.644 OA
HETATM   47  O9  UNL     1      -0.061 -14.970 -22.561  1.00  0.00    -0.644 OA
ENDBRANCH   1  45
TORSDOF 19
ENDMDL
