MODEL 5
REMARK VINA RESULT: -9.239889116      1.563      2.367
REMARK  19 active torsions:
REMARK  status: ('A' for Active; 'I' for Inactive)
REMARK    1  A    between atoms: S1_2  and  N1_5 
REMARK    2  A    between atoms: N1_5  and  C2_7 
REMARK    3  A    between atoms: C2_7  and  C3_8 
REMARK    4  A    between atoms: C2_7  and  C7_16 
REMARK    5  A    between atoms: C3_8  and  C4_9 
REMARK    6  A    between atoms: C4_9  and  C5_10 
REMARK    7  A    between atoms: C5_10  and  C6_11 
REMARK    8  A    between atoms: C6_11  and  N2_12 
REMARK       I    between atoms: C7_16  and  N3_18 
REMARK    9  A    between atoms: N3_18  and  C8_20 
REMARK   10  A    between atoms: C8_20  and  C9_21 
REMARK   11  A    between atoms: C9_21  and  C10_22 
REMARK   12  A    between atoms: C9_21  and  C26_45 
REMARK   13  A    between atoms: C10_22  and  C11_23 
REMARK   14  A    between atoms: C11_23  and  C12_24 
REMARK       I    between atoms: C12_24  and  N4_26 
REMARK   15  A    between atoms: N4_26  and  C13_28 
REMARK   16  A    between atoms: C13_28  and  C14_29 
REMARK   17  A    between atoms: C13_28  and  C21_38 
REMARK   18  A    between atoms: C14_29  and  C15_30 
REMARK   19  A    between atoms: C18_33  and  O5_34 
ROOT
HETATM    1  C9  UNL     1      -1.176 -16.374 -23.491  1.00  0.00     0.033 C 
ENDROOT
BRANCH   1   2
HETATM    2  C8  UNL     1      -1.709 -17.768 -23.724  1.00  0.00     0.168 C 
BRANCH   2   3
HETATM    3  N3  UNL     1      -3.004 -17.853 -23.022  1.00  0.00    -0.355 N 
HETATM    4  C7  UNL     1      -4.115 -18.520 -23.599  1.00  0.00     0.241 C 
HETATM    5  O3  UNL     1      -3.983 -19.038 -24.728  1.00  0.00    -0.271 OA
ATOM      6  H3  UNL     1      -3.103 -17.422 -22.103  1.00  0.00     0.162 HD
BRANCH   4   7
HETATM    7  C2  UNL     1      -5.424 -18.593 -22.845  1.00  0.00     0.184 C 
BRANCH   7   8
HETATM    8  N1  UNL     1      -6.139 -19.787 -23.169  1.00  0.00    -0.306 N 
ATOM      9  H1  UNL     1      -5.696 -20.677 -23.396  1.00  0.00     0.173 HD
BRANCH   8  10
HETATM   10  S1  UNL     1      -7.826 -19.535 -23.127  1.00  0.00     0.223 S 
HETATM   11  C1  UNL     1      -8.252 -17.830 -23.139  1.00  0.00     0.185 C 
HETATM   12  O1  UNL     1      -8.444 -20.149 -21.890  1.00  0.00    -0.206 OA
HETATM   13  O2  UNL     1      -8.474 -20.198 -24.329  1.00  0.00    -0.206 OA
ENDBRANCH   8  10
ENDBRANCH   7   8
BRANCH   7  14
HETATM   14  C3  UNL     1      -5.141 -18.491 -21.350  1.00  0.00     0.035 C 
BRANCH  14  15
HETATM   15  C4  UNL     1      -4.970 -19.859 -20.739  1.00  0.00     0.004 C 
BRANCH  15  16
HETATM   16  C5  UNL     1      -5.910 -20.062 -19.581  1.00  0.00     0.027 C 
BRANCH  16  17
HETATM   17  C6  UNL     1      -6.291 -21.511 -19.429  1.00  0.00     0.229 C 
BRANCH  17  18
HETATM   18  N2  UNL     1      -6.455 -22.101 -20.745  1.00  0.00    -0.079 N 
ATOM     19  H23 UNL     1      -6.003 -21.551 -21.476  1.00  0.00     0.274 HD
ATOM     20  H22 UNL     1      -5.915 -22.960 -20.856  1.00  0.00     0.274 HD
ATOM     21  H21 UNL     1      -7.449 -22.244 -20.927  1.00  0.00     0.274 HD
ENDBRANCH  17  18
ENDBRANCH  16  17
ENDBRANCH  15  16
ENDBRANCH  14  15
ENDBRANCH   7  14
ENDBRANCH   4   7
ENDBRANCH   2   3
ENDBRANCH   1   2
BRANCH   1  22
HETATM   22  C10 UNL     1       0.085 -16.222 -22.792  1.00  0.00     0.008 C 
BRANCH  22  23
HETATM   23  C11 UNL     1       1.287 -15.582 -23.242  1.00  0.00     0.059 C 
HETATM   24  C22 UNL     1       1.341 -14.859 -24.548  1.00  0.00     0.023 C 
HETATM   25  C23 UNL     1       2.811 -14.421 -24.688  1.00  0.00     0.002 C 
HETATM   26  C24 UNL     1       3.613 -15.364 -23.817  1.00  0.00     0.002 C 
HETATM   27  C25 UNL     1       2.598 -16.327 -23.178  1.00  0.00     0.023 C 
BRANCH  23  28
HETATM   28  C12 UNL     1       1.534 -14.462 -22.222  1.00  0.00     0.231 C 
HETATM   29  O4  UNL     1       0.867 -13.401 -22.231  1.00  0.00    -0.272 OA
HETATM   30  N4  UNL     1       2.543 -14.618 -21.241  1.00  0.00    -0.345 N 
ATOM     31  H4  UNL     1       3.090 -15.479 -21.224  1.00  0.00     0.163 HD
BRANCH  30  32
HETATM   32  C13 UNL     1       2.818 -13.596 -20.266  1.00  0.00     0.189 C 
BRANCH  32  33
HETATM   33  C14 UNL     1       3.673 -14.086 -19.125  1.00  0.00     0.074 C 
BRANCH  33  34
HETATM   34  C15 UNL     1       4.661 -15.099 -19.467  1.00  0.00    -0.056 A 
HETATM   35  C16 UNL     1       4.338 -16.436 -19.369  1.00  0.00     0.010 A 
HETATM   36  C17 UNL     1       5.228 -17.442 -19.674  1.00  0.00     0.037 A 
HETATM   37  C18 UNL     1       6.489 -17.121 -20.093  1.00  0.00     0.065 A 
HETATM   38  C19 UNL     1       6.848 -15.800 -20.203  1.00  0.00     0.037 A 
HETATM   39  C20 UNL     1       5.931 -14.786 -19.889  1.00  0.00     0.010 A 
BRANCH  37  40
HETATM   40  O5  UNL     1       7.392 -18.144 -20.400  1.00  0.00    -0.361 OA
ATOM     41  H5  UNL     1       8.317 -17.944 -20.469  1.00  0.00     0.217 HD
ENDBRANCH  37  40
ENDBRANCH  33  34
ENDBRANCH  32  33
BRANCH  32  42
HETATM   42  C21 UNL     1       3.367 -12.375 -20.847  1.00  0.00     0.197 C 
HETATM   43  O6  UNL     1       3.021 -11.261 -20.413  1.00  0.00    -0.646 OA
HETATM   44  O7  UNL     1       4.274 -12.447 -21.881  1.00  0.00    -0.646 OA
ENDBRANCH  32  42
ENDBRANCH  30  32
ENDBRANCH  23  28
ENDBRANCH  22  23
ENDBRANCH   1  22
BRANCH   1  45
HETATM   45  C26 UNL     1      -2.266 -15.420 -23.182  1.00  0.00     0.206 C 
HETATM   46  O8  UNL     1      -2.471 -14.889 -22.068  1.00  0.00    -0.644 OA
HETATM   47  O9  UNL     1      -3.144 -15.065 -24.180  1.00  0.00    -0.644 OA
ENDBRANCH   1  45
TORSDOF 19
ENDMDL
