MODEL 3
REMARK VINA RESULT: -9.257977965      6.190      9.316
REMARK  19 active torsions:
REMARK  status: ('A' for Active; 'I' for Inactive)
REMARK    1  A    between atoms: S1_2  and  N1_5 
REMARK    2  A    between atoms: N1_5  and  C2_7 
REMARK    3  A    between atoms: C2_7  and  C3_8 
REMARK    4  A    between atoms: C2_7  and  C7_16 
REMARK    5  A    between atoms: C3_8  and  C4_9 
REMARK    6  A    between atoms: C4_9  and  C5_10 
REMARK    7  A    between atoms: C5_10  and  C6_11 
REMARK    8  A    between atoms: C6_11  and  N2_12 
REMARK       I    between atoms: C7_16  and  N3_18 
REMARK    9  A    between atoms: N3_18  and  C8_20 
REMARK   10  A    between atoms: C8_20  and  C9_21 
REMARK   11  A    between atoms: C9_21  and  C10_22 
REMARK   12  A    between atoms: C9_21  and  C26_45 
REMARK   13  A    between atoms: C10_22  and  C11_23 
REMARK   14  A    between atoms: C11_23  and  C12_24 
REMARK       I    between atoms: C12_24  and  N4_26 
REMARK   15  A    between atoms: N4_26  and  C13_28 
REMARK   16  A    between atoms: C13_28  and  C14_29 
REMARK   17  A    between atoms: C13_28  and  C21_38 
REMARK   18  A    between atoms: C14_29  and  C15_30 
REMARK   19  A    between atoms: C18_33  and  O5_34 
ROOT
HETATM    1  C9  UNL     1       2.875 -13.273 -22.113  1.00  0.00     0.033 C 
ENDROOT
BRANCH   1   2
HETATM    2  C8  UNL     1       3.106 -11.817 -22.445  1.00  0.00     0.168 C 
BRANCH   2   3
HETATM    3  N3  UNL     1       3.903 -11.783 -23.686  1.00  0.00    -0.355 N 
HETATM    4  C7  UNL     1       4.893 -10.790 -23.900  1.00  0.00     0.241 C 
HETATM    5  O3  UNL     1       5.079  -9.928 -23.015  1.00  0.00    -0.271 OA
ATOM      6  H3  UNL     1       3.739 -12.488 -24.404  1.00  0.00     0.162 HD
BRANCH   4   7
HETATM    7  C2  UNL     1       5.696 -10.792 -25.181  1.00  0.00     0.184 C 
BRANCH   7   8
HETATM    8  N1  UNL     1       5.245 -11.815 -26.071  1.00  0.00    -0.306 N 
ATOM      9  H1  UNL     1       4.270 -12.091 -26.181  1.00  0.00     0.173 HD
BRANCH   8  10
HETATM   10  S1  UNL     1       6.546 -12.517 -26.924  1.00  0.00     0.223 S 
HETATM   11  C1  UNL     1       8.105 -12.129 -26.214  1.00  0.00     0.185 C 
HETATM   12  O1  UNL     1       6.574 -12.052 -28.364  1.00  0.00    -0.206 OA
HETATM   13  O2  UNL     1       6.392 -14.027 -26.944  1.00  0.00    -0.206 OA
ENDBRANCH   8  10
ENDBRANCH   7   8
BRANCH   7  14
HETATM   14  C3  UNL     1       5.612  -9.410 -25.820  1.00  0.00     0.035 C 
BRANCH  14  15
HETATM   15  C4  UNL     1       4.233  -9.157 -26.378  1.00  0.00     0.004 C 
BRANCH  15  16
HETATM   16  C5  UNL     1       4.300  -8.394 -27.674  1.00  0.00     0.027 C 
BRANCH  16  17
HETATM   17  C6  UNL     1       4.394  -9.324 -28.855  1.00  0.00     0.229 C 
BRANCH  17  18
HETATM   18  N2  UNL     1       5.734  -9.258 -29.408  1.00  0.00    -0.079 N 
ATOM     19  H23 UNL     1       6.450  -9.206 -28.683  1.00  0.00     0.274 HD
ATOM     20  H22 UNL     1       6.023 -10.141 -29.831  1.00  0.00     0.274 HD
ATOM     21  H21 UNL     1       5.789  -8.479 -30.064  1.00  0.00     0.274 HD
ENDBRANCH  17  18
ENDBRANCH  16  17
ENDBRANCH  15  16
ENDBRANCH  14  15
ENDBRANCH   7  14
ENDBRANCH   4   7
ENDBRANCH   2   3
ENDBRANCH   1   2
BRANCH   1  22
HETATM   22  C10 UNL     1       4.019 -14.161 -22.056  1.00  0.00     0.008 C 
BRANCH  22  23
HETATM   23  C11 UNL     1       4.542 -14.877 -20.928  1.00  0.00     0.059 C 
HETATM   24  C22 UNL     1       4.907 -16.322 -21.026  1.00  0.00     0.023 C 
HETATM   25  C23 UNL     1       5.318 -16.715 -19.594  1.00  0.00     0.002 C 
HETATM   26  C24 UNL     1       4.643 -15.719 -18.677  1.00  0.00     0.002 C 
HETATM   27  C25 UNL     1       3.859 -14.759 -19.588  1.00  0.00     0.023 C 
BRANCH  23  28
HETATM   28  C12 UNL     1       5.889 -14.204 -20.633  1.00  0.00     0.231 C 
HETATM   29  O4  UNL     1       6.042 -13.426 -19.664  1.00  0.00    -0.272 OA
HETATM   30  N4  UNL     1       6.999 -14.461 -21.476  1.00  0.00    -0.345 N 
ATOM     31  H4  UNL     1       6.885 -15.095 -22.267  1.00  0.00     0.163 HD
BRANCH  30  32
HETATM   32  C13 UNL     1       8.282 -13.852 -21.247  1.00  0.00     0.189 C 
BRANCH  32  33
HETATM   33  C14 UNL     1       9.401 -14.857 -21.145  1.00  0.00     0.074 C 
BRANCH  33  34
HETATM   34  C15 UNL     1       9.059 -16.220 -21.525  1.00  0.00    -0.056 A 
HETATM   35  C16 UNL     1       8.889 -17.183 -20.553  1.00  0.00     0.010 A 
HETATM   36  C17 UNL     1       8.570 -18.491 -20.847  1.00  0.00     0.037 A 
HETATM   37  C18 UNL     1       8.412 -18.869 -22.151  1.00  0.00     0.065 A 
HETATM   38  C19 UNL     1       8.574 -17.938 -23.148  1.00  0.00     0.037 A 
HETATM   39  C20 UNL     1       8.899 -16.610 -22.834  1.00  0.00     0.010 A 
BRANCH  37  40
HETATM   40  O5  UNL     1       8.090 -20.197 -22.447  1.00  0.00    -0.361 OA
ATOM     41  H5  UNL     1       7.648 -20.399 -23.262  1.00  0.00     0.217 HD
ENDBRANCH  37  40
ENDBRANCH  33  34
ENDBRANCH  32  33
BRANCH  32  42
HETATM   42  C21 UNL     1       8.604 -12.802 -22.209  1.00  0.00     0.197 C 
HETATM   43  O6  UNL     1       9.494 -12.983 -23.061  1.00  0.00    -0.646 OA
HETATM   44  O7  UNL     1       7.925 -11.604 -22.181  1.00  0.00    -0.646 OA
ENDBRANCH  32  42
ENDBRANCH  30  32
ENDBRANCH  23  28
ENDBRANCH  22  23
ENDBRANCH   1  22
BRANCH   1  45
HETATM   45  C26 UNL     1       1.627 -13.780 -22.731  1.00  0.00     0.206 C 
HETATM   46  O8  UNL     1       0.534 -13.925 -22.141  1.00  0.00    -0.644 OA
HETATM   47  O9  UNL     1       1.635 -14.128 -24.062  1.00  0.00    -0.644 OA
ENDBRANCH   1  45
TORSDOF 19
ENDMDL
