MODEL 1
REMARK VINA RESULT: -7.318398164      0.000      0.000
REMARK  5 active torsions:
REMARK  status: ('A' for Active; 'I' for Inactive)
REMARK    1  A    between atoms: O1_2  and  C2_3 
REMARK    2  A    between atoms: C14_19  and  N2_20 
REMARK    3  A    between atoms: N2_20  and  C15_22 
REMARK    4  A    between atoms: C18_25  and  C19_26 
REMARK    5  A    between atoms: C19_26  and  N3_27 
ROOT
HETATM    1  C2  UNL     1      32.826  95.143  28.124  1.00  0.00     0.169 A 
HETATM    2  N1  UNL     1      31.803  95.884  27.623  1.00  0.00    -0.334 N 
ATOM      3  H1  UNL     1      30.874  95.468  27.552  1.00  0.00     0.168 HD
HETATM    4  C3  UNL     1      31.983  97.148  27.219  1.00  0.00     0.047 A 
HETATM    5  C4  UNL     1      30.877  97.909  26.692  1.00  0.00     0.027 A 
HETATM    6  C5  UNL     1      30.961  99.203  26.254  1.00  0.00     0.017 A 
HETATM    7  C6  UNL     1      29.830  99.860  25.756  1.00  0.00     0.004 A 
HETATM    8  C7  UNL     1      28.601  99.240  25.687  1.00  0.00     0.040 A 
HETATM    9  C8  UNL     1      28.501  97.925  26.129  1.00  0.00     0.103 A 
HETATM   10  C9  UNL     1      29.613  97.313  26.606  1.00  0.00     0.114 A 
HETATM   11  O2  UNL     1      29.506  96.002  27.044  1.00  0.00    -0.345 OA
HETATM   12  C10 UNL     1      28.262  95.356  27.291  1.00  0.00     0.202 C 
HETATM   13  C11 UNL     1      27.202  95.852  26.364  1.00  0.00     0.202 C 
HETATM   14  O3  UNL     1      27.305  97.233  26.093  1.00  0.00    -0.346 OA
HETATM   15  C12 UNL     1      33.229  97.700  27.316  1.00  0.00     0.033 A 
HETATM   16  C13 UNL     1      34.306  96.950  27.833  1.00  0.00     0.036 A 
HETATM   17  C14 UNL     1      34.098  95.659  28.239  1.00  0.00     0.084 A 
ENDROOT
BRANCH  17  18
HETATM   18  N2  UNL     1      35.119  94.873  28.795  1.00  0.00    -0.353 N 
ATOM     19  H2  UNL     1      34.811  94.043  29.301  1.00  0.00     0.166 HD
BRANCH  18  20
HETATM   20  C15 UNL     1      36.509  95.075  28.747  1.00  0.00     0.032 A 
HETATM   21  C16 UNL     1      37.251  95.195  27.605  1.00  0.00     0.030 A 
HETATM   22  C17 UNL     1      38.631  95.431  27.617  1.00  0.00     0.011 A 
HETATM   23  C18 UNL     1      39.284  95.549  28.808  1.00  0.00    -0.030 A 
HETATM   24  C22 UNL     1      38.574  95.435  29.979  1.00  0.00     0.011 A 
HETATM   25  C23 UNL     1      37.216  95.203  29.950  1.00  0.00     0.030 A 
BRANCH  23  26
HETATM   26  C19 UNL     1      40.746  95.801  28.924  1.00  0.00     0.309 C 
BRANCH  26  27
HETATM   27  N3  UNL     1      41.353  95.484  27.644  1.00  0.00     0.084 N 
HETATM   28  C20 UNL     1      42.142  96.628  27.225  1.00  0.00     0.309 C 
HETATM   29  C21 UNL     1      42.174  94.301  27.816  1.00  0.00     0.309 C 
ENDBRANCH  26  27
ENDBRANCH  23  26
ENDBRANCH  18  20
ENDBRANCH  17  18
BRANCH   1  30
HETATM   30  O1  UNL     1      32.549  93.844  28.518  1.00  0.00    -0.339 OA
HETATM   31  C1  UNL     1      31.485  93.089  28.013  1.00  0.00     0.211 C 
ENDBRANCH   1  30
TORSDOF 5
ENDMDL
