MODEL 6
REMARK VINA RESULT: -6.935157262      5.034     10.760
REMARK  5 active torsions:
REMARK  status: ('A' for Active; 'I' for Inactive)
REMARK    1  A    between atoms: O1_2  and  C2_3 
REMARK    2  A    between atoms: C14_19  and  N2_20 
REMARK    3  A    between atoms: N2_20  and  C15_22 
REMARK    4  A    between atoms: C18_25  and  C19_26 
REMARK    5  A    between atoms: C19_26  and  N3_27 
ROOT
HETATM    1  C2  UNL     1      28.279  93.972  27.065  1.00  0.00     0.169 A 
HETATM    2  N1  UNL     1      28.839  95.189  26.832  1.00  0.00    -0.334 N 
ATOM      3  H1  UNL     1      29.853  95.288  26.884  1.00  0.00     0.168 HD
HETATM    4  C3  UNL     1      28.093  96.261  26.537  1.00  0.00     0.047 A 
HETATM    5  C4  UNL     1      28.717  97.538  26.296  1.00  0.00     0.027 A 
HETATM    6  C5  UNL     1      28.043  98.689  25.989  1.00  0.00     0.017 A 
HETATM    7  C6  UNL     1      28.738  99.884  25.771  1.00  0.00     0.004 A 
HETATM    8  C7  UNL     1      30.112  99.952  25.857  1.00  0.00     0.040 A 
HETATM    9  C8  UNL     1      30.810  98.790  26.168  1.00  0.00     0.103 A 
HETATM   10  C9  UNL     1      30.112  97.647  26.374  1.00  0.00     0.114 A 
HETATM   11  O2  UNL     1      30.814  96.492  26.684  1.00  0.00    -0.345 OA
HETATM   12  C10 UNL     1      32.222  96.364  26.522  1.00  0.00     0.202 C 
HETATM   13  C11 UNL     1      32.915  97.666  26.756  1.00  0.00     0.202 C 
HETATM   14  O3  UNL     1      32.189  98.774  26.272  1.00  0.00    -0.346 OA
HETATM   15  C12 UNL     1      26.736  96.121  26.469  1.00  0.00     0.033 A 
HETATM   16  C13 UNL     1      26.132  94.869  26.706  1.00  0.00     0.036 A 
HETATM   17  C14 UNL     1      26.914  93.787  27.007  1.00  0.00     0.084 A 
ENDROOT
BRANCH  17  18
HETATM   18  N2  UNL     1      26.378  92.508  27.219  1.00  0.00    -0.353 N 
ATOM     19  H2  UNL     1      26.602  91.812  26.508  1.00  0.00     0.166 HD
BRANCH  18  20
HETATM   20  C15 UNL     1      25.574  92.056  28.279  1.00  0.00     0.032 A 
HETATM   21  C16 UNL     1      25.355  92.731  29.447  1.00  0.00     0.030 A 
HETATM   22  C17 UNL     1      24.514  92.248  30.457  1.00  0.00     0.011 A 
HETATM   23  C18 UNL     1      23.876  91.055  30.290  1.00  0.00    -0.030 A 
HETATM   24  C22 UNL     1      24.071  90.345  29.129  1.00  0.00     0.011 A 
HETATM   25  C23 UNL     1      24.901  90.835  28.145  1.00  0.00     0.030 A 
BRANCH  23  26
HETATM   26  C19 UNL     1      22.964  90.459  31.304  1.00  0.00     0.309 C 
BRANCH  26  27
HETATM   27  N3  UNL     1      21.603  90.798  30.928  1.00  0.00     0.084 N 
HETATM   28  C20 UNL     1      20.833  89.569  30.872  1.00  0.00     0.309 C 
HETATM   29  C21 UNL     1      21.078  91.715  31.921  1.00  0.00     0.309 C 
ENDBRANCH  26  27
ENDBRANCH  23  26
ENDBRANCH  18  20
ENDBRANCH  17  18
BRANCH   1  30
HETATM   30  O1  UNL     1      29.126  92.918  27.363  1.00  0.00    -0.339 OA
HETATM   31  C1  UNL     1      30.487  92.898  27.037  1.00  0.00     0.211 C 
ENDBRANCH   1  30
TORSDOF 5
ENDMDL
