MODEL 13
REMARK VINA RESULT: -6.420013587      2.651      9.391
REMARK  5 active torsions:
REMARK  status: ('A' for Active; 'I' for Inactive)
REMARK    1  A    between atoms: O1_2  and  C2_3 
REMARK    2  A    between atoms: C14_19  and  N2_20 
REMARK    3  A    between atoms: N2_20  and  C15_22 
REMARK    4  A    between atoms: C18_25  and  C19_26 
REMARK    5  A    between atoms: C19_26  and  N3_27 
ROOT
HETATM    1  C2  UNL     1      33.384  96.759  29.483  1.00  0.00     0.169 A 
HETATM    2  N1  UNL     1      34.635  96.271  29.701  1.00  0.00    -0.334 N 
ATOM      3  H1  UNL     1      34.852  95.844  30.601  1.00  0.00     0.168 HD
HETATM    4  C3  UNL     1      35.587  96.338  28.763  1.00  0.00     0.047 A 
HETATM    5  C4  UNL     1      36.904  95.811  29.024  1.00  0.00     0.027 A 
HETATM    6  C5  UNL     1      37.942  95.833  28.132  1.00  0.00     0.017 A 
HETATM    7  C6  UNL     1      39.188  95.296  28.478  1.00  0.00     0.004 A 
HETATM    8  C7  UNL     1      39.419  94.732  29.714  1.00  0.00     0.040 A 
HETATM    9  C8  UNL     1      38.372  94.703  30.630  1.00  0.00     0.103 A 
HETATM   10  C9  UNL     1      37.177  95.230  30.269  1.00  0.00     0.114 A 
HETATM   11  O2  UNL     1      36.139  95.198  31.187  1.00  0.00    -0.345 OA
HETATM   12  C10 UNL     1      36.159  94.403  32.367  1.00  0.00     0.202 C 
HETATM   13  C11 UNL     1      37.546  94.265  32.902  1.00  0.00     0.202 C 
HETATM   14  O3  UNL     1      38.522  94.155  31.890  1.00  0.00    -0.346 OA
HETATM   15  C12 UNL     1      35.289  96.911  27.559  1.00  0.00     0.033 A 
HETATM   16  C13 UNL     1      33.999  97.424  27.311  1.00  0.00     0.036 A 
HETATM   17  C14 UNL     1      33.040  97.346  28.284  1.00  0.00     0.084 A 
ENDROOT
BRANCH  17  18
HETATM   18  N2  UNL     1      31.729  97.805  28.087  1.00  0.00    -0.353 N 
ATOM     19  H2  UNL     1      31.531  98.740  28.441  1.00  0.00     0.166 HD
BRANCH  18  20
HETATM   20  C15 UNL     1      30.653  97.149  27.466  1.00  0.00     0.032 A 
HETATM   21  C16 UNL     1      29.680  97.758  26.723  1.00  0.00     0.030 A 
HETATM   22  C17 UNL     1      28.648  97.049  26.096  1.00  0.00     0.011 A 
HETATM   23  C18 UNL     1      28.590  95.693  26.220  1.00  0.00    -0.030 A 
HETATM   24  C22 UNL     1      29.549  95.043  26.960  1.00  0.00     0.011 A 
HETATM   25  C23 UNL     1      30.559  95.755  27.570  1.00  0.00     0.030 A 
BRANCH  23  26
HETATM   26  C19 UNL     1      27.533  94.852  25.593  1.00  0.00     0.309 C 
BRANCH  26  27
HETATM   27  N3  UNL     1      26.819  94.172  26.658  1.00  0.00     0.084 N 
HETATM   28  C20 UNL     1      25.833  95.092  27.196  1.00  0.00     0.309 C 
HETATM   29  C21 UNL     1      26.197  92.988  26.098  1.00  0.00     0.309 C 
ENDBRANCH  26  27
ENDBRANCH  23  26
ENDBRANCH  18  20
ENDBRANCH  17  18
BRANCH   1  30
HETATM   30  O1  UNL     1      32.461  96.648  30.510  1.00  0.00    -0.339 OA
HETATM   31  C1  UNL     1      32.809  96.448  31.850  1.00  0.00     0.211 C 
ENDBRANCH   1  30
TORSDOF 5
ENDMDL
