MODEL 2
REMARK VINA RESULT: -7.264931203      2.690      9.334
REMARK  5 active torsions:
REMARK  status: ('A' for Active; 'I' for Inactive)
REMARK    1  A    between atoms: O1_2  and  C2_3 
REMARK    2  A    between atoms: C14_19  and  N2_20 
REMARK    3  A    between atoms: N2_20  and  C15_22 
REMARK    4  A    between atoms: C18_25  and  C19_26 
REMARK    5  A    between atoms: C19_26  and  N3_27 
ROOT
HETATM    1  C2  UNL     1      32.188  96.882  28.479  1.00  0.00     0.169 A 
HETATM    2  N1  UNL     1      33.405  96.500  28.952  1.00  0.00    -0.334 N 
ATOM      3  H1  UNL     1      33.475  96.121  29.896  1.00  0.00     0.168 HD
HETATM    4  C3  UNL     1      34.512  96.610  28.208  1.00  0.00     0.047 A 
HETATM    5  C4  UNL     1      35.789  96.197  28.738  1.00  0.00     0.027 A 
HETATM    6  C5  UNL     1      36.974  96.270  28.058  1.00  0.00     0.017 A 
HETATM    7  C6  UNL     1      38.165  95.844  28.657  1.00  0.00     0.004 A 
HETATM    8  C7  UNL     1      38.193  95.340  29.940  1.00  0.00     0.040 A 
HETATM    9  C8  UNL     1      36.996  95.259  30.642  1.00  0.00     0.103 A 
HETATM   10  C9  UNL     1      35.858  95.679  30.037  1.00  0.00     0.114 A 
HETATM   11  O2  UNL     1      34.668  95.597  30.744  1.00  0.00    -0.345 OA
HETATM   12  C10 UNL     1      34.518  94.844  31.942  1.00  0.00     0.202 C 
HETATM   13  C11 UNL     1      35.782  94.833  32.736  1.00  0.00     0.202 C 
HETATM   14  O3  UNL     1      36.939  94.766  31.932  1.00  0.00    -0.346 OA
HETATM   15  C12 UNL     1      34.411  97.119  26.944  1.00  0.00     0.033 A 
HETATM   16  C13 UNL     1      33.159  97.521  26.433  1.00  0.00     0.036 A 
HETATM   17  C14 UNL     1      32.040  97.400  27.211  1.00  0.00     0.084 A 
ENDROOT
BRANCH  17  18
HETATM   18  N2  UNL     1      30.762  97.749  26.749  1.00  0.00    -0.353 N 
ATOM     19  H2  UNL     1      30.632  98.732  26.511  1.00  0.00     0.166 HD
BRANCH  18  20
HETATM   20  C15 UNL     1      29.638  96.926  26.569  1.00  0.00     0.032 A 
HETATM   21  C16 UNL     1      29.661  95.561  26.500  1.00  0.00     0.030 A 
HETATM   22  C17 UNL     1      28.502  94.788  26.355  1.00  0.00     0.011 A 
HETATM   23  C18 UNL     1      27.288  95.402  26.274  1.00  0.00    -0.030 A 
HETATM   24  C22 UNL     1      27.222  96.774  26.338  1.00  0.00     0.011 A 
HETATM   25  C23 UNL     1      28.372  97.520  26.483  1.00  0.00     0.030 A 
BRANCH  23  26
HETATM   26  C19 UNL     1      26.002  94.669  26.119  1.00  0.00     0.309 C 
BRANCH  26  27
HETATM   27  N3  UNL     1      26.299  93.376  25.530  1.00  0.00     0.084 N 
HETATM   28  C20 UNL     1      26.039  92.356  26.531  1.00  0.00     0.309 C 
HETATM   29  C21 UNL     1      25.455  93.209  24.364  1.00  0.00     0.309 C 
ENDBRANCH  26  27
ENDBRANCH  23  26
ENDBRANCH  18  20
ENDBRANCH  17  18
BRANCH   1  30
HETATM   30  O1  UNL     1      31.095  96.732  29.317  1.00  0.00    -0.339 OA
HETATM   31  C1  UNL     1      30.909  95.634  30.164  1.00  0.00     0.211 C 
ENDBRANCH   1  30
TORSDOF 5
ENDMDL
