MODEL 7
REMARK VINA RESULT: -6.926141460      1.375      1.699
REMARK  5 active torsions:
REMARK  status: ('A' for Active; 'I' for Inactive)
REMARK    1  A    between atoms: O1_2  and  C2_3 
REMARK    2  A    between atoms: C14_19  and  N2_20 
REMARK    3  A    between atoms: N2_20  and  C15_22 
REMARK    4  A    between atoms: C18_25  and  C19_26 
REMARK    5  A    between atoms: C19_26  and  N3_27 
ROOT
HETATM    1  C2  UNL     1      32.921  95.215  28.158  1.00  0.00     0.169 A 
HETATM    2  N1  UNL     1      31.875  95.911  27.638  1.00  0.00    -0.334 N 
ATOM      3  H1  UNL     1      30.965  95.456  27.558  1.00  0.00     0.168 HD
HETATM    4  C3  UNL     1      32.009  97.178  27.229  1.00  0.00     0.047 A 
HETATM    5  C4  UNL     1      30.880  97.890  26.681  1.00  0.00     0.027 A 
HETATM    6  C5  UNL     1      30.917  99.184  26.237  1.00  0.00     0.017 A 
HETATM    7  C6  UNL     1      29.767  99.791  25.719  1.00  0.00     0.004 A 
HETATM    8  C7  UNL     1      28.565  99.120  25.637  1.00  0.00     0.040 A 
HETATM    9  C8  UNL     1      28.514  97.805  26.086  1.00  0.00     0.103 A 
HETATM   10  C9  UNL     1      29.643  97.242  26.582  1.00  0.00     0.114 A 
HETATM   11  O2  UNL     1      29.584  95.930  27.027  1.00  0.00    -0.345 OA
HETATM   12  C10 UNL     1      28.364  95.235  27.261  1.00  0.00     0.202 C 
HETATM   13  C11 UNL     1      27.297  95.682  26.317  1.00  0.00     0.202 C 
HETATM   14  O3  UNL     1      27.347  97.064  26.039  1.00  0.00    -0.346 OA
HETATM   15  C12 UNL     1      33.230  97.782  27.340  1.00  0.00     0.033 A 
HETATM   16  C13 UNL     1      34.329  97.079  27.876  1.00  0.00     0.036 A 
HETATM   17  C14 UNL     1      34.169  95.784  28.288  1.00  0.00     0.084 A 
ENDROOT
BRANCH  17  18
HETATM   18  N2  UNL     1      35.213  95.044  28.862  1.00  0.00    -0.353 N 
ATOM     19  H2  UNL     1      35.055  94.724  29.817  1.00  0.00     0.166 HD
BRANCH  18  20
HETATM   20  C15 UNL     1      36.449  94.683  28.298  1.00  0.00     0.032 A 
HETATM   21  C16 UNL     1      36.855  93.404  28.038  1.00  0.00     0.030 A 
HETATM   22  C17 UNL     1      38.086  93.104  27.441  1.00  0.00     0.011 A 
HETATM   23  C18 UNL     1      38.932  94.116  27.096  1.00  0.00    -0.030 A 
HETATM   24  C22 UNL     1      38.560  95.417  27.341  1.00  0.00     0.011 A 
HETATM   25  C23 UNL     1      37.345  95.695  27.929  1.00  0.00     0.030 A 
BRANCH  23  26
HETATM   26  C19 UNL     1      40.259  93.900  26.458  1.00  0.00     0.309 C 
BRANCH  26  27
HETATM   27  N3  UNL     1      40.307  92.526  25.993  1.00  0.00     0.084 N 
HETATM   28  C20 UNL     1      40.375  92.544  24.543  1.00  0.00     0.309 C 
HETATM   29  C21 UNL     1      41.474  91.894  26.576  1.00  0.00     0.309 C 
ENDBRANCH  26  27
ENDBRANCH  23  26
ENDBRANCH  18  20
ENDBRANCH  17  18
BRANCH   1  30
HETATM   30  O1  UNL     1      32.692  93.908  28.557  1.00  0.00    -0.339 OA
HETATM   31  C1  UNL     1      31.610  93.138  28.113  1.00  0.00     0.211 C 
ENDBRANCH   1  30
TORSDOF 5
ENDMDL
