MODEL 3
REMARK VINA RESULT: -7.169877953      0.717      1.331
REMARK  5 active torsions:
REMARK  status: ('A' for Active; 'I' for Inactive)
REMARK    1  A    between atoms: O1_2  and  C2_3 
REMARK    2  A    between atoms: C14_19  and  N2_20 
REMARK    3  A    between atoms: N2_20  and  C15_22 
REMARK    4  A    between atoms: C18_25  and  C19_26 
REMARK    5  A    between atoms: C19_26  and  N3_27 
ROOT
HETATM    1  C2  UNL     1      32.874  95.114  28.106  1.00  0.00     0.169 A 
HETATM    2  N1  UNL     1      31.848  95.855  27.609  1.00  0.00    -0.334 N 
ATOM      3  H1  UNL     1      30.924  95.431  27.524  1.00  0.00     0.168 HD
HETATM    4  C3  UNL     1      32.020  97.126  27.229  1.00  0.00     0.047 A 
HETATM    5  C4  UNL     1      30.911  97.886  26.706  1.00  0.00     0.027 A 
HETATM    6  C5  UNL     1      30.986  99.188  26.291  1.00  0.00     0.017 A 
HETATM    7  C6  UNL     1      29.853  99.844  25.796  1.00  0.00     0.004 A 
HETATM    8  C7  UNL     1      28.630  99.214  25.706  1.00  0.00     0.040 A 
HETATM    9  C8  UNL     1      28.540  97.890  26.125  1.00  0.00     0.103 A 
HETATM   10  C9  UNL     1      29.653  97.280  26.600  1.00  0.00     0.114 A 
HETATM   11  O2  UNL     1      29.555  95.961  27.014  1.00  0.00    -0.345 OA
HETATM   12  C10 UNL     1      28.315  95.300  27.240  1.00  0.00     0.202 C 
HETATM   13  C11 UNL     1      27.258  95.802  26.314  1.00  0.00     0.202 C 
HETATM   14  O3  UNL     1      27.350  97.188  26.068  1.00  0.00    -0.346 OA
HETATM   15  C12 UNL     1      33.260  97.688  27.345  1.00  0.00     0.033 A 
HETATM   16  C13 UNL     1      34.340  96.939  27.857  1.00  0.00     0.036 A 
HETATM   17  C14 UNL     1      34.141  95.640  28.240  1.00  0.00     0.084 A 
ENDROOT
BRANCH  17  18
HETATM   18  N2  UNL     1      35.165  94.854  28.789  1.00  0.00    -0.353 N 
ATOM     19  H2  UNL     1      34.864  93.991  29.242  1.00  0.00     0.166 HD
BRANCH  18  20
HETATM   20  C15 UNL     1      36.549  95.095  28.800  1.00  0.00     0.032 A 
HETATM   21  C16 UNL     1      37.284  95.425  29.905  1.00  0.00     0.030 A 
HETATM   22  C17 UNL     1      38.670  95.620  29.864  1.00  0.00     0.011 A 
HETATM   23  C18 UNL     1      39.336  95.481  28.682  1.00  0.00    -0.030 A 
HETATM   24  C22 UNL     1      38.632  95.151  27.549  1.00  0.00     0.011 A 
HETATM   25  C23 UNL     1      37.269  94.961  27.606  1.00  0.00     0.030 A 
BRANCH  23  26
HETATM   26  C19 UNL     1      40.806  95.668  28.537  1.00  0.00     0.309 C 
BRANCH  26  27
HETATM   27  N3  UNL     1      41.374  95.754  29.870  1.00  0.00     0.084 N 
HETATM   28  C20 UNL     1      42.203  94.582  30.082  1.00  0.00     0.309 C 
HETATM   29  C21 UNL     1      42.146  96.979  29.951  1.00  0.00     0.309 C 
ENDBRANCH  26  27
ENDBRANCH  23  26
ENDBRANCH  18  20
ENDBRANCH  17  18
BRANCH   1  30
HETATM   30  O1  UNL     1      32.606  93.806  28.475  1.00  0.00    -0.339 OA
HETATM   31  C1  UNL     1      31.462  93.106  28.079  1.00  0.00     0.211 C 
ENDBRANCH   1  30
TORSDOF 5
ENDMDL
