MODEL 4
REMARK VINA RESULT: -7.118387360      1.077      1.360
REMARK  5 active torsions:
REMARK  status: ('A' for Active; 'I' for Inactive)
REMARK    1  A    between atoms: O1_2  and  C2_3 
REMARK    2  A    between atoms: C14_19  and  N2_20 
REMARK    3  A    between atoms: N2_20  and  C15_22 
REMARK    4  A    between atoms: C18_25  and  C19_26 
REMARK    5  A    between atoms: C19_26  and  N3_27 
ROOT
HETATM    1  C2  UNL     1      32.961  95.252  28.090  1.00  0.00     0.169 A 
HETATM    2  N1  UNL     1      31.891  95.930  27.595  1.00  0.00    -0.334 N 
ATOM      3  H1  UNL     1      30.986  95.462  27.545  1.00  0.00     0.168 HD
HETATM    4  C3  UNL     1      31.997  97.195  27.172  1.00  0.00     0.047 A 
HETATM    5  C4  UNL     1      30.844  97.887  26.651  1.00  0.00     0.027 A 
HETATM    6  C5  UNL     1      30.850  99.178  26.195  1.00  0.00     0.017 A 
HETATM    7  C6  UNL     1      29.678  99.766  25.706  1.00  0.00     0.004 A 
HETATM    8  C7  UNL     1      28.483  99.079  25.665  1.00  0.00     0.040 A 
HETATM    9  C8  UNL     1      28.462  97.767  26.126  1.00  0.00     0.103 A 
HETATM   10  C9  UNL     1      29.612  97.222  26.593  1.00  0.00     0.114 A 
HETATM   11  O2  UNL     1      29.584  95.914  27.051  1.00  0.00    -0.345 OA
HETATM   12  C10 UNL     1      28.380  95.206  27.325  1.00  0.00     0.202 C 
HETATM   13  C11 UNL     1      27.281  95.630  26.409  1.00  0.00     0.202 C 
HETATM   14  O3  UNL     1      27.305  97.011  26.118  1.00  0.00    -0.346 OA
HETATM   15  C12 UNL     1      33.213  97.815  27.242  1.00  0.00     0.033 A 
HETATM   16  C13 UNL     1      34.336  97.131  27.752  1.00  0.00     0.036 A 
HETATM   17  C14 UNL     1      34.205  95.838  28.179  1.00  0.00     0.084 A 
ENDROOT
BRANCH  17  18
HETATM   18  N2  UNL     1      35.275  95.116  28.728  1.00  0.00    -0.353 N 
ATOM     19  H2  UNL     1      35.112  94.721  29.654  1.00  0.00     0.166 HD
BRANCH  18  20
HETATM   20  C15 UNL     1      36.542  94.864  28.175  1.00  0.00     0.032 A 
HETATM   21  C16 UNL     1      37.497  95.810  27.926  1.00  0.00     0.030 A 
HETATM   22  C17 UNL     1      38.758  95.497  27.405  1.00  0.00     0.011 A 
HETATM   23  C18 UNL     1      39.069  94.199  27.126  1.00  0.00    -0.030 A 
HETATM   24  C22 UNL     1      38.136  93.219  27.362  1.00  0.00     0.011 A 
HETATM   25  C23 UNL     1      36.899  93.543  27.876  1.00  0.00     0.030 A 
BRANCH  23  26
HETATM   26  C19 UNL     1      40.381  93.767  26.571  1.00  0.00     0.309 C 
BRANCH  26  27
HETATM   27  N3  UNL     1      41.017  94.931  25.982  1.00  0.00     0.084 N 
HETATM   28  C20 UNL     1      42.356  95.039  26.533  1.00  0.00     0.309 C 
HETATM   29  C21 UNL     1      41.043  94.749  24.544  1.00  0.00     0.309 C 
ENDBRANCH  26  27
ENDBRANCH  23  26
ENDBRANCH  18  20
ENDBRANCH  17  18
BRANCH   1  30
HETATM   30  O1  UNL     1      32.761  93.945  28.506  1.00  0.00    -0.339 OA
HETATM   31  C1  UNL     1      31.664  93.166  28.120  1.00  0.00     0.211 C 
ENDBRANCH   1  30
TORSDOF 5
ENDMDL
