MODEL 5
REMARK VINA RESULT: -7.019847930      0.796      1.284
REMARK  5 active torsions:
REMARK  status: ('A' for Active; 'I' for Inactive)
REMARK    1  A    between atoms: O1_2  and  C2_3 
REMARK    2  A    between atoms: C14_19  and  N2_20 
REMARK    3  A    between atoms: N2_20  and  C15_22 
REMARK    4  A    between atoms: C18_25  and  C19_26 
REMARK    5  A    between atoms: C19_26  and  N3_27 
ROOT
HETATM    1  C2  UNL     1      33.484  95.080  28.334  1.00  0.00     0.169 A 
HETATM    2  N1  UNL     1      32.409  95.714  27.794  1.00  0.00    -0.334 N 
ATOM      3  H1  UNL     1      31.544  95.193  27.652  1.00  0.00     0.168 HD
HETATM    4  C3  UNL     1      32.459  97.004  27.443  1.00  0.00     0.047 A 
HETATM    5  C4  UNL     1      31.302  97.649  26.872  1.00  0.00     0.027 A 
HETATM    6  C5  UNL     1      31.254  98.960  26.482  1.00  0.00     0.017 A 
HETATM    7  C6  UNL     1      30.083  99.498  25.936  1.00  0.00     0.004 A 
HETATM    8  C7  UNL     1      28.943  98.739  25.771  1.00  0.00     0.040 A 
HETATM    9  C8  UNL     1      28.978  97.405  26.164  1.00  0.00     0.103 A 
HETATM   10  C9  UNL     1      30.126  96.911  26.689  1.00  0.00     0.114 A 
HETATM   11  O2  UNL     1      30.153  95.581  27.077  1.00  0.00    -0.345 OA
HETATM   12  C10 UNL     1      28.984  94.783  27.225  1.00  0.00     0.202 C 
HETATM   13  C11 UNL     1      27.927  95.186  26.251  1.00  0.00     0.202 C 
HETATM   14  O3  UNL     1      27.878  96.578  26.031  1.00  0.00    -0.346 OA
HETATM   15  C12 UNL     1      33.622  97.696  27.635  1.00  0.00     0.033 A 
HETATM   16  C13 UNL     1      34.749  97.059  28.194  1.00  0.00     0.036 A 
HETATM   17  C14 UNL     1      34.676  95.738  28.544  1.00  0.00     0.084 A 
ENDROOT
BRANCH  17  18
HETATM   18  N2  UNL     1      35.750  95.057  29.137  1.00  0.00    -0.353 N 
ATOM     19  H2  UNL     1      35.504  94.415  29.889  1.00  0.00     0.166 HD
BRANCH  18  20
HETATM   20  C15 UNL     1      37.119  95.142  28.833  1.00  0.00     0.032 A 
HETATM   21  C16 UNL     1      38.105  95.477  29.718  1.00  0.00     0.030 A 
HETATM   22  C17 UNL     1      39.461  95.511  29.368  1.00  0.00     0.011 A 
HETATM   23  C18 UNL     1      39.836  95.201  28.094  1.00  0.00    -0.030 A 
HETATM   24  C22 UNL     1      38.874  94.860  27.174  1.00  0.00     0.011 A 
HETATM   25  C23 UNL     1      37.544  94.830  27.535  1.00  0.00     0.030 A 
BRANCH  23  26
HETATM   26  C19 UNL     1      41.249  95.209  27.626  1.00  0.00     0.309 C 
BRANCH  26  27
HETATM   27  N3  UNL     1      41.570  96.562  27.213  1.00  0.00     0.084 N 
HETATM   28  C20 UNL     1      42.600  97.071  28.101  1.00  0.00     0.309 C 
HETATM   29  C21 UNL     1      42.025  96.516  25.837  1.00  0.00     0.309 C 
ENDBRANCH  26  27
ENDBRANCH  23  26
ENDBRANCH  18  20
ENDBRANCH  17  18
BRANCH   1  30
HETATM   30  O1  UNL     1      33.343  93.742  28.668  1.00  0.00    -0.339 OA
HETATM   31  C1  UNL     1      32.308  92.928  28.196  1.00  0.00     0.211 C 
ENDBRANCH   1  30
TORSDOF 5
ENDMDL
