MODEL 17
REMARK VINA RESULT: -6.743691691      3.251      8.134
REMARK  5 active torsions:
REMARK  status: ('A' for Active; 'I' for Inactive)
REMARK    1  A    between atoms: C7_7  and  N1_8 
REMARK       I    between atoms: N1_8  and  C8_10 
REMARK       I    between atoms: C8_10  and  N2_12 
REMARK    2  A    between atoms: N2_12  and  C9_14 
REMARK    3  A    between atoms: C11_16  and  S1_17 
REMARK    4  A    between atoms: S1_17  and  N3_18 
REMARK    5  A    between atoms: C14_25  and  O4_26 
ROOT
HETATM    1  C9  UNL     1      11.573  36.400  12.962  1.00  0.00     0.071 A 
HETATM    2  C10 UNL     1      10.273  36.015  12.982  1.00  0.00     0.057 A 
HETATM    3  C11 UNL     1       9.342  36.562  12.084  1.00  0.00     0.081 A 
HETATM    4  C12 UNL     1       9.712  37.495  11.163  1.00  0.00     0.028 A 
HETATM    5  C13 UNL     1      11.018  37.907  11.114  1.00  0.00     0.040 A 
HETATM    6  C14 UNL     1      11.910  37.362  11.998  1.00  0.00     0.092 A 
ENDROOT
BRANCH   1   7
HETATM    7  N2  UNL     1      12.615  35.939  13.799  1.00  0.00    -0.306 N 
HETATM    8  C8  UNL     1      12.588  35.850  15.209  1.00  0.00     0.325 C 
HETATM    9  N1  UNL     1      13.706  35.368  15.951  1.00  0.00    -0.308 N 
HETATM   10  O1  UNL     1      11.546  36.210  15.788  1.00  0.00    -0.247 OA
ATOM     11  H1  UNL     1      14.534  35.087  15.428  1.00  0.00     0.170 HD
ATOM     12  H2  UNL     1      13.474  35.641  13.337  1.00  0.00     0.171 HD
BRANCH   9  13
HETATM   13  C7  UNL     1      13.750  35.250  17.355  1.00  0.00     0.042 A 
HETATM   14  C5  UNL     1      13.361  34.006  17.885  1.00  0.00    -0.035 A 
HETATM   15  C4  UNL     1      13.385  33.835  19.235  1.00  0.00     0.009 A 
HETATM   16  C6  UNL     1      12.938  32.932  16.942  1.00  0.00     0.050 C 
HETATM   17  C3  UNL     1      13.779  34.841  20.091  1.00  0.00     0.007 A 
HETATM   18  C2  UNL     1      14.167  36.069  19.615  1.00  0.00    -0.060 A 
HETATM   19  C1  UNL     1      14.597  37.175  20.505  1.00  0.00     0.048 C 
HETATM   20  C15 UNL     1      14.140  36.243  18.223  1.00  0.00     0.037 A 
ENDBRANCH   9  13
ENDBRANCH   1   7
BRANCH   6  21
HETATM   21  O4  UNL     1      13.217  37.803  11.918  1.00  0.00    -0.358 OA
ATOM     22  H4  UNL     1      13.391  38.737  11.923  1.00  0.00     0.217 HD
ENDBRANCH   6  21
BRANCH   3  23
HETATM   23  S1  UNL     1       7.675  36.034  12.149  1.00  0.00     0.256 S 
HETATM   24  O2  UNL     1       7.426  34.882  11.201  1.00  0.00    -0.201 OA
HETATM   25  O3  UNL     1       7.328  35.562  13.530  1.00  0.00    -0.201 OA
BRANCH  23  26
HETATM   26  N3  UNL     1       6.694  37.368  11.662  1.00  0.00    -0.324 N 
ATOM     27  H32 UNL     1       5.682  37.346  11.535  1.00  0.00     0.169 HD
ATOM     28  H31 UNL     1       7.313  38.168  11.529  1.00  0.00     0.169 HD
ENDBRANCH  23  26
ENDBRANCH   3  23
TORSDOF 5
ENDMDL
