MODEL 15
REMARK VINA RESULT: -6.768013793      4.204      8.106
REMARK  5 active torsions:
REMARK  status: ('A' for Active; 'I' for Inactive)
REMARK    1  A    between atoms: C7_7  and  N1_8 
REMARK       I    between atoms: N1_8  and  C8_10 
REMARK       I    between atoms: C8_10  and  N2_12 
REMARK    2  A    between atoms: N2_12  and  C9_14 
REMARK    3  A    between atoms: C11_16  and  S1_17 
REMARK    4  A    between atoms: S1_17  and  N3_18 
REMARK    5  A    between atoms: C14_25  and  O4_26 
ROOT
HETATM    1  C9  UNL     1      12.887  37.795  11.287  1.00  0.00     0.071 A 
HETATM    2  C10 UNL     1      13.906  36.991  10.899  1.00  0.00     0.057 A 
HETATM    3  C11 UNL     1      14.485  37.118   9.626  1.00  0.00     0.081 A 
HETATM    4  C12 UNL     1      14.043  38.053   8.739  1.00  0.00     0.028 A 
HETATM    5  C13 UNL     1      13.013  38.883   9.098  1.00  0.00     0.040 A 
HETATM    6  C14 UNL     1      12.463  38.742  10.343  1.00  0.00     0.092 A 
ENDROOT
BRANCH   1   7
HETATM    7  N2  UNL     1      12.211  37.781  12.529  1.00  0.00    -0.306 N 
HETATM    8  C8  UNL     1      12.037  36.670  13.384  1.00  0.00     0.325 C 
HETATM    9  N1  UNL     1      11.332  36.776  14.619  1.00  0.00    -0.308 N 
HETATM   10  O1  UNL     1      12.524  35.583  13.020  1.00  0.00    -0.247 OA
ATOM     11  H1  UNL     1      10.953  37.689  14.869  1.00  0.00     0.170 HD
ATOM     12  H2  UNL     1      11.807  38.666  12.840  1.00  0.00     0.171 HD
BRANCH   9  13
HETATM   13  C7  UNL     1      11.122  35.714  15.521  1.00  0.00     0.042 A 
HETATM   14  C5  UNL     1       9.802  35.236  15.618  1.00  0.00    -0.035 A 
HETATM   15  C4  UNL     1       9.540  34.210  16.472  1.00  0.00     0.009 A 
HETATM   16  C6  UNL     1       8.750  35.877  14.778  1.00  0.00     0.050 C 
HETATM   17  C3  UNL     1      10.526  33.630  17.240  1.00  0.00     0.007 A 
HETATM   18  C2  UNL     1      11.827  34.066  17.175  1.00  0.00    -0.060 A 
HETATM   19  C1  UNL     1      12.915  33.466  17.986  1.00  0.00     0.048 C 
HETATM   20  C15 UNL     1      12.094  35.124  16.294  1.00  0.00     0.037 A 
ENDBRANCH   9  13
ENDBRANCH   1   7
BRANCH   6  21
HETATM   21  O4  UNL     1      11.427  39.597  10.669  1.00  0.00    -0.358 OA
ATOM     22  H4  UNL     1      11.597  40.531  10.718  1.00  0.00     0.217 HD
ENDBRANCH   6  21
BRANCH   3  23
HETATM   23  S1  UNL     1      15.799  36.057   9.170  1.00  0.00     0.256 S 
HETATM   24  O2  UNL     1      16.492  35.486  10.387  1.00  0.00    -0.201 OA
HETATM   25  O3  UNL     1      15.284  34.901   8.365  1.00  0.00    -0.201 OA
BRANCH  23  26
HETATM   26  N3  UNL     1      16.938  37.001   8.281  1.00  0.00    -0.324 N 
ATOM     27  H32 UNL     1      17.391  37.853   8.614  1.00  0.00     0.169 HD
ATOM     28  H31 UNL     1      17.066  36.550   7.376  1.00  0.00     0.169 HD
ENDBRANCH  23  26
ENDBRANCH   3  23
TORSDOF 5
ENDMDL
