MODEL 14
REMARK VINA RESULT: -6.825479051      3.314      8.028
REMARK  5 active torsions:
REMARK  status: ('A' for Active; 'I' for Inactive)
REMARK    1  A    between atoms: C7_7  and  N1_8 
REMARK       I    between atoms: N1_8  and  C8_10 
REMARK       I    between atoms: C8_10  and  N2_12 
REMARK    2  A    between atoms: N2_12  and  C9_14 
REMARK    3  A    between atoms: C11_16  and  S1_17 
REMARK    4  A    between atoms: S1_17  and  N3_18 
REMARK    5  A    between atoms: C14_25  and  O4_26 
ROOT
HETATM    1  C9  UNL     1      12.204  36.125  13.205  1.00  0.00     0.071 A 
HETATM    2  C10 UNL     1      12.476  37.083  12.285  1.00  0.00     0.057 A 
HETATM    3  C11 UNL     1      11.488  37.535  11.396  1.00  0.00     0.081 A 
HETATM    4  C12 UNL     1      10.223  37.029  11.428  1.00  0.00     0.028 A 
HETATM    5  C13 UNL     1       9.912  36.059  12.345  1.00  0.00     0.040 A 
HETATM    6  C14 UNL     1      10.891  35.632  13.203  1.00  0.00     0.092 A 
ENDROOT
BRANCH   1   7
HETATM    7  N2  UNL     1      13.093  35.576  14.157  1.00  0.00    -0.306 N 
HETATM    8  C8  UNL     1      13.014  35.711  15.562  1.00  0.00     0.325 C 
HETATM    9  N1  UNL     1      13.973  35.109  16.428  1.00  0.00    -0.308 N 
HETATM   10  O1  UNL     1      12.070  36.379  16.023  1.00  0.00    -0.247 OA
ATOM     11  H1  UNL     1      14.726  34.572  15.998  1.00  0.00     0.170 HD
ATOM     12  H2  UNL     1      13.870  35.025  13.793  1.00  0.00     0.171 HD
BRANCH   9  13
HETATM   13  C7  UNL     1      13.958  35.199  17.835  1.00  0.00     0.042 A 
HETATM   14  C5  UNL     1      13.487  34.067  18.523  1.00  0.00    -0.035 A 
HETATM   15  C4  UNL     1      13.450  34.097  19.883  1.00  0.00     0.009 A 
HETATM   16  C6  UNL     1      13.048  32.883  17.730  1.00  0.00     0.050 C 
HETATM   17  C3  UNL     1      13.860  35.201  20.599  1.00  0.00     0.007 A 
HETATM   18  C2  UNL     1      14.327  36.327  19.966  1.00  0.00    -0.060 A 
HETATM   19  C1  UNL     1      14.777  37.533  20.703  1.00  0.00     0.048 C 
HETATM   20  C15 UNL     1      14.363  36.292  18.564  1.00  0.00     0.037 A 
ENDBRANCH   9  13
ENDBRANCH   1   7
BRANCH   6  21
HETATM   21  O4  UNL     1      10.539  34.654  14.113  1.00  0.00    -0.358 OA
ATOM     22  H4  UNL     1       9.758  34.773  14.641  1.00  0.00     0.217 HD
ENDBRANCH   6  21
BRANCH   3  23
HETATM   23  S1  UNL     1      11.887  38.772  10.225  1.00  0.00     0.256 S 
HETATM   24  O2  UNL     1      13.349  39.149  10.300  1.00  0.00    -0.201 OA
HETATM   25  O3  UNL     1      11.621  38.282   8.833  1.00  0.00    -0.201 OA
BRANCH  23  26
HETATM   26  N3  UNL     1      10.940  40.164  10.606  1.00  0.00    -0.324 N 
ATOM     27  H32 UNL     1      10.236  40.220  11.342  1.00  0.00     0.169 HD
ATOM     28  H31 UNL     1      11.217  40.906   9.963  1.00  0.00     0.169 HD
ENDBRANCH  23  26
ENDBRANCH   3  23
TORSDOF 5
ENDMDL
