MODEL 7
REMARK VINA RESULT: -6.992100941      1.525      2.939
REMARK  2 active torsions:
REMARK  status: ('A' for Active; 'I' for Inactive)
REMARK    1  A    between atoms: O1_1  and  C1_3 
REMARK    2  A    between atoms: C10_12  and  O2_13 
ROOT
HETATM    1  C1  UNL     1      63.838  60.726-123.425  1.00  0.00     0.099 A 
HETATM    2  C2  UNL     1      64.697  60.129-124.315  1.00  0.00     0.051 A 
HETATM    3  C3  UNL     1      64.387  58.858-124.743  1.00  0.00    -0.023 A 
HETATM    4  C4  UNL     1      65.226  58.216-125.642  1.00  0.00     0.012 A 
HETATM    5  C5  UNL     1      64.967  56.942-126.106  1.00  0.00     0.001 A 
HETATM    6  C6  UNL     1      63.839  56.258-125.676  1.00  0.00     0.001 A 
HETATM    7  C7  UNL     1      63.005  56.906-124.778  1.00  0.00     0.012 A 
HETATM    8  C8  UNL     1      63.267  58.182-124.315  1.00  0.00    -0.023 A 
HETATM    9  C9  UNL     1      62.441  58.830-123.421  1.00  0.00     0.051 A 
HETATM   10  C10 UNL     1      62.693  60.094-122.959  1.00  0.00     0.099 A 
ENDROOT
BRANCH   1  11
HETATM   11  O1  UNL     1      64.110  61.999-122.970  1.00  0.00    -0.358 OA
ATOM     12  H1  UNL     1      64.724  62.118-122.255  1.00  0.00     0.217 HD
ENDBRANCH   1  11
BRANCH  10  13
HETATM   13  O2  UNL     1      61.878  60.769-122.059  1.00  0.00    -0.358 OA
ATOM     14  H2  UNL     1      62.187  60.893-121.168  1.00  0.00     0.217 HD
ENDBRANCH  10  13
TORSDOF 2
ENDMDL
