MODEL 6
REMARK VINA RESULT: -7.011333188      1.523      2.427
REMARK  2 active torsions:
REMARK  status: ('A' for Active; 'I' for Inactive)
REMARK    1  A    between atoms: O1_1  and  C1_3 
REMARK    2  A    between atoms: C10_12  and  O2_13 
ROOT
HETATM    1  C1  UNL     1      62.737  60.121-122.955  1.00  0.00     0.099 A 
HETATM    2  C2  UNL     1      62.423  58.861-123.399  1.00  0.00     0.051 A 
HETATM    3  C3  UNL     1      63.281  58.270-124.299  1.00  0.00    -0.023 A 
HETATM    4  C4  UNL     1      63.003  56.997-124.773  1.00  0.00     0.012 A 
HETATM    5  C5  UNL     1      63.826  56.354-125.676  1.00  0.00     0.001 A 
HETATM    6  C6  UNL     1      64.975  56.979-126.141  1.00  0.00     0.001 A 
HETATM    7  C7  UNL     1      65.247  58.251-125.661  1.00  0.00     0.012 A 
HETATM    8  C8  UNL     1      64.420  58.892-124.757  1.00  0.00    -0.023 A 
HETATM    9  C9  UNL     1      64.686  60.158-124.278  1.00  0.00     0.051 A 
HETATM   10  C10 UNL     1      63.872  60.798-123.383  1.00  0.00     0.099 A 
ENDROOT
BRANCH   1  11
HETATM   11  O1  UNL     1      61.905  60.751-122.054  1.00  0.00    -0.358 OA
ATOM     12  H1  UNL     1      62.249  61.450-121.510  1.00  0.00     0.217 HD
ENDBRANCH   1  11
BRANCH  10  13
HETATM   13  O2  UNL     1      64.116  62.072-122.884  1.00  0.00    -0.358 OA
ATOM     14  H2  UNL     1      64.658  62.162-122.108  1.00  0.00     0.217 HD
ENDBRANCH  10  13
TORSDOF 2
ENDMDL
