MODEL 15
REMARK VINA RESULT: -6.473763652      1.905      2.819
REMARK  2 active torsions:
REMARK  status: ('A' for Active; 'I' for Inactive)
REMARK    1  A    between atoms: O1_1  and  C1_3 
REMARK    2  A    between atoms: C10_12  and  O2_13 
ROOT
HETATM    1  C1  UNL     1      66.117  63.550-122.177  1.00  0.00     0.099 A 
HETATM    2  C2  UNL     1      65.056  62.680-122.138  1.00  0.00     0.051 A 
HETATM    3  C3  UNL     1      65.030  61.665-123.069  1.00  0.00    -0.023 A 
HETATM    4  C4  UNL     1      63.977  60.762-123.066  1.00  0.00     0.012 A 
HETATM    5  C5  UNL     1      63.897  59.726-123.975  1.00  0.00     0.001 A 
HETATM    6  C6  UNL     1      64.888  59.558-124.932  1.00  0.00     0.001 A 
HETATM    7  C7  UNL     1      65.938  60.464-124.927  1.00  0.00     0.012 A 
HETATM    8  C8  UNL     1      66.015  61.501-124.017  1.00  0.00    -0.023 A 
HETATM    9  C9  UNL     1      67.056  62.405-124.009  1.00  0.00     0.051 A 
HETATM   10  C10 UNL     1      67.139  63.434-123.110  1.00  0.00     0.099 A 
ENDROOT
BRANCH   1  11
HETATM   11  O1  UNL     1      66.183  64.580-121.264  1.00  0.00    -0.358 OA
ATOM     12  H1  UNL     1      65.743  65.401-121.453  1.00  0.00     0.217 HD
ENDBRANCH   1  11
BRANCH  10  13
HETATM   13  O2  UNL     1      68.177  64.358-123.080  1.00  0.00    -0.358 OA
ATOM     14  H2  UNL     1      68.104  65.107-122.500  1.00  0.00     0.217 HD
ENDBRANCH  10  13
TORSDOF 2
ENDMDL
