MODEL 17
REMARK VINA RESULT: -6.322284772      3.164      4.061
REMARK  2 active torsions:
REMARK  status: ('A' for Active; 'I' for Inactive)
REMARK    1  A    between atoms: O1_1  and  C1_3 
REMARK    2  A    between atoms: C10_12  and  O2_13 
ROOT
HETATM    1  C1  UNL     1      66.916  64.294-123.309  1.00  0.00     0.099 A 
HETATM    2  C2  UNL     1      65.751  63.986-123.968  1.00  0.00     0.051 A 
HETATM    3  C3  UNL     1      64.942  63.019-123.413  1.00  0.00    -0.023 A 
HETATM    4  C4  UNL     1      63.756  62.676-124.045  1.00  0.00     0.012 A 
HETATM    5  C5  UNL     1      62.906  61.714-123.536  1.00  0.00     0.001 A 
HETATM    6  C6  UNL     1      63.224  61.054-122.357  1.00  0.00     0.001 A 
HETATM    7  C7  UNL     1      64.411  61.403-121.732  1.00  0.00     0.012 A 
HETATM    8  C8  UNL     1      65.261  62.366-122.244  1.00  0.00    -0.023 A 
HETATM    9  C9  UNL     1      66.443  62.715-121.626  1.00  0.00     0.051 A 
HETATM   10  C10 UNL     1      67.288  63.669-122.127  1.00  0.00     0.099 A 
ENDROOT
BRANCH   1  11
HETATM   11  O1  UNL     1      67.755  65.256-123.830  1.00  0.00    -0.358 OA
ATOM     12  H1  UNL     1      67.481  65.753-124.591  1.00  0.00     0.217 HD
ENDBRANCH   1  11
BRANCH  10  13
HETATM   13  O2  UNL     1      68.484  64.040-121.525  1.00  0.00    -0.358 OA
ATOM     14  H2  UNL     1      68.505  64.834-121.003  1.00  0.00     0.217 HD
ENDBRANCH  10  13
TORSDOF 2
ENDMDL
