MODEL 10
REMARK VINA RESULT: -6.800912971      1.850      3.397
REMARK  2 active torsions:
REMARK  status: ('A' for Active; 'I' for Inactive)
REMARK    1  A    between atoms: O1_1  and  C1_3 
REMARK    2  A    between atoms: C10_12  and  O2_13 
ROOT
HETATM    1  C1  UNL     1      63.919  59.722-124.080  1.00  0.00     0.099 A 
HETATM    2  C2  UNL     1      64.750  58.915-124.817  1.00  0.00     0.051 A 
HETATM    3  C3  UNL     1      64.386  57.595-124.969  1.00  0.00    -0.023 A 
HETATM    4  C4  UNL     1      65.196  56.744-125.705  1.00  0.00     0.012 A 
HETATM    5  C5  UNL     1      64.883  55.412-125.891  1.00  0.00     0.001 A 
HETATM    6  C6  UNL     1      63.727  54.882-125.333  1.00  0.00     0.001 A 
HETATM    7  C7  UNL     1      62.923  55.740-124.599  1.00  0.00     0.012 A 
HETATM    8  C8  UNL     1      63.239  57.073-124.415  1.00  0.00    -0.023 A 
HETATM    9  C9  UNL     1      62.443  57.930-123.684  1.00  0.00     0.051 A 
HETATM   10  C10 UNL     1      62.749  59.251-123.498  1.00  0.00     0.099 A 
ENDROOT
BRANCH   1  11
HETATM   11  O1  UNL     1      64.245  61.050-123.903  1.00  0.00    -0.358 OA
ATOM     12  H1  UNL     1      63.831  61.710-124.447  1.00  0.00     0.217 HD
ENDBRANCH   1  11
BRANCH  10  13
HETATM   13  O2  UNL     1      61.965  60.135-122.767  1.00  0.00    -0.358 OA
ATOM     14  H2  UNL     1      61.364  60.704-123.234  1.00  0.00     0.217 HD
ENDBRANCH  10  13
TORSDOF 2
ENDMDL
