MODEL 16
REMARK VINA RESULT: -6.448727062      2.585      4.194
REMARK  2 active torsions:
REMARK  status: ('A' for Active; 'I' for Inactive)
REMARK    1  A    between atoms: O1_1  and  C1_3 
REMARK    2  A    between atoms: C10_12  and  O2_13 
ROOT
HETATM    1  C1  UNL     1      68.160  63.212-122.853  1.00  0.00     0.099 A 
HETATM    2  C2  UNL     1      67.636  62.347-123.782  1.00  0.00     0.051 A 
HETATM    3  C3  UNL     1      66.378  61.841-123.543  1.00  0.00    -0.023 A 
HETATM    4  C4  UNL     1      65.809  60.964-124.455  1.00  0.00     0.012 A 
HETATM    5  C5  UNL     1      64.552  60.425-124.269  1.00  0.00     0.001 A 
HETATM    6  C6  UNL     1      63.811  60.754-123.142  1.00  0.00     0.001 A 
HETATM    7  C7  UNL     1      64.386  61.632-122.236  1.00  0.00     0.012 A 
HETATM    8  C8  UNL     1      65.646  62.170-122.425  1.00  0.00    -0.023 A 
HETATM    9  C9  UNL     1      66.221  63.042-121.526  1.00  0.00     0.051 A 
HETATM   10  C10 UNL     1      67.468  63.579-121.707  1.00  0.00     0.099 A 
ENDROOT
BRANCH   1  11
HETATM   11  O1  UNL     1      69.417  63.742-123.052  1.00  0.00    -0.358 OA
ATOM     12  H1  UNL     1      70.050  63.261-123.573  1.00  0.00     0.217 HD
ENDBRANCH   1  11
BRANCH  10  13
HETATM   13  O2  UNL     1      68.071  64.460-120.817  1.00  0.00    -0.358 OA
ATOM     14  H2  UNL     1      69.014  64.422-120.707  1.00  0.00     0.217 HD
ENDBRANCH  10  13
TORSDOF 2
ENDMDL
