MODEL 4
REMARK VINA RESULT: -7.131598950      1.015      2.514
REMARK  2 active torsions:
REMARK  status: ('A' for Active; 'I' for Inactive)
REMARK    1  A    between atoms: O1_1  and  C1_3 
REMARK    2  A    between atoms: C10_12  and  O2_13 
ROOT
HETATM    1  C1  UNL     1      65.186  60.475-124.729  1.00  0.00     0.099 A 
HETATM    2  C2  UNL     1      65.443  59.256-125.306  1.00  0.00     0.051 A 
HETATM    3  C3  UNL     1      64.564  58.229-125.041  1.00  0.00    -0.023 A 
HETATM    4  C4  UNL     1      64.784  56.980-125.603  1.00  0.00     0.012 A 
HETATM    5  C5  UNL     1      63.938  55.914-125.374  1.00  0.00     0.001 A 
HETATM    6  C6  UNL     1      62.826  56.067-124.558  1.00  0.00     0.001 A 
HETATM    7  C7  UNL     1      62.613  57.319-124.001  1.00  0.00     0.012 A 
HETATM    8  C8  UNL     1      63.462  58.385-124.233  1.00  0.00    -0.023 A 
HETATM    9  C9  UNL     1      63.254  59.631-123.679  1.00  0.00     0.051 A 
HETATM   10  C10 UNL     1      64.090  60.692-123.905  1.00  0.00     0.099 A 
ENDROOT
BRANCH   1  11
HETATM   11  O1  UNL     1      66.040  61.531-124.967  1.00  0.00    -0.358 OA
ATOM     12  H1  UNL     1      65.888  62.096-125.716  1.00  0.00     0.217 HD
ENDBRANCH   1  11
BRANCH  10  13
HETATM   13  O2  UNL     1      63.904  61.957-123.361  1.00  0.00    -0.358 OA
ATOM     14  H2  UNL     1      63.571  62.027-122.473  1.00  0.00     0.217 HD
ENDBRANCH  10  13
TORSDOF 2
ENDMDL
