MODEL 2
REMARK VINA RESULT: -7.304475469      2.285      5.871
REMARK  8 active torsions:
REMARK  status: ('A' for Active; 'I' for Inactive)
REMARK    1  A    between atoms: N1_1  and  S1_4 
REMARK    2  A    between atoms: S1_4  and  C1_7 
REMARK    3  A    between atoms: C4_12  and  S2_13 
REMARK    4  A    between atoms: S2_13  and  C5_14 
REMARK    5  A    between atoms: C5_14  and  C6_15 
REMARK    6  A    between atoms: C6_15  and  O3_16 
REMARK    7  A    between atoms: C8_20  and  N2_21 
REMARK    8  A    between atoms: N2_21  and  C9_23 
ROOT
HETATM    1  C1  UNL     1     -29.240  12.894 -91.862  1.00  0.00     0.150 A 
HETATM    2  C2  UNL     1     -27.897  12.489 -91.940  1.00  0.00     0.181 A 
HETATM    3  F1  UNL     1     -27.353  11.693 -90.982  1.00  0.00    -0.201 F 
HETATM    4  C3  UNL     1     -27.096  12.885 -92.984  1.00  0.00     0.176 A 
HETATM    5  F2  UNL     1     -25.781  12.488 -93.062  1.00  0.00    -0.201 F 
HETATM    6  C4  UNL     1     -27.644  13.690 -93.955  1.00  0.00     0.083 A 
HETATM    7  C7  UNL     1     -28.985  14.092 -93.873  1.00  0.00     0.164 A 
HETATM    8  F3  UNL     1     -29.457  14.893 -94.861  1.00  0.00    -0.202 F 
HETATM    9  C8  UNL     1     -29.795  13.700 -92.831  1.00  0.00     0.095 A 
ENDROOT
BRANCH   9  10
HETATM   10  N2  UNL     1     -31.150  14.083 -92.736  1.00  0.00    -0.381 N 
ATOM     11  H2  UNL     1     -31.833  13.327 -92.706  1.00  0.00     0.160 HD
BRANCH  10  12
HETATM   12  C9  UNL     1     -31.677  15.425 -92.676  1.00  0.00     0.082 C 
HETATM   13  C10 UNL     1     -31.401  16.086 -91.366  1.00  0.00     0.025 C 
HETATM   14  C11 UNL     1     -32.470  16.995 -90.851  1.00  0.00     0.002 C 
HETATM   15  C12 UNL     1     -32.620  18.314 -91.494  1.00  0.00     0.000 C 
HETATM   16  C13 UNL     1     -31.964  18.516 -92.813  1.00  0.00     0.000 C 
HETATM   17  C14 UNL     1     -32.584  17.811 -93.957  1.00  0.00     0.000 C 
HETATM   18  C15 UNL     1     -33.589  16.776 -93.640  1.00  0.00     0.002 C 
HETATM   19  C16 UNL     1     -33.091  15.461 -93.124  1.00  0.00     0.025 C 
ENDBRANCH  10  12
ENDBRANCH   9  10
BRANCH   1  20
HETATM   20  S1  UNL     1     -30.113  12.370 -90.443  1.00  0.00     0.262 S 
HETATM   21  O1  UNL     1     -29.845  10.920 -90.160  1.00  0.00    -0.201 OA
HETATM   22  O2  UNL     1     -31.583  12.576 -90.696  1.00  0.00    -0.201 OA
BRANCH  20  23
HETATM   23  N1  UNL     1     -29.656  13.273 -89.077  1.00  0.00    -0.324 N 
ATOM     24  H12 UNL     1     -30.303  13.724 -88.429  1.00  0.00     0.169 HD
ATOM     25  H11 UNL     1     -28.638  13.280 -89.025  1.00  0.00     0.169 HD
ENDBRANCH  20  23
ENDBRANCH   1  20
BRANCH   6  26
HETATM   26  S2  UNL     1     -26.627  14.213 -95.315  1.00  0.00    -0.121 SA
BRANCH  26  27
HETATM   27  C5  UNL     1     -25.395  15.418 -94.794  1.00  0.00     0.105 C 
BRANCH  27  28
HETATM   28  C6  UNL     1     -24.450  15.776 -95.930  1.00  0.00     0.174 C 
BRANCH  28  29
HETATM   29  O3  UNL     1     -24.662  14.886 -96.976  1.00  0.00    -0.400 OA
ATOM     30  H3  UNL     1     -25.492  15.096 -97.387  1.00  0.00     0.209 HD
ENDBRANCH  28  29
ENDBRANCH  27  28
ENDBRANCH  26  27
ENDBRANCH   6  26
TORSDOF 8
ENDMDL
