MODEL 1
REMARK VINA RESULT: -7.677400576      0.000      0.000
REMARK  8 active torsions:
REMARK  status: ('A' for Active; 'I' for Inactive)
REMARK    1  A    between atoms: N1_1  and  S1_4 
REMARK    2  A    between atoms: S1_4  and  C1_7 
REMARK    3  A    between atoms: C4_12  and  S2_13 
REMARK    4  A    between atoms: S2_13  and  C5_14 
REMARK    5  A    between atoms: C5_14  and  C6_15 
REMARK    6  A    between atoms: C6_15  and  O3_16 
REMARK    7  A    between atoms: C8_20  and  N2_21 
REMARK    8  A    between atoms: N2_21  and  C9_23 
ROOT
HETATM    1  C1  UNL     1     -30.231  13.789 -92.249  1.00  0.00     0.150 A 
HETATM    2  C2  UNL     1     -30.378  14.610 -93.379  1.00  0.00     0.181 A 
HETATM    3  F1  UNL     1     -31.514  15.329 -93.575  1.00  0.00    -0.201 F 
HETATM    4  C3  UNL     1     -29.379  14.711 -94.318  1.00  0.00     0.176 A 
HETATM    5  F2  UNL     1     -29.520  15.515 -95.424  1.00  0.00    -0.201 F 
HETATM    6  C4  UNL     1     -28.227  13.984 -94.122  1.00  0.00     0.083 A 
HETATM    7  C7  UNL     1     -28.085  13.165 -92.992  1.00  0.00     0.164 A 
HETATM    8  F3  UNL     1     -26.927  12.471 -92.867  1.00  0.00    -0.202 F 
HETATM    9  C8  UNL     1     -29.080  13.059 -92.046  1.00  0.00     0.095 A 
ENDROOT
BRANCH   9  10
HETATM   10  N2  UNL     1     -28.953  12.251 -90.896  1.00  0.00    -0.381 N 
ATOM     11  H2  UNL     1     -29.676  12.359 -90.185  1.00  0.00     0.160 HD
BRANCH  10  12
HETATM   12  C9  UNL     1     -27.915  11.289 -90.614  1.00  0.00     0.082 C 
HETATM   13  C10 UNL     1     -28.450  10.042 -89.989  1.00  0.00     0.025 C 
HETATM   14  C11 UNL     1     -27.579   9.399 -88.960  1.00  0.00     0.002 C 
HETATM   15  C12 UNL     1     -26.389   8.663 -89.427  1.00  0.00     0.000 C 
HETATM   16  C13 UNL     1     -25.936   8.902 -90.823  1.00  0.00     0.000 C 
HETATM   17  C14 UNL     1     -25.309  10.218 -91.082  1.00  0.00     0.000 C 
HETATM   18  C15 UNL     1     -25.453  11.245 -90.030  1.00  0.00     0.002 C 
HETATM   19  C16 UNL     1     -26.781  11.925 -89.901  1.00  0.00     0.025 C 
ENDBRANCH  10  12
ENDBRANCH   9  10
BRANCH   1  20
HETATM   20  S1  UNL     1     -31.611  13.709 -91.180  1.00  0.00     0.262 S 
HETATM   21  O1  UNL     1     -31.635  14.891 -90.255  1.00  0.00    -0.201 OA
HETATM   22  O2  UNL     1     -31.509  12.437 -90.380  1.00  0.00    -0.201 OA
BRANCH  20  23
HETATM   23  N1  UNL     1     -33.065  13.692 -92.061  1.00  0.00    -0.324 N 
ATOM     24  H12 UNL     1     -33.824  14.365 -91.952  1.00  0.00     0.169 HD
ATOM     25  H11 UNL     1     -33.039  12.902 -92.704  1.00  0.00     0.169 HD
ENDBRANCH  20  23
ENDBRANCH   1  20
BRANCH   6  26
HETATM   26  S2  UNL     1     -26.923  14.100 -95.322  1.00  0.00    -0.121 SA
BRANCH  26  27
HETATM   27  C5  UNL     1     -25.551  15.096 -94.715  1.00  0.00     0.105 C 
BRANCH  27  28
HETATM   28  C6  UNL     1     -24.732  15.673 -95.860  1.00  0.00     0.174 C 
BRANCH  28  29
HETATM   29  O3  UNL     1     -24.780  14.784 -96.927  1.00  0.00    -0.400 OA
ATOM     30  H3  UNL     1     -25.123  15.242 -97.685  1.00  0.00     0.209 HD
ENDBRANCH  28  29
ENDBRANCH  27  28
ENDBRANCH  26  27
ENDBRANCH   6  26
TORSDOF 8
ENDMDL
