MODEL 9
REMARK VINA RESULT: -6.990293478      3.314      4.997
REMARK  8 active torsions:
REMARK  status: ('A' for Active; 'I' for Inactive)
REMARK    1  A    between atoms: N1_1  and  S1_4 
REMARK    2  A    between atoms: S1_4  and  C1_7 
REMARK    3  A    between atoms: C4_12  and  S2_13 
REMARK    4  A    between atoms: S2_13  and  C5_14 
REMARK    5  A    between atoms: C5_14  and  C6_15 
REMARK    6  A    between atoms: C6_15  and  O3_16 
REMARK    7  A    between atoms: C8_20  and  N2_21 
REMARK    8  A    between atoms: N2_21  and  C9_23 
ROOT
HETATM    1  C1  UNL     1     -27.233  12.135 -91.810  1.00  0.00     0.150 A 
HETATM    2  C2  UNL     1     -26.561  12.899 -92.778  1.00  0.00     0.181 A 
HETATM    3  F1  UNL     1     -25.204  12.883 -92.860  1.00  0.00    -0.201 F 
HETATM    4  C3  UNL     1     -27.253  13.684 -93.669  1.00  0.00     0.176 A 
HETATM    5  F2  UNL     1     -26.596  14.432 -94.618  1.00  0.00    -0.201 F 
HETATM    6  C4  UNL     1     -28.626  13.702 -93.589  1.00  0.00     0.083 A 
HETATM    7  C7  UNL     1     -29.293  12.938 -92.620  1.00  0.00     0.164 A 
HETATM    8  F3  UNL     1     -30.647  13.011 -92.593  1.00  0.00    -0.202 F 
HETATM    9  C8  UNL     1     -28.608  12.149 -91.724  1.00  0.00     0.095 A 
ENDROOT
BRANCH   9  10
HETATM   10  N2  UNL     1     -29.260  11.363 -90.750  1.00  0.00    -0.381 N 
ATOM     11  H2  UNL     1     -29.280  10.357 -90.919  1.00  0.00     0.160 HD
BRANCH  10  12
HETATM   12  C9  UNL     1     -29.900  11.822 -89.541  1.00  0.00     0.082 C 
HETATM   13  C10 UNL     1     -29.731  10.863 -88.409  1.00  0.00     0.025 C 
HETATM   14  C11 UNL     1     -30.892  10.738 -87.476  1.00  0.00     0.002 C 
HETATM   15  C12 UNL     1     -31.129  11.837 -86.521  1.00  0.00     0.000 C 
HETATM   16  C13 UNL     1     -30.442  13.131 -86.775  1.00  0.00     0.000 C 
HETATM   17  C14 UNL     1     -30.955  13.921 -87.916  1.00  0.00     0.000 C 
HETATM   18  C15 UNL     1     -31.880  13.235 -88.842  1.00  0.00     0.002 C 
HETATM   19  C16 UNL     1     -31.293  12.254 -89.809  1.00  0.00     0.025 C 
ENDBRANCH  10  12
ENDBRANCH   9  10
BRANCH   1  20
HETATM   20  S1  UNL     1     -26.218  11.242 -90.704  1.00  0.00     0.262 S 
HETATM   21  O1  UNL     1     -26.933  10.025 -90.193  1.00  0.00    -0.201 OA
HETATM   22  O2  UNL     1     -25.868  12.149 -89.554  1.00  0.00    -0.201 OA
BRANCH  20  23
HETATM   23  N1  UNL     1     -24.783  10.737 -91.464  1.00  0.00    -0.324 N 
ATOM     24  H12 UNL     1     -23.894  10.576 -90.989  1.00  0.00     0.169 HD
ATOM     25  H11 UNL     1     -24.971  10.629 -92.460  1.00  0.00     0.169 HD
ENDBRANCH  20  23
ENDBRANCH   1  20
BRANCH   6  26
HETATM   26  S2  UNL     1     -29.541  14.709 -94.731  1.00  0.00    -0.121 SA
BRANCH  26  27
HETATM   27  C5  UNL     1     -30.280  16.133 -93.914  1.00  0.00     0.105 C 
BRANCH  27  28
HETATM   28  C6  UNL     1     -29.581  16.445 -92.599  1.00  0.00     0.174 C 
BRANCH  28  29
HETATM   29  O3  UNL     1     -28.529  17.315 -92.855  1.00  0.00    -0.400 OA
ATOM     30  H3  UNL     1     -27.865  17.189 -92.187  1.00  0.00     0.209 HD
ENDBRANCH  28  29
ENDBRANCH  27  28
ENDBRANCH  26  27
ENDBRANCH   6  26
TORSDOF 8
ENDMDL
