MODEL 3
REMARK VINA RESULT: -7.283582469      3.316      5.274
REMARK  8 active torsions:
REMARK  status: ('A' for Active; 'I' for Inactive)
REMARK    1  A    between atoms: N1_1  and  S1_4 
REMARK    2  A    between atoms: S1_4  and  C1_7 
REMARK    3  A    between atoms: C4_12  and  S2_13 
REMARK    4  A    between atoms: S2_13  and  C5_14 
REMARK    5  A    between atoms: C5_14  and  C6_15 
REMARK    6  A    between atoms: C6_15  and  O3_16 
REMARK    7  A    between atoms: C8_20  and  N2_21 
REMARK    8  A    between atoms: N2_21  and  C9_23 
ROOT
HETATM    1  C1  UNL     1     -27.108  12.163 -91.822  1.00  0.00     0.150 A 
HETATM    2  C2  UNL     1     -26.526  12.991 -92.796  1.00  0.00     0.181 A 
HETATM    3  F1  UNL     1     -25.176  13.117 -92.889  1.00  0.00    -0.201 F 
HETATM    4  C3  UNL     1     -27.303  13.698 -93.683  1.00  0.00     0.176 A 
HETATM    5  F2  UNL     1     -26.736  14.508 -94.638  1.00  0.00    -0.201 F 
HETATM    6  C4  UNL     1     -28.670  13.572 -93.592  1.00  0.00     0.083 A 
HETATM    7  C7  UNL     1     -29.247  12.745 -92.618  1.00  0.00     0.164 A 
HETATM    8  F3  UNL     1     -30.600  12.676 -92.580  1.00  0.00    -0.202 F 
HETATM    9  C8  UNL     1     -28.476  12.033 -91.726  1.00  0.00     0.095 A 
ENDROOT
BRANCH   9  10
HETATM   10  N2  UNL     1     -29.034  11.185 -90.746  1.00  0.00    -0.381 N 
ATOM     11  H2  UNL     1     -28.746  10.207 -90.775  1.00  0.00     0.160 HD
BRANCH  10  12
HETATM   12  C9  UNL     1     -29.968  11.546 -89.707  1.00  0.00     0.082 C 
HETATM   13  C10 UNL     1     -29.776  12.950 -89.233  1.00  0.00     0.025 C 
HETATM   14  C11 UNL     1     -30.005  13.187 -87.775  1.00  0.00     0.002 C 
HETATM   15  C12 UNL     1     -31.397  13.206 -87.291  1.00  0.00     0.000 C 
HETATM   16  C13 UNL     1     -32.445  12.644 -88.184  1.00  0.00     0.000 C 
HETATM   17  C14 UNL     1     -32.444  11.172 -88.333  1.00  0.00     0.000 C 
HETATM   18  C15 UNL     1     -31.260  10.449 -87.827  1.00  0.00     0.002 C 
HETATM   19  C16 UNL     1     -30.006  10.513 -88.643  1.00  0.00     0.025 C 
ENDBRANCH  10  12
ENDBRANCH   9  10
BRANCH   1  20
HETATM   20  S1  UNL     1     -25.997  11.383 -90.723  1.00  0.00     0.262 S 
HETATM   21  O1  UNL     1     -26.675  10.262 -89.989  1.00  0.00    -0.201 OA
HETATM   22  O2  UNL     1     -25.510  12.415 -89.740  1.00  0.00    -0.201 OA
BRANCH  20  23
HETATM   23  N1  UNL     1     -24.660  10.743 -91.557  1.00  0.00    -0.324 N 
ATOM     24  H12 UNL     1     -24.493   9.750 -91.721  1.00  0.00     0.169 HD
ATOM     25  H11 UNL     1     -24.070  11.518 -91.857  1.00  0.00     0.169 HD
ENDBRANCH  20  23
ENDBRANCH   1  20
BRANCH   6  26
HETATM   26  S2  UNL     1     -29.694  14.476 -94.729  1.00  0.00    -0.121 SA
BRANCH  26  27
HETATM   27  C5  UNL     1     -30.215  16.055 -94.039  1.00  0.00     0.105 C 
BRANCH  27  28
HETATM   28  C6  UNL     1     -31.422  15.894 -93.127  1.00  0.00     0.174 C 
BRANCH  28  29
HETATM   29  O3  UNL     1     -32.314  15.016 -93.729  1.00  0.00    -0.400 OA
ATOM     30  H3  UNL     1     -31.828  14.263 -94.045  1.00  0.00     0.209 HD
ENDBRANCH  28  29
ENDBRANCH  27  28
ENDBRANCH  26  27
ENDBRANCH   6  26
TORSDOF 8
ENDMDL
