MODEL 4
REMARK VINA RESULT: -7.150867088      2.263      5.617
REMARK  8 active torsions:
REMARK  status: ('A' for Active; 'I' for Inactive)
REMARK    1  A    between atoms: N1_1  and  S1_4 
REMARK    2  A    between atoms: S1_4  and  C1_7 
REMARK    3  A    between atoms: C4_12  and  S2_13 
REMARK    4  A    between atoms: S2_13  and  C5_14 
REMARK    5  A    between atoms: C5_14  and  C6_15 
REMARK    6  A    between atoms: C6_15  and  O3_16 
REMARK    7  A    between atoms: C8_20  and  N2_21 
REMARK    8  A    between atoms: N2_21  and  C9_23 
ROOT
HETATM    1  C1  UNL     1     -28.916  12.592 -91.579  1.00  0.00     0.150 A 
HETATM    2  C2  UNL     1     -27.547  12.320 -91.735  1.00  0.00     0.181 A 
HETATM    3  F1  UNL     1     -26.867  11.608 -90.798  1.00  0.00    -0.201 F 
HETATM    4  C3  UNL     1     -26.856  12.765 -92.836  1.00  0.00     0.176 A 
HETATM    5  F2  UNL     1     -25.516  12.499 -92.991  1.00  0.00    -0.201 F 
HETATM    6  C4  UNL     1     -27.542  13.486 -93.786  1.00  0.00     0.083 A 
HETATM    7  C7  UNL     1     -28.909  13.755 -93.626  1.00  0.00     0.164 A 
HETATM    8  F3  UNL     1     -29.520  14.479 -94.597  1.00  0.00    -0.202 F 
HETATM    9  C8  UNL     1     -29.609  13.313 -92.526  1.00  0.00     0.095 A 
ENDROOT
BRANCH   9  10
HETATM   10  N2  UNL     1     -30.987  13.562 -92.351  1.00  0.00    -0.381 N 
ATOM     11  H2  UNL     1     -31.610  12.762 -92.465  1.00  0.00     0.160 HD
BRANCH  10  12
HETATM   12  C9  UNL     1     -31.614  14.821 -92.029  1.00  0.00     0.082 C 
HETATM   13  C10 UNL     1     -32.318  15.421 -93.202  1.00  0.00     0.025 C 
HETATM   14  C11 UNL     1     -32.270  16.912 -93.303  1.00  0.00     0.002 C 
HETATM   15  C12 UNL     1     -33.118  17.692 -92.384  1.00  0.00     0.000 C 
HETATM   16  C13 UNL     1     -33.682  16.988 -91.201  1.00  0.00     0.000 C 
HETATM   17  C14 UNL     1     -32.717  16.649 -90.132  1.00  0.00     0.000 C 
HETATM   18  C15 UNL     1     -31.282  16.779 -90.460  1.00  0.00     0.002 C 
HETATM   19  C16 UNL     1     -30.669  15.720 -91.323  1.00  0.00     0.025 C 
ENDBRANCH  10  12
ENDBRANCH   9  10
BRANCH   1  20
HETATM   20  S1  UNL     1     -29.642  12.022 -90.096  1.00  0.00     0.262 S 
HETATM   21  O1  UNL     1     -31.140  12.025 -90.203  1.00  0.00    -0.201 OA
HETATM   22  O2  UNL     1     -29.208  12.936 -88.981  1.00  0.00    -0.201 OA
BRANCH  20  23
HETATM   23  N1  UNL     1     -29.138  10.438 -89.738  1.00  0.00    -0.324 N 
ATOM     24  H12 UNL     1     -29.760   9.640 -89.607  1.00  0.00     0.169 HD
ATOM     25  H11 UNL     1     -28.120  10.433 -89.679  1.00  0.00     0.169 HD
ENDBRANCH  20  23
ENDBRANCH   1  20
BRANCH   6  26
HETATM   26  S2  UNL     1     -26.669  14.070 -95.219  1.00  0.00    -0.121 SA
BRANCH  26  27
HETATM   27  C5  UNL     1     -25.507  15.379 -94.797  1.00  0.00     0.105 C 
BRANCH  27  28
HETATM   28  C6  UNL     1     -24.556  15.673 -95.947  1.00  0.00     0.174 C 
BRANCH  28  29
HETATM   29  O3  UNL     1     -24.807  14.764 -96.968  1.00  0.00    -0.400 OA
ATOM     30  H3  UNL     1     -25.569  14.248 -96.732  1.00  0.00     0.209 HD
ENDBRANCH  28  29
ENDBRANCH  27  28
ENDBRANCH  26  27
ENDBRANCH   6  26
TORSDOF 8
ENDMDL
