MODEL 6
REMARK VINA RESULT: -7.111645277      3.535      5.193
REMARK  8 active torsions:
REMARK  status: ('A' for Active; 'I' for Inactive)
REMARK    1  A    between atoms: N1_1  and  S1_4 
REMARK    2  A    between atoms: S1_4  and  C1_7 
REMARK    3  A    between atoms: C4_12  and  S2_13 
REMARK    4  A    between atoms: S2_13  and  C5_14 
REMARK    5  A    between atoms: C5_14  and  C6_15 
REMARK    6  A    between atoms: C6_15  and  O3_16 
REMARK    7  A    between atoms: C8_20  and  N2_21 
REMARK    8  A    between atoms: N2_21  and  C9_23 
ROOT
HETATM    1  C1  UNL     1     -27.566  12.350 -91.674  1.00  0.00     0.150 A 
HETATM    2  C2  UNL     1     -27.395  12.945 -92.935  1.00  0.00     0.181 A 
HETATM    3  F1  UNL     1     -26.245  12.770 -93.638  1.00  0.00    -0.201 F 
HETATM    4  C3  UNL     1     -28.383  13.720 -93.494  1.00  0.00     0.176 A 
HETATM    5  F2  UNL     1     -28.218  14.302 -94.729  1.00  0.00    -0.201 F 
HETATM    6  C4  UNL     1     -29.548  13.898 -92.785  1.00  0.00     0.083 A 
HETATM    7  C7  UNL     1     -29.714  13.303 -91.526  1.00  0.00     0.164 A 
HETATM    8  F3  UNL     1     -30.884  13.528 -90.879  1.00  0.00    -0.202 F 
HETATM    9  C8  UNL     1     -28.730  12.524 -90.959  1.00  0.00     0.095 A 
ENDROOT
BRANCH   9  10
HETATM   10  N2  UNL     1     -28.881  11.905 -89.699  1.00  0.00    -0.381 N 
ATOM     11  H2  UNL     1     -28.059  11.433 -89.326  1.00  0.00     0.160 HD
BRANCH  10  12
HETATM   12  C9  UNL     1     -30.069  11.867 -88.881  1.00  0.00     0.082 C 
HETATM   13  C10 UNL     1     -30.122  12.995 -87.903  1.00  0.00     0.025 C 
HETATM   14  C11 UNL     1     -30.721  12.680 -86.571  1.00  0.00     0.002 C 
HETATM   15  C12 UNL     1     -32.186  12.532 -86.492  1.00  0.00     0.000 C 
HETATM   16  C13 UNL     1     -32.930  12.351 -87.767  1.00  0.00     0.000 C 
HETATM   17  C14 UNL     1     -32.765  11.037 -88.429  1.00  0.00     0.000 C 
HETATM   18  C15 UNL     1     -31.682  10.167 -87.926  1.00  0.00     0.002 C 
HETATM   19  C16 UNL     1     -30.277  10.515 -88.308  1.00  0.00     0.025 C 
ENDBRANCH  10  12
ENDBRANCH   9  10
BRANCH   1  20
HETATM   20  S1  UNL     1     -26.198  11.451 -91.064  1.00  0.00     0.262 S 
HETATM   21  O1  UNL     1     -25.583  12.153 -89.888  1.00  0.00    -0.201 OA
HETATM   22  O2  UNL     1     -25.186  11.329 -92.172  1.00  0.00    -0.201 OA
BRANCH  20  23
HETATM   23  N1  UNL     1     -26.663   9.892 -90.569  1.00  0.00    -0.324 N 
ATOM     24  H12 UNL     1     -27.535   9.665 -90.089  1.00  0.00     0.169 HD
ATOM     25  H11 UNL     1     -25.926   9.239 -90.833  1.00  0.00     0.169 HD
ENDBRANCH  20  23
ENDBRANCH   1  20
BRANCH   6  26
HETATM   26  S2  UNL     1     -30.839  14.896 -93.488  1.00  0.00    -0.121 SA
BRANCH  26  27
HETATM   27  C5  UNL     1     -30.372  16.633 -93.553  1.00  0.00     0.105 C 
BRANCH  27  28
HETATM   28  C6  UNL     1     -29.594  17.048 -92.314  1.00  0.00     0.174 C 
BRANCH  28  29
HETATM   29  O3  UNL     1     -28.449  17.723 -92.718  1.00  0.00    -0.400 OA
ATOM     30  H3  UNL     1     -28.700  18.396 -93.340  1.00  0.00     0.209 HD
ENDBRANCH  28  29
ENDBRANCH  27  28
ENDBRANCH  26  27
ENDBRANCH   6  26
TORSDOF 8
ENDMDL
