MODEL 2
REMARK VINA RESULT: -8.251636157      1.252      1.960
REMARK  8 active torsions:
REMARK  status: ('A' for Active; 'I' for Inactive)
REMARK    1  A    between atoms: N1_1  and  S1_4 
REMARK    2  A    between atoms: S1_4  and  C1_7 
REMARK    3  A    between atoms: C4_12  and  S2_13 
REMARK    4  A    between atoms: S2_13  and  C5_16 
REMARK    5  A    between atoms: C5_16  and  C6_17 
REMARK    6  A    between atoms: C6_17  and  O5_18 
REMARK    7  A    between atoms: C7_20  and  N2_21 
REMARK    8  A    between atoms: N2_21  and  C8_23 
ROOT
HETATM    1  C1  UNL     1      10.210 -26.921 -57.282  1.00  0.00     0.161 A 
HETATM    2  C2  UNL     1      10.009 -27.619 -58.453  1.00  0.00     0.182 A 
HETATM    3  F1  UNL     1       8.837 -28.295 -58.687  1.00  0.00    -0.201 F 
HETATM    4  C3  UNL     1      10.993 -27.642 -59.404  1.00  0.00     0.180 A 
HETATM    5  F2  UNL     1      10.761 -28.342 -60.551  1.00  0.00    -0.201 F 
HETATM    6  C4  UNL     1      12.184 -26.965 -59.186  1.00  0.00     0.130 A 
HETATM    7  C7  UNL     1      12.425 -26.255 -58.034  1.00  0.00     0.094 A 
HETATM    8  C16 UNL     1      11.418 -26.243 -57.079  1.00  0.00     0.170 A 
HETATM    9  F3  UNL     1      11.545 -25.591 -55.889  1.00  0.00    -0.202 F 
ENDROOT
BRANCH   7  10
HETATM   10  N2  UNL     1      13.581 -25.513 -57.761  1.00  0.00    -0.382 N 
ATOM     11  H2  UNL     1      13.663 -24.625 -58.258  1.00  0.00     0.160 HD
BRANCH  10  12
HETATM   12  C8  UNL     1      14.660 -25.828 -56.886  1.00  0.00     0.082 C 
HETATM   13  C9  UNL     1      15.136 -24.563 -56.150  1.00  0.00     0.025 C 
HETATM   14  C10 UNL     1      16.333 -24.972 -55.273  1.00  0.00     0.002 C 
HETATM   15  C11 UNL     1      15.945 -25.157 -53.854  1.00  0.00     0.000 C 
HETATM   16  C12 UNL     1      15.667 -26.546 -53.422  1.00  0.00     0.000 C 
HETATM   17  C13 UNL     1      16.104 -27.619 -54.353  1.00  0.00     0.000 C 
HETATM   18  C14 UNL     1      15.250 -27.858 -55.534  1.00  0.00     0.002 C 
HETATM   19  C15 UNL     1      14.219 -26.819 -55.828  1.00  0.00     0.025 C 
ENDBRANCH  10  12
ENDBRANCH   7  10
BRANCH   6  20
HETATM   20  S2  UNL     1      13.379 -27.062 -60.411  1.00  0.00     0.182 S 
HETATM   21  O3  UNL     1      14.661 -26.397 -60.077  1.00  0.00    -0.222 OA
HETATM   22  O4  UNL     1      12.845 -26.321 -61.636  1.00  0.00    -0.222 OA
BRANCH  20  23
HETATM   23  C5  UNL     1      13.712 -28.705 -60.970  1.00  0.00     0.172 C 
BRANCH  23  24
HETATM   24  C6  UNL     1      15.144 -28.839 -61.411  1.00  0.00     0.179 C 
BRANCH  24  25
HETATM   25  O5  UNL     1      15.414 -28.042 -62.538  1.00  0.00    -0.400 OA
ATOM     26  H5  UNL     1      16.248 -27.596 -62.458  1.00  0.00     0.209 HD
ENDBRANCH  24  25
ENDBRANCH  23  24
ENDBRANCH  20  23
ENDBRANCH   6  20
BRANCH   1  27
HETATM   27  S1  UNL     1       8.969 -26.885 -56.064  1.00  0.00     0.263 S 
HETATM   28  O1  UNL     1       7.588 -26.895 -56.694  1.00  0.00    -0.201 OA
HETATM   29  O2  UNL     1       9.088 -28.064 -55.121  1.00  0.00    -0.201 OA
BRANCH  27  30
HETATM   30  N1  UNL     1       9.073 -25.466 -55.082  1.00  0.00    -0.324 N 
ATOM     31  H12 UNL     1       8.938 -24.509 -55.406  1.00  0.00     0.169 HD
ATOM     32  H11 UNL     1       9.292 -25.772 -54.133  1.00  0.00     0.169 HD
ENDBRANCH  27  30
ENDBRANCH   1  27
TORSDOF 8
ENDMDL
