MODEL 3
REMARK VINA RESULT: -8.043962181      1.739      2.469
REMARK  8 active torsions:
REMARK  status: ('A' for Active; 'I' for Inactive)
REMARK    1  A    between atoms: N1_1  and  S1_4 
REMARK    2  A    between atoms: S1_4  and  C1_7 
REMARK    3  A    between atoms: C4_12  and  S2_13 
REMARK    4  A    between atoms: S2_13  and  C5_16 
REMARK    5  A    between atoms: C5_16  and  C6_17 
REMARK    6  A    between atoms: C6_17  and  O5_18 
REMARK    7  A    between atoms: C7_20  and  N2_21 
REMARK    8  A    between atoms: N2_21  and  C8_23 
ROOT
HETATM    1  C1  UNL     1       9.783 -26.536 -56.627  1.00  0.00     0.161 A 
HETATM    2  C2  UNL     1       9.441 -27.413 -57.633  1.00  0.00     0.182 A 
HETATM    3  F1  UNL     1       8.198 -27.996 -57.678  1.00  0.00    -0.201 F 
HETATM    4  C3  UNL     1      10.352 -27.712 -58.609  1.00  0.00     0.180 A 
HETATM    5  F2  UNL     1       9.980 -28.584 -59.589  1.00  0.00    -0.201 F 
HETATM    6  C4  UNL     1      11.612 -27.133 -58.582  1.00  0.00     0.130 A 
HETATM    7  C7  UNL     1      11.994 -26.251 -57.599  1.00  0.00     0.094 A 
HETATM    8  C16 UNL     1      11.059 -25.960 -56.616  1.00  0.00     0.170 A 
HETATM    9  F3  UNL     1      11.325 -25.116 -55.579  1.00  0.00    -0.202 F 
ENDROOT
BRANCH   7  10
HETATM   10  N2  UNL     1      13.230 -25.594 -57.529  1.00  0.00    -0.382 N 
ATOM     11  H2  UNL     1      13.317 -24.756 -58.104  1.00  0.00     0.160 HD
BRANCH  10  12
HETATM   12  C8  UNL     1      14.382 -25.938 -56.764  1.00  0.00     0.082 C 
HETATM   13  C9  UNL     1      14.996 -24.675 -56.133  1.00  0.00     0.025 C 
HETATM   14  C10 UNL     1      16.262 -25.117 -55.376  1.00  0.00     0.002 C 
HETATM   15  C11 UNL     1      16.024 -25.236 -53.917  1.00  0.00     0.000 C 
HETATM   16  C12 UNL     1      15.729 -26.594 -53.406  1.00  0.00     0.000 C 
HETATM   17  C13 UNL     1      16.008 -27.718 -54.338  1.00  0.00     0.000 C 
HETATM   18  C14 UNL     1      15.019 -27.951 -55.409  1.00  0.00     0.002 C 
HETATM   19  C15 UNL     1      14.013 -26.869 -55.628  1.00  0.00     0.025 C 
ENDBRANCH  10  12
ENDBRANCH   7  10
BRANCH   6  20
HETATM   20  S2  UNL     1      12.709 -27.577 -59.823  1.00  0.00     0.182 S 
HETATM   21  O3  UNL     1      14.021 -28.069 -59.340  1.00  0.00    -0.222 OA
HETATM   22  O4  UNL     1      13.021 -26.319 -60.633  1.00  0.00    -0.222 OA
BRANCH  20  23
HETATM   23  C5  UNL     1      12.055 -28.731 -60.990  1.00  0.00     0.172 C 
BRANCH  23  24
HETATM   24  C6  UNL     1      12.652 -30.096 -60.784  1.00  0.00     0.179 C 
BRANCH  24  25
HETATM   25  O5  UNL     1      12.504 -30.528 -59.453  1.00  0.00    -0.400 OA
ATOM     26  H5  UNL     1      11.930 -31.283 -59.394  1.00  0.00     0.209 HD
ENDBRANCH  24  25
ENDBRANCH  23  24
ENDBRANCH  20  23
ENDBRANCH   6  20
BRANCH   1  27
HETATM   27  S1  UNL     1       8.635 -26.148 -55.380  1.00  0.00     0.263 S 
HETATM   28  O1  UNL     1       7.222 -26.493 -55.815  1.00  0.00    -0.201 OA
HETATM   29  O2  UNL     1       8.949 -26.886 -54.095  1.00  0.00    -0.201 OA
BRANCH  27  30
HETATM   30  N1  UNL     1       8.653 -24.465 -54.990  1.00  0.00    -0.324 N 
ATOM     31  H12 UNL     1       8.264 -24.047 -54.144  1.00  0.00     0.169 HD
ATOM     32  H11 UNL     1       9.121 -23.982 -55.757  1.00  0.00     0.169 HD
ENDBRANCH  27  30
ENDBRANCH   1  27
TORSDOF 8
ENDMDL
