MODEL 9
REMARK VINA RESULT: -7.460923889      2.147      4.954
REMARK  8 active torsions:
REMARK  status: ('A' for Active; 'I' for Inactive)
REMARK    1  A    between atoms: N1_1  and  S1_4 
REMARK    2  A    between atoms: S1_4  and  C1_7 
REMARK    3  A    between atoms: C4_12  and  S2_13 
REMARK    4  A    between atoms: S2_13  and  C5_16 
REMARK    5  A    between atoms: C5_16  and  C6_17 
REMARK    6  A    between atoms: C6_17  and  O5_18 
REMARK    7  A    between atoms: C7_20  and  N2_21 
REMARK    8  A    between atoms: N2_21  and  C8_23 
ROOT
HETATM    1  C1  UNL     1      10.736 -26.810 -56.913  1.00  0.00     0.161 A 
HETATM    2  C2  UNL     1      11.541 -26.135 -56.022  1.00  0.00     0.182 A 
HETATM    3  F1  UNL     1      11.069 -25.740 -54.794  1.00  0.00    -0.201 F 
HETATM    4  C3  UNL     1      12.836 -25.851 -56.361  1.00  0.00     0.180 A 
HETATM    5  F2  UNL     1      13.604 -25.181 -55.454  1.00  0.00    -0.201 F 
HETATM    6  C4  UNL     1      13.332 -26.241 -57.596  1.00  0.00     0.130 A 
HETATM    7  C7  UNL     1      12.565 -26.918 -58.513  1.00  0.00     0.094 A 
HETATM    8  C16 UNL     1      11.253 -27.198 -58.156  1.00  0.00     0.170 A 
HETATM    9  F3  UNL     1      10.389 -27.846 -58.986  1.00  0.00    -0.202 F 
ENDROOT
BRANCH   7  10
HETATM   10  N2  UNL     1      13.006 -27.383 -59.760  1.00  0.00    -0.382 N 
ATOM     11  H2  UNL     1      13.172 -26.664 -60.465  1.00  0.00     0.160 HD
BRANCH  10  12
HETATM   12  C8  UNL     1      13.254 -28.723 -60.177  1.00  0.00     0.082 C 
HETATM   13  C9  UNL     1      14.123 -28.732 -61.447  1.00  0.00     0.025 C 
HETATM   14  C10 UNL     1      14.297 -30.203 -61.867  1.00  0.00     0.002 C 
HETATM   15  C11 UNL     1      15.613 -30.747 -61.454  1.00  0.00     0.000 C 
HETATM   16  C12 UNL     1      15.640 -31.521 -60.192  1.00  0.00     0.000 C 
HETATM   17  C13 UNL     1      14.318 -31.931 -59.648  1.00  0.00     0.000 C 
HETATM   18  C14 UNL     1      13.540 -30.890 -58.946  1.00  0.00     0.002 C 
HETATM   19  C15 UNL     1      14.015 -29.484 -59.111  1.00  0.00     0.025 C 
ENDBRANCH  10  12
ENDBRANCH   7  10
BRANCH   6  20
HETATM   20  S2  UNL     1      14.955 -25.826 -57.960  1.00  0.00     0.182 S 
HETATM   21  O3  UNL     1      15.376 -24.493 -57.467  1.00  0.00    -0.222 OA
HETATM   22  O4  UNL     1      15.082 -25.754 -59.481  1.00  0.00    -0.222 OA
BRANCH  20  23
HETATM   23  C5  UNL     1      16.142 -27.030 -57.450  1.00  0.00     0.172 C 
BRANCH  23  24
HETATM   24  C6  UNL     1      17.504 -26.408 -57.300  1.00  0.00     0.179 C 
BRANCH  24  25
HETATM   25  O5  UNL     1      17.862 -25.669 -58.442  1.00  0.00    -0.400 OA
ATOM     26  H5  UNL     1      18.628 -26.035 -58.868  1.00  0.00     0.209 HD
ENDBRANCH  24  25
ENDBRANCH  23  24
ENDBRANCH  20  23
ENDBRANCH   6  20
BRANCH   1  27
HETATM   27  S1  UNL     1       9.089 -27.176 -56.497  1.00  0.00     0.263 S 
HETATM   28  O1  UNL     1       8.215 -27.240 -57.738  1.00  0.00    -0.201 OA
HETATM   29  O2  UNL     1       8.988 -28.494 -55.756  1.00  0.00    -0.201 OA
BRANCH  27  30
HETATM   30  N1  UNL     1       8.407 -25.980 -55.453  1.00  0.00    -0.324 N 
ATOM     31  H12 UNL     1       8.552 -24.973 -55.529  1.00  0.00     0.169 HD
ATOM     32  H11 UNL     1       7.843 -26.471 -54.758  1.00  0.00     0.169 HD
ENDBRANCH  27  30
ENDBRANCH   1  27
TORSDOF 8
ENDMDL
