MODEL 6
REMARK VINA RESULT: -7.859788916      1.148      1.347
REMARK  8 active torsions:
REMARK  status: ('A' for Active; 'I' for Inactive)
REMARK    1  A    between atoms: N1_1  and  S1_4 
REMARK    2  A    between atoms: S1_4  and  C1_7 
REMARK    3  A    between atoms: C4_12  and  S2_13 
REMARK    4  A    between atoms: S2_13  and  C5_16 
REMARK    5  A    between atoms: C5_16  and  C6_17 
REMARK    6  A    between atoms: C6_17  and  O5_18 
REMARK    7  A    between atoms: C7_20  and  N2_21 
REMARK    8  A    between atoms: N2_21  and  C8_23 
ROOT
HETATM    1  C1  UNL     1      10.067 -26.871 -57.179  1.00  0.00     0.161 A 
HETATM    2  C2  UNL     1       9.767 -27.574 -58.326  1.00  0.00     0.182 A 
HETATM    3  F1  UNL     1       8.568 -28.228 -58.467  1.00  0.00    -0.201 F 
HETATM    4  C3  UNL     1      10.676 -27.623 -59.346  1.00  0.00     0.180 A 
HETATM    5  F2  UNL     1      10.347 -28.327 -60.467  1.00  0.00    -0.201 F 
HETATM    6  C4  UNL     1      11.894 -26.969 -59.224  1.00  0.00     0.130 A 
HETATM    7  C7  UNL     1      12.232 -26.255 -58.099  1.00  0.00     0.094 A 
HETATM    8  C16 UNL     1      11.300 -26.216 -57.072  1.00  0.00     0.170 A 
HETATM    9  F3  UNL     1      11.526 -25.557 -55.901  1.00  0.00    -0.202 F 
ENDROOT
BRANCH   7  10
HETATM   10  N2  UNL     1      13.420 -25.533 -57.919  1.00  0.00    -0.382 N 
ATOM     11  H2  UNL     1      13.627 -24.838 -58.637  1.00  0.00     0.160 HD
BRANCH  10  12
HETATM   12  C8  UNL     1      14.379 -25.638 -56.870  1.00  0.00     0.082 C 
HETATM   13  C9  UNL     1      14.945 -27.068 -56.808  1.00  0.00     0.025 C 
HETATM   14  C10 UNL     1      15.923 -27.116 -55.620  1.00  0.00     0.002 C 
HETATM   15  C11 UNL     1      17.336 -27.013 -56.059  1.00  0.00     0.000 C 
HETATM   16  C12 UNL     1      17.950 -25.667 -55.992  1.00  0.00     0.000 C 
HETATM   17  C13 UNL     1      17.202 -24.645 -55.213  1.00  0.00     0.000 C 
HETATM   18  C14 UNL     1      16.032 -24.035 -55.874  1.00  0.00     0.002 C 
HETATM   19  C15 UNL     1      15.547 -24.707 -57.117  1.00  0.00     0.025 C 
ENDBRANCH  10  12
ENDBRANCH   7  10
BRANCH   6  20
HETATM   20  S2  UNL     1      12.993 -27.098 -60.533  1.00  0.00     0.182 S 
HETATM   21  O3  UNL     1      14.340 -26.543 -60.264  1.00  0.00    -0.222 OA
HETATM   22  O4  UNL     1      12.434 -26.267 -61.687  1.00  0.00    -0.222 OA
BRANCH  20  23
HETATM   23  C5  UNL     1      13.162 -28.734 -61.177  1.00  0.00     0.172 C 
BRANCH  23  24
HETATM   24  C6  UNL     1      14.589 -29.012 -61.561  1.00  0.00     0.179 C 
BRANCH  24  25
HETATM   25  O5  UNL     1      15.083 -28.041 -62.452  1.00  0.00    -0.400 OA
ATOM     26  H5  UNL     1      15.819 -28.370 -62.953  1.00  0.00     0.209 HD
ENDBRANCH  24  25
ENDBRANCH  23  24
ENDBRANCH  20  23
ENDBRANCH   6  20
BRANCH   1  27
HETATM   27  S1  UNL     1       8.921 -26.801 -55.873  1.00  0.00     0.263 S 
HETATM   28  O1  UNL     1       7.516 -26.560 -56.395  1.00  0.00    -0.201 OA
HETATM   29  O2  UNL     1       8.932 -28.080 -55.062  1.00  0.00    -0.201 OA
BRANCH  27  30
HETATM   30  N1  UNL     1       9.282 -25.523 -54.768  1.00  0.00    -0.324 N 
ATOM     31  H12 UNL     1       8.598 -25.004 -54.217  1.00  0.00     0.169 HD
ATOM     32  H11 UNL     1      10.294 -25.393 -54.776  1.00  0.00     0.169 HD
ENDBRANCH  27  30
ENDBRANCH   1  27
TORSDOF 8
ENDMDL
