MODEL 8
REMARK VINA RESULT: -7.479610825      2.249      5.271
REMARK  8 active torsions:
REMARK  status: ('A' for Active; 'I' for Inactive)
REMARK    1  A    between atoms: N1_1  and  S1_4 
REMARK    2  A    between atoms: S1_4  and  C1_7 
REMARK    3  A    between atoms: C4_12  and  S2_13 
REMARK    4  A    between atoms: S2_13  and  C5_16 
REMARK    5  A    between atoms: C5_16  and  C6_17 
REMARK    6  A    between atoms: C6_17  and  O5_18 
REMARK    7  A    between atoms: C7_20  and  N2_21 
REMARK    8  A    between atoms: N2_21  and  C8_23 
ROOT
HETATM    1  C1  UNL     1      10.715 -26.770 -56.835  1.00  0.00     0.161 A 
HETATM    2  C2  UNL     1      11.465 -26.115 -55.883  1.00  0.00     0.182 A 
HETATM    3  F1  UNL     1      10.933 -25.785 -54.661  1.00  0.00    -0.201 F 
HETATM    4  C3  UNL     1      12.765 -25.787 -56.155  1.00  0.00     0.180 A 
HETATM    5  F2  UNL     1      13.479 -25.140 -55.189  1.00  0.00    -0.201 F 
HETATM    6  C4  UNL     1      13.321 -26.112 -57.383  1.00  0.00     0.130 A 
HETATM    7  C7  UNL     1      12.609 -26.767 -58.360  1.00  0.00     0.094 A 
HETATM    8  C16 UNL     1      11.292 -27.092 -58.070  1.00  0.00     0.170 A 
HETATM    9  F3  UNL     1      10.479 -27.724 -58.963  1.00  0.00    -0.202 F 
ENDROOT
BRANCH   7  10
HETATM   10  N2  UNL     1      13.113 -27.167 -59.605  1.00  0.00    -0.382 N 
ATOM     11  H2  UNL     1      13.355 -26.412 -60.247  1.00  0.00     0.160 HD
BRANCH  10  12
HETATM   12  C8  UNL     1      13.332 -28.486 -60.098  1.00  0.00     0.082 C 
HETATM   13  C9  UNL     1      14.208 -28.442 -61.363  1.00  0.00     0.025 C 
HETATM   14  C10 UNL     1      14.351 -29.890 -61.866  1.00  0.00     0.002 C 
HETATM   15  C11 UNL     1      15.652 -30.487 -61.480  1.00  0.00     0.000 C 
HETATM   16  C12 UNL     1      15.654 -31.333 -60.264  1.00  0.00     0.000 C 
HETATM   17  C13 UNL     1      14.321 -31.743 -59.751  1.00  0.00     0.000 C 
HETATM   18  C14 UNL     1      13.563 -30.727 -58.993  1.00  0.00     0.002 C 
HETATM   19  C15 UNL     1      14.070 -29.324 -59.075  1.00  0.00     0.025 C 
ENDBRANCH  10  12
ENDBRANCH   7  10
BRANCH   6  20
HETATM   20  S2  UNL     1      14.947 -25.644 -57.660  1.00  0.00     0.182 S 
HETATM   21  O3  UNL     1      15.318 -25.521 -59.090  1.00  0.00    -0.222 OA
HETATM   22  O4  UNL     1      15.845 -26.747 -57.102  1.00  0.00    -0.222 OA
BRANCH  20  23
HETATM   23  C5  UNL     1      15.432 -24.174 -56.810  1.00  0.00     0.172 C 
BRANCH  23  24
HETATM   24  C6  UNL     1      16.742 -24.376 -56.098  1.00  0.00     0.179 C 
BRANCH  24  25
HETATM   25  O5  UNL     1      16.554 -24.947 -54.826  1.00  0.00    -0.400 OA
ATOM     26  H5  UNL     1      17.353 -24.926 -54.313  1.00  0.00     0.209 HD
ENDBRANCH  24  25
ENDBRANCH  23  24
ENDBRANCH  20  23
ENDBRANCH   6  20
BRANCH   1  27
HETATM   27  S1  UNL     1       9.061 -27.192 -56.504  1.00  0.00     0.263 S 
HETATM   28  O1  UNL     1       8.250 -27.262 -57.786  1.00  0.00    -0.201 OA
HETATM   29  O2  UNL     1       8.965 -28.524 -55.789  1.00  0.00    -0.201 OA
BRANCH  27  30
HETATM   30  N1  UNL     1       8.294 -26.034 -55.477  1.00  0.00    -0.324 N 
ATOM     31  H12 UNL     1       7.516 -25.428 -55.741  1.00  0.00     0.169 HD
ATOM     32  H11 UNL     1       8.764 -26.075 -54.572  1.00  0.00     0.169 HD
ENDBRANCH  27  30
ENDBRANCH   1  27
TORSDOF 8
ENDMDL
