MODEL 10
REMARK VINA RESULT: -7.417474781      1.877      5.129
REMARK  8 active torsions:
REMARK  status: ('A' for Active; 'I' for Inactive)
REMARK    1  A    between atoms: N1_1  and  S1_4 
REMARK    2  A    between atoms: S1_4  and  C1_7 
REMARK    3  A    between atoms: C4_12  and  S2_13 
REMARK    4  A    between atoms: S2_13  and  C5_16 
REMARK    5  A    between atoms: C5_16  and  C6_17 
REMARK    6  A    between atoms: C6_17  and  O5_18 
REMARK    7  A    between atoms: C7_20  and  N2_21 
REMARK    8  A    between atoms: N2_21  and  C8_23 
ROOT
HETATM    1  C1  UNL     1      12.708 -28.398 -59.625  1.00  0.00     0.161 A 
HETATM    2  C2  UNL     1      11.352 -28.326 -59.862  1.00  0.00     0.182 A 
HETATM    3  F1  UNL     1      10.827 -28.630 -61.093  1.00  0.00    -0.201 F 
HETATM    4  C3  UNL     1      10.510 -27.945 -58.853  1.00  0.00     0.180 A 
HETATM    5  F2  UNL     1       9.174 -27.884 -59.122  1.00  0.00    -0.201 F 
HETATM    6  C4  UNL     1      11.020 -27.634 -57.602  1.00  0.00     0.130 A 
HETATM    7  C7  UNL     1      12.365 -27.695 -57.322  1.00  0.00     0.094 A 
HETATM    8  C16 UNL     1      13.207 -28.082 -58.356  1.00  0.00     0.170 A 
HETATM    9  F3  UNL     1      14.559 -28.162 -58.209  1.00  0.00    -0.202 F 
ENDROOT
BRANCH   7  10
HETATM   10  N2  UNL     1      12.951 -27.440 -56.075  1.00  0.00    -0.382 N 
ATOM     11  H2  UNL     1      12.854 -28.182 -55.382  1.00  0.00     0.160 HD
BRANCH  10  12
HETATM   12  C8  UNL     1      13.663 -26.284 -55.643  1.00  0.00     0.082 C 
HETATM   13  C9  UNL     1      14.573 -26.635 -54.452  1.00  0.00     0.025 C 
HETATM   14  C10 UNL     1      15.261 -25.331 -54.007  1.00  0.00     0.002 C 
HETATM   15  C11 UNL     1      16.650 -25.234 -54.516  1.00  0.00     0.000 C 
HETATM   16  C12 UNL     1      16.846 -24.444 -55.753  1.00  0.00     0.000 C 
HETATM   17  C13 UNL     1      15.704 -23.589 -56.170  1.00  0.00     0.000 C 
HETATM   18  C14 UNL     1      14.574 -24.271 -56.832  1.00  0.00     0.002 C 
HETATM   19  C15 UNL     1      14.558 -25.762 -56.748  1.00  0.00     0.025 C 
ENDBRANCH  10  12
ENDBRANCH   7  10
BRANCH   6  20
HETATM   20  S2  UNL     1       9.906 -27.139 -56.397  1.00  0.00     0.182 S 
HETATM   21  O3  UNL     1       9.669 -28.138 -55.328  1.00  0.00    -0.222 OA
HETATM   22  O4  UNL     1       8.551 -26.943 -57.076  1.00  0.00    -0.222 OA
BRANCH  20  23
HETATM   23  C5  UNL     1      10.285 -25.581 -55.655  1.00  0.00     0.172 C 
BRANCH  23  24
HETATM   24  C6  UNL     1       9.150 -25.114 -54.785  1.00  0.00     0.179 C 
BRANCH  24  25
HETATM   25  O5  UNL     1       8.078 -24.626 -55.554  1.00  0.00    -0.400 OA
ATOM     26  H5  UNL     1       7.588 -23.961 -55.086  1.00  0.00     0.209 HD
ENDBRANCH  24  25
ENDBRANCH  23  24
ENDBRANCH  20  23
ENDBRANCH   6  20
BRANCH   1  27
HETATM   27  S1  UNL     1      13.791 -28.879 -60.898  1.00  0.00     0.263 S 
HETATM   28  O1  UNL     1      14.734 -29.971 -60.426  1.00  0.00    -0.201 OA
HETATM   29  O2  UNL     1      13.030 -29.376 -62.110  1.00  0.00    -0.201 OA
BRANCH  27  30
HETATM   30  N1  UNL     1      14.766 -27.561 -61.445  1.00  0.00    -0.324 N 
ATOM     31  H12 UNL     1      15.635 -27.246 -61.013  1.00  0.00     0.169 HD
ATOM     32  H11 UNL     1      14.310 -27.169 -62.269  1.00  0.00     0.169 HD
ENDBRANCH  27  30
ENDBRANCH   1  27
TORSDOF 8
ENDMDL
