MODEL 7
REMARK VINA RESULT: -9.972152651      2.547      4.922
REMARK  10 active torsions:
REMARK  status: ('A' for Active; 'I' for Inactive)
REMARK    1  A    between atoms: N4_10  and  C5_11 
REMARK    2  A    between atoms: C6_13  and  C7_14 
REMARK    3  A    between atoms: C7_14  and  O2_15 
REMARK    4  A    between atoms: O2_15  and  P1_16 
REMARK    5  A    between atoms: P1_16  and  O5_19 
REMARK    6  A    between atoms: O5_19  and  P2_20 
REMARK    7  A    between atoms: P2_20  and  O8_23 
REMARK    8  A    between atoms: O8_23  and  P3_24 
REMARK    9  A    between atoms: C8_28  and  O12_29 
REMARK   10  A    between atoms: C9_31  and  O13_32 
ROOT
HETATM    1  C5  UNL     1     -15.291 -34.208  12.745  1.00  0.00     0.262 C 
HETATM    2  O1  UNL     1     -16.037 -33.041  12.891  1.00  0.00    -0.353 OA
HETATM    3  C6  UNL     1     -15.228 -32.137  13.562  1.00  0.00     0.180 C 
HETATM    4  C8  UNL     1     -13.908 -32.326  12.844  1.00  0.00     0.182 C 
HETATM    5  C9  UNL     1     -13.864 -33.858  12.804  1.00  0.00     0.198 C 
ENDROOT
BRANCH   1   6
HETATM    6  N4  UNL     1     -15.739 -34.904  11.593  1.00  0.00    -0.297 N 
HETATM    7  C2  UNL     1     -16.216 -34.449  10.422  1.00  0.00     0.146 A 
HETATM    8  N2  UNL     1     -16.406 -33.203  10.008  1.00  0.00    -0.314 N 
HETATM    9  C3  UNL     1     -16.516 -35.502   9.619  1.00  0.00     0.146 A 
HETATM   10  C1  UNL     1     -16.901 -32.937   8.784  1.00  0.00     0.196 A 
ATOM     11  H2  UNL     1     -16.173 -32.429  10.630  1.00  0.00     0.170 HD
HETATM   12  N1  UNL     1     -17.119 -31.615   8.306  1.00  0.00    -0.063 NA
HETATM   13  N5  UNL     1     -17.209 -33.958   7.961  1.00  0.00    -0.295 N 
HETATM   14  C10 UNL     1     -17.030 -35.234   8.346  1.00  0.00     0.278 A 
ATOM     15  H5  UNL     1     -17.584 -33.760   7.033  1.00  0.00     0.171 HD
HETATM   16  O14 UNL     1     -17.303 -36.211   7.611  1.00  0.00    -0.265 OA
HETATM   17  N3  UNL     1     -16.222 -36.613  10.295  1.00  0.00    -0.345 N 
HETATM   18  C4  UNL     1     -15.756 -36.245  11.480  1.00  0.00     0.188 A 
ATOM     19  H3  UNL     1     -16.336 -37.570   9.962  1.00  0.00     0.167 HD
ENDBRANCH   1   6
BRANCH   5  20
HETATM   20  O13 UNL     1     -13.278 -34.231  14.037  1.00  0.00    -0.388 OA
ATOM     21  H13 UNL     1     -12.351 -34.024  14.066  1.00  0.00     0.210 HD
ENDBRANCH   5  20
BRANCH   3  22
HETATM   22  C7  UNL     1     -15.775 -30.740  13.394  1.00  0.00     0.216 C 
BRANCH  22  23
HETATM   23  O2  UNL     1     -15.206 -29.964  14.414  1.00  0.00    -0.287 OA
BRANCH  23  24
HETATM   24  P1  UNL     1     -15.301 -28.327  14.109  1.00  0.00     0.417 P 
HETATM   25  O3  UNL     1     -14.886 -27.569  15.353  1.00  0.00    -0.624 OA
HETATM   26  O4  UNL     1     -16.843 -27.837  13.632  1.00  0.00    -0.624 OA
BRANCH  24  27
HETATM   27  O5  UNL     1     -14.145 -27.954  12.916  1.00  0.00    -0.180 OA
BRANCH  27  28
HETATM   28  P2  UNL     1     -12.599 -28.414  13.449  1.00  0.00     0.428 P 
HETATM   29  O6  UNL     1     -12.686 -29.278  14.674  1.00  0.00    -0.624 OA
HETATM   30  O7  UNL     1     -11.654 -27.029  13.715  1.00  0.00    -0.624 OA
BRANCH  28  31
HETATM   31  O8  UNL     1     -11.862 -29.252  12.156  1.00  0.00    -0.173 OA
BRANCH  31  32
HETATM   32  P3  UNL     1     -11.371 -28.139  10.963  1.00  0.00     0.431 P 
HETATM   33  O9  UNL     1     -12.236 -26.899  10.979  1.00  0.00    -0.616 OA
HETATM   34  O10 UNL     1     -11.432 -28.827   9.430  1.00  0.00    -0.616 OA
HETATM   35  O11 UNL     1      -9.780 -27.654  11.303  1.00  0.00    -0.616 OA
ENDBRANCH  31  32
ENDBRANCH  28  31
ENDBRANCH  27  28
ENDBRANCH  24  27
ENDBRANCH  23  24
ENDBRANCH  22  23
ENDBRANCH   3  22
BRANCH   4  36
HETATM   36  O12 UNL     1     -12.845 -31.807  13.553  1.00  0.00    -0.390 OA
ATOM     37  H12 UNL     1     -12.025 -32.238  13.344  1.00  0.00     0.210 HD
ENDBRANCH   4  36
TORSDOF 10
ENDMDL
