MODEL 10
REMARK VINA RESULT: -9.785783116      6.331      8.734
REMARK  10 active torsions:
REMARK  status: ('A' for Active; 'I' for Inactive)
REMARK    1  A    between atoms: N4_10  and  C5_11 
REMARK    2  A    between atoms: C6_13  and  C7_14 
REMARK    3  A    between atoms: C7_14  and  O2_15 
REMARK    4  A    between atoms: O2_15  and  P1_16 
REMARK    5  A    between atoms: P1_16  and  O5_19 
REMARK    6  A    between atoms: O5_19  and  P2_20 
REMARK    7  A    between atoms: P2_20  and  O8_23 
REMARK    8  A    between atoms: O8_23  and  P3_24 
REMARK    9  A    between atoms: C8_28  and  O12_29 
REMARK   10  A    between atoms: C9_31  and  O13_32 
ROOT
HETATM    1  C5  UNL     1     -11.269 -26.920  12.729  1.00  0.00     0.262 C 
HETATM    2  O1  UNL     1     -12.120 -27.221  13.790  1.00  0.00    -0.353 OA
HETATM    3  C6  UNL     1     -12.789 -28.384  13.440  1.00  0.00     0.180 C 
HETATM    4  C8  UNL     1     -11.660 -29.220  12.874  1.00  0.00     0.182 C 
HETATM    5  C9  UNL     1     -10.984 -28.162  11.995  1.00  0.00     0.198 C 
ENDROOT
BRANCH   1   6
HETATM    6  N4  UNL     1     -10.155 -26.191  13.221  1.00  0.00    -0.297 N 
HETATM    7  C2  UNL     1     -10.013 -25.448  14.332  1.00  0.00     0.146 A 
HETATM    8  N2  UNL     1     -10.885 -25.183  15.295  1.00  0.00    -0.314 N 
HETATM    9  C3  UNL     1      -8.753 -24.942  14.376  1.00  0.00     0.146 A 
HETATM   10  C1  UNL     1     -10.559 -24.407  16.345  1.00  0.00     0.196 A 
ATOM     11  H2  UNL     1     -11.825 -25.575  15.239  1.00  0.00     0.170 HD
HETATM   12  N1  UNL     1     -11.468 -24.100  17.396  1.00  0.00    -0.063 NA
HETATM   13  N5  UNL     1      -9.318 -23.889  16.422  1.00  0.00    -0.295 N 
HETATM   14  C10 UNL     1      -8.405 -24.136  15.464  1.00  0.00     0.278 A 
ATOM     15  H5  UNL     1      -9.066 -23.300  17.216  1.00  0.00     0.171 HD
HETATM   16  O14 UNL     1      -7.242 -23.673  15.498  1.00  0.00    -0.265 OA
HETATM   17  N3  UNL     1      -8.114 -25.375  13.289  1.00  0.00    -0.345 N 
HETATM   18  C4  UNL     1      -8.963 -26.124  12.601  1.00  0.00     0.188 A 
ATOM     19  H3  UNL     1      -7.149 -25.167  13.034  1.00  0.00     0.167 HD
ENDBRANCH   1   6
BRANCH   5  20
HETATM   20  O13 UNL     1     -11.681 -28.220  10.764  1.00  0.00    -0.388 OA
ATOM     21  H13 UNL     1     -11.096 -28.376  10.032  1.00  0.00     0.210 HD
ENDBRANCH   5  20
BRANCH   3  22
HETATM   22  C7  UNL     1     -13.402 -29.009  14.669  1.00  0.00     0.216 C 
BRANCH  22  23
HETATM   23  O2  UNL     1     -14.679 -28.446  14.808  1.00  0.00    -0.287 OA
BRANCH  23  24
HETATM   24  P1  UNL     1     -15.798 -29.122  13.773  1.00  0.00     0.417 P 
HETATM   25  O3  UNL     1     -15.253 -30.433  13.246  1.00  0.00    -0.624 OA
HETATM   26  O4  UNL     1     -16.193 -28.110  12.481  1.00  0.00    -0.624 OA
BRANCH  24  27
HETATM   27  O5  UNL     1     -17.181 -29.513  14.687  1.00  0.00    -0.180 OA
BRANCH  27  28
HETATM   28  P2  UNL     1     -17.799 -28.112  15.423  1.00  0.00     0.428 P 
HETATM   29  O6  UNL     1     -19.277 -28.236  15.661  1.00  0.00    -0.624 OA
HETATM   30  O7  UNL     1     -17.420 -26.757  14.473  1.00  0.00    -0.624 OA
BRANCH  28  31
HETATM   31  O8  UNL     1     -16.953 -27.916  16.893  1.00  0.00    -0.173 OA
BRANCH  31  32
HETATM   32  P3  UNL     1     -17.832 -26.877  17.920  1.00  0.00     0.431 P 
HETATM   33  O9  UNL     1     -19.189 -27.454  18.254  1.00  0.00    -0.616 OA
HETATM   34  O10 UNL     1     -18.039 -25.363  17.219  1.00  0.00    -0.616 OA
HETATM   35  O11 UNL     1     -16.976 -26.713  19.377  1.00  0.00    -0.616 OA
ENDBRANCH  31  32
ENDBRANCH  28  31
ENDBRANCH  27  28
ENDBRANCH  24  27
ENDBRANCH  23  24
ENDBRANCH  22  23
ENDBRANCH   3  22
BRANCH   4  36
HETATM   36  O12 UNL     1     -12.119 -30.284  12.124  1.00  0.00    -0.390 OA
ATOM     37  H12 UNL     1     -12.108 -30.101  11.192  1.00  0.00     0.210 HD
ENDBRANCH   4  36
TORSDOF 10
ENDMDL
