MODEL 9
REMARK VINA RESULT: -9.806344642      2.552      4.622
REMARK  10 active torsions:
REMARK  status: ('A' for Active; 'I' for Inactive)
REMARK    1  A    between atoms: N4_10  and  C5_11 
REMARK    2  A    between atoms: C6_13  and  C7_14 
REMARK    3  A    between atoms: C7_14  and  O2_15 
REMARK    4  A    between atoms: O2_15  and  P1_16 
REMARK    5  A    between atoms: P1_16  and  O5_19 
REMARK    6  A    between atoms: O5_19  and  P2_20 
REMARK    7  A    between atoms: P2_20  and  O8_23 
REMARK    8  A    between atoms: O8_23  and  P3_24 
REMARK    9  A    between atoms: C8_28  and  O12_29 
REMARK   10  A    between atoms: C9_31  and  O13_32 
ROOT
HETATM    1  C5  UNL     1     -15.844 -33.152  11.566  1.00  0.00     0.262 C 
HETATM    2  O1  UNL     1     -16.462 -32.241  12.419  1.00  0.00    -0.353 OA
HETATM    3  C6  UNL     1     -15.560 -31.981  13.439  1.00  0.00     0.180 C 
HETATM    4  C8  UNL     1     -14.270 -31.816  12.663  1.00  0.00     0.182 C 
HETATM    5  C9  UNL     1     -14.388 -33.024  11.726  1.00  0.00     0.198 C 
ENDROOT
BRANCH   1   6
HETATM    6  N4  UNL     1     -16.366 -32.989  10.256  1.00  0.00    -0.297 N 
HETATM    7  C2  UNL     1     -16.536 -33.876   9.261  1.00  0.00     0.146 A 
HETATM    8  N2  UNL     1     -16.261 -35.173   9.222  1.00  0.00    -0.314 N 
HETATM    9  C3  UNL     1     -17.077 -33.248   8.186  1.00  0.00     0.146 A 
HETATM   10  C1  UNL     1     -16.504 -35.910   8.123  1.00  0.00     0.196 A 
ATOM     11  H2  UNL     1     -15.855 -35.622  10.044  1.00  0.00     0.170 HD
HETATM   12  N1  UNL     1     -16.220 -37.302   8.044  1.00  0.00    -0.063 NA
HETATM   13  N5  UNL     1     -17.040 -35.319   7.037  1.00  0.00    -0.295 N 
HETATM   14  C10 UNL     1     -17.334 -34.006   7.040  1.00  0.00     0.278 A 
ATOM     15  H5  UNL     1     -17.225 -35.875   6.202  1.00  0.00     0.171 HD
HETATM   16  O14 UNL     1     -17.833 -33.420   6.052  1.00  0.00    -0.265 OA
HETATM   17  N3  UNL     1     -17.243 -31.967   8.517  1.00  0.00    -0.345 N 
HETATM   18  C4  UNL     1     -16.813 -31.819   9.762  1.00  0.00     0.188 A 
ATOM     19  H3  UNL     1     -17.629 -31.235   7.921  1.00  0.00     0.167 HD
ENDBRANCH   1   6
BRANCH   5  20
HETATM   20  O13 UNL     1     -13.840 -34.102  12.461  1.00  0.00    -0.388 OA
ATOM     21  H13 UNL     1     -13.085 -33.836  12.973  1.00  0.00     0.210 HD
ENDBRANCH   5  20
BRANCH   3  22
HETATM   22  C7  UNL     1     -15.958 -30.717  14.162  1.00  0.00     0.216 C 
BRANCH  22  23
HETATM   23  O2  UNL     1     -14.792 -29.946  14.285  1.00  0.00    -0.287 OA
BRANCH  23  24
HETATM   24  P1  UNL     1     -15.065 -28.320  14.037  1.00  0.00     0.417 P 
HETATM   25  O3  UNL     1     -14.674 -27.559  15.287  1.00  0.00    -0.624 OA
HETATM   26  O4  UNL     1     -16.669 -27.977  13.640  1.00  0.00    -0.624 OA
BRANCH  24  27
HETATM   27  O5  UNL     1     -14.007 -27.797  12.810  1.00  0.00    -0.180 OA
BRANCH  27  28
HETATM   28  P2  UNL     1     -12.441 -28.383  13.112  1.00  0.00     0.428 P 
HETATM   29  O6  UNL     1     -12.022 -29.370  12.060  1.00  0.00    -0.624 OA
HETATM   30  O7  UNL     1     -12.376 -29.051  14.672  1.00  0.00    -0.624 OA
BRANCH  28  31
HETATM   31  O8  UNL     1     -11.404 -27.026  13.131  1.00  0.00    -0.173 OA
BRANCH  31  32
HETATM   32  P3  UNL     1      -9.992 -27.377  12.243  1.00  0.00     0.431 P 
HETATM   33  O9  UNL     1      -9.117 -26.154  12.097  1.00  0.00    -0.616 OA
HETATM   34  O10 UNL     1     -10.368 -27.967  10.714  1.00  0.00    -0.616 OA
HETATM   35  O11 UNL     1      -9.099 -28.544  13.095  1.00  0.00    -0.616 OA
ENDBRANCH  31  32
ENDBRANCH  28  31
ENDBRANCH  27  28
ENDBRANCH  24  27
ENDBRANCH  23  24
ENDBRANCH  22  23
ENDBRANCH   3  22
BRANCH   4  36
HETATM   36  O12 UNL     1     -13.156 -31.909  13.471  1.00  0.00    -0.390 OA
ATOM     37  H12 UNL     1     -12.736 -32.759  13.413  1.00  0.00     0.210 HD
ENDBRANCH   4  36
TORSDOF 10
ENDMDL
