MODEL 6
REMARK VINA RESULT: -7.440576601      0.802      1.514
REMARK  3 active torsions:
REMARK  status: ('A' for Active; 'I' for Inactive)
REMARK    1  A    between atoms: O1_2  and  C2_3 
REMARK    2  A    between atoms: C6_7  and  C7_8 
REMARK    3  A    between atoms: C8_9  and  C9_10 
ROOT
HETATM    1  C7  UNL     1     -23.858  -5.342  43.281  1.00  0.00    -0.060 C 
HETATM    2  C8  UNL     1     -24.184  -6.082  42.367  1.00  0.00    -0.043 C 
ENDROOT
BRANCH   1   3
HETATM    3  C6  UNL     1     -23.484  -4.452  44.344  1.00  0.00     0.020 A 
HETATM    4  C5  UNL     1     -22.676  -4.832  45.397  1.00  0.00     0.021 A 
HETATM    5  C4  UNL     1     -22.330  -3.971  46.400  1.00  0.00     0.004 A 
HETATM    6  C3  UNL     1     -22.830  -2.675  46.321  1.00  0.00     0.037 A 
HETATM    7  C2  UNL     1     -23.635  -2.246  45.302  1.00  0.00     0.069 A 
HETATM    8  C15 UNL     1     -23.963  -3.158  44.298  1.00  0.00     0.057 A 
BRANCH   7   9
HETATM    9  O1  UNL     1     -24.108  -0.948  45.267  1.00  0.00    -0.356 OA
HETATM   10  C1  UNL     1     -24.478  -0.407  44.015  1.00  0.00     0.210 C 
ENDBRANCH   7   9
ENDBRANCH   1   3
BRANCH   2  11
HETATM   11  C9  UNL     1     -24.571  -6.935  41.275  1.00  0.00     0.087 A 
HETATM   12  C10 UNL     1     -24.032  -6.783  40.002  1.00  0.00     0.039 A 
HETATM   13  C11 UNL     1     -24.399  -7.596  38.954  1.00  0.00     0.005 A 
HETATM   14  C12 UNL     1     -25.330  -8.578  39.206  1.00  0.00     0.024 A 
HETATM   15  C13 UNL     1     -25.863  -8.727  40.467  1.00  0.00     0.006 A 
HETATM   16  C14 UNL     1     -26.861  -9.809  40.658  1.00  0.00     0.068 C 
HETATM   17  N1  UNL     1     -25.470  -7.908  41.452  1.00  0.00    -0.353 N 
ATOM     18  H1  UNL     1     -25.875  -8.032  42.380  1.00  0.00     0.166 HD
ENDBRANCH   2  11
TORSDOF 3
ENDMDL
