MODEL 4
REMARK VINA RESULT: -9.727449340      2.838      7.416
REMARK  3 active torsions:
REMARK  status: ('A' for Active; 'I' for Inactive)
REMARK    1  A    between atoms: O1_2  and  C2_3 
REMARK    2  A    between atoms: C6_7  and  C7_8 
REMARK    3  A    between atoms: C8_9  and  C9_10 
ROOT
HETATM    1  C7  UNL     1     -24.476  -6.281  42.491  1.00  0.00    -0.060 C 
HETATM    2  C8  UNL     1     -24.128  -5.428  43.290  1.00  0.00    -0.043 C 
ENDROOT
BRANCH   1   3
HETATM    3  C6  UNL     1     -24.863  -7.285  41.539  1.00  0.00     0.020 A 
HETATM    4  C5  UNL     1     -24.874  -8.635  41.828  1.00  0.00     0.021 A 
HETATM    5  C4  UNL     1     -25.246  -9.576  40.911  1.00  0.00     0.004 A 
HETATM    6  C3  UNL     1     -25.620  -9.117  39.651  1.00  0.00     0.037 A 
HETATM    7  C2  UNL     1     -25.628  -7.792  39.312  1.00  0.00     0.069 A 
HETATM    8  C15 UNL     1     -25.241  -6.865  40.279  1.00  0.00     0.057 A 
BRANCH   7   9
HETATM    9  O1  UNL     1     -26.008  -7.384  38.047  1.00  0.00    -0.356 OA
HETATM   10  C1  UNL     1     -25.001  -7.208  37.072  1.00  0.00     0.210 C 
ENDBRANCH   7   9
ENDBRANCH   1   3
BRANCH   2  11
HETATM   11  C9  UNL     1     -23.697  -4.417  44.219  1.00  0.00     0.087 A 
HETATM   12  C10 UNL     1     -24.182  -3.116  44.161  1.00  0.00     0.039 A 
HETATM   13  C11 UNL     1     -23.773  -2.145  45.047  1.00  0.00     0.005 A 
HETATM   14  C12 UNL     1     -22.856  -2.507  46.008  1.00  0.00     0.024 A 
HETATM   15  C13 UNL     1     -22.376  -3.797  46.064  1.00  0.00     0.006 A 
HETATM   16  C14 UNL     1     -21.389  -4.107  47.129  1.00  0.00     0.068 C 
HETATM   17  N1  UNL     1     -22.808  -4.702  45.176  1.00  0.00    -0.353 N 
ATOM     18  H1  UNL     1     -22.443  -5.653  45.233  1.00  0.00     0.166 HD
ENDBRANCH   2  11
TORSDOF 3
ENDMDL
