MODEL 3
REMARK VINA RESULT: -9.908187096      2.771      7.244
REMARK  3 active torsions:
REMARK  status: ('A' for Active; 'I' for Inactive)
REMARK    1  A    between atoms: O1_2  and  C2_3 
REMARK    2  A    between atoms: C6_7  and  C7_8 
REMARK    3  A    between atoms: C8_9  and  C9_10 
ROOT
HETATM    1  C7  UNL     1     -24.487  -6.253  42.377  1.00  0.00    -0.060 C 
HETATM    2  C8  UNL     1     -24.165  -5.358  43.141  1.00  0.00    -0.043 C 
ENDROOT
BRANCH   1   3
HETATM    3  C6  UNL     1     -24.871  -7.291  41.461  1.00  0.00     0.020 A 
HETATM    4  C5  UNL     1     -24.867  -8.630  41.793  1.00  0.00     0.021 A 
HETATM    5  C4  UNL     1     -25.235  -9.603  40.908  1.00  0.00     0.004 A 
HETATM    6  C3  UNL     1     -25.621  -9.189  39.637  1.00  0.00     0.037 A 
HETATM    7  C2  UNL     1     -25.643  -7.876  39.255  1.00  0.00     0.069 A 
HETATM    8  C15 UNL     1     -25.260  -6.914  40.190  1.00  0.00     0.057 A 
BRANCH   7   9
HETATM    9  O1  UNL     1     -26.034  -7.512  37.980  1.00  0.00    -0.356 OA
HETATM   10  C1  UNL     1     -25.029  -7.205  37.036  1.00  0.00     0.210 C 
ENDBRANCH   7   9
ENDBRANCH   1   3
BRANCH   2  11
HETATM   11  C9  UNL     1     -23.793  -4.285  44.025  1.00  0.00     0.087 A 
HETATM   12  C10 UNL     1     -22.945  -4.490  45.107  1.00  0.00     0.039 A 
HETATM   13  C11 UNL     1     -22.587  -3.467  45.956  1.00  0.00     0.005 A 
HETATM   14  C12 UNL     1     -23.101  -2.217  45.698  1.00  0.00     0.024 A 
HETATM   15  C13 UNL     1     -23.941  -2.016  44.625  1.00  0.00     0.006 A 
HETATM   16  C14 UNL     1     -24.454  -0.639  44.414  1.00  0.00     0.068 C 
HETATM   17  N1  UNL     1     -24.257  -3.047  43.831  1.00  0.00    -0.353 N 
ATOM     18  H1  UNL     1     -24.881  -2.880  43.041  1.00  0.00     0.166 HD
ENDBRANCH   2  11
TORSDOF 3
ENDMDL
