MODEL 1
REMARK VINA RESULT: -10.434951734      0.000      0.000
REMARK  3 active torsions:
REMARK  status: ('A' for Active; 'I' for Inactive)
REMARK    1  A    between atoms: O1_2  and  C2_3 
REMARK    2  A    between atoms: C6_7  and  C7_8 
REMARK    3  A    between atoms: C8_9  and  C9_10 
ROOT
HETATM    1  C7  UNL     1     -24.040  -5.541  43.293  1.00  0.00    -0.060 C 
HETATM    2  C8  UNL     1     -24.411  -6.312  42.423  1.00  0.00    -0.043 C 
ENDROOT
BRANCH   1   3
HETATM    3  C6  UNL     1     -23.584  -4.629  44.305  1.00  0.00     0.020 A 
HETATM    4  C5  UNL     1     -22.689  -4.983  45.293  1.00  0.00     0.021 A 
HETATM    5  C4  UNL     1     -22.266  -4.102  46.247  1.00  0.00     0.004 A 
HETATM    6  C3  UNL     1     -22.780  -2.809  46.186  1.00  0.00     0.037 A 
HETATM    7  C2  UNL     1     -23.669  -2.405  45.228  1.00  0.00     0.069 A 
HETATM    8  C15 UNL     1     -24.073  -3.338  44.273  1.00  0.00     0.057 A 
BRANCH   7   9
HETATM    9  O1  UNL     1     -24.151  -1.110  45.207  1.00  0.00    -0.356 OA
HETATM   10  C1  UNL     1     -24.362  -0.497  43.952  1.00  0.00     0.210 C 
ENDBRANCH   7   9
ENDBRANCH   1   3
BRANCH   2  11
HETATM   11  C9  UNL     1     -24.825  -7.219  41.386  1.00  0.00     0.087 A 
HETATM   12  C10 UNL     1     -25.053  -8.567  41.641  1.00  0.00     0.039 A 
HETATM   13  C11 UNL     1     -25.449  -9.438  40.652  1.00  0.00     0.005 A 
HETATM   14  C12 UNL     1     -25.617  -8.929  39.385  1.00  0.00     0.024 A 
HETATM   15  C13 UNL     1     -25.392  -7.593  39.134  1.00  0.00     0.006 A 
HETATM   16  C14 UNL     1     -25.594  -7.121  37.741  1.00  0.00     0.068 C 
HETATM   17  N1  UNL     1     -25.007  -6.789  40.134  1.00  0.00    -0.353 N 
ATOM     18  H1  UNL     1     -24.844  -5.803  39.930  1.00  0.00     0.166 HD
ENDBRANCH   2  11
TORSDOF 3
ENDMDL
