MODEL 7
REMARK VINA RESULT: -6.152312416      4.341      8.177
REMARK  3 active torsions:
REMARK  status: ('A' for Active; 'I' for Inactive)
REMARK    1  A    between atoms: O1_2  and  C2_3 
REMARK    2  A    between atoms: C6_7  and  C7_8 
REMARK    3  A    between atoms: C8_9  and  C9_10 
ROOT
HETATM    1  C7  UNL     1     -21.352  -4.079  46.591  1.00  0.00    -0.060 C 
HETATM    2  C8  UNL     1     -20.553  -4.634  47.327  1.00  0.00    -0.043 C 
ENDROOT
BRANCH   1   3
HETATM    3  C6  UNL     1     -22.302  -3.447  45.718  1.00  0.00     0.020 A 
HETATM    4  C5  UNL     1     -22.455  -2.078  45.634  1.00  0.00     0.021 A 
HETATM    5  C4  UNL     1     -23.364  -1.495  44.798  1.00  0.00     0.004 A 
HETATM    6  C3  UNL     1     -24.144  -2.345  44.020  1.00  0.00     0.037 A 
HETATM    7  C2  UNL     1     -24.034  -3.707  44.064  1.00  0.00     0.069 A 
HETATM    8  C15 UNL     1     -23.092  -4.262  44.931  1.00  0.00     0.057 A 
BRANCH   7   9
HETATM    9  O1  UNL     1     -24.831  -4.512  43.271  1.00  0.00    -0.356 OA
HETATM   10  C1  UNL     1     -24.362  -5.804  42.948  1.00  0.00     0.210 C 
ENDBRANCH   7   9
ENDBRANCH   1   3
BRANCH   2  11
HETATM   11  C9  UNL     1     -19.617  -5.311  48.185  1.00  0.00     0.087 A 
HETATM   12  C10 UNL     1     -18.398  -5.782  47.710  1.00  0.00     0.039 A 
HETATM   13  C11 UNL     1     -17.499  -6.431  48.526  1.00  0.00     0.005 A 
HETATM   14  C12 UNL     1     -17.847  -6.600  49.847  1.00  0.00     0.024 A 
HETATM   15  C13 UNL     1     -19.055  -6.132  50.316  1.00  0.00     0.006 A 
HETATM   16  C14 UNL     1     -19.356  -6.354  51.753  1.00  0.00     0.068 C 
HETATM   17  N1  UNL     1     -19.893  -5.508  49.478  1.00  0.00    -0.353 N 
ATOM     18  H1  UNL     1     -20.782  -5.168  49.842  1.00  0.00     0.166 HD
ENDBRANCH   2  11
TORSDOF 3
ENDMDL
