MODEL 1
REMARK VINA RESULT: -7.271396091      0.000      0.000
REMARK  5 active torsions:
REMARK  status: ('A' for Active; 'I' for Inactive)
REMARK    1  A    between atoms: C3_4  and  C4_5 
REMARK       I    between atoms: C4_5  and  N2_7 
REMARK    2  A    between atoms: N2_7  and  C5_9 
REMARK    3  A    between atoms: N3_16  and  C10_17 
REMARK    4  A    between atoms: C10_17  and  C11_18 
REMARK    5  A    between atoms: C11_18  and  N4_19 
ROOT
HETATM    1  C5  UNL     1     -21.500  -6.631 -15.041  1.00  0.00     0.037 A 
HETATM    2  C6  UNL     1     -21.610  -5.431 -15.693  1.00  0.00     0.032 A 
HETATM    3  C7  UNL     1     -20.502  -4.604 -15.807  1.00  0.00     0.042 A 
HETATM    4  C8  UNL     1     -19.278  -4.943 -15.284  1.00  0.00     0.108 A 
HETATM    5  O2  UNL     1     -18.107  -4.367 -15.251  1.00  0.00    -0.259 OA
HETATM    6  C9  UNL     1     -17.241  -5.134 -14.607  1.00  0.00     0.372 A 
HETATM    7  O3  UNL     1     -16.028  -4.858 -14.405  1.00  0.00    -0.237 OA
HETATM    8  N3  UNL     1     -17.843  -6.263 -14.192  1.00  0.00    -0.289 N 
HETATM    9  C14 UNL     1     -19.136  -6.143 -14.621  1.00  0.00     0.075 A 
HETATM   10  C15 UNL     1     -20.237  -6.946 -14.517  1.00  0.00     0.062 A 
ENDROOT
BRANCH   1  11
HETATM   11  N2  UNL     1     -22.548  -7.576 -14.866  1.00  0.00    -0.326 N 
HETATM   12  C4  UNL     1     -22.828  -8.695 -15.663  1.00  0.00     0.231 C 
HETATM   13  O1  UNL     1     -22.107  -8.941 -16.651  1.00  0.00    -0.272 OA
ATOM     14  H2  UNL     1     -23.167  -7.423 -14.070  1.00  0.00     0.169 HD
BRANCH  12  15
HETATM   15  C3  UNL     1     -23.985  -9.619 -15.361  1.00  0.00     0.119 C 
HETATM   16  C2  UNL     1     -24.347 -10.368 -16.603  1.00  0.00     0.143 C 
HETATM   17  N1  UNL     1     -25.210  -9.587 -17.478  1.00  0.00    -0.352 N 
HETATM   18  C1  UNL     1     -25.021  -9.597 -18.936  1.00  0.00     0.152 C 
HETATM   19  C18 UNL     1     -26.232  -8.823 -16.869  1.00  0.00     0.242 C 
HETATM   20  C17 UNL     1     -26.116  -8.455 -15.473  1.00  0.00     0.071 C 
HETATM   21  O4  UNL     1     -27.239  -8.475 -17.573  1.00  0.00    -0.268 OA
HETATM   22  C16 UNL     1     -25.065  -8.834 -14.784  1.00  0.00    -0.006 C 
ENDBRANCH  12  15
ENDBRANCH   1  11
BRANCH   8  23
HETATM   23  C10 UNL     1     -17.305  -7.391 -13.455  1.00  0.00     0.164 C 
BRANCH  23  24
HETATM   24  C11 UNL     1     -16.597  -8.301 -14.436  1.00  0.00     0.291 C 
BRANCH  24  25
HETATM   25  N4  UNL     1     -17.224  -9.576 -14.577  1.00  0.00     0.081 N 
HETATM   26  C12 UNL     1     -16.564 -10.322 -15.610  1.00  0.00     0.309 C 
HETATM   27  C13 UNL     1     -17.308 -10.280 -13.327  1.00  0.00     0.309 C 
ENDBRANCH  24  25
ENDBRANCH  23  24
ENDBRANCH   8  23
TORSDOF 5
ENDMDL
