MODEL 2
REMARK VINA RESULT: -7.190614520      1.260      1.862
REMARK  5 active torsions:
REMARK  status: ('A' for Active; 'I' for Inactive)
REMARK    1  A    between atoms: C3_4  and  C4_5 
REMARK       I    between atoms: C4_5  and  N2_7 
REMARK    2  A    between atoms: N2_7  and  C5_9 
REMARK    3  A    between atoms: N3_16  and  C10_17 
REMARK    4  A    between atoms: C10_17  and  C11_18 
REMARK    5  A    between atoms: C11_18  and  N4_19 
ROOT
HETATM    1  C5  UNL     1     -21.682  -6.146 -15.348  1.00  0.00     0.037 A 
HETATM    2  C6  UNL     1     -21.583  -4.930 -15.970  1.00  0.00     0.032 A 
HETATM    3  C7  UNL     1     -20.366  -4.263 -15.991  1.00  0.00     0.042 A 
HETATM    4  C8  UNL     1     -19.238  -4.779 -15.403  1.00  0.00     0.108 A 
HETATM    5  O2  UNL     1     -18.004  -4.372 -15.280  1.00  0.00    -0.259 OA
HETATM    6  C9  UNL     1     -17.295  -5.265 -14.606  1.00  0.00     0.372 A 
HETATM    7  O3  UNL     1     -16.072  -5.165 -14.321  1.00  0.00    -0.237 OA
HETATM    8  N3  UNL     1     -18.072  -6.308 -14.263  1.00  0.00    -0.289 N 
HETATM    9  C14 UNL     1     -19.305  -6.001 -14.768  1.00  0.00     0.075 A 
HETATM   10  C15 UNL     1     -20.510  -6.645 -14.756  1.00  0.00     0.062 A 
ENDROOT
BRANCH   1  11
HETATM   11  N2  UNL     1     -22.858  -6.941 -15.267  1.00  0.00    -0.326 N 
HETATM   12  C4  UNL     1     -23.322  -7.877 -16.202  1.00  0.00     0.231 C 
HETATM   13  O1  UNL     1     -22.665  -8.080 -17.243  1.00  0.00    -0.272 OA
ATOM     14  H2  UNL     1     -23.432  -6.815 -14.433  1.00  0.00     0.169 HD
BRANCH  12  15
HETATM   15  C3  UNL     1     -24.601  -8.652 -15.988  1.00  0.00     0.119 C 
HETATM   16  C2  UNL     1     -24.322  -9.812 -15.088  1.00  0.00     0.143 C 
HETATM   17  N1  UNL     1     -23.767 -10.945 -15.816  1.00  0.00    -0.352 N 
HETATM   18  C1  UNL     1     -22.676 -11.750 -15.247  1.00  0.00     0.152 C 
HETATM   19  C18 UNL     1     -24.318 -11.236 -17.084  1.00  0.00     0.242 C 
HETATM   20  C17 UNL     1     -25.025 -10.202 -17.811  1.00  0.00     0.071 C 
HETATM   21  O4  UNL     1     -24.177 -12.413 -17.559  1.00  0.00    -0.268 OA
HETATM   22  C16 UNL     1     -25.149  -9.005 -17.288  1.00  0.00    -0.006 C 
ENDBRANCH  12  15
ENDBRANCH   1  11
BRANCH   8  23
HETATM   23  C10 UNL     1     -17.744  -7.514 -13.527  1.00  0.00     0.164 C 
BRANCH  23  24
HETATM   24  C11 UNL     1     -16.847  -8.368 -14.397  1.00  0.00     0.291 C 
BRANCH  24  25
HETATM   25  N4  UNL     1     -17.308  -9.712 -14.536  1.00  0.00     0.081 N 
HETATM   26  C12 UNL     1     -16.563 -10.368 -15.573  1.00  0.00     0.309 C 
HETATM   27  C13 UNL     1     -17.294 -10.421 -13.286  1.00  0.00     0.309 C 
ENDBRANCH  24  25
ENDBRANCH  23  24
ENDBRANCH   8  23
TORSDOF 5
ENDMDL
