MODEL 3
REMARK VINA RESULT: -7.174900241      1.321      1.666
REMARK  5 active torsions:
REMARK  status: ('A' for Active; 'I' for Inactive)
REMARK    1  A    between atoms: C3_4  and  C4_5 
REMARK       I    between atoms: C4_5  and  N2_7 
REMARK    2  A    between atoms: N2_7  and  C5_9 
REMARK    3  A    between atoms: N3_16  and  C10_17 
REMARK    4  A    between atoms: C10_17  and  C11_18 
REMARK    5  A    between atoms: C11_18  and  N4_19 
ROOT
HETATM    1  C5  UNL     1     -21.954  -6.335 -15.186  1.00  0.00     0.037 A 
HETATM    2  C6  UNL     1     -22.086  -5.260 -16.025  1.00  0.00     0.032 A 
HETATM    3  C7  UNL     1     -20.999  -4.431 -16.261  1.00  0.00     0.042 A 
HETATM    4  C8  UNL     1     -19.774  -4.646 -15.679  1.00  0.00     0.108 A 
HETATM    5  O2  UNL     1     -18.619  -4.040 -15.728  1.00  0.00    -0.259 OA
HETATM    6  C9  UNL     1     -17.742  -4.668 -14.961  1.00  0.00     0.372 A 
HETATM    7  O3  UNL     1     -16.539  -4.330 -14.796  1.00  0.00    -0.237 OA
HETATM    8  N3  UNL     1     -18.319  -5.732 -14.375  1.00  0.00    -0.289 N 
HETATM    9  C14 UNL     1     -19.609  -5.720 -14.829  1.00  0.00     0.075 A 
HETATM   10  C15 UNL     1     -20.689  -6.526 -14.606  1.00  0.00     0.062 A 
ENDROOT
BRANCH   1  11
HETATM   11  N2  UNL     1     -22.978  -7.269 -14.870  1.00  0.00    -0.326 N 
HETATM   12  C4  UNL     1     -23.193  -8.528 -15.448  1.00  0.00     0.231 C 
HETATM   13  O1  UNL     1     -22.425  -8.929 -16.347  1.00  0.00    -0.272 OA
ATOM     14  H2  UNL     1     -23.633  -6.992 -14.138  1.00  0.00     0.169 HD
BRANCH  12  15
HETATM   15  C3  UNL     1     -24.332  -9.421 -15.016  1.00  0.00     0.119 C 
HETATM   16  C2  UNL     1     -23.878 -10.844 -15.056  1.00  0.00     0.143 C 
HETATM   17  N1  UNL     1     -23.960 -11.403 -16.399  1.00  0.00    -0.352 N 
HETATM   18  C1  UNL     1     -22.902 -12.280 -16.921  1.00  0.00     0.152 C 
HETATM   19  C18 UNL     1     -25.095 -11.070 -17.173  1.00  0.00     0.242 C 
HETATM   20  C17 UNL     1     -25.857  -9.882 -16.851  1.00  0.00     0.071 C 
HETATM   21  O4  UNL     1     -25.419 -11.832 -18.145  1.00  0.00    -0.268 OA
HETATM   22  C16 UNL     1     -25.491  -9.124 -15.844  1.00  0.00    -0.006 C 
ENDBRANCH  12  15
ENDBRANCH   1  11
BRANCH   8  23
HETATM   23  C10 UNL     1     -17.762  -6.710 -13.460  1.00  0.00     0.164 C 
BRANCH  23  24
HETATM   24  C11 UNL     1     -17.879  -8.076 -14.101  1.00  0.00     0.291 C 
BRANCH  24  25
HETATM   25  N4  UNL     1     -16.700  -8.870 -13.962  1.00  0.00     0.081 N 
HETATM   26  C12 UNL     1     -15.706  -8.126 -13.242  1.00  0.00     0.309 C 
HETATM   27  C13 UNL     1     -16.979 -10.157 -13.387  1.00  0.00     0.309 C 
ENDBRANCH  24  25
ENDBRANCH  23  24
ENDBRANCH   8  23
TORSDOF 5
ENDMDL
