MODEL 4
REMARK VINA RESULT: -10.074605279      3.215      5.159
REMARK  8 active torsions:
REMARK  status: ('A' for Active; 'I' for Inactive)
REMARK    1  A    between atoms: N5_13  and  C6_14 
REMARK    2  A    between atoms: C7_16  and  C8_17 
REMARK    3  A    between atoms: C8_17  and  O2_18 
REMARK    4  A    between atoms: O2_18  and  P1_19 
REMARK    5  A    between atoms: P1_19  and  O5_22 
REMARK    6  A    between atoms: O5_22  and  P2_23 
REMARK    7  A    between atoms: C9_27  and  O9_28 
REMARK    8  A    between atoms: C10_30  and  O10_31 
ROOT
HETATM    1  C6  UNL     1      20.271  -5.914  69.322  1.00  0.00     0.262 C 
HETATM    2  O1  UNL     1      20.219  -7.271  69.638  1.00  0.00    -0.353 OA
HETATM    3  C7  UNL     1      20.244  -7.836  68.364  1.00  0.00     0.180 C 
HETATM    4  C9  UNL     1      21.326  -7.116  67.606  1.00  0.00     0.182 C 
HETATM    5  C10 UNL     1      21.511  -5.854  68.460  1.00  0.00     0.198 C 
ENDROOT
BRANCH   1   6
HETATM    6  N5  UNL     1      20.350  -5.071  70.482  1.00  0.00    -0.297 N 
HETATM    7  C3  UNL     1      21.281  -5.224  71.447  1.00  0.00     0.142 A 
HETATM    8  N3  UNL     1      22.293  -6.114  71.586  1.00  0.00    -0.336 N 
HETATM    9  C4  UNL     1      21.093  -4.266  72.420  1.00  0.00     0.119 A 
HETATM   10  C2  UNL     1      23.129  -6.100  72.642  1.00  0.00     0.183 A 
ATOM     11  H3  UNL     1      22.428  -6.821  70.863  1.00  0.00     0.168 HD
HETATM   12  N2  UNL     1      22.945  -5.176  73.579  1.00  0.00    -0.339 N 
HETATM   13  C1  UNL     1      21.950  -4.261  73.491  1.00  0.00     0.148 A 
ATOM     14  H2  UNL     1      23.570  -5.154  74.385  1.00  0.00     0.167 HD
HETATM   15  N1  UNL     1      21.796  -3.306  74.501  1.00  0.00    -0.080 NA
HETATM   16  N4  UNL     1      20.035  -3.544  72.010  1.00  0.00    -0.346 N 
HETATM   17  C5  UNL     1      19.595  -4.040  70.839  1.00  0.00     0.188 A 
ATOM     18  H4  UNL     1      19.631  -2.750  72.506  1.00  0.00     0.167 HD
ENDBRANCH   1   6
BRANCH   5  19
HETATM   19  O10 UNL     1      21.582  -4.725  67.678  1.00  0.00    -0.388 OA
ATOM     20  H10 UNL     1      20.811  -4.173  67.738  1.00  0.00     0.210 HD
ENDBRANCH   5  19
BRANCH   3  21
HETATM   21  C8  UNL     1      20.466  -9.330  68.411  1.00  0.00     0.216 C 
BRANCH  21  22
HETATM   22  O2  UNL     1      21.803  -9.562  68.317  1.00  0.00    -0.287 OA
BRANCH  22  23
HETATM   23  P1  UNL     1      22.317 -10.755  67.322  1.00  0.00     0.418 P 
HETATM   24  O3  UNL     1      23.766 -10.675  67.796  1.00  0.00    -0.624 OA
HETATM   25  O4  UNL     1      22.267 -12.359  67.936  1.00  0.00    -0.624 OA
BRANCH  23  26
HETATM   26  O5  UNL     1      22.658 -10.500  65.771  1.00  0.00    -0.173 OA
BRANCH  26  27
HETATM   27  P2  UNL     1      21.595 -10.998  64.618  1.00  0.00     0.431 P 
HETATM   28  O6  UNL     1      21.671 -12.497  64.019  1.00  0.00    -0.616 OA
HETATM   29  O7  UNL     1      20.581  -9.847  63.908  1.00  0.00    -0.616 OA
HETATM   30  O8  UNL     1      20.515 -11.244  65.674  1.00  0.00    -0.616 OA
ENDBRANCH  26  27
ENDBRANCH  23  26
ENDBRANCH  22  23
ENDBRANCH  21  22
ENDBRANCH   3  21
BRANCH   4  31
HETATM   31  O9  UNL     1      20.848  -6.666  66.367  1.00  0.00    -0.390 OA
ATOM     32  H9  UNL     1      21.514  -6.757  65.697  1.00  0.00     0.210 HD
ENDBRANCH   4  31
TORSDOF 8
ENDMDL
