MODEL 8
REMARK VINA RESULT: -9.828153836      1.324      1.572
REMARK  8 active torsions:
REMARK  status: ('A' for Active; 'I' for Inactive)
REMARK    1  A    between atoms: N5_13  and  C6_14 
REMARK    2  A    between atoms: C7_16  and  C8_17 
REMARK    3  A    between atoms: C8_17  and  O2_18 
REMARK    4  A    between atoms: O2_18  and  P1_19 
REMARK    5  A    between atoms: P1_19  and  O5_22 
REMARK    6  A    between atoms: O5_22  and  P2_23 
REMARK    7  A    between atoms: C9_27  and  O9_28 
REMARK    8  A    between atoms: C10_30  and  O10_31 
ROOT
HETATM    1  C6  UNL     1      22.397  -3.195  73.549  1.00  0.00     0.262 C 
HETATM    2  O1  UNL     1      21.704  -3.919  72.578  1.00  0.00    -0.353 OA
HETATM    3  C7  UNL     1      22.384  -5.135  72.627  1.00  0.00     0.180 C 
HETATM    4  C9  UNL     1      22.535  -5.474  74.085  1.00  0.00     0.182 C 
HETATM    5  C10 UNL     1      22.283  -4.111  74.745  1.00  0.00     0.198 C 
ENDROOT
BRANCH   1   6
HETATM    6  N5  UNL     1      21.838  -1.893  73.780  1.00  0.00    -0.297 N 
HETATM    7  C3  UNL     1      22.519  -0.887  74.368  1.00  0.00     0.142 A 
HETATM    8  N3  UNL     1      23.782  -0.822  74.855  1.00  0.00    -0.336 N 
HETATM    9  C4  UNL     1      21.713   0.228  74.446  1.00  0.00     0.119 A 
HETATM   10  C2  UNL     1      24.285   0.295  75.414  1.00  0.00     0.183 A 
ATOM     11  H3  UNL     1      24.375  -1.650  74.795  1.00  0.00     0.168 HD
HETATM   12  N2  UNL     1      23.506   1.368  75.489  1.00  0.00    -0.339 N 
HETATM   13  C1  UNL     1      22.236   1.360  75.018  1.00  0.00     0.148 A 
ATOM     14  H2  UNL     1      23.874   2.221  75.911  1.00  0.00     0.167 HD
HETATM   15  N1  UNL     1      21.454   2.515  75.117  1.00  0.00    -0.080 NA
HETATM   16  N4  UNL     1      20.544  -0.138  73.892  1.00  0.00    -0.346 N 
HETATM   17  C5  UNL     1      20.631  -1.421  73.494  1.00  0.00     0.188 A 
ATOM     18  H4  UNL     1      19.723   0.460  73.790  1.00  0.00     0.167 HD
ENDBRANCH   1   6
BRANCH   5  19
HETATM   19  O10 UNL     1      23.210  -3.849  75.726  1.00  0.00    -0.388 OA
ATOM     20  H10 UNL     1      23.260  -4.526  76.391  1.00  0.00     0.210 HD
ENDBRANCH   5  19
BRANCH   3  21
HETATM   21  C8  UNL     1      21.667  -6.216  71.852  1.00  0.00     0.216 C 
BRANCH  21  22
HETATM   22  O2  UNL     1      22.246  -6.310  70.625  1.00  0.00    -0.287 OA
BRANCH  22  23
HETATM   23  P1  UNL     1      21.273  -6.361  69.309  1.00  0.00     0.418 P 
HETATM   24  O3  UNL     1      20.207  -5.458  69.927  1.00  0.00    -0.624 OA
HETATM   25  O4  UNL     1      21.516  -5.152  68.112  1.00  0.00    -0.624 OA
BRANCH  23  26
HETATM   26  O5  UNL     1      20.274  -7.587  69.019  1.00  0.00    -0.173 OA
BRANCH  26  27
HETATM   27  P2  UNL     1      20.637  -8.658  67.825  1.00  0.00     0.431 P 
HETATM   28  O6  UNL     1      21.821  -9.740  68.020  1.00  0.00    -0.616 OA
HETATM   29  O7  UNL     1      19.913  -8.452  66.311  1.00  0.00    -0.616 OA
HETATM   30  O8  UNL     1      19.461  -9.552  68.224  1.00  0.00    -0.616 OA
ENDBRANCH  26  27
ENDBRANCH  23  26
ENDBRANCH  22  23
ENDBRANCH  21  22
ENDBRANCH   3  21
BRANCH   4  31
HETATM   31  O9  UNL     1      23.867  -5.797  74.384  1.00  0.00    -0.390 OA
ATOM     32  H9  UNL     1      24.056  -5.628  75.299  1.00  0.00     0.210 HD
ENDBRANCH   4  31
TORSDOF 8
ENDMDL
