MODEL 3
REMARK VINA RESULT: -10.117510404      3.058      4.770
REMARK  8 active torsions:
REMARK  status: ('A' for Active; 'I' for Inactive)
REMARK    1  A    between atoms: N5_13  and  C6_14 
REMARK    2  A    between atoms: C7_16  and  C8_17 
REMARK    3  A    between atoms: C8_17  and  O2_18 
REMARK    4  A    between atoms: O2_18  and  P1_19 
REMARK    5  A    between atoms: P1_19  and  O5_22 
REMARK    6  A    between atoms: O5_22  and  P2_23 
REMARK    7  A    between atoms: C9_27  and  O9_28 
REMARK    8  A    between atoms: C10_30  and  O10_31 
ROOT
HETATM    1  C6  UNL     1      21.007  -6.059  70.377  1.00  0.00     0.262 C 
HETATM    2  O1  UNL     1      21.784  -6.779  69.468  1.00  0.00    -0.353 OA
HETATM    3  C7  UNL     1      20.906  -6.866  68.388  1.00  0.00     0.180 C 
HETATM    4  C9  UNL     1      20.326  -5.490  68.206  1.00  0.00     0.182 C 
HETATM    5  C10 UNL     1      20.641  -4.841  69.561  1.00  0.00     0.198 C 
ENDROOT
BRANCH   1   6
HETATM    6  N5  UNL     1      21.713  -5.738  71.584  1.00  0.00    -0.297 N 
HETATM    7  C3  UNL     1      21.166  -5.036  72.599  1.00  0.00     0.142 A 
HETATM    8  N3  UNL     1      19.934  -4.493  72.754  1.00  0.00    -0.336 N 
HETATM    9  C4  UNL     1      22.092  -4.895  73.610  1.00  0.00     0.119 A 
HETATM   10  C2  UNL     1      19.575  -3.817  73.862  1.00  0.00     0.183 A 
ATOM     11  H3  UNL     1      19.252  -4.601  72.002  1.00  0.00     0.168 HD
HETATM   12  N2  UNL     1      20.470  -3.681  74.834  1.00  0.00    -0.339 N 
HETATM   13  C1  UNL     1      21.715  -4.204  74.734  1.00  0.00     0.148 A 
ATOM     14  H2  UNL     1      20.212  -3.170  75.679  1.00  0.00     0.167 HD
HETATM   15  N1  UNL     1      22.623  -4.037  75.784  1.00  0.00    -0.080 NA
HETATM   16  N4  UNL     1      23.196  -5.527  73.174  1.00  0.00    -0.346 N 
HETATM   17  C5  UNL     1      22.955  -6.032  71.950  1.00  0.00     0.188 A 
ATOM     18  H4  UNL     1      24.073  -5.610  73.687  1.00  0.00     0.167 HD
ENDBRANCH   1   6
BRANCH   5  19
HETATM   19  O10 UNL     1      19.556  -4.156  70.054  1.00  0.00    -0.388 OA
ATOM     20  H10 UNL     1      18.976  -3.827  69.378  1.00  0.00     0.210 HD
ENDBRANCH   5  19
BRANCH   3  21
HETATM   21  C8  UNL     1      21.591  -7.376  67.142  1.00  0.00     0.216 C 
BRANCH  21  22
HETATM   22  O2  UNL     1      22.095  -8.610  67.411  1.00  0.00    -0.287 OA
BRANCH  22  23
HETATM   23  P1  UNL     1      21.075  -9.890  67.379  1.00  0.00     0.418 P 
HETATM   24  O3  UNL     1      21.489 -10.393  68.760  1.00  0.00    -0.624 OA
HETATM   25  O4  UNL     1      19.495  -9.645  68.007  1.00  0.00    -0.624 OA
BRANCH  23  26
HETATM   26  O5  UNL     1      21.430 -11.259  66.614  1.00  0.00    -0.173 OA
BRANCH  26  27
HETATM   27  P2  UNL     1      21.757 -11.222  65.002  1.00  0.00     0.431 P 
HETATM   28  O6  UNL     1      21.408 -12.487  64.060  1.00  0.00    -0.616 OA
HETATM   29  O7  UNL     1      22.677  -9.938  64.397  1.00  0.00    -0.616 OA
HETATM   30  O8  UNL     1      20.497 -10.398  64.732  1.00  0.00    -0.616 OA
ENDBRANCH  26  27
ENDBRANCH  23  26
ENDBRANCH  22  23
ENDBRANCH  21  22
ENDBRANCH   3  21
BRANCH   4  31
HETATM   31  O9  UNL     1      18.927  -5.547  68.132  1.00  0.00    -0.390 OA
ATOM     32  H9  UNL     1      18.540  -4.746  68.467  1.00  0.00     0.210 HD
ENDBRANCH   4  31
TORSDOF 8
ENDMDL
