MODEL 1
REMARK VINA RESULT: -10.727829178      0.000      0.000
REMARK  8 active torsions:
REMARK  status: ('A' for Active; 'I' for Inactive)
REMARK    1  A    between atoms: N5_13  and  C6_14 
REMARK    2  A    between atoms: C7_16  and  C8_17 
REMARK    3  A    between atoms: C8_17  and  O2_18 
REMARK    4  A    between atoms: O2_18  and  P1_19 
REMARK    5  A    between atoms: P1_19  and  O5_22 
REMARK    6  A    between atoms: O5_22  and  P2_23 
REMARK    7  A    between atoms: C9_27  and  O9_28 
REMARK    8  A    between atoms: C10_30  and  O10_31 
ROOT
HETATM    1  C6  UNL     1      22.418  -4.280  73.473  1.00  0.00     0.262 C 
HETATM    2  O1  UNL     1      21.877  -4.577  72.222  1.00  0.00    -0.353 OA
HETATM    3  C7  UNL     1      21.868  -5.971  72.268  1.00  0.00     0.180 C 
HETATM    4  C9  UNL     1      21.314  -6.344  73.616  1.00  0.00     0.182 C 
HETATM    5  C10 UNL     1      21.483  -5.030  74.392  1.00  0.00     0.198 C 
ENDROOT
BRANCH   1   6
HETATM    6  N5  UNL     1      22.463  -2.870  73.742  1.00  0.00    -0.297 N 
HETATM    7  C3  UNL     1      23.490  -2.269  74.378  1.00  0.00     0.142 A 
HETATM    8  N3  UNL     1      24.644  -2.763  74.888  1.00  0.00    -0.336 N 
HETATM    9  C4  UNL     1      23.237  -0.918  74.482  1.00  0.00     0.119 A 
HETATM   10  C2  UNL     1      25.559  -1.984  75.496  1.00  0.00     0.183 A 
ATOM     11  H3  UNL     1      24.827  -3.764  74.808  1.00  0.00     0.168 HD
HETATM   12  N2  UNL     1      25.312  -0.683  75.596  1.00  0.00    -0.339 N 
HETATM   13  C1  UNL     1      24.176  -0.134  75.103  1.00  0.00     0.148 A 
ATOM     14  H2  UNL     1      25.995  -0.081  76.056  1.00  0.00     0.167 HD
HETATM   15  N1  UNL     1      23.959   1.241  75.231  1.00  0.00    -0.080 NA
HETATM   16  N4  UNL     1      22.041  -0.734  73.895  1.00  0.00    -0.346 N 
HETATM   17  C5  UNL     1      21.584  -1.920  73.452  1.00  0.00     0.188 A 
ATOM     18  H4  UNL     1      21.558   0.161  73.801  1.00  0.00     0.167 HD
ENDBRANCH   1   6
BRANCH   5  19
HETATM   19  O10 UNL     1      22.005  -5.251  75.645  1.00  0.00    -0.388 OA
ATOM     20  H10 UNL     1      21.344  -5.409  76.308  1.00  0.00     0.210 HD
ENDBRANCH   5  19
BRANCH   3  21
HETATM   21  C8  UNL     1      21.076  -6.570  71.130  1.00  0.00     0.216 C 
BRANCH  21  22
HETATM   22  O2  UNL     1      21.873  -6.598  70.028  1.00  0.00    -0.287 OA
BRANCH  22  23
HETATM   23  P1  UNL     1      21.179  -6.395  68.560  1.00  0.00     0.418 P 
HETATM   24  O3  UNL     1      20.110  -5.434  69.077  1.00  0.00    -0.624 OA
HETATM   25  O4  UNL     1      21.776  -5.112  67.585  1.00  0.00    -0.624 OA
BRANCH  23  26
HETATM   26  O5  UNL     1      20.136  -7.452  67.943  1.00  0.00    -0.173 OA
BRANCH  26  27
HETATM   27  P2  UNL     1      20.629  -8.994  67.646  1.00  0.00     0.431 P 
HETATM   28  O6  UNL     1      21.509  -9.802  68.735  1.00  0.00    -0.616 OA
HETATM   29  O7  UNL     1      20.404  -9.626  66.094  1.00  0.00    -0.616 OA
HETATM   30  O8  UNL     1      19.254  -9.543  68.029  1.00  0.00    -0.616 OA
ENDBRANCH  26  27
ENDBRANCH  23  26
ENDBRANCH  22  23
ENDBRANCH  21  22
ENDBRANCH   3  21
BRANCH   4  31
HETATM   31  O9  UNL     1      22.150  -7.270  74.257  1.00  0.00    -0.390 OA
ATOM     32  H9  UNL     1      21.894  -7.381  75.165  1.00  0.00     0.210 HD
ENDBRANCH   4  31
TORSDOF 8
ENDMDL
