MODEL 12
REMARK VINA RESULT: -9.573698134      4.945      7.033
REMARK  8 active torsions:
REMARK  status: ('A' for Active; 'I' for Inactive)
REMARK    1  A    between atoms: N5_13  and  C6_14 
REMARK    2  A    between atoms: C7_16  and  C8_17 
REMARK    3  A    between atoms: C8_17  and  O2_18 
REMARK    4  A    between atoms: O2_18  and  P1_19 
REMARK    5  A    between atoms: P1_19  and  O5_22 
REMARK    6  A    between atoms: O5_22  and  P2_23 
REMARK    7  A    between atoms: C9_27  and  O9_28 
REMARK    8  A    between atoms: C10_30  and  O10_31 
ROOT
HETATM    1  C6  UNL     1      21.506  -3.568  73.100  1.00  0.00     0.262 C 
HETATM    2  O1  UNL     1      20.929  -2.728  74.053  1.00  0.00    -0.353 OA
HETATM    3  C7  UNL     1      19.806  -2.280  73.357  1.00  0.00     0.180 C 
HETATM    4  C9  UNL     1      19.192  -3.496  72.720  1.00  0.00     0.182 C 
HETATM    5  C10 UNL     1      20.356  -4.495  72.781  1.00  0.00     0.198 C 
ENDROOT
BRANCH   1   6
HETATM    6  N5  UNL     1      22.666  -4.256  73.590  1.00  0.00    -0.297 N 
HETATM    7  C3  UNL     1      23.665  -3.642  74.259  1.00  0.00     0.142 A 
HETATM    8  N3  UNL     1      23.842  -2.348  74.619  1.00  0.00    -0.336 N 
HETATM    9  C4  UNL     1      24.628  -4.568  74.595  1.00  0.00     0.119 A 
HETATM   10  C2  UNL     1      24.928  -1.927  75.295  1.00  0.00     0.183 A 
ATOM     11  H3  UNL     1      23.126  -1.666  74.368  1.00  0.00     0.168 HD
HETATM   12  N2  UNL     1      25.856  -2.822  75.617  1.00  0.00    -0.339 N 
HETATM   13  C1  UNL     1      25.730  -4.128  75.284  1.00  0.00     0.148 A 
ATOM     14  H2  UNL     1      26.684  -2.517  76.129  1.00  0.00     0.167 HD
HETATM   15  N1  UNL     1      26.732  -5.034  75.646  1.00  0.00    -0.080 NA
HETATM   16  N4  UNL     1      24.179  -5.741  74.113  1.00  0.00    -0.346 N 
HETATM   17  C5  UNL     1      22.994  -5.539  73.509  1.00  0.00     0.188 A 
ATOM     18  H4  UNL     1      24.660  -6.637  74.192  1.00  0.00     0.167 HD
ENDBRANCH   1   6
BRANCH   5  19
HETATM   19  O10 UNL     1      20.506  -5.165  71.589  1.00  0.00    -0.388 OA
ATOM     20  H10 UNL     1      19.692  -5.508  71.242  1.00  0.00     0.210 HD
ENDBRANCH   5  19
BRANCH   3  21
HETATM   21  C8  UNL     1      18.839  -1.546  74.257  1.00  0.00     0.216 C 
BRANCH  21  22
HETATM   22  O2  UNL     1      17.575  -1.868  73.870  1.00  0.00    -0.287 OA
BRANCH  22  23
HETATM   23  P1  UNL     1      16.351  -0.876  74.310  1.00  0.00     0.418 P 
HETATM   24  O3  UNL     1      17.246   0.357  74.426  1.00  0.00    -0.624 OA
HETATM   25  O4  UNL     1      15.506  -0.070  73.049  1.00  0.00    -0.624 OA
BRANCH  23  26
HETATM   26  O5  UNL     1      15.802  -0.797  75.820  1.00  0.00    -0.173 OA
BRANCH  26  27
HETATM   27  P2  UNL     1      15.344  -2.180  76.585  1.00  0.00     0.431 P 
HETATM   28  O6  UNL     1      14.004  -2.218  77.488  1.00  0.00    -0.616 OA
HETATM   29  O7  UNL     1      16.420  -3.484  76.602  1.00  0.00    -0.616 OA
HETATM   30  O8  UNL     1      14.747  -2.737  75.291  1.00  0.00    -0.616 OA
ENDBRANCH  26  27
ENDBRANCH  23  26
ENDBRANCH  22  23
ENDBRANCH  21  22
ENDBRANCH   3  21
BRANCH   4  31
HETATM   31  O9  UNL     1      18.956  -3.276  71.356  1.00  0.00    -0.390 OA
ATOM     32  H9  UNL     1      18.134  -2.818  71.227  1.00  0.00     0.210 HD
ENDBRANCH   4  31
TORSDOF 8
ENDMDL
