MODEL 7
REMARK VINA RESULT: -3.726901691      3.035      3.480
REMARK  3 active torsions:
REMARK  status: ('A' for Active; 'I' for Inactive)
REMARK    1  A    between atoms: N1_1  and  C1_5 
REMARK    2  A    between atoms: C1_5  and  C2_6 
REMARK       I    between atoms: C2_6  and  N2_8 
REMARK    3  A    between atoms: N2_8  and  C3_10 
ROOT
HETATM    1  C2  UNL     1      19.652   4.918   6.195  1.00  0.00     0.249 C 
HETATM    2  O1  UNL     1      19.135   4.051   5.459  1.00  0.00    -0.271 OA
HETATM    3  N2  UNL     1      19.822   4.639   7.579  1.00  0.00    -0.306 N 
ATOM      4  H2  UNL     1      20.241   5.336   8.194  1.00  0.00     0.171 HD
ENDROOT
BRANCH   3   5
HETATM    5  C3  UNL     1      19.397   3.364   8.110  1.00  0.00     0.150 A 
HETATM    6  N3  UNL     1      19.833   2.155   7.813  1.00  0.00    -0.346 N 
HETATM    7  C4  UNL     1      19.324   1.118   8.402  1.00  0.00     0.097 A 
ATOM      8  H3  UNL     1      20.571   2.036   7.118  1.00  0.00     0.167 HD
HETATM    9  C5  UNL     1      18.333   1.344   9.330  1.00  0.00     0.070 A 
HETATM   10  S1  UNL     1      18.204   3.046   9.284  1.00  0.00    -0.064 SA
ENDBRANCH   3   5
BRANCH   1  11
HETATM   11  C1  UNL     1      20.091   6.236   5.650  1.00  0.00     0.332 C 
BRANCH  11  12
HETATM   12  N1  UNL     1      19.716   7.296   6.545  1.00  0.00    -0.071 N 
ATOM     13  H13 UNL     1      18.793   7.142   6.952  1.00  0.00     0.274 HD
ATOM     14  H12 UNL     1      20.264   7.278   7.405  1.00  0.00     0.274 HD
ATOM     15  H11 UNL     1      19.778   8.197   6.072  1.00  0.00     0.274 HD
ENDBRANCH  11  12
ENDBRANCH   1  11
TORSDOF 3
ENDMDL
