MODEL 17
REMARK VINA RESULT: -3.505929834      2.704      5.002
REMARK  3 active torsions:
REMARK  status: ('A' for Active; 'I' for Inactive)
REMARK    1  A    between atoms: N1_1  and  C1_5 
REMARK    2  A    between atoms: C1_5  and  C2_6 
REMARK       I    between atoms: C2_6  and  N2_8 
REMARK    3  A    between atoms: N2_8  and  C3_10 
ROOT
HETATM    1  C2  UNL     1      18.345   2.151   8.602  1.00  0.00     0.249 C 
HETATM    2  O1  UNL     1      17.524   2.010   7.671  1.00  0.00    -0.271 OA
HETATM    3  N2  UNL     1      19.475   2.992   8.405  1.00  0.00    -0.306 N 
ATOM      4  H2  UNL     1      20.155   3.118   9.154  1.00  0.00     0.171 HD
ENDROOT
BRANCH   3   5
HETATM    5  C3  UNL     1      19.656   3.666   7.141  1.00  0.00     0.150 A 
HETATM    6  N3  UNL     1      19.938   3.151   5.959  1.00  0.00    -0.346 N 
HETATM    7  C4  UNL     1      20.063   3.925   4.926  1.00  0.00     0.097 A 
ATOM      8  H3  UNL     1      20.058   2.143   5.859  1.00  0.00     0.167 HD
HETATM    9  C5  UNL     1      19.889   5.276   5.127  1.00  0.00     0.070 A 
HETATM   10  S1  UNL     1      19.556   5.333   6.800  1.00  0.00    -0.064 SA
ENDBRANCH   3   5
BRANCH   1  11
HETATM   11  C1  UNL     1      18.162   1.455   9.909  1.00  0.00     0.332 C 
BRANCH  11  12
HETATM   12  N1  UNL     1      17.384   0.260   9.732  1.00  0.00    -0.071 N 
ATOM     13  H13 UNL     1      17.334  -0.021   8.753  1.00  0.00     0.274 HD
ATOM     14  H12 UNL     1      17.860  -0.563  10.101  1.00  0.00     0.274 HD
ATOM     15  H11 UNL     1      16.457   0.378  10.141  1.00  0.00     0.274 HD
ENDBRANCH  11  12
ENDBRANCH   1  11
TORSDOF 3
ENDMDL
