MODEL 6
REMARK VINA RESULT: -3.727062902      3.358      4.764
REMARK  3 active torsions:
REMARK  status: ('A' for Active; 'I' for Inactive)
REMARK    1  A    between atoms: N1_1  and  C1_5 
REMARK    2  A    between atoms: C1_5  and  C2_6 
REMARK       I    between atoms: C2_6  and  N2_8 
REMARK    3  A    between atoms: N2_8  and  C3_10 
ROOT
HETATM    1  C2  UNL     1      19.327   2.380   7.749  1.00  0.00     0.249 C 
HETATM    2  O1  UNL     1      19.444   2.302   6.507  1.00  0.00    -0.271 OA
HETATM    3  N2  UNL     1      19.147   3.657   8.347  1.00  0.00    -0.306 N 
ATOM      4  H2  UNL     1      19.050   3.738   9.359  1.00  0.00     0.171 HD
ENDROOT
BRANCH   3   5
HETATM    5  C3  UNL     1      19.101   4.838   7.517  1.00  0.00     0.150 A 
HETATM    6  N3  UNL     1      20.095   5.474   6.926  1.00  0.00    -0.346 N 
HETATM    7  C4  UNL     1      19.856   6.531   6.212  1.00  0.00     0.097 A 
ATOM      8  H3  UNL     1      21.051   5.136   7.032  1.00  0.00     0.167 HD
HETATM    9  C5  UNL     1      18.545   6.937   6.108  1.00  0.00     0.070 A 
HETATM   10  S1  UNL     1      17.747   5.761   7.053  1.00  0.00    -0.064 SA
ENDBRANCH   3   5
BRANCH   1  11
HETATM   11  C1  UNL     1      19.374   1.162   8.609  1.00  0.00     0.332 C 
BRANCH  11  12
HETATM   12  N1  UNL     1      18.266   0.298   8.311  1.00  0.00    -0.071 N 
ATOM     13  H13 UNL     1      17.417   0.584   8.798  1.00  0.00     0.274 HD
ATOM     14  H12 UNL     1      17.937   0.418   7.353  1.00  0.00     0.274 HD
ATOM     15  H11 UNL     1      18.510  -0.673   8.510  1.00  0.00     0.274 HD
ENDBRANCH  11  12
ENDBRANCH   1  11
TORSDOF 3
ENDMDL
