MODEL 3
REMARK VINA RESULT: -3.775720965      3.261      4.975
REMARK  3 active torsions:
REMARK  status: ('A' for Active; 'I' for Inactive)
REMARK    1  A    between atoms: N1_1  and  C1_5 
REMARK    2  A    between atoms: C1_5  and  C2_6 
REMARK       I    between atoms: C2_6  and  N2_8 
REMARK    3  A    between atoms: N2_8  and  C3_10 
ROOT
HETATM    1  C2  UNL     1      18.547   2.637   8.459  1.00  0.00     0.249 C 
HETATM    2  O1  UNL     1      17.572   3.408   8.341  1.00  0.00    -0.271 OA
HETATM    3  N2  UNL     1      19.741   2.917   7.741  1.00  0.00    -0.306 N 
ATOM      4  H2  UNL     1      20.547   2.297   7.826  1.00  0.00     0.171 HD
ENDROOT
BRANCH   3   5
HETATM    5  C3  UNL     1      19.810   4.082   6.889  1.00  0.00     0.150 A 
HETATM    6  N3  UNL     1      19.887   5.354   7.231  1.00  0.00    -0.346 N 
HETATM    7  C4  UNL     1      19.941   6.270   6.314  1.00  0.00     0.097 A 
ATOM      8  H3  UNL     1      19.905   5.617   8.216  1.00  0.00     0.167 HD
HETATM    9  C5  UNL     1      19.914   5.851   5.003  1.00  0.00     0.070 A 
HETATM   10  S1  UNL     1      19.812   4.157   5.187  1.00  0.00    -0.064 SA
ENDBRANCH   3   5
BRANCH   1  11
HETATM   11  C1  UNL     1      18.480   1.432   9.337  1.00  0.00     0.332 C 
BRANCH  11  12
HETATM   12  N1  UNL     1      18.377   0.240   8.540  1.00  0.00    -0.071 N 
ATOM     13  H13 UNL     1      18.322  -0.600   9.116  1.00  0.00     0.274 HD
ATOM     14  H12 UNL     1      17.470   0.167   8.080  1.00  0.00     0.274 HD
ATOM     15  H11 UNL     1      19.148   0.194   7.873  1.00  0.00     0.274 HD
ENDBRANCH  11  12
ENDBRANCH   1  11
TORSDOF 3
ENDMDL
