MODEL 2
REMARK VINA RESULT: -5.843461756      2.620      5.007
REMARK  4 active torsions:
REMARK  status: ('A' for Active; 'I' for Inactive)
REMARK    1  A    between atoms: C2_3  and  O2_4 
REMARK    2  A    between atoms: C8_11  and  O3_12 
REMARK    3  A    between atoms: C9_14  and  O4_15 
REMARK    4  A    between atoms: C10_17  and  O5_18 
ROOT
HETATM    1  O1  UNL     1      11.203  29.488 -16.336  1.00  0.00    -0.284 OA
HETATM    2  C1  UNL     1      11.512  29.378 -17.540  1.00  0.00     0.218 C 
HETATM    3  C2  UNL     1      10.593  28.697 -18.321  1.00  0.00     0.116 C 
HETATM    4  C3  UNL     1      10.503  28.807 -19.694  1.00  0.00     0.040 C 
HETATM    5  C4  UNL     1      11.338  29.442 -20.612  1.00  0.00     0.004 C 
HETATM    6  C5  UNL     1      12.594  29.970 -20.392  1.00  0.00     0.012 C 
HETATM    7  C6  UNL     1      13.228  30.219 -19.179  1.00  0.00    -0.016 A 
HETATM    8  C7  UNL     1      14.466  30.791 -19.374  1.00  0.00     0.052 A 
HETATM    9  C8  UNL     1      15.262  31.119 -18.307  1.00  0.00     0.102 A 
HETATM   10  C9  UNL     1      14.757  30.844 -17.024  1.00  0.00     0.133 A 
HETATM   11  C10 UNL     1      13.518  30.271 -16.838  1.00  0.00     0.117 A 
HETATM   12  C11 UNL     1      12.721  29.944 -17.933  1.00  0.00     0.063 A 
ENDROOT
BRANCH   3  13
HETATM   13  O2  UNL     1       9.704  27.843 -17.663  1.00  0.00    -0.357 OA
ATOM     14  H2  UNL     1       8.835  27.750 -18.037  1.00  0.00     0.218 HD
ENDBRANCH   3  13
BRANCH  11  15
HETATM   15  O5  UNL     1      13.011  29.997 -15.582  1.00  0.00    -0.357 OA
ATOM     16  H5  UNL     1      12.085  30.061 -15.383  1.00  0.00     0.217 HD
ENDBRANCH  11  15
BRANCH  10  17
HETATM   17  O4  UNL     1      15.602  31.196 -15.984  1.00  0.00    -0.356 OA
ATOM     18  H4  UNL     1      15.411  30.767 -15.158  1.00  0.00     0.218 HD
ENDBRANCH  10  17
BRANCH   9  19
HETATM   19  O3  UNL     1      16.515  31.698 -18.481  1.00  0.00    -0.358 OA
ATOM     20  H3  UNL     1      16.613  32.593 -18.785  1.00  0.00     0.217 HD
ENDBRANCH   9  19
TORSDOF 4
ENDMDL
