MODEL 1
REMARK VINA RESULT: -5.931559977      0.000      0.000
REMARK  4 active torsions:
REMARK  status: ('A' for Active; 'I' for Inactive)
REMARK    1  A    between atoms: C2_3  and  O2_4 
REMARK    2  A    between atoms: C8_11  and  O3_12 
REMARK    3  A    between atoms: C9_14  and  O4_15 
REMARK    4  A    between atoms: C10_17  and  O5_18 
ROOT
HETATM    1  O1  UNL     1      13.341  30.728 -18.886  1.00  0.00    -0.284 OA
HETATM    2  C1  UNL     1      12.458  29.926 -18.523  1.00  0.00     0.218 C 
HETATM    3  C2  UNL     1      12.383  29.713 -17.157  1.00  0.00     0.116 C 
HETATM    4  C3  UNL     1      11.271  29.226 -16.502  1.00  0.00     0.040 C 
HETATM    5  C4  UNL     1      10.079  28.700 -17.001  1.00  0.00     0.004 C 
HETATM    6  C5  UNL     1       9.786  28.353 -18.304  1.00  0.00     0.012 C 
HETATM    7  C6  UNL     1      10.493  28.660 -19.462  1.00  0.00    -0.016 A 
HETATM    8  C7  UNL     1       9.855  28.168 -20.579  1.00  0.00     0.052 A 
HETATM    9  C8  UNL     1      10.384  28.360 -21.829  1.00  0.00     0.102 A 
HETATM   10  C9  UNL     1      11.592  29.072 -21.910  1.00  0.00     0.133 A 
HETATM   11  C10 UNL     1      12.225  29.561 -20.788  1.00  0.00     0.117 A 
HETATM   12  C11 UNL     1      11.674  29.358 -19.524  1.00  0.00     0.063 A 
ENDROOT
BRANCH   3  13
HETATM   13  O2  UNL     1      13.520  30.016 -16.402  1.00  0.00    -0.357 OA
ATOM     14  H2  UNL     1      14.025  29.284 -16.067  1.00  0.00     0.218 HD
ENDBRANCH   3  13
BRANCH  11  15
HETATM   15  O5  UNL     1      13.412  30.264 -20.855  1.00  0.00    -0.357 OA
ATOM     16  H5  UNL     1      14.252  29.834 -20.966  1.00  0.00     0.217 HD
ENDBRANCH  11  15
BRANCH  10  17
HETATM   17  O4  UNL     1      12.081  29.236 -23.196  1.00  0.00    -0.356 OA
ATOM     18  H4  UNL     1      11.452  29.056 -23.884  1.00  0.00     0.218 HD
ENDBRANCH  10  17
BRANCH   9  19
HETATM   19  O3  UNL     1       9.756  27.871 -22.971  1.00  0.00    -0.358 OA
ATOM     20  H3  UNL     1       9.760  26.945 -23.184  1.00  0.00     0.217 HD
ENDBRANCH   9  19
TORSDOF 4
ENDMDL
