MODEL 3
REMARK VINA RESULT: -5.698497457      1.855      3.078
REMARK  4 active torsions:
REMARK  status: ('A' for Active; 'I' for Inactive)
REMARK    1  A    between atoms: C2_3  and  O2_4 
REMARK    2  A    between atoms: C8_11  and  O3_12 
REMARK    3  A    between atoms: C9_14  and  O4_15 
REMARK    4  A    between atoms: C10_17  and  O5_18 
ROOT
HETATM    1  O1  UNL     1      10.977  29.766 -17.252  1.00  0.00    -0.284 OA
HETATM    2  C1  UNL     1      11.967  30.245 -17.841  1.00  0.00     0.218 C 
HETATM    3  C2  UNL     1      12.780  31.051 -17.063  1.00  0.00     0.116 C 
HETATM    4  C3  UNL     1      14.099  31.338 -17.350  1.00  0.00     0.040 C 
HETATM    5  C4  UNL     1      14.864  31.062 -18.483  1.00  0.00     0.004 C 
HETATM    6  C5  UNL     1      14.429  30.591 -19.705  1.00  0.00     0.012 C 
HETATM    7  C6  UNL     1      13.191  30.049 -20.033  1.00  0.00    -0.016 A 
HETATM    8  C7  UNL     1      13.155  29.654 -21.352  1.00  0.00     0.052 A 
HETATM    9  C8  UNL     1      12.024  29.091 -21.885  1.00  0.00     0.102 A 
HETATM   10  C9  UNL     1      10.920  28.943 -21.028  1.00  0.00     0.133 A 
HETATM   11  C10 UNL     1      10.963  29.341 -19.710  1.00  0.00     0.117 A 
HETATM   12  C11 UNL     1      12.121  29.911 -19.184  1.00  0.00     0.063 A 
ENDROOT
BRANCH   3  13
HETATM   13  O2  UNL     1      12.214  31.606 -15.912  1.00  0.00    -0.357 OA
ATOM     14  H2  UNL     1      12.670  31.460 -15.091  1.00  0.00     0.218 HD
ENDBRANCH   3  13
BRANCH  11  15
HETATM   15  O5  UNL     1       9.884  29.199 -18.859  1.00  0.00    -0.357 OA
ATOM     16  H5  UNL     1       9.543  29.922 -18.346  1.00  0.00     0.217 HD
ENDBRANCH  11  15
BRANCH  10  17
HETATM   17  O4  UNL     1       9.805  28.370 -21.618  1.00  0.00    -0.356 OA
ATOM     18  H4  UNL     1       9.074  28.228 -21.028  1.00  0.00     0.218 HD
ENDBRANCH  10  17
BRANCH   9  19
HETATM   19  O3  UNL     1      11.967  28.685 -23.214  1.00  0.00    -0.358 OA
ATOM     20  H3  UNL     1      11.487  27.909 -23.479  1.00  0.00     0.217 HD
ENDBRANCH   9  19
TORSDOF 4
ENDMDL
