MODEL 5
REMARK VINA RESULT: -8.285986046      0.824      1.152
REMARK  8 active torsions:
REMARK  status: ('A' for Active; 'I' for Inactive)
REMARK       I    between atoms: C2_2  and  N1_4 
REMARK    1  A    between atoms: N1_4  and  C3_6 
REMARK    2  A    between atoms: C3_6  and  C5_8 
REMARK    3  A    between atoms: C5_8  and  N2_10 
REMARK    4  A    between atoms: C7_12  and  O2_13 
REMARK    5  A    between atoms: C9_16  and  C10_17 
REMARK       I    between atoms: C10_17  and  N3_19 
REMARK    6  A    between atoms: N3_19  and  C11_21 
REMARK    7  A    between atoms: C11_21  and  C12_22 
REMARK    8  A    between atoms: C15_25  and  C16_26 
ROOT
HETATM    1  C10 UNL     1      11.908  53.056  89.027  1.00  0.00     0.240 C 
HETATM    2  O3  UNL     1      12.269  51.946  89.507  1.00  0.00    -0.271 OA
HETATM    3  N3  UNL     1      11.151  53.009  87.830  1.00  0.00    -0.355 N 
ATOM      4  H3  UNL     1      10.853  53.897  87.426  1.00  0.00     0.162 HD
ENDROOT
BRANCH   1   5
HETATM    5  C9  UNL     1      12.235  54.350  89.648  1.00  0.00     0.179 C 
HETATM    6  N2  UNL     1      12.634  54.256  91.011  1.00  0.00    -0.358 N 
HETATM    7  C6  UNL     1      14.076  54.300  91.053  1.00  0.00     0.156 C 
HETATM    8  C7  UNL     1      14.556  54.999  89.827  1.00  0.00     0.138 C 
HETATM    9  C8  UNL     1      13.395  54.957  88.890  1.00  0.00     0.068 C 
BRANCH   6  10
HETATM   10  C5  UNL     1      11.788  54.140  92.133  1.00  0.00     0.099 C 
HETATM   11  S1  UNL     1      10.295  53.445  91.972  1.00  0.00    -0.063 SA
BRANCH  10  12
HETATM   12  C3  UNL     1      12.157  54.613  93.488  1.00  0.00     0.141 C 
HETATM   13  C4  UNL     1      12.957  53.549  94.209  1.00  0.00     0.040 C 
BRANCH  12  14
HETATM   14  N1  UNL     1      10.989  55.003  94.242  1.00  0.00    -0.351 N 
HETATM   15  C2  UNL     1      10.997  56.240  94.952  1.00  0.00     0.214 C 
HETATM   16  C1  UNL     1       9.856  56.737  95.754  1.00  0.00     0.117 C 
HETATM   17  O1  UNL     1      12.041  56.964  94.899  1.00  0.00    -0.274 OA
ATOM     18  H1  UNL     1      10.166  54.400  94.266  1.00  0.00     0.163 HD
ENDBRANCH  12  14
ENDBRANCH  10  12
ENDBRANCH   6  10
BRANCH   8  19
HETATM   19  O2  UNL     1      14.809  56.356  90.119  1.00  0.00    -0.394 OA
ATOM     20  H2  UNL     1      15.586  56.645  89.655  1.00  0.00     0.210 HD
ENDBRANCH   8  19
ENDBRANCH   1   5
BRANCH   3  21
HETATM   21  C11 UNL     1      10.776  51.816  87.149  1.00  0.00     0.161 C 
BRANCH  21  22
HETATM   22  C12 UNL     1      11.498  51.557  85.885  1.00  0.00    -0.040 A 
HETATM   23  C13 UNL     1      12.139  52.607  85.269  1.00  0.00     0.010 A 
HETATM   24  C14 UNL     1      12.830  52.452  84.093  1.00  0.00     0.013 A 
HETATM   25  C15 UNL     1      12.923  51.206  83.450  1.00  0.00    -0.017 A 
HETATM   26  C20 UNL     1      12.293  50.175  84.058  1.00  0.00     0.013 A 
HETATM   27  C21 UNL     1      11.584  50.344  85.266  1.00  0.00     0.010 A 
BRANCH  25  28
HETATM   28  C16 UNL     1      13.672  51.103  82.207  1.00  0.00     0.038 A 
HETATM   29  S2  UNL     1      15.245  51.808  81.990  1.00  0.00    -0.082 SA
HETATM   30  C17 UNL     1      15.525  51.333  80.377  1.00  0.00     0.139 A 
HETATM   31  N4  UNL     1      14.421  50.673  80.096  1.00  0.00    -0.362 N 
HETATM   32  C18 UNL     1      13.477  50.543  80.996  1.00  0.00     0.023 A 
ATOM     33  H4  UNL     1      14.299  50.259  79.172  1.00  0.00     0.165 HD
HETATM   34  C19 UNL     1      12.208  49.782  80.655  1.00  0.00     0.069 C 
ENDBRANCH  25  28
ENDBRANCH  21  22
ENDBRANCH   3  21
TORSDOF 8
ENDMDL
