MODEL 12
REMARK VINA RESULT: -7.247517528      2.945     10.657
REMARK  8 active torsions:
REMARK  status: ('A' for Active; 'I' for Inactive)
REMARK       I    between atoms: C2_2  and  N1_4 
REMARK    1  A    between atoms: N1_4  and  C3_6 
REMARK    2  A    between atoms: C3_6  and  C5_8 
REMARK    3  A    between atoms: C5_8  and  N2_10 
REMARK    4  A    between atoms: C7_12  and  O2_13 
REMARK    5  A    between atoms: C9_16  and  C10_17 
REMARK       I    between atoms: C10_17  and  N3_19 
REMARK    6  A    between atoms: N3_19  and  C11_21 
REMARK    7  A    between atoms: C11_21  and  C12_22 
REMARK    8  A    between atoms: C15_25  and  C16_26 
ROOT
HETATM    1  C10 UNL     1      11.548  53.021  88.590  1.00  0.00     0.240 C 
HETATM    2  O3  UNL     1      12.685  53.258  88.096  1.00  0.00    -0.271 OA
HETATM    3  N3  UNL     1      11.480  52.933  90.003  1.00  0.00    -0.355 N 
ATOM      4  H3  UNL     1      10.570  52.739  90.420  1.00  0.00     0.162 HD
ENDROOT
BRANCH   1   5
HETATM    5  C9  UNL     1      10.334  52.839  87.777  1.00  0.00     0.179 C 
HETATM    6  N2  UNL     1      10.330  51.647  86.998  1.00  0.00    -0.358 N 
HETATM    7  C6  UNL     1       9.548  50.662  87.704  1.00  0.00     0.156 C 
HETATM    8  C7  UNL     1       8.594  51.377  88.600  1.00  0.00     0.138 C 
HETATM    9  C8  UNL     1       9.148  52.759  88.713  1.00  0.00     0.068 C 
BRANCH   6  10
HETATM   10  C5  UNL     1      10.968  51.448  85.758  1.00  0.00     0.099 C 
HETATM   11  S1  UNL     1      11.456  49.930  85.314  1.00  0.00    -0.063 SA
BRANCH  10  12
HETATM   12  C3  UNL     1      11.241  52.540  84.792  1.00  0.00     0.141 C 
HETATM   13  C4  UNL     1      10.022  52.785  83.929  1.00  0.00     0.040 C 
BRANCH  12  14
HETATM   14  N1  UNL     1      12.410  52.254  83.996  1.00  0.00    -0.351 N 
HETATM   15  C2  UNL     1      13.607  52.996  84.220  1.00  0.00     0.214 C 
HETATM   16  C1  UNL     1      14.861  52.785  83.462  1.00  0.00     0.117 C 
HETATM   17  O1  UNL     1      13.605  53.894  85.120  1.00  0.00    -0.274 OA
ATOM     18  H1  UNL     1      12.380  51.528  83.279  1.00  0.00     0.163 HD
ENDBRANCH  12  14
ENDBRANCH  10  12
ENDBRANCH   6  10
BRANCH   8  19
HETATM   19  O2  UNL     1       7.336  51.481  87.971  1.00  0.00    -0.394 OA
ATOM     20  H2  UNL     1       6.891  52.264  88.272  1.00  0.00     0.210 HD
ENDBRANCH   8  19
ENDBRANCH   1   5
BRANCH   3  21
HETATM   21  C11 UNL     1      12.588  53.096  90.884  1.00  0.00     0.161 C 
BRANCH  21  22
HETATM   22  C12 UNL     1      12.271  53.713  92.189  1.00  0.00    -0.040 A 
HETATM   23  C13 UNL     1      10.987  53.603  92.672  1.00  0.00     0.010 A 
HETATM   24  C14 UNL     1      10.610  54.148  93.874  1.00  0.00     0.013 A 
HETATM   25  C15 UNL     1      11.518  54.852  94.683  1.00  0.00    -0.017 A 
HETATM   26  C20 UNL     1      12.779  54.958  94.207  1.00  0.00     0.013 A 
HETATM   27  C21 UNL     1      13.158  54.395  92.970  1.00  0.00     0.010 A 
BRANCH  25  28
HETATM   28  C16 UNL     1      11.060  55.406  95.948  1.00  0.00     0.038 A 
HETATM   29  S2  UNL     1      10.731  54.426  97.345  1.00  0.00    -0.082 SA
HETATM   30  C17 UNL     1      10.252  55.658  98.422  1.00  0.00     0.139 A 
HETATM   31  N4  UNL     1      10.368  56.732  97.669  1.00  0.00    -0.362 N 
HETATM   32  C18 UNL     1      10.770  56.633  96.426  1.00  0.00     0.023 A 
ATOM     33  H4  UNL     1      10.142  57.648  98.057  1.00  0.00     0.165 HD
HETATM   34  C19 UNL     1      10.895  57.882  95.571  1.00  0.00     0.069 C 
ENDBRANCH  25  28
ENDBRANCH  21  22
ENDBRANCH   3  21
TORSDOF 8
ENDMDL
