MODEL 16
REMARK VINA RESULT: -7.054224349      3.044     10.151
REMARK  8 active torsions:
REMARK  status: ('A' for Active; 'I' for Inactive)
REMARK       I    between atoms: C2_2  and  N1_4 
REMARK    1  A    between atoms: N1_4  and  C3_6 
REMARK    2  A    between atoms: C3_6  and  C5_8 
REMARK    3  A    between atoms: C5_8  and  N2_10 
REMARK    4  A    between atoms: C7_12  and  O2_13 
REMARK    5  A    between atoms: C9_16  and  C10_17 
REMARK       I    between atoms: C10_17  and  N3_19 
REMARK    6  A    between atoms: N3_19  and  C11_21 
REMARK    7  A    between atoms: C11_21  and  C12_22 
REMARK    8  A    between atoms: C15_25  and  C16_26 
ROOT
HETATM    1  C10 UNL     1      12.122  53.251  85.376  1.00  0.00     0.240 C 
HETATM    2  O3  UNL     1      13.226  53.259  84.763  1.00  0.00    -0.271 OA
HETATM    3  N3  UNL     1      12.157  53.625  86.742  1.00  0.00    -0.355 N 
ATOM      4  H3  UNL     1      11.274  53.622  87.254  1.00  0.00     0.162 HD
ENDROOT
BRANCH   1   5
HETATM    5  C9  UNL     1      10.847  52.881  84.740  1.00  0.00     0.179 C 
HETATM    6  N2  UNL     1      10.786  51.526  84.307  1.00  0.00    -0.358 N 
HETATM    7  C6  UNL     1      10.070  50.774  85.309  1.00  0.00     0.156 C 
HETATM    8  C7  UNL     1       9.189  51.715  86.059  1.00  0.00     0.138 C 
HETATM    9  C8  UNL     1       9.742  53.069  85.757  1.00  0.00     0.068 C 
BRANCH   6  10
HETATM   10  C5  UNL     1      11.321  50.996  83.116  1.00  0.00     0.099 C 
HETATM   11  S1  UNL     1      10.519  51.207  81.684  1.00  0.00    -0.063 SA
BRANCH  10  12
HETATM   12  C3  UNL     1      12.594  50.238  83.057  1.00  0.00     0.141 C 
HETATM   13  C4  UNL     1      12.733  49.361  84.283  1.00  0.00     0.040 C 
BRANCH  12  14
HETATM   14  N1  UNL     1      13.723  51.125  82.906  1.00  0.00    -0.351 N 
HETATM   15  C2  UNL     1      14.494  51.075  81.707  1.00  0.00     0.214 C 
HETATM   16  C1  UNL     1      15.670  51.937  81.448  1.00  0.00     0.117 C 
HETATM   17  O1  UNL     1      14.160  50.245  80.804  1.00  0.00    -0.274 OA
ATOM     18  H1  UNL     1      13.968  51.780  83.649  1.00  0.00     0.163 HD
ENDBRANCH  12  14
ENDBRANCH  10  12
ENDBRANCH   6  10
BRANCH   8  19
HETATM   19  O2  UNL     1       7.883  51.670  85.528  1.00  0.00    -0.394 OA
ATOM     20  H2  UNL     1       7.354  52.354  85.919  1.00  0.00     0.210 HD
ENDBRANCH   8  19
ENDBRANCH   1   5
BRANCH   3  21
HETATM   21  C11 UNL     1      13.331  54.005  87.454  1.00  0.00     0.161 C 
BRANCH  21  22
HETATM   22  C12 UNL     1      13.202  54.011  88.926  1.00  0.00    -0.040 A 
HETATM   23  C13 UNL     1      12.148  53.332  89.496  1.00  0.00     0.010 A 
HETATM   24  C14 UNL     1      11.955  53.289  90.854  1.00  0.00     0.013 A 
HETATM   25  C15 UNL     1      12.827  53.940  91.744  1.00  0.00    -0.017 A 
HETATM   26  C20 UNL     1      13.861  54.606  91.183  1.00  0.00     0.013 A 
HETATM   27  C21 UNL     1      14.051  54.645  89.786  1.00  0.00     0.010 A 
BRANCH  25  28
HETATM   28  C16 UNL     1      12.571  53.857  93.174  1.00  0.00     0.038 A 
HETATM   29  S2  UNL     1      11.827  55.141  94.078  1.00  0.00    -0.082 SA
HETATM   30  C17 UNL     1      11.833  54.413  95.620  1.00  0.00     0.139 A 
HETATM   31  N4  UNL     1      12.394  53.250  95.365  1.00  0.00    -0.362 N 
HETATM   32  C18 UNL     1      12.772  52.946  94.148  1.00  0.00     0.023 A 
ATOM     33  H4  UNL     1      12.534  52.579  96.121  1.00  0.00     0.165 HD
HETATM   34  C19 UNL     1      13.420  51.600  93.872  1.00  0.00     0.069 C 
ENDBRANCH  25  28
ENDBRANCH  21  22
ENDBRANCH   3  21
TORSDOF 8
ENDMDL
