MODEL 7
REMARK VINA RESULT: -7.979990543      1.671      1.956
REMARK  8 active torsions:
REMARK  status: ('A' for Active; 'I' for Inactive)
REMARK       I    between atoms: C2_2  and  N1_4 
REMARK    1  A    between atoms: N1_4  and  C3_6 
REMARK    2  A    between atoms: C3_6  and  C5_8 
REMARK    3  A    between atoms: C5_8  and  N2_10 
REMARK    4  A    between atoms: C7_12  and  O2_13 
REMARK    5  A    between atoms: C9_16  and  C10_17 
REMARK       I    between atoms: C10_17  and  N3_19 
REMARK    6  A    between atoms: N3_19  and  C11_21 
REMARK    7  A    between atoms: C11_21  and  C12_22 
REMARK    8  A    between atoms: C15_25  and  C16_26 
ROOT
HETATM    1  C10 UNL     1      11.848  52.996  88.991  1.00  0.00     0.240 C 
HETATM    2  O3  UNL     1      12.023  51.810  89.383  1.00  0.00    -0.271 OA
HETATM    3  N3  UNL     1      11.227  53.158  87.728  1.00  0.00    -0.355 N 
ATOM      4  H3  UNL     1      11.080  54.110  87.394  1.00  0.00     0.162 HD
ENDROOT
BRANCH   1   5
HETATM    5  C9  UNL     1      12.253  54.175  89.774  1.00  0.00     0.179 C 
HETATM    6  N2  UNL     1      12.908  53.862  90.999  1.00  0.00    -0.358 N 
HETATM    7  C6  UNL     1      14.330  53.987  90.784  1.00  0.00     0.156 C 
HETATM    8  C7  UNL     1      14.548  54.923  89.644  1.00  0.00     0.138 C 
HETATM    9  C8  UNL     1      13.231  54.979  88.945  1.00  0.00     0.068 C 
BRANCH   6  10
HETATM   10  C5  UNL     1      12.296  53.494  92.214  1.00  0.00     0.099 C 
HETATM   11  S1  UNL     1      10.763  54.013  92.556  1.00  0.00    -0.063 SA
BRANCH  10  12
HETATM   12  C3  UNL     1      12.952  52.646  93.238  1.00  0.00     0.141 C 
HETATM   13  C4  UNL     1      13.194  51.258  92.684  1.00  0.00     0.040 C 
BRANCH  12  14
HETATM   14  N1  UNL     1      12.181  52.606  94.457  1.00  0.00    -0.351 N 
HETATM   15  C2  UNL     1      12.852  52.425  95.702  1.00  0.00     0.214 C 
HETATM   16  C1  UNL     1      12.160  52.370  97.010  1.00  0.00     0.117 C 
HETATM   17  O1  UNL     1      14.117  52.302  95.698  1.00  0.00    -0.274 OA
ATOM     18  H1  UNL     1      11.166  52.707  94.428  1.00  0.00     0.163 HD
ENDBRANCH  12  14
ENDBRANCH  10  12
ENDBRANCH   6  10
BRANCH   8  19
HETATM   19  O2  UNL     1      14.817  56.218  90.136  1.00  0.00    -0.394 OA
ATOM     20  H2  UNL     1      15.421  56.663  89.554  1.00  0.00     0.210 HD
ENDBRANCH   8  19
ENDBRANCH   1   5
BRANCH   3  21
HETATM   21  C11 UNL     1      10.792  52.091  86.891  1.00  0.00     0.161 C 
BRANCH  21  22
HETATM   22  C12 UNL     1      11.586  51.889  85.661  1.00  0.00    -0.040 A 
HETATM   23  C13 UNL     1      11.454  50.700  84.981  1.00  0.00     0.010 A 
HETATM   24  C14 UNL     1      12.157  50.433  83.833  1.00  0.00     0.013 A 
HETATM   25  C15 UNL     1      13.055  51.364  83.283  1.00  0.00    -0.017 A 
HETATM   26  C20 UNL     1      13.182  52.532  83.952  1.00  0.00     0.013 A 
HETATM   27  C21 UNL     1      12.457  52.797  85.132  1.00  0.00     0.010 A 
BRANCH  25  28
HETATM   28  C16 UNL     1      13.769  51.024  82.062  1.00  0.00     0.038 A 
HETATM   29  S2  UNL     1      13.054  50.104  80.774  1.00  0.00    -0.082 SA
HETATM   30  C17 UNL     1      14.383  50.072  79.706  1.00  0.00     0.139 A 
HETATM   31  N4  UNL     1      15.284  50.756  80.379  1.00  0.00    -0.362 N 
HETATM   32  C18 UNL     1      15.002  51.244  81.562  1.00  0.00     0.023 A 
ATOM     33  H4  UNL     1      16.210  50.906  79.978  1.00  0.00     0.165 HD
HETATM   34  C19 UNL     1      16.055  52.026  82.327  1.00  0.00     0.069 C 
ENDBRANCH  25  28
ENDBRANCH  21  22
ENDBRANCH   3  21
TORSDOF 8
ENDMDL
