MODEL 3
REMARK VINA RESULT: -8.456637565      1.434      1.910
REMARK  8 active torsions:
REMARK  status: ('A' for Active; 'I' for Inactive)
REMARK       I    between atoms: C2_2  and  N1_4 
REMARK    1  A    between atoms: N1_4  and  C3_6 
REMARK    2  A    between atoms: C3_6  and  C5_8 
REMARK    3  A    between atoms: C5_8  and  N2_10 
REMARK    4  A    between atoms: C7_12  and  O2_13 
REMARK    5  A    between atoms: C9_16  and  C10_17 
REMARK       I    between atoms: C10_17  and  N3_19 
REMARK    6  A    between atoms: N3_19  and  C11_21 
REMARK    7  A    between atoms: C11_21  and  C12_22 
REMARK    8  A    between atoms: C15_25  and  C16_26 
ROOT
HETATM    1  C10 UNL     1      11.941  53.128  89.084  1.00  0.00     0.240 C 
HETATM    2  O3  UNL     1      12.058  51.944  89.503  1.00  0.00    -0.271 OA
HETATM    3  N3  UNL     1      11.343  53.291  87.809  1.00  0.00    -0.355 N 
ATOM      4  H3  UNL     1      11.242  54.241  87.454  1.00  0.00     0.162 HD
ENDROOT
BRANCH   1   5
HETATM    5  C9  UNL     1      12.387  54.305  89.848  1.00  0.00     0.179 C 
HETATM    6  N2  UNL     1      13.158  53.988  91.003  1.00  0.00    -0.358 N 
HETATM    7  C6  UNL     1      14.551  54.153  90.662  1.00  0.00     0.156 C 
HETATM    8  C7  UNL     1      14.643  55.112  89.524  1.00  0.00     0.138 C 
HETATM    9  C8  UNL     1      13.266  55.146  88.949  1.00  0.00     0.068 C 
BRANCH   6  10
HETATM   10  C5  UNL     1      12.667  53.586  92.262  1.00  0.00     0.099 C 
HETATM   11  S1  UNL     1      13.195  52.173  92.941  1.00  0.00    -0.063 SA
BRANCH  10  12
HETATM   12  C3  UNL     1      11.680  54.369  93.043  1.00  0.00     0.141 C 
HETATM   13  C4  UNL     1      12.380  55.136  94.144  1.00  0.00     0.040 C 
BRANCH  12  14
HETATM   14  N1  UNL     1      10.636  53.520  93.565  1.00  0.00    -0.351 N 
HETATM   15  C2  UNL     1       9.442  53.335  92.808  1.00  0.00     0.214 C 
HETATM   16  C1  UNL     1       8.310  52.487  93.249  1.00  0.00     0.117 C 
HETATM   17  O1  UNL     1       9.333  53.929  91.690  1.00  0.00    -0.274 OA
ATOM     18  H1  UNL     1      10.751  53.057  94.467  1.00  0.00     0.163 HD
ENDBRANCH  12  14
ENDBRANCH  10  12
ENDBRANCH   6  10
BRANCH   8  19
HETATM   19  O2  UNL     1      14.923  56.405  90.013  1.00  0.00    -0.394 OA
ATOM     20  H2  UNL     1      15.675  56.764  89.557  1.00  0.00     0.210 HD
ENDBRANCH   8  19
ENDBRANCH   1   5
BRANCH   3  21
HETATM   21  C11 UNL     1      10.872  52.226  86.988  1.00  0.00     0.161 C 
BRANCH  21  22
HETATM   22  C12 UNL     1      11.644  51.996  85.749  1.00  0.00    -0.040 A 
HETATM   23  C13 UNL     1      11.542  50.771  85.130  1.00  0.00     0.010 A 
HETATM   24  C14 UNL     1      12.227  50.476  83.978  1.00  0.00     0.013 A 
HETATM   25  C15 UNL     1      13.074  51.413  83.361  1.00  0.00    -0.017 A 
HETATM   26  C20 UNL     1      13.172  52.616  83.971  1.00  0.00     0.013 A 
HETATM   27  C21 UNL     1      12.465  52.910  85.155  1.00  0.00     0.010 A 
BRANCH  25  28
HETATM   28  C16 UNL     1      13.771  51.042  82.139  1.00  0.00     0.038 A 
HETATM   29  S2  UNL     1      13.030  50.111  80.873  1.00  0.00    -0.082 SA
HETATM   30  C17 UNL     1      14.348  50.042  79.794  1.00  0.00     0.139 A 
HETATM   31  N4  UNL     1      15.266  50.723  80.447  1.00  0.00    -0.362 N 
HETATM   32  C18 UNL     1      15.003  51.235  81.624  1.00  0.00     0.023 A 
ATOM     33  H4  UNL     1      16.190  50.853  80.034  1.00  0.00     0.165 HD
HETATM   34  C19 UNL     1      16.074  52.014  82.366  1.00  0.00     0.069 C 
ENDBRANCH  25  28
ENDBRANCH  21  22
ENDBRANCH   3  21
TORSDOF 8
ENDMDL
