MODEL 1
REMARK VINA RESULT: -8.684374389      0.000      0.000
REMARK  8 active torsions:
REMARK  status: ('A' for Active; 'I' for Inactive)
REMARK       I    between atoms: C2_2  and  N1_4 
REMARK    1  A    between atoms: N1_4  and  C3_6 
REMARK    2  A    between atoms: C3_6  and  C5_8 
REMARK    3  A    between atoms: C5_8  and  N2_10 
REMARK    4  A    between atoms: C7_12  and  O2_13 
REMARK    5  A    between atoms: C9_16  and  C10_17 
REMARK       I    between atoms: C10_17  and  N3_19 
REMARK    6  A    between atoms: N3_19  and  C11_21 
REMARK    7  A    between atoms: C11_21  and  C12_22 
REMARK    8  A    between atoms: C15_25  and  C16_26 
ROOT
HETATM    1  C10 UNL     1      11.935  53.084  88.938  1.00  0.00     0.240 C 
HETATM    2  O3  UNL     1      12.251  51.958  89.412  1.00  0.00    -0.271 OA
HETATM    3  N3  UNL     1      11.187  53.074  87.734  1.00  0.00    -0.355 N 
ATOM      4  H3  UNL     1      10.925  53.975  87.335  1.00  0.00     0.162 HD
ENDROOT
BRANCH   1   5
HETATM    5  C9  UNL     1      12.303  54.361  89.572  1.00  0.00     0.179 C 
HETATM    6  N2  UNL     1      12.703  54.239  90.933  1.00  0.00    -0.358 N 
HETATM    7  C6  UNL     1      14.145  54.239  90.971  1.00  0.00     0.156 C 
HETATM    8  C7  UNL     1      14.644  54.935  89.751  1.00  0.00     0.138 C 
HETATM    9  C8  UNL     1      13.479  54.940  88.817  1.00  0.00     0.068 C 
BRANCH   6  10
HETATM   10  C5  UNL     1      11.856  54.138  92.055  1.00  0.00     0.099 C 
HETATM   11  S1  UNL     1      10.387  53.390  91.917  1.00  0.00    -0.063 SA
BRANCH  10  12
HETATM   12  C3  UNL     1      12.205  54.671  93.394  1.00  0.00     0.141 C 
HETATM   13  C4  UNL     1      13.066  53.675  94.141  1.00  0.00     0.040 C 
BRANCH  12  14
HETATM   14  N1  UNL     1      11.020  55.019  94.143  1.00  0.00    -0.351 N 
HETATM   15  C2  UNL     1      11.013  56.212  94.923  1.00  0.00     0.214 C 
HETATM   16  C1  UNL     1       9.854  56.663  95.728  1.00  0.00     0.117 C 
HETATM   17  O1  UNL     1      12.058  56.937  94.935  1.00  0.00    -0.274 OA
ATOM     18  H1  UNL     1      10.197  54.416  94.114  1.00  0.00     0.163 HD
ENDBRANCH  12  14
ENDBRANCH  10  12
ENDBRANCH   6  10
BRANCH   8  19
HETATM   19  O2  UNL     1      14.939  56.281  90.057  1.00  0.00    -0.394 OA
ATOM     20  H2  UNL     1      15.829  56.348  90.382  1.00  0.00     0.210 HD
ENDBRANCH   8  19
ENDBRANCH   1   5
BRANCH   3  21
HETATM   21  C11 UNL     1      10.774  51.900  87.040  1.00  0.00     0.161 C 
BRANCH  21  22
HETATM   22  C12 UNL     1      11.536  51.594  85.811  1.00  0.00    -0.040 A 
HETATM   23  C13 UNL     1      12.172  52.625  85.159  1.00  0.00     0.010 A 
HETATM   24  C14 UNL     1      12.898  52.426  84.011  1.00  0.00     0.013 A 
HETATM   25  C15 UNL     1      13.033  51.151  83.435  1.00  0.00    -0.017 A 
HETATM   26  C20 UNL     1      12.408  50.139  84.078  1.00  0.00     0.013 A 
HETATM   27  C21 UNL     1      11.663  50.354  85.256  1.00  0.00     0.010 A 
BRANCH  25  28
HETATM   28  C16 UNL     1      13.818  51.002  82.219  1.00  0.00     0.038 A 
HETATM   29  S2  UNL     1      13.272  50.085  80.848  1.00  0.00    -0.082 SA
HETATM   30  C17 UNL     1      14.618  50.315  79.826  1.00  0.00     0.139 A 
HETATM   31  N4  UNL     1      15.396  51.068  80.574  1.00  0.00    -0.362 N 
HETATM   32  C18 UNL     1      15.020  51.426  81.777  1.00  0.00     0.023 A 
ATOM     33  H4  UNL     1      16.301  51.374  80.215  1.00  0.00     0.165 HD
HETATM   34  C19 UNL     1      15.932  52.292  82.628  1.00  0.00     0.069 C 
ENDBRANCH  25  28
ENDBRANCH  21  22
ENDBRANCH   3  21
TORSDOF 8
ENDMDL
