MODEL 13
REMARK VINA RESULT: -7.229282397      2.872     10.781
REMARK  8 active torsions:
REMARK  status: ('A' for Active; 'I' for Inactive)
REMARK       I    between atoms: C2_2  and  N1_4 
REMARK    1  A    between atoms: N1_4  and  C3_6 
REMARK    2  A    between atoms: C3_6  and  C5_8 
REMARK    3  A    between atoms: C5_8  and  N2_10 
REMARK    4  A    between atoms: C7_12  and  O2_13 
REMARK    5  A    between atoms: C9_16  and  C10_17 
REMARK       I    between atoms: C10_17  and  N3_19 
REMARK    6  A    between atoms: N3_19  and  C11_21 
REMARK    7  A    between atoms: C11_21  and  C12_22 
REMARK    8  A    between atoms: C15_25  and  C16_26 
ROOT
HETATM    1  C10 UNL     1      11.492  52.570  88.742  1.00  0.00     0.240 C 
HETATM    2  O3  UNL     1      12.021  51.436  88.909  1.00  0.00    -0.271 OA
HETATM    3  N3  UNL     1      11.845  53.575  89.677  1.00  0.00    -0.355 N 
ATOM      4  H3  UNL     1      11.425  54.497  89.559  1.00  0.00     0.162 HD
ENDROOT
BRANCH   1   5
HETATM    5  C9  UNL     1      10.556  52.872  87.646  1.00  0.00     0.179 C 
HETATM    6  N2  UNL     1      10.317  51.777  86.768  1.00  0.00    -0.358 N 
HETATM    7  C6  UNL     1       9.071  51.163  87.158  1.00  0.00     0.156 C 
HETATM    8  C7  UNL     1       8.249  52.184  87.869  1.00  0.00     0.138 C 
HETATM    9  C8  UNL     1       9.223  53.247  88.255  1.00  0.00     0.068 C 
BRANCH   6  10
HETATM   10  C5  UNL     1      11.138  51.354  85.703  1.00  0.00     0.099 C 
HETATM   11  S1  UNL     1      11.675  49.790  85.645  1.00  0.00    -0.063 SA
BRANCH  10  12
HETATM   12  C3  UNL     1      11.567  52.244  84.598  1.00  0.00     0.141 C 
HETATM   13  C4  UNL     1      10.355  52.808  83.886  1.00  0.00     0.040 C 
BRANCH  12  14
HETATM   14  N1  UNL     1      12.449  51.556  83.685  1.00  0.00    -0.351 N 
HETATM   15  C2  UNL     1      13.739  52.100  83.417  1.00  0.00     0.214 C 
HETATM   16  C1  UNL     1      14.721  51.478  82.500  1.00  0.00     0.117 C 
HETATM   17  O1  UNL     1      14.073  53.183  83.994  1.00  0.00    -0.274 OA
ATOM     18  H1  UNL     1      12.151  50.689  83.236  1.00  0.00     0.163 HD
ENDBRANCH  12  14
ENDBRANCH  10  12
ENDBRANCH   6  10
BRANCH   8  19
HETATM   19  O2  UNL     1       7.331  52.767  86.970  1.00  0.00    -0.394 OA
ATOM     20  H2  UNL     1       6.645  53.209  87.454  1.00  0.00     0.210 HD
ENDBRANCH   8  19
ENDBRANCH   1   5
BRANCH   3  21
HETATM   21  C11 UNL     1      12.742  53.394  90.769  1.00  0.00     0.161 C 
BRANCH  21  22
HETATM   22  C12 UNL     1      12.244  53.863  92.079  1.00  0.00    -0.040 A 
HETATM   23  C13 UNL     1      13.116  54.521  92.916  1.00  0.00     0.010 A 
HETATM   24  C14 UNL     1      12.734  54.987  94.149  1.00  0.00     0.013 A 
HETATM   25  C15 UNL     1      11.424  54.818  94.628  1.00  0.00    -0.017 A 
HETATM   26  C20 UNL     1      10.568  54.172  93.805  1.00  0.00     0.013 A 
HETATM   27  C21 UNL     1      10.970  53.696  92.539  1.00  0.00     0.010 A 
BRANCH  25  28
HETATM   28  C16 UNL     1      11.078  55.336  95.943  1.00  0.00     0.038 A 
HETATM   29  S2  UNL     1      10.945  54.328  97.352  1.00  0.00    -0.082 SA
HETATM   30  C17 UNL     1      10.528  55.525  98.492  1.00  0.00     0.139 A 
HETATM   31  N4  UNL     1      10.515  56.611  97.748  1.00  0.00    -0.362 N 
HETATM   32  C18 UNL     1      10.787  56.544  96.468  1.00  0.00     0.023 A 
ATOM     33  H4  UNL     1      10.290  57.512  98.171  1.00  0.00     0.165 HD
HETATM   34  C19 UNL     1      10.763  57.806  95.624  1.00  0.00     0.069 C 
ENDBRANCH  25  28
ENDBRANCH  21  22
ENDBRANCH   3  21
TORSDOF 8
ENDMDL
