MODEL 6
REMARK VINA RESULT: -8.102738856      2.044      2.794
REMARK  8 active torsions:
REMARK  status: ('A' for Active; 'I' for Inactive)
REMARK       I    between atoms: C2_2  and  N1_4 
REMARK    1  A    between atoms: N1_4  and  C3_6 
REMARK    2  A    between atoms: C3_6  and  C5_8 
REMARK    3  A    between atoms: C5_8  and  N2_10 
REMARK    4  A    between atoms: C7_12  and  O2_13 
REMARK    5  A    between atoms: C9_16  and  C10_17 
REMARK       I    between atoms: C10_17  and  N3_19 
REMARK    6  A    between atoms: N3_19  and  C11_21 
REMARK    7  A    between atoms: C11_21  and  C12_22 
REMARK    8  A    between atoms: C15_25  and  C16_26 
ROOT
HETATM    1  C10 UNL     1      11.912  53.156  89.044  1.00  0.00     0.240 C 
HETATM    2  O3  UNL     1      12.258  51.978  89.335  1.00  0.00    -0.271 OA
HETATM    3  N3  UNL     1      11.049  53.303  87.930  1.00  0.00    -0.355 N 
ATOM      4  H3  UNL     1      10.761  54.248  87.678  1.00  0.00     0.162 HD
ENDROOT
BRANCH   1   5
HETATM    5  C9  UNL     1      12.359  54.340  89.797  1.00  0.00     0.179 C 
HETATM    6  N2  UNL     1      13.057  54.034  91.000  1.00  0.00    -0.358 N 
HETATM    7  C6  UNL     1      14.470  54.141  90.729  1.00  0.00     0.156 C 
HETATM    8  C7  UNL     1      14.655  55.061  89.570  1.00  0.00     0.138 C 
HETATM    9  C8  UNL     1      13.312  55.123  88.921  1.00  0.00     0.068 C 
BRANCH   6  10
HETATM   10  C5  UNL     1      12.487  53.687  92.241  1.00  0.00     0.099 C 
HETATM   11  S1  UNL     1      12.478  54.783  93.481  1.00  0.00    -0.063 SA
BRANCH  10  12
HETATM   12  C3  UNL     1      11.876  52.366  92.521  1.00  0.00     0.141 C 
HETATM   13  C4  UNL     1      10.401  52.530  92.822  1.00  0.00     0.040 C 
BRANCH  12  14
HETATM   14  N1  UNL     1      12.566  51.686  93.591  1.00  0.00    -0.351 N 
HETATM   15  C2  UNL     1      13.689  50.863  93.285  1.00  0.00     0.214 C 
HETATM   16  C1  UNL     1      14.469  50.122  94.303  1.00  0.00     0.117 C 
HETATM   17  O1  UNL     1      14.048  50.752  92.071  1.00  0.00    -0.274 OA
ATOM     18  H1  UNL     1      12.253  51.794  94.556  1.00  0.00     0.163 HD
ENDBRANCH  12  14
ENDBRANCH  10  12
ENDBRANCH   6  10
BRANCH   8  19
HETATM   19  O2  UNL     1      14.955  56.359  90.035  1.00  0.00    -0.394 OA
ATOM     20  H2  UNL     1      15.177  56.919  89.301  1.00  0.00     0.210 HD
ENDBRANCH   8  19
ENDBRANCH   1   5
BRANCH   3  21
HETATM   21  C11 UNL     1      10.553  52.229  87.136  1.00  0.00     0.161 C 
BRANCH  21  22
HETATM   22  C12 UNL     1      11.359  51.904  85.941  1.00  0.00    -0.040 A 
HETATM   23  C13 UNL     1      12.164  52.884  85.405  1.00  0.00     0.010 A 
HETATM   24  C14 UNL     1      12.943  52.664  84.297  1.00  0.00     0.013 A 
HETATM   25  C15 UNL     1      12.962  51.420  83.642  1.00  0.00    -0.017 A 
HETATM   26  C20 UNL     1      12.171  50.459  84.170  1.00  0.00     0.013 A 
HETATM   27  C21 UNL     1      11.374  50.694  85.310  1.00  0.00     0.010 A 
BRANCH  25  28
HETATM   28  C16 UNL     1      13.810  51.248  82.473  1.00  0.00     0.038 A 
HETATM   29  S2  UNL     1      15.336  52.057  82.284  1.00  0.00    -0.082 SA
HETATM   30  C17 UNL     1      15.775  51.434  80.758  1.00  0.00     0.139 A 
HETATM   31  N4  UNL     1      14.750  50.655  80.481  1.00  0.00    -0.362 N 
HETATM   32  C18 UNL     1      13.753  50.544  81.324  1.00  0.00     0.023 A 
ATOM     33  H4  UNL     1      14.733  50.135  79.604  1.00  0.00     0.165 HD
HETATM   34  C19 UNL     1      12.577  49.644  80.987  1.00  0.00     0.069 C 
ENDBRANCH  25  28
ENDBRANCH  21  22
ENDBRANCH   3  21
TORSDOF 8
ENDMDL
