MODEL 1
REMARK VINA RESULT: -4.297360453      0.000      0.000
REMARK  2 active torsions:
REMARK  status: ('A' for Active; 'I' for Inactive)
REMARK    1  A    between atoms: C7_7  and  N1_8 
REMARK    2  A    between atoms: C10_14  and  C11_15 
ROOT
HETATM    1  C1  UNL     1      34.614  11.724  -2.201  1.00  0.00     0.050 C 
HETATM    2  C2  UNL     1      35.142  11.837  -0.818  1.00  0.00    -0.028 A 
HETATM    3  C3  UNL     1      36.398  12.318  -0.526  1.00  0.00     0.012 A 
HETATM    4  C4  UNL     1      36.863  12.411   0.764  1.00  0.00     0.038 A 
HETATM    5  C5  UNL     1      36.042  12.010   1.797  1.00  0.00     0.086 A 
HETATM    6  C6  UNL     1      34.778  11.527   1.501  1.00  0.00     0.077 A 
HETATM    7  C7  UNL     1      34.292  11.423   0.216  1.00  0.00     0.125 A 
HETATM    8  C8  UNL     1      33.916  11.125   2.607  1.00  0.00     0.167 C 
HETATM    9  O3  UNL     1      32.957  10.358   2.400  1.00  0.00    -0.292 OA
HETATM   10  C9  UNL     1      34.238  11.668   3.954  1.00  0.00     0.125 C 
HETATM   11  C10 UNL     1      35.729  11.634   4.218  1.00  0.00     0.243 C 
HETATM   12  O4  UNL     1      36.464  12.085   3.101  1.00  0.00    -0.335 OA
ENDROOT
BRANCH  11  13
HETATM   13  C11 UNL     1      36.138  10.235   4.640  1.00  0.00     0.414 C 
HETATM   14  F1  UNL     1      37.182  10.275   5.543  1.00  0.00    -0.168 F 
HETATM   15  F2  UNL     1      36.614   9.528   3.543  1.00  0.00    -0.168 F 
HETATM   16  F3  UNL     1      35.047   9.617   5.201  1.00  0.00    -0.168 F 
ENDBRANCH  11  13
BRANCH   7  17
HETATM   17  N1  UNL     1      32.993  10.928  -0.108  1.00  0.00    -0.114 N 
HETATM   18  O1  UNL     1      32.827   9.745  -0.458  1.00  0.00    -0.532 OA
HETATM   19  O2  UNL     1      31.864  11.713  -0.067  1.00  0.00    -0.532 OA
ENDBRANCH   7  17
TORSDOF 2
ENDMDL
