MODEL 5
REMARK VINA RESULT: -4.134371880      3.550      5.220
REMARK  2 active torsions:
REMARK  status: ('A' for Active; 'I' for Inactive)
REMARK    1  A    between atoms: C7_7  and  N1_8 
REMARK    2  A    between atoms: C10_14  and  C11_15 
ROOT
HETATM    1  C1  UNL     1      36.570  11.651   3.765  1.00  0.00     0.050 C 
HETATM    2  C2  UNL     1      36.140  11.749   2.347  1.00  0.00    -0.028 A 
HETATM    3  C3  UNL     1      36.913  12.317   1.361  1.00  0.00     0.012 A 
HETATM    4  C4  UNL     1      36.490  12.395   0.055  1.00  0.00     0.038 A 
HETATM    5  C5  UNL     1      35.250  11.887  -0.273  1.00  0.00     0.086 A 
HETATM    6  C6  UNL     1      34.474  11.315   0.720  1.00  0.00     0.077 A 
HETATM    7  C7  UNL     1      34.877  11.227   2.035  1.00  0.00     0.125 A 
HETATM    8  C8  UNL     1      33.174  10.766   0.352  1.00  0.00     0.167 C 
HETATM    9  O3  UNL     1      32.303  10.591   1.225  1.00  0.00    -0.292 OA
HETATM   10  C9  UNL     1      32.956  10.434  -1.082  1.00  0.00     0.125 C 
HETATM   11  C10 UNL     1      33.509  11.517  -1.985  1.00  0.00     0.243 C 
HETATM   12  O4  UNL     1      34.787  11.943  -1.564  1.00  0.00    -0.335 OA
ENDROOT
BRANCH  11  13
HETATM   13  C11 UNL     1      32.523  12.669  -2.060  1.00  0.00     0.414 C 
HETATM   14  F1  UNL     1      32.779  13.606  -1.079  1.00  0.00    -0.168 F 
HETATM   15  F2  UNL     1      31.235  12.208  -1.815  1.00  0.00    -0.168 F 
HETATM   16  F3  UNL     1      32.623  13.243  -3.304  1.00  0.00    -0.168 F 
ENDBRANCH  11  13
BRANCH   7  17
HETATM   17  N1  UNL     1      34.090  10.642   3.073  1.00  0.00    -0.114 N 
HETATM   18  O1  UNL     1      33.369  11.345   3.804  1.00  0.00    -0.532 OA
HETATM   19  O2  UNL     1      34.089   9.292   3.337  1.00  0.00    -0.532 OA
ENDBRANCH   7  17
TORSDOF 2
ENDMDL
