MODEL 3
REMARK VINA RESULT: -4.155784797      3.087      5.125
REMARK  2 active torsions:
REMARK  status: ('A' for Active; 'I' for Inactive)
REMARK    1  A    between atoms: C7_7  and  N1_8 
REMARK    2  A    between atoms: C10_14  and  C11_15 
ROOT
HETATM    1  C1  UNL     1      32.081  12.699   7.004  1.00  0.00     0.050 C 
HETATM    2  C2  UNL     1      32.967  12.742   5.813  1.00  0.00    -0.028 A 
HETATM    3  C3  UNL     1      33.487  13.908   5.301  1.00  0.00     0.012 A 
HETATM    4  C4  UNL     1      34.305  13.920   4.195  1.00  0.00     0.038 A 
HETATM    5  C5  UNL     1      34.611  12.723   3.583  1.00  0.00     0.086 A 
HETATM    6  C6  UNL     1      34.087  11.550   4.101  1.00  0.00     0.077 A 
HETATM    7  C7  UNL     1      33.265  11.515   5.206  1.00  0.00     0.125 A 
HETATM    8  C8  UNL     1      34.437  10.291   3.453  1.00  0.00     0.167 C 
HETATM    9  O3  UNL     1      33.725   9.284   3.626  1.00  0.00    -0.292 OA
HETATM   10  C9  UNL     1      35.656  10.280   2.601  1.00  0.00     0.125 C 
HETATM   11  C10 UNL     1      35.737  11.523   1.741  1.00  0.00     0.243 C 
HETATM   12  O4  UNL     1      35.424  12.686   2.478  1.00  0.00    -0.335 OA
ENDROOT
BRANCH  11  13
HETATM   13  C11 UNL     1      34.839  11.361   0.528  1.00  0.00     0.414 C 
HETATM   14  F1  UNL     1      33.512  11.536   0.866  1.00  0.00    -0.168 F 
HETATM   15  F2  UNL     1      34.936  10.066   0.035  1.00  0.00    -0.168 F 
HETATM   16  F3  UNL     1      35.215  12.287  -0.415  1.00  0.00    -0.168 F 
ENDBRANCH  11  13
BRANCH   7  17
HETATM   17  N1  UNL     1      32.715  10.316   5.753  1.00  0.00    -0.114 N 
HETATM   18  O1  UNL     1      31.578   9.927   5.429  1.00  0.00    -0.532 OA
HETATM   19  O2  UNL     1      33.386   9.536   6.666  1.00  0.00    -0.532 OA
ENDBRANCH   7  17
TORSDOF 2
ENDMDL
