MODEL 7
REMARK VINA RESULT: -11.941143398      4.228      7.058
REMARK  6 active torsions:
REMARK  status: ('A' for Active; 'I' for Inactive)
REMARK    1  A    between atoms: C5_5  and  C6_6 
REMARK       I    between atoms: C6_6  and  N1_8 
REMARK    2  A    between atoms: N1_8  and  C7_10 
REMARK    3  A    between atoms: C11_14  and  C12_15 
REMARK    4  A    between atoms: C15_21  and  N2_22 
REMARK    5  A    between atoms: N2_22  and  C16_24 
REMARK    6  A    between atoms: C17_27  and  C18_28 
ROOT
HETATM    1  N2  UNL     1     -74.884 -18.792  83.802  1.00  0.00    -0.341 N 
ATOM      2  H2  UNL     1     -73.957 -18.956  83.410  1.00  0.00     0.167 HD
ENDROOT
BRANCH   1   3
HETATM    3  C15 UNL     1     -75.932 -18.551  82.882  1.00  0.00     0.040 A 
HETATM    4  C2  UNL     1     -75.615 -17.944  81.690  1.00  0.00    -0.035 A 
HETATM    5  C1  UNL     1     -74.229 -17.652  81.232  1.00  0.00     0.050 C 
HETATM    6  C3  UNL     1     -76.679 -17.579  80.852  1.00  0.00     0.010 A 
HETATM    7  C4  UNL     1     -77.974 -17.831  81.231  1.00  0.00     0.018 A 
HETATM    8  C5  UNL     1     -78.304 -18.431  82.409  1.00  0.00     0.034 A 
HETATM    9  C14 UNL     1     -77.273 -18.798  83.246  1.00  0.00     0.047 A 
BRANCH   8  10
HETATM   10  C6  UNL     1     -79.713 -18.589  82.833  1.00  0.00     0.256 C 
HETATM   11  O1  UNL     1     -80.648 -18.633  81.984  1.00  0.00    -0.267 OA
HETATM   12  N1  UNL     1     -80.053 -18.704  84.178  1.00  0.00    -0.323 N 
ATOM     13  H1  UNL     1     -79.271 -18.652  84.830  1.00  0.00     0.169 HD
BRANCH  12  14
HETATM   14  C7  UNL     1     -81.321 -18.882  84.771  1.00  0.00     0.035 A 
HETATM   15  C8  UNL     1     -82.270 -17.921  84.946  1.00  0.00     0.029 A 
HETATM   16  C9  UNL     1     -83.487 -18.169  85.530  1.00  0.00     0.003 A 
HETATM   17  C10 UNL     1     -83.748 -19.455  85.954  1.00  0.00     0.016 A 
HETATM   18  C11 UNL     1     -82.830 -20.499  85.814  1.00  0.00     0.050 A 
HETATM   19  C13 UNL     1     -81.633 -20.172  85.219  1.00  0.00     0.045 A 
BRANCH  18  20
HETATM   20  C12 UNL     1     -83.138 -21.871  86.293  1.00  0.00     0.417 C 
HETATM   21  F1  UNL     1     -81.963 -22.360  86.828  1.00  0.00    -0.166 F 
HETATM   22  F2  UNL     1     -84.077 -21.795  87.310  1.00  0.00    -0.166 F 
HETATM   23  F3  UNL     1     -83.593 -22.679  85.259  1.00  0.00    -0.166 F 
ENDBRANCH  18  20
ENDBRANCH  12  14
ENDBRANCH   8  10
ENDBRANCH   1   3
BRANCH   1  24
HETATM   24  C16 UNL     1     -74.993 -18.828  85.210  1.00  0.00     0.122 A 
HETATM   25  N3  UNL     1     -76.046 -19.378  85.853  1.00  0.00    -0.327 N 
HETATM   26  C17 UNL     1     -76.065 -19.451  87.185  1.00  0.00     0.120 A 
ATOM     27  H3  UNL     1     -76.834 -19.740  85.316  1.00  0.00     0.169 HD
HETATM   28  N5  UNL     1     -75.004 -18.957  87.887  1.00  0.00    -0.326 N 
HETATM   29  C23 UNL     1     -73.935 -18.402  87.309  1.00  0.00     0.139 A 
ATOM     30  H5  UNL     1     -75.028 -19.016  88.905  1.00  0.00     0.169 HD
HETATM   31  C24 UNL     1     -73.913 -18.329  85.949  1.00  0.00     0.070 A 
HETATM   32  N7  UNL     1     -72.794 -17.841  87.800  1.00  0.00    -0.281 N 
HETATM   33  C25 UNL     1     -72.716 -17.707  85.617  1.00  0.00     0.126 A 
HETATM   34  N6  UNL     1     -72.102 -17.445  86.764  1.00  0.00    -0.307 N 
ATOM     35  H6  UNL     1     -71.193 -16.987  86.830  1.00  0.00     0.186 HD
HETATM   36  C26 UNL     1     -72.501 -17.719  89.198  1.00  0.00     0.179 C 
BRANCH  26  37
HETATM   37  C18 UNL     1     -77.137 -20.092  87.919  1.00  0.00     0.023 A 
HETATM   38  C19 UNL     1     -78.401 -20.306  87.366  1.00  0.00     0.018 A 
HETATM   39  C20 UNL     1     -79.406 -20.888  88.124  1.00  0.00     0.018 A 
HETATM   40  C21 UNL     1     -79.171 -21.266  89.428  1.00  0.00     0.087 A 
HETATM   41  N4  UNL     1     -77.952 -21.060  89.956  1.00  0.00    -0.374 N 
HETATM   42  C22 UNL     1     -76.954 -20.483  89.212  1.00  0.00     0.102 A 
ATOM     43  H4  UNL     1     -77.766 -21.335  90.920  1.00  0.00     0.164 HD
ENDBRANCH  26  37
ENDBRANCH   1  24
TORSDOF 6
ENDMDL
