MODEL 5
REMARK VINA RESULT: -12.121187208      3.213      6.411
REMARK  6 active torsions:
REMARK  status: ('A' for Active; 'I' for Inactive)
REMARK    1  A    between atoms: C5_5  and  C6_6 
REMARK       I    between atoms: C6_6  and  N1_8 
REMARK    2  A    between atoms: N1_8  and  C7_10 
REMARK    3  A    between atoms: C11_14  and  C12_15 
REMARK    4  A    between atoms: C15_21  and  N2_22 
REMARK    5  A    between atoms: N2_22  and  C16_24 
REMARK    6  A    between atoms: C17_27  and  C18_28 
ROOT
HETATM    1  N2  UNL     1     -75.262 -18.569  84.030  1.00  0.00    -0.341 N 
ATOM      2  H2  UNL     1     -74.347 -18.413  83.606  1.00  0.00     0.167 HD
ENDROOT
BRANCH   1   3
HETATM    3  C15 UNL     1     -76.378 -18.553  83.161  1.00  0.00     0.040 A 
HETATM    4  C2  UNL     1     -76.206 -18.035  81.899  1.00  0.00    -0.035 A 
HETATM    5  C1  UNL     1     -74.895 -17.623  81.327  1.00  0.00     0.050 C 
HETATM    6  C3  UNL     1     -77.350 -17.892  81.101  1.00  0.00     0.010 A 
HETATM    7  C4  UNL     1     -78.580 -18.261  81.585  1.00  0.00     0.018 A 
HETATM    8  C5  UNL     1     -78.768 -18.775  82.833  1.00  0.00     0.034 A 
HETATM    9  C14 UNL     1     -77.656 -18.925  83.633  1.00  0.00     0.047 A 
BRANCH   8  10
HETATM   10  C6  UNL     1     -80.120 -19.062  83.360  1.00  0.00     0.256 C 
HETATM   11  O1  UNL     1     -81.153 -18.620  82.781  1.00  0.00    -0.267 OA
HETATM   12  N1  UNL     1     -80.300 -19.835  84.504  1.00  0.00    -0.323 N 
ATOM     13  H1  UNL     1     -79.442 -20.161  84.948  1.00  0.00     0.169 HD
BRANCH  12  14
HETATM   14  C7  UNL     1     -81.496 -20.232  85.141  1.00  0.00     0.035 A 
HETATM   15  C8  UNL     1     -82.036 -21.482  85.132  1.00  0.00     0.029 A 
HETATM   16  C9  UNL     1     -83.204 -21.797  85.779  1.00  0.00     0.003 A 
HETATM   17  C10 UNL     1     -83.851 -20.792  86.466  1.00  0.00     0.016 A 
HETATM   18  C11 UNL     1     -83.367 -19.483  86.525  1.00  0.00     0.050 A 
HETATM   19  C13 UNL     1     -82.190 -19.245  85.851  1.00  0.00     0.045 A 
BRANCH  18  20
HETATM   20  C12 UNL     1     -84.094 -18.419  87.264  1.00  0.00     0.417 C 
HETATM   21  F1  UNL     1     -83.137 -17.505  87.656  1.00  0.00    -0.166 F 
HETATM   22  F2  UNL     1     -84.970 -17.783  86.397  1.00  0.00    -0.166 F 
HETATM   23  F3  UNL     1     -84.772 -18.937  88.360  1.00  0.00    -0.166 F 
ENDBRANCH  18  20
ENDBRANCH  12  14
ENDBRANCH   8  10
ENDBRANCH   1   3
BRANCH   1  24
HETATM   24  C16 UNL     1     -75.287 -18.777  85.427  1.00  0.00     0.122 A 
HETATM   25  N3  UNL     1     -76.341 -19.323  86.072  1.00  0.00    -0.327 N 
HETATM   26  C17 UNL     1     -76.284 -19.565  87.382  1.00  0.00     0.120 A 
ATOM     27  H3  UNL     1     -77.188 -19.551  85.552  1.00  0.00     0.169 HD
HETATM   28  N5  UNL     1     -75.143 -19.249  88.061  1.00  0.00    -0.326 N 
HETATM   29  C23 UNL     1     -74.068 -18.708  87.481  1.00  0.00     0.139 A 
ATOM     30  H5  UNL     1     -75.109 -19.437  89.064  1.00  0.00     0.169 HD
HETATM   31  C24 UNL     1     -74.124 -18.462  86.142  1.00  0.00     0.070 A 
HETATM   32  N7  UNL     1     -72.855 -18.304  87.954  1.00  0.00    -0.281 N 
HETATM   33  C25 UNL     1     -72.901 -17.896  85.803  1.00  0.00     0.126 A 
HETATM   34  N6  UNL     1     -72.197 -17.832  86.927  1.00  0.00    -0.307 N 
ATOM     35  H6  UNL     1     -71.250 -17.457  86.983  1.00  0.00     0.186 HD
HETATM   36  C26 UNL     1     -72.467 -18.386  89.331  1.00  0.00     0.179 C 
BRANCH  26  37
HETATM   37  C18 UNL     1     -77.358 -20.211  88.107  1.00  0.00     0.023 A 
HETATM   38  C19 UNL     1     -78.617 -20.431  87.543  1.00  0.00     0.018 A 
HETATM   39  C20 UNL     1     -79.626 -21.018  88.291  1.00  0.00     0.018 A 
HETATM   40  C21 UNL     1     -79.400 -21.395  89.598  1.00  0.00     0.087 A 
HETATM   41  N4  UNL     1     -78.186 -21.183  90.136  1.00  0.00    -0.374 N 
HETATM   42  C22 UNL     1     -77.185 -20.601  89.401  1.00  0.00     0.102 A 
ATOM     43  H4  UNL     1     -78.008 -21.458  91.102  1.00  0.00     0.164 HD
ENDBRANCH  26  37
ENDBRANCH   1  24
TORSDOF 6
ENDMDL
