MODEL 8
REMARK VINA RESULT: -11.911553389      3.758      7.077
REMARK  6 active torsions:
REMARK  status: ('A' for Active; 'I' for Inactive)
REMARK    1  A    between atoms: C5_5  and  C6_6 
REMARK       I    between atoms: C6_6  and  N1_8 
REMARK    2  A    between atoms: N1_8  and  C7_10 
REMARK    3  A    between atoms: C11_14  and  C12_15 
REMARK    4  A    between atoms: C15_21  and  N2_22 
REMARK    5  A    between atoms: N2_22  and  C16_24 
REMARK    6  A    between atoms: C17_27  and  C18_28 
ROOT
HETATM    1  N2  UNL     1     -75.089 -17.923  85.082  1.00  0.00    -0.341 N 
ATOM      2  H2  UNL     1     -74.309 -17.286  84.918  1.00  0.00     0.167 HD
ENDROOT
BRANCH   1   3
HETATM    3  C15 UNL     1     -76.000 -18.103  84.014  1.00  0.00     0.040 A 
HETATM    4  C2  UNL     1     -75.672 -17.570  82.790  1.00  0.00    -0.035 A 
HETATM    5  C1  UNL     1     -74.362 -16.943  82.465  1.00  0.00     0.050 C 
HETATM    6  C3  UNL     1     -76.645 -17.629  81.782  1.00  0.00     0.010 A 
HETATM    7  C4  UNL     1     -77.867 -18.200  82.034  1.00  0.00     0.018 A 
HETATM    8  C5  UNL     1     -78.208 -18.732  83.241  1.00  0.00     0.034 A 
HETATM    9  C14 UNL     1     -77.265 -18.686  84.245  1.00  0.00     0.047 A 
BRANCH   8  10
HETATM   10  C6  UNL     1     -79.570 -19.243  83.509  1.00  0.00     0.256 C 
HETATM   11  O1  UNL     1     -80.569 -18.798  82.876  1.00  0.00    -0.267 OA
HETATM   12  N1  UNL     1     -79.795 -20.236  84.458  1.00  0.00    -0.323 N 
ATOM     13  H1  UNL     1     -78.965 -20.559  84.955  1.00  0.00     0.169 HD
BRANCH  12  14
HETATM   14  C7  UNL     1     -81.003 -20.861  84.835  1.00  0.00     0.035 A 
HETATM   15  C8  UNL     1     -81.472 -22.054  84.372  1.00  0.00     0.029 A 
HETATM   16  C9  UNL     1     -82.658 -22.603  84.789  1.00  0.00     0.003 A 
HETATM   17  C10 UNL     1     -83.400 -21.907  85.718  1.00  0.00     0.016 A 
HETATM   18  C11 UNL     1     -82.994 -20.677  86.243  1.00  0.00     0.050 A 
HETATM   19  C13 UNL     1     -81.793 -20.190  85.778  1.00  0.00     0.045 A 
BRANCH  18  20
HETATM   20  C12 UNL     1     -83.823 -19.946  87.236  1.00  0.00     0.417 C 
HETATM   21  F1  UNL     1     -84.935 -20.733  87.457  1.00  0.00    -0.166 F 
HETATM   22  F2  UNL     1     -83.120 -19.846  88.427  1.00  0.00    -0.166 F 
HETATM   23  F3  UNL     1     -84.183 -18.689  86.768  1.00  0.00    -0.166 F 
ENDBRANCH  18  20
ENDBRANCH  12  14
ENDBRANCH   8  10
ENDBRANCH   1   3
BRANCH   1  24
HETATM   24  C16 UNL     1     -75.151 -18.536  86.353  1.00  0.00     0.122 A 
HETATM   25  N3  UNL     1     -76.284 -19.073  86.857  1.00  0.00    -0.327 N 
HETATM   26  C17 UNL     1     -76.272 -19.705  88.031  1.00  0.00     0.120 A 
ATOM     27  H3  UNL     1     -77.157 -18.993  86.335  1.00  0.00     0.169 HD
HETATM   28  N5  UNL     1     -75.095 -19.797  88.717  1.00  0.00    -0.326 N 
HETATM   29  C23 UNL     1     -73.943 -19.287  88.272  1.00  0.00     0.139 A 
ATOM     30  H5  UNL     1     -75.095 -20.281  89.615  1.00  0.00     0.169 HD
HETATM   31  C24 UNL     1     -73.954 -18.644  87.071  1.00  0.00     0.070 A 
HETATM   32  N7  UNL     1     -72.680 -19.246  88.784  1.00  0.00    -0.281 N 
HETATM   33  C25 UNL     1     -72.652 -18.207  86.857  1.00  0.00     0.126 A 
HETATM   34  N6  UNL     1     -71.950 -18.599  87.913  1.00  0.00    -0.307 N 
ATOM     35  H6  UNL     1     -70.953 -18.417  88.031  1.00  0.00     0.186 HD
HETATM   36  C26 UNL     1     -72.314 -19.801  90.053  1.00  0.00     0.179 C 
BRANCH  26  37
HETATM   37  C18 UNL     1     -77.441 -20.357  88.583  1.00  0.00     0.023 A 
HETATM   38  C19 UNL     1     -78.623 -20.517  87.856  1.00  0.00     0.018 A 
HETATM   39  C20 UNL     1     -79.729 -21.113  88.442  1.00  0.00     0.018 A 
HETATM   40  C21 UNL     1     -79.677 -21.558  89.746  1.00  0.00     0.087 A 
HETATM   41  N4  UNL     1     -78.536 -21.404  90.441  1.00  0.00    -0.374 N 
HETATM   42  C22 UNL     1     -77.439 -20.813  89.867  1.00  0.00     0.102 A 
ATOM     43  H4  UNL     1     -78.486 -21.729  91.407  1.00  0.00     0.164 HD
ENDBRANCH  26  37
ENDBRANCH   1  24
TORSDOF 6
ENDMDL
