MODEL 1
REMARK VINA RESULT: -14.362719012      0.000      0.000
REMARK  6 active torsions:
REMARK  status: ('A' for Active; 'I' for Inactive)
REMARK    1  A    between atoms: C5_5  and  C6_6 
REMARK       I    between atoms: C6_6  and  N1_8 
REMARK    2  A    between atoms: N1_8  and  C7_10 
REMARK    3  A    between atoms: C11_14  and  C12_15 
REMARK    4  A    between atoms: C15_21  and  N2_22 
REMARK    5  A    between atoms: N2_22  and  C16_24 
REMARK    6  A    between atoms: C17_27  and  C18_28 
ROOT
HETATM    1  N2  UNL     1     -81.363 -19.747  84.057  1.00  0.00    -0.341 N 
ATOM      2  H2  UNL     1     -81.793 -19.785  83.133  1.00  0.00     0.167 HD
ENDROOT
BRANCH   1   3
HETATM    3  C15 UNL     1     -82.203 -20.028  85.162  1.00  0.00     0.040 A 
HETATM    4  C2  UNL     1     -82.537 -21.340  85.399  1.00  0.00    -0.035 A 
HETATM    5  C1  UNL     1     -81.965 -22.504  84.669  1.00  0.00     0.050 C 
HETATM    6  C3  UNL     1     -83.483 -21.590  86.403  1.00  0.00     0.010 A 
HETATM    7  C4  UNL     1     -84.036 -20.549  87.106  1.00  0.00     0.018 A 
HETATM    8  C5  UNL     1     -83.716 -19.243  86.883  1.00  0.00     0.034 A 
HETATM    9  C14 UNL     1     -82.788 -18.976  85.900  1.00  0.00     0.047 A 
BRANCH   8  10
HETATM   10  C6  UNL     1     -84.410 -18.141  87.584  1.00  0.00     0.256 C 
HETATM   11  O1  UNL     1     -84.210 -16.936  87.262  1.00  0.00    -0.267 OA
HETATM   12  N1  UNL     1     -85.312 -18.396  88.613  1.00  0.00    -0.323 N 
ATOM     13  H1  UNL     1     -85.435 -19.380  88.851  1.00  0.00     0.169 HD
BRANCH  12  14
HETATM   14  C7  UNL     1     -86.080 -17.491  89.378  1.00  0.00     0.035 A 
HETATM   15  C8  UNL     1     -86.526 -17.688  90.650  1.00  0.00     0.029 A 
HETATM   16  C9  UNL     1     -87.268 -16.759  91.335  1.00  0.00     0.003 A 
HETATM   17  C10 UNL     1     -87.569 -15.576  90.694  1.00  0.00     0.016 A 
HETATM   18  C11 UNL     1     -87.153 -15.294  89.391  1.00  0.00     0.050 A 
HETATM   19  C13 UNL     1     -86.412 -16.274  88.769  1.00  0.00     0.045 A 
BRANCH  18  20
HETATM   20  C12 UNL     1     -87.505 -14.014  88.724  1.00  0.00     0.417 C 
HETATM   21  F1  UNL     1     -88.693 -13.602  89.294  1.00  0.00    -0.166 F 
HETATM   22  F2  UNL     1     -86.534 -13.069  89.019  1.00  0.00    -0.166 F 
HETATM   23  F3  UNL     1     -87.636 -14.176  87.351  1.00  0.00    -0.166 F 
ENDBRANCH  18  20
ENDBRANCH  12  14
ENDBRANCH   8  10
ENDBRANCH   1   3
BRANCH   1  24
HETATM   24  C16 UNL     1     -79.990 -19.419  84.107  1.00  0.00     0.122 A 
HETATM   25  N3  UNL     1     -79.211 -19.670  85.182  1.00  0.00    -0.327 N 
HETATM   26  C17 UNL     1     -77.904 -19.408  85.149  1.00  0.00     0.120 A 
ATOM     27  H3  UNL     1     -79.627 -20.064  86.026  1.00  0.00     0.169 HD
HETATM   28  N5  UNL     1     -77.367 -18.877  84.012  1.00  0.00    -0.326 N 
HETATM   29  C23 UNL     1     -78.084 -18.606  82.918  1.00  0.00     0.139 A 
ATOM     30  H5  UNL     1     -76.367 -18.678  83.996  1.00  0.00     0.169 HD
HETATM   31  C24 UNL     1     -79.419 -18.877  82.949  1.00  0.00     0.070 A 
HETATM   32  N7  UNL     1     -77.770 -18.073  81.703  1.00  0.00    -0.281 N 
HETATM   33  C25 UNL     1     -79.918 -18.495  81.709  1.00  0.00     0.126 A 
HETATM   34  N6  UNL     1     -78.884 -18.027  81.020  1.00  0.00    -0.307 N 
ATOM     35  H6  UNL     1     -78.951 -17.672  80.066  1.00  0.00     0.186 HD
HETATM   36  C26 UNL     1     -76.453 -17.641  81.337  1.00  0.00     0.179 C 
BRANCH  26  37
HETATM   37  C18 UNL     1     -77.014 -19.721  86.248  1.00  0.00     0.023 A 
HETATM   38  C19 UNL     1     -77.482 -20.142  87.494  1.00  0.00     0.018 A 
HETATM   39  C20 UNL     1     -76.591 -20.393  88.528  1.00  0.00     0.018 A 
HETATM   40  C21 UNL     1     -75.235 -20.234  88.337  1.00  0.00     0.087 A 
HETATM   41  N4  UNL     1     -74.789 -19.829  87.135  1.00  0.00    -0.374 N 
HETATM   42  C22 UNL     1     -75.666 -19.579  86.110  1.00  0.00     0.102 A 
ATOM     43  H4  UNL     1     -73.788 -19.708  86.983  1.00  0.00     0.164 HD
ENDBRANCH  26  37
ENDBRANCH   1  24
TORSDOF 6
ENDMDL
