MODEL 5
REMARK VINA RESULT: -12.270873277      5.628     11.886
REMARK  6 active torsions:
REMARK  status: ('A' for Active; 'I' for Inactive)
REMARK    1  A    between atoms: C5_5  and  C6_6 
REMARK       I    between atoms: C6_6  and  N1_8 
REMARK    2  A    between atoms: N1_8  and  C7_10 
REMARK    3  A    between atoms: C11_14  and  C12_15 
REMARK    4  A    between atoms: C15_21  and  N2_22 
REMARK    5  A    between atoms: N2_22  and  C16_24 
REMARK    6  A    between atoms: C17_27  and  C18_28 
ROOT
HETATM    1  N2  UNL     1    -109.000 -14.901  54.811  1.00  0.00    -0.341 N 
ATOM      2  H2  UNL     1    -109.278 -14.005  55.211  1.00  0.00     0.167 HD
ENDROOT
BRANCH   1   3
HETATM    3  C15 UNL     1    -108.529 -14.733  53.502  1.00  0.00     0.040 A 
HETATM    4  C2  UNL     1    -109.371 -13.995  52.650  1.00  0.00    -0.035 A 
HETATM    5  C1  UNL     1    -110.572 -13.266  53.152  1.00  0.00     0.050 C 
HETATM    6  C3  UNL     1    -109.091 -13.929  51.306  1.00  0.00     0.010 A 
HETATM    7  C4  UNL     1    -107.995 -14.578  50.807  1.00  0.00     0.018 A 
HETATM    8  C5  UNL     1    -107.135 -15.316  51.624  1.00  0.00     0.034 A 
HETATM    9  C14 UNL     1    -107.438 -15.365  52.968  1.00  0.00     0.047 A 
BRANCH   8  10
HETATM   10  C6  UNL     1    -106.013 -16.046  50.985  1.00  0.00     0.256 C 
HETATM   11  O1  UNL     1    -105.371 -15.556  50.049  1.00  0.00    -0.267 OA
HETATM   12  N1  UNL     1    -105.649 -17.335  51.454  1.00  0.00    -0.323 N 
ATOM     13  H1  UNL     1    -106.220 -17.715  52.210  1.00  0.00     0.169 HD
BRANCH  12  14
HETATM   14  C7  UNL     1    -104.583 -18.161  50.996  1.00  0.00     0.035 A 
HETATM   15  C8  UNL     1    -103.436 -18.408  51.691  1.00  0.00     0.029 A 
HETATM   16  C9  UNL     1    -102.507 -19.266  51.165  1.00  0.00     0.003 A 
HETATM   17  C10 UNL     1    -102.692 -19.885  49.961  1.00  0.00     0.016 A 
HETATM   18  C11 UNL     1    -103.838 -19.642  49.262  1.00  0.00     0.050 A 
HETATM   19  C13 UNL     1    -104.770 -18.799  49.760  1.00  0.00     0.045 A 
BRANCH  18  20
HETATM   20  C12 UNL     1    -104.038 -20.338  47.931  1.00  0.00     0.417 C 
HETATM   21  F1  UNL     1    -105.322 -20.796  47.825  1.00  0.00    -0.166 F 
HETATM   22  F2  UNL     1    -103.806 -19.365  46.938  1.00  0.00    -0.166 F 
HETATM   23  F3  UNL     1    -103.068 -21.313  47.775  1.00  0.00    -0.166 F 
ENDBRANCH  18  20
ENDBRANCH  12  14
ENDBRANCH   8  10
ENDBRANCH   1   3
BRANCH   1  24
HETATM   24  C16 UNL     1    -109.198 -15.922  55.716  1.00  0.00     0.122 A 
HETATM   25  N3  UNL     1    -110.380 -16.385  56.213  1.00  0.00    -0.327 N 
HETATM   26  C17 UNL     1    -110.479 -17.503  56.957  1.00  0.00     0.120 A 
ATOM     27  H3  UNL     1    -111.231 -15.859  56.011  1.00  0.00     0.169 HD
HETATM   28  N5  UNL     1    -109.303 -18.185  57.215  1.00  0.00    -0.326 N 
HETATM   29  C23 UNL     1    -108.120 -17.811  56.781  1.00  0.00     0.137 A 
ATOM     30  H5  UNL     1    -109.358 -19.033  57.779  1.00  0.00     0.169 HD
HETATM   31  N6  UNL     1    -106.853 -18.273  56.928  1.00  0.00    -0.283 N 
HETATM   32  C26 UNL     1    -108.036 -16.679  56.026  1.00  0.00     0.070 A 
HETATM   33  N7  UNL     1    -105.977 -17.510  56.311  1.00  0.00    -0.305 N 
ATOM     34  H6  UNL     1    -106.609 -19.112  57.453  1.00  0.00     0.189 HD
HETATM   35  C24 UNL     1    -104.529 -17.707  56.259  1.00  0.00     0.177 C 
HETATM   36  C25 UNL     1    -106.691 -16.528  55.753  1.00  0.00     0.128 A 
BRANCH  26  37
HETATM   37  C18 UNL     1    -111.674 -18.089  57.541  1.00  0.00     0.023 A 
HETATM   38  C19 UNL     1    -112.930 -17.531  57.180  1.00  0.00     0.018 A 
HETATM   39  C20 UNL     1    -114.121 -18.034  57.630  1.00  0.00     0.018 A 
HETATM   40  C21 UNL     1    -114.121 -19.115  58.463  1.00  0.00     0.087 A 
HETATM   41  N4  UNL     1    -112.924 -19.683  58.837  1.00  0.00    -0.374 N 
HETATM   42  C22 UNL     1    -111.733 -19.171  58.376  1.00  0.00     0.102 A 
ATOM     43  H4  UNL     1    -112.920 -20.490  59.461  1.00  0.00     0.164 HD
ENDBRANCH  26  37
ENDBRANCH   1  24
TORSDOF 6
ENDMDL
