MODEL 6
REMARK VINA RESULT: -11.944214171      5.605     11.927
REMARK  6 active torsions:
REMARK  status: ('A' for Active; 'I' for Inactive)
REMARK    1  A    between atoms: C5_5  and  C6_6 
REMARK       I    between atoms: C6_6  and  N1_8 
REMARK    2  A    between atoms: N1_8  and  C7_10 
REMARK    3  A    between atoms: C11_14  and  C12_15 
REMARK    4  A    between atoms: C15_21  and  N2_22 
REMARK    5  A    between atoms: N2_22  and  C16_24 
REMARK    6  A    between atoms: C17_27  and  C18_28 
ROOT
HETATM    1  N2  UNL     1    -108.975 -14.818  54.777  1.00  0.00    -0.341 N 
ATOM      2  H2  UNL     1    -109.198 -13.916  55.199  1.00  0.00     0.167 HD
ENDROOT
BRANCH   1   3
HETATM    3  C15 UNL     1    -108.537 -14.652  53.457  1.00  0.00     0.040 A 
HETATM    4  C2  UNL     1    -109.365 -13.854  52.645  1.00  0.00    -0.035 A 
HETATM    5  C1  UNL     1    -110.507 -13.070  53.197  1.00  0.00     0.050 C 
HETATM    6  C3  UNL     1    -109.124 -13.780  51.294  1.00  0.00     0.010 A 
HETATM    7  C4  UNL     1    -108.081 -14.478  50.749  1.00  0.00     0.018 A 
HETATM    8  C5  UNL     1    -107.238 -15.276  51.525  1.00  0.00     0.034 A 
HETATM    9  C14 UNL     1    -107.500 -15.333  52.877  1.00  0.00     0.047 A 
BRANCH   8  10
HETATM   10  C6  UNL     1    -106.178 -16.054  50.837  1.00  0.00     0.256 C 
HETATM   11  O1  UNL     1    -105.335 -15.506  50.118  1.00  0.00    -0.267 OA
HETATM   12  N1  UNL     1    -106.112 -17.462  51.007  1.00  0.00    -0.323 N 
ATOM     13  H1  UNL     1    -106.840 -17.879  51.587  1.00  0.00     0.169 HD
BRANCH  12  14
HETATM   14  C7  UNL     1    -105.149 -18.361  50.465  1.00  0.00     0.035 A 
HETATM   15  C8  UNL     1    -105.343 -19.137  49.362  1.00  0.00     0.029 A 
HETATM   16  C9  UNL     1    -104.317 -19.922  48.907  1.00  0.00     0.003 A 
HETATM   17  C10 UNL     1    -103.100 -19.954  49.527  1.00  0.00     0.016 A 
HETATM   18  C11 UNL     1    -102.899 -19.178  50.631  1.00  0.00     0.050 A 
HETATM   19  C13 UNL     1    -103.896 -18.395  51.099  1.00  0.00     0.045 A 
BRANCH  18  20
HETATM   20  C12 UNL     1    -101.544 -19.215  51.308  1.00  0.00     0.417 C 
HETATM   21  F1  UNL     1    -100.553 -19.339  50.374  1.00  0.00    -0.166 F 
HETATM   22  F2  UNL     1    -101.403 -17.981  51.976  1.00  0.00    -0.166 F 
HETATM   23  F3  UNL     1    -101.543 -20.202  52.277  1.00  0.00    -0.166 F 
ENDBRANCH  18  20
ENDBRANCH  12  14
ENDBRANCH   8  10
ENDBRANCH   1   3
BRANCH   1  24
HETATM   24  C16 UNL     1    -109.193 -15.842  55.674  1.00  0.00     0.122 A 
HETATM   25  N3  UNL     1    -110.385 -16.292  56.160  1.00  0.00    -0.327 N 
HETATM   26  C17 UNL     1    -110.504 -17.414  56.895  1.00  0.00     0.120 A 
ATOM     27  H3  UNL     1    -111.227 -15.753  55.956  1.00  0.00     0.169 HD
HETATM   28  N5  UNL     1    -109.340 -18.114  57.156  1.00  0.00    -0.326 N 
HETATM   29  C23 UNL     1    -108.148 -17.753  56.733  1.00  0.00     0.137 A 
ATOM     30  H5  UNL     1    -109.410 -18.965  57.714  1.00  0.00     0.169 HD
HETATM   31  N6  UNL     1    -106.890 -18.234  56.885  1.00  0.00    -0.283 N 
HETATM   32  C26 UNL     1    -108.044 -16.618  55.986  1.00  0.00     0.070 A 
HETATM   33  N7  UNL     1    -105.998 -17.479  56.280  1.00  0.00    -0.305 N 
ATOM     34  H6  UNL     1    -106.661 -19.080  57.407  1.00  0.00     0.189 HD
HETATM   35  C24 UNL     1    -104.553 -17.695  56.237  1.00  0.00     0.177 C 
HETATM   36  C25 UNL     1    -106.695 -16.483  55.724  1.00  0.00     0.128 A 
BRANCH  26  37
HETATM   37  C18 UNL     1    -111.712 -17.987  57.467  1.00  0.00     0.023 A 
HETATM   38  C19 UNL     1    -111.564 -18.926  58.523  1.00  0.00     0.018 A 
HETATM   39  C20 UNL     1    -112.631 -19.490  59.168  1.00  0.00     0.018 A 
HETATM   40  C21 UNL     1    -113.898 -19.149  58.793  1.00  0.00     0.087 A 
HETATM   41  N4  UNL     1    -114.083 -18.244  57.773  1.00  0.00    -0.374 N 
HETATM   42  C22 UNL     1    -113.002 -17.681  57.134  1.00  0.00     0.102 A 
ATOM     43  H4  UNL     1    -115.029 -17.988  57.489  1.00  0.00     0.164 HD
ENDBRANCH  26  37
ENDBRANCH   1  24
TORSDOF 6
ENDMDL
