MODEL 7
REMARK VINA RESULT: -11.916425706      4.721      8.062
REMARK  6 active torsions:
REMARK  status: ('A' for Active; 'I' for Inactive)
REMARK    1  A    between atoms: C5_5  and  C6_6 
REMARK       I    between atoms: C6_6  and  N1_8 
REMARK    2  A    between atoms: N1_8  and  C7_10 
REMARK    3  A    between atoms: C11_14  and  C12_15 
REMARK    4  A    between atoms: C15_21  and  N2_22 
REMARK    5  A    between atoms: N2_22  and  C16_24 
REMARK    6  A    between atoms: C17_27  and  C18_28 
ROOT
HETATM    1  N2  UNL     1     -96.598 -15.489  45.760  1.00  0.00    -0.341 N 
ATOM      2  H2  UNL     1     -95.924 -15.810  45.065  1.00  0.00     0.167 HD
ENDROOT
BRANCH   1   3
HETATM    3  C15 UNL     1     -97.892 -15.907  45.424  1.00  0.00     0.040 A 
HETATM    4  C2  UNL     1     -98.329 -15.537  44.138  1.00  0.00    -0.035 A 
HETATM    5  C1  UNL     1     -97.413 -14.930  43.129  1.00  0.00     0.050 C 
HETATM    6  C3  UNL     1     -99.641 -15.737  43.781  1.00  0.00     0.010 A 
HETATM    7  C4  UNL     1    -100.511 -16.298  44.676  1.00  0.00     0.018 A 
HETATM    8  C5  UNL     1    -100.112 -16.680  45.958  1.00  0.00     0.034 A 
HETATM    9  C14 UNL     1     -98.791 -16.470  46.291  1.00  0.00     0.047 A 
BRANCH   8  10
HETATM   10  C6  UNL     1    -101.141 -17.213  46.885  1.00  0.00     0.256 C 
HETATM   11  O1  UNL     1    -102.346 -17.020  46.695  1.00  0.00    -0.267 OA
HETATM   12  N1  UNL     1    -100.746 -17.973  48.017  1.00  0.00    -0.323 N 
ATOM     13  H1  UNL     1     -99.742 -18.089  48.153  1.00  0.00     0.169 HD
BRANCH  12  14
HETATM   14  C7  UNL     1    -101.586 -18.595  48.985  1.00  0.00     0.035 A 
HETATM   15  C8  UNL     1    -101.252 -18.794  50.292  1.00  0.00     0.029 A 
HETATM   16  C9  UNL     1    -102.171 -19.356  51.138  1.00  0.00     0.003 A 
HETATM   17  C10 UNL     1    -103.416 -19.727  50.714  1.00  0.00     0.016 A 
HETATM   18  C11 UNL     1    -103.755 -19.529  49.407  1.00  0.00     0.050 A 
HETATM   19  C13 UNL     1    -102.866 -18.976  48.553  1.00  0.00     0.045 A 
BRANCH  18  20
HETATM   20  C12 UNL     1    -105.140 -19.937  48.948  1.00  0.00     0.417 C 
HETATM   21  F1  UNL     1    -105.062 -20.635  47.775  1.00  0.00    -0.166 F 
HETATM   22  F2  UNL     1    -105.660 -20.774  49.956  1.00  0.00    -0.166 F 
HETATM   23  F3  UNL     1    -105.953 -18.818  48.894  1.00  0.00    -0.166 F 
ENDBRANCH  18  20
ENDBRANCH  12  14
ENDBRANCH   8  10
ENDBRANCH   1   3
BRANCH   1  24
HETATM   24  C16 UNL     1     -95.968 -14.769  46.754  1.00  0.00     0.122 A 
HETATM   25  N3  UNL     1     -96.317 -14.672  48.068  1.00  0.00    -0.327 N 
HETATM   26  C17 UNL     1     -95.535 -14.087  48.996  1.00  0.00     0.120 A 
ATOM     27  H3  UNL     1     -97.213 -15.061  48.363  1.00  0.00     0.169 HD
HETATM   28  N5  UNL     1     -94.331 -13.566  48.557  1.00  0.00    -0.326 N 
HETATM   29  C23 UNL     1     -93.916 -13.611  47.310  1.00  0.00     0.137 A 
ATOM     30  H5  UNL     1     -93.727 -13.117  49.245  1.00  0.00     0.169 HD
HETATM   31  N6  UNL     1     -92.829 -13.150  46.644  1.00  0.00    -0.283 N 
HETATM   32  C26 UNL     1     -94.716 -14.209  46.383  1.00  0.00     0.070 A 
HETATM   33  N7  UNL     1     -92.888 -13.422  45.358  1.00  0.00    -0.305 N 
ATOM     34  H6  UNL     1     -92.057 -12.652  47.086  1.00  0.00     0.189 HD
HETATM   35  C24 UNL     1     -91.893 -13.077  44.344  1.00  0.00     0.177 C 
HETATM   36  C25 UNL     1     -94.043 -14.073  45.185  1.00  0.00     0.128 A 
BRANCH  26  37
HETATM   37  C18 UNL     1     -95.800 -13.921  50.416  1.00  0.00     0.023 A 
HETATM   38  C19 UNL     1     -96.137 -15.078  51.167  1.00  0.00     0.018 A 
HETATM   39  C20 UNL     1     -96.357 -15.047  52.518  1.00  0.00     0.018 A 
HETATM   40  C21 UNL     1     -96.254 -13.862  53.187  1.00  0.00     0.087 A 
HETATM   41  N4  UNL     1     -95.931 -12.718  52.494  1.00  0.00    -0.374 N 
HETATM   42  C22 UNL     1     -95.709 -12.762  51.136  1.00  0.00     0.102 A 
ATOM     43  H4  UNL     1     -95.855 -11.829  52.991  1.00  0.00     0.164 HD
ENDBRANCH  26  37
ENDBRANCH   1  24
TORSDOF 6
ENDMDL
