MODEL 1
REMARK VINA RESULT: -13.529193737      0.000      0.000
REMARK  6 active torsions:
REMARK  status: ('A' for Active; 'I' for Inactive)
REMARK    1  A    between atoms: C5_5  and  C6_6 
REMARK       I    between atoms: C6_6  and  N1_8 
REMARK    2  A    between atoms: N1_8  and  C7_10 
REMARK    3  A    between atoms: C11_14  and  C12_15 
REMARK    4  A    between atoms: C15_21  and  N2_22 
REMARK    5  A    between atoms: N2_22  and  C16_24 
REMARK    6  A    between atoms: C17_27  and  C18_28 
ROOT
HETATM    1  N2  UNL     1    -102.464 -18.116  47.550  1.00  0.00    -0.341 N 
ATOM      2  H2  UNL     1    -102.849 -18.277  46.619  1.00  0.00     0.167 HD
ENDROOT
BRANCH   1   3
HETATM    3  C15 UNL     1    -103.474 -18.167  48.519  1.00  0.00     0.040 A 
HETATM    4  C2  UNL     1    -104.035 -19.440  48.735  1.00  0.00    -0.035 A 
HETATM    5  C1  UNL     1    -103.458 -20.678  48.136  1.00  0.00     0.050 C 
HETATM    6  C3  UNL     1    -105.152 -19.566  49.526  1.00  0.00     0.010 A 
HETATM    7  C4  UNL     1    -105.708 -18.455  50.100  1.00  0.00     0.018 A 
HETATM    8  C5  UNL     1    -105.176 -17.178  49.910  1.00  0.00     0.034 A 
HETATM    9  C14 UNL     1    -104.056 -17.079  49.113  1.00  0.00     0.047 A 
BRANCH   8  10
HETATM   10  C6  UNL     1    -105.888 -16.023  50.512  1.00  0.00     0.256 C 
HETATM   11  O1  UNL     1    -105.656 -14.862  50.157  1.00  0.00    -0.267 OA
HETATM   12  N1  UNL     1    -106.868 -16.243  51.515  1.00  0.00    -0.323 N 
ATOM     13  H1  UNL     1    -107.011 -17.212  51.798  1.00  0.00     0.169 HD
BRANCH  12  14
HETATM   14  C7  UNL     1    -107.675 -15.271  52.172  1.00  0.00     0.035 A 
HETATM   15  C8  UNL     1    -108.182 -15.402  53.430  1.00  0.00     0.029 A 
HETATM   16  C9  UNL     1    -108.901 -14.370  53.973  1.00  0.00     0.003 A 
HETATM   17  C10 UNL     1    -109.130 -13.209  53.290  1.00  0.00     0.016 A 
HETATM   18  C11 UNL     1    -108.624 -13.071  52.030  1.00  0.00     0.050 A 
HETATM   19  C13 UNL     1    -107.911 -14.076  51.474  1.00  0.00     0.045 A 
BRANCH  18  20
HETATM   20  C12 UNL     1    -108.877 -11.777  51.284  1.00  0.00     0.417 C 
HETATM   21  F1  UNL     1    -108.918 -12.009  49.937  1.00  0.00    -0.166 F 
HETATM   22  F2  UNL     1    -110.135 -11.312  51.717  1.00  0.00    -0.166 F 
HETATM   23  F3  UNL     1    -107.941 -10.834  51.674  1.00  0.00    -0.166 F 
ENDBRANCH  18  20
ENDBRANCH  12  14
ENDBRANCH   8  10
ENDBRANCH   1   3
BRANCH   1  24
HETATM   24  C16 UNL     1    -101.102 -17.910  47.485  1.00  0.00     0.122 A 
HETATM   25  N3  UNL     1    -100.385 -17.353  46.467  1.00  0.00    -0.327 N 
HETATM   26  C17 UNL     1     -99.081 -17.035  46.573  1.00  0.00     0.120 A 
ATOM     27  H3  UNL     1    -100.860 -17.169  45.583  1.00  0.00     0.169 HD
HETATM   28  N5  UNL     1     -98.470 -17.305  47.785  1.00  0.00    -0.326 N 
HETATM   29  C23 UNL     1     -99.081 -17.843  48.818  1.00  0.00     0.137 A 
ATOM     30  H5  UNL     1     -97.482 -17.073  47.883  1.00  0.00     0.169 HD
HETATM   31  N6  UNL     1     -98.703 -18.232  50.061  1.00  0.00    -0.283 N 
HETATM   32  C26 UNL     1    -100.402 -18.157  48.697  1.00  0.00     0.070 A 
HETATM   33  N7  UNL     1     -99.699 -18.765  50.734  1.00  0.00    -0.305 N 
ATOM     34  H6  UNL     1     -97.759 -18.123  50.430  1.00  0.00     0.189 HD
HETATM   35  C24 UNL     1     -99.653 -19.290  52.097  1.00  0.00     0.177 C 
HETATM   36  C25 UNL     1    -100.749 -18.725  49.907  1.00  0.00     0.128 A 
BRANCH  26  37
HETATM   37  C18 UNL     1     -98.217 -16.446  45.564  1.00  0.00     0.023 A 
HETATM   38  C19 UNL     1     -98.832 -15.761  44.482  1.00  0.00     0.018 A 
HETATM   39  C20 UNL     1     -98.117 -15.127  43.503  1.00  0.00     0.018 A 
HETATM   40  C21 UNL     1     -96.753 -15.144  43.550  1.00  0.00     0.087 A 
HETATM   41  N4  UNL     1     -96.119 -15.798  44.582  1.00  0.00    -0.374 N 
HETATM   42  C22 UNL     1     -96.849 -16.430  45.563  1.00  0.00     0.102 A 
ATOM     43  H4  UNL     1     -95.099 -15.815  44.620  1.00  0.00     0.164 HD
ENDBRANCH  26  37
ENDBRANCH   1  24
TORSDOF 6
ENDMDL
