MODEL 2
REMARK VINA RESULT: -13.143270066      1.126      1.374
REMARK  6 active torsions:
REMARK  status: ('A' for Active; 'I' for Inactive)
REMARK    1  A    between atoms: C5_5  and  C6_6 
REMARK       I    between atoms: C6_6  and  N1_8 
REMARK    2  A    between atoms: N1_8  and  C7_10 
REMARK    3  A    between atoms: C11_14  and  C12_15 
REMARK    4  A    between atoms: C15_21  and  N2_22 
REMARK    5  A    between atoms: N2_22  and  C16_24 
REMARK    6  A    between atoms: C17_27  and  C18_28 
ROOT
HETATM    1  N2  UNL     1    -101.578 -18.921  49.820  1.00  0.00    -0.341 N 
ATOM      2  H2  UNL     1    -101.329 -19.624  50.517  1.00  0.00     0.167 HD
ENDROOT
BRANCH   1   3
HETATM    3  C15 UNL     1    -102.965 -18.730  49.783  1.00  0.00     0.040 A 
HETATM    4  C2  UNL     1    -103.672 -19.619  48.952  1.00  0.00    -0.035 A 
HETATM    5  C1  UNL     1    -103.026 -20.807  48.323  1.00  0.00     0.050 C 
HETATM    6  C3  UNL     1    -105.006 -19.402  48.703  1.00  0.00     0.010 A 
HETATM    7  C4  UNL     1    -105.637 -18.327  49.267  1.00  0.00     0.018 A 
HETATM    8  C5  UNL     1    -104.968 -17.427  50.099  1.00  0.00     0.034 A 
HETATM    9  C14 UNL     1    -103.631 -17.667  50.334  1.00  0.00     0.047 A 
BRANCH   8  10
HETATM   10  C6  UNL     1    -105.715 -16.250  50.608  1.00  0.00     0.256 C 
HETATM   11  O1  UNL     1    -105.470 -15.106  50.211  1.00  0.00    -0.267 OA
HETATM   12  N1  UNL     1    -106.746 -16.429  51.566  1.00  0.00    -0.323 N 
ATOM     13  H1  UNL     1    -106.900 -17.384  51.888  1.00  0.00     0.169 HD
BRANCH  12  14
HETATM   14  C7  UNL     1    -107.592 -15.432  52.133  1.00  0.00     0.035 A 
HETATM   15  C8  UNL     1    -107.874 -15.314  53.461  1.00  0.00     0.029 A 
HETATM   16  C9  UNL     1    -108.660 -14.276  53.888  1.00  0.00     0.003 A 
HETATM   17  C10 UNL     1    -109.174 -13.353  53.023  1.00  0.00     0.016 A 
HETATM   18  C11 UNL     1    -108.894 -13.465  51.692  1.00  0.00     0.050 A 
HETATM   19  C13 UNL     1    -108.121 -14.480  51.246  1.00  0.00     0.045 A 
BRANCH  18  20
HETATM   20  C12 UNL     1    -109.463 -12.432  50.741  1.00  0.00     0.417 C 
HETATM   21  F1  UNL     1    -110.248 -13.039  49.800  1.00  0.00    -0.166 F 
HETATM   22  F2  UNL     1    -110.255 -11.569  51.524  1.00  0.00    -0.166 F 
HETATM   23  F3  UNL     1    -108.430 -11.672  50.220  1.00  0.00    -0.166 F 
ENDBRANCH  18  20
ENDBRANCH  12  14
ENDBRANCH   8  10
ENDBRANCH   1   3
BRANCH   1  24
HETATM   24  C16 UNL     1    -100.449 -18.439  49.192  1.00  0.00     0.122 A 
HETATM   25  N3  UNL     1    -100.349 -17.903  47.942  1.00  0.00    -0.327 N 
HETATM   26  C17 UNL     1     -99.236 -17.298  47.487  1.00  0.00     0.120 A 
ATOM     27  H3  UNL     1    -101.157 -17.964  47.321  1.00  0.00     0.169 HD
HETATM   28  N5  UNL     1     -98.159 -17.241  48.354  1.00  0.00    -0.326 N 
HETATM   29  C23 UNL     1     -98.164 -17.733  49.574  1.00  0.00     0.137 A 
ATOM     30  H5  UNL     1     -97.306 -16.788  48.026  1.00  0.00     0.169 HD
HETATM   31  N6  UNL     1     -97.252 -17.834  50.571  1.00  0.00    -0.283 N 
HETATM   32  C26 UNL     1     -99.300 -18.339  50.022  1.00  0.00     0.070 A 
HETATM   33  N7  UNL     1     -97.738 -18.461  51.621  1.00  0.00    -0.305 N 
ATOM     34  H6  UNL     1     -96.301 -17.469  50.515  1.00  0.00     0.189 HD
HETATM   35  C24 UNL     1     -97.037 -18.747  52.872  1.00  0.00     0.177 C 
HETATM   36  C25 UNL     1     -98.995 -18.776  51.296  1.00  0.00     0.128 A 
BRANCH  26  37
HETATM   37  C18 UNL     1     -99.010 -16.699  46.182  1.00  0.00     0.023 A 
HETATM   38  C19 UNL     1    -100.129 -16.547  45.320  1.00  0.00     0.018 A 
HETATM   39  C20 UNL     1    -100.042 -15.951  44.091  1.00  0.00     0.018 A 
HETATM   40  C21 UNL     1     -98.838 -15.478  43.658  1.00  0.00     0.087 A 
HETATM   41  N4  UNL     1     -97.729 -15.608  44.463  1.00  0.00    -0.374 N 
HETATM   42  C22 UNL     1     -97.829 -16.207  45.699  1.00  0.00     0.102 A 
ATOM     43  H4  UNL     1     -96.826 -15.258  44.142  1.00  0.00     0.164 HD
ENDBRANCH  26  37
ENDBRANCH   1  24
TORSDOF 6
ENDMDL
