MODEL 1
REMARK VINA RESULT: -14.622392477      0.000      0.000
REMARK  6 active torsions:
REMARK  status: ('A' for Active; 'I' for Inactive)
REMARK    1  A    between atoms: C5_5  and  C6_6 
REMARK       I    between atoms: C6_6  and  N1_8 
REMARK    2  A    between atoms: N1_8  and  C7_10 
REMARK    3  A    between atoms: C11_14  and  C12_15 
REMARK    4  A    between atoms: C15_21  and  N2_22 
REMARK    5  A    between atoms: N2_22  and  C16_24 
REMARK    6  A    between atoms: C17_27  and  C18_28 
ROOT
HETATM    1  N2  UNL     1      18.205  95.863   3.564  1.00  0.00    -0.341 N 
ATOM      2  H2  UNL     1      18.064  96.836   3.292  1.00  0.00     0.167 HD
ENDROOT
BRANCH   1   3
HETATM    3  C15 UNL     1      18.785  95.008   2.597  1.00  0.00     0.040 A 
HETATM    4  C2  UNL     1      20.150  95.043   2.442  1.00  0.00    -0.035 A 
HETATM    5  C1  UNL     1      21.081  95.807   3.316  1.00  0.00     0.050 C 
HETATM    6  C3  UNL     1      20.696  94.302   1.384  1.00  0.00     0.010 A 
HETATM    7  C4  UNL     1      19.877  93.579   0.553  1.00  0.00     0.018 A 
HETATM    8  C5  UNL     1      18.522  93.534   0.693  1.00  0.00     0.034 A 
HETATM    9  C14 UNL     1      17.966  94.255   1.727  1.00  0.00     0.047 A 
BRANCH   8  10
HETATM   10  C6  UNL     1      17.662  92.832  -0.285  1.00  0.00     0.256 C 
HETATM   11  O1  UNL     1      16.414  92.746  -0.111  1.00  0.00    -0.267 OA
HETATM   12  N1  UNL     1      18.198  92.252  -1.431  1.00  0.00    -0.323 N 
ATOM     13  H1  UNL     1      19.210  92.333  -1.528  1.00  0.00     0.169 HD
BRANCH  12  14
HETATM   14  C7  UNL     1      17.546  91.568  -2.480  1.00  0.00     0.035 A 
HETATM   15  C8  UNL     1      18.040  90.511  -3.182  1.00  0.00     0.029 A 
HETATM   16  C9  UNL     1      17.345  89.892  -4.190  1.00  0.00     0.003 A 
HETATM   17  C10 UNL     1      16.090  90.371  -4.496  1.00  0.00     0.016 A 
HETATM   18  C11 UNL     1      15.509  91.451  -3.827  1.00  0.00     0.050 A 
HETATM   19  C13 UNL     1      16.266  92.020  -2.829  1.00  0.00     0.045 A 
BRANCH  18  20
HETATM   20  C12 UNL     1      14.158  91.952  -4.190  1.00  0.00     0.417 C 
HETATM   21  F1  UNL     1      14.202  93.322  -4.024  1.00  0.00    -0.166 F 
HETATM   22  F2  UNL     1      13.921  91.687  -5.530  1.00  0.00    -0.166 F 
HETATM   23  F3  UNL     1      13.174  91.382  -3.392  1.00  0.00    -0.166 F 
ENDBRANCH  18  20
ENDBRANCH  12  14
ENDBRANCH   8  10
ENDBRANCH   1   3
BRANCH   1  24
HETATM   24  C16 UNL     1      17.801  95.504   4.870  1.00  0.00     0.122 A 
HETATM   25  N3  UNL     1      18.228  94.383   5.490  1.00  0.00    -0.327 N 
HETATM   26  C17 UNL     1      17.874  94.129   6.751  1.00  0.00     0.120 A 
ATOM     27  H3  UNL     1      18.825  93.725   4.990  1.00  0.00     0.169 HD
HETATM   28  N5  UNL     1      17.070  95.019   7.402  1.00  0.00    -0.326 N 
HETATM   29  C23 UNL     1      16.615  96.144   6.843  1.00  0.00     0.139 A 
ATOM     30  H5  UNL     1      16.803  94.816   8.365  1.00  0.00     0.169 HD
HETATM   31  C24 UNL     1      16.979  96.407   5.556  1.00  0.00     0.070 A 
HETATM   32  N7  UNL     1      15.806  97.148   7.287  1.00  0.00    -0.281 N 
HETATM   33  C25 UNL     1      16.369  97.610   5.222  1.00  0.00     0.126 A 
HETATM   34  N6  UNL     1      15.689  97.994   6.296  1.00  0.00    -0.307 N 
ATOM     35  H6  UNL     1      15.139  98.851   6.344  1.00  0.00     0.186 HD
HETATM   36  C26 UNL     1      15.214  97.178   8.591  1.00  0.00     0.179 C 
BRANCH  26  37
HETATM   37  C18 UNL     1      18.359  92.978   7.484  1.00  0.00     0.023 A 
HETATM   38  C19 UNL     1      18.853  93.073   8.786  1.00  0.00     0.018 A 
HETATM   39  C20 UNL     1      19.343  91.948   9.433  1.00  0.00     0.018 A 
HETATM   40  C21 UNL     1      19.345  90.723   8.802  1.00  0.00     0.087 A 
HETATM   41  N4  UNL     1      18.866  90.635   7.548  1.00  0.00    -0.374 N 
HETATM   42  C22 UNL     1      18.382  91.745   6.904  1.00  0.00     0.102 A 
ATOM     43  H4  UNL     1      18.863  89.734   7.071  1.00  0.00     0.164 HD
ENDBRANCH  26  37
ENDBRANCH   1  24
TORSDOF 6
ENDMDL
