MODEL 9
REMARK VINA RESULT: -10.986867625      5.054     10.488
REMARK  6 active torsions:
REMARK  status: ('A' for Active; 'I' for Inactive)
REMARK    1  A    between atoms: C5_5  and  C6_6 
REMARK       I    between atoms: C6_6  and  N1_8 
REMARK    2  A    between atoms: N1_8  and  C7_10 
REMARK    3  A    between atoms: C11_14  and  C12_15 
REMARK    4  A    between atoms: C15_21  and  N2_22 
REMARK    5  A    between atoms: N2_22  and  C16_24 
REMARK    6  A    between atoms: C17_27  and  C18_28 
ROOT
HETATM    1  N2  UNL     1      17.974  88.841  -3.662  1.00  0.00    -0.341 N 
ATOM      2  H2  UNL     1      17.308  88.173  -4.051  1.00  0.00     0.167 HD
ENDROOT
BRANCH   1   3
HETATM    3  C15 UNL     1      17.483  90.135  -3.368  1.00  0.00     0.040 A 
HETATM    4  C2  UNL     1      16.933  90.863  -4.395  1.00  0.00    -0.035 A 
HETATM    5  C1  UNL     1      16.682  90.338  -5.765  1.00  0.00     0.050 C 
HETATM    6  C3  UNL     1      16.584  92.195  -4.124  1.00  0.00     0.010 A 
HETATM    7  C4  UNL     1      16.794  92.722  -2.874  1.00  0.00     0.018 A 
HETATM    8  C5  UNL     1      17.338  92.013  -1.846  1.00  0.00     0.034 A 
HETATM    9  C14 UNL     1      17.687  90.703  -2.091  1.00  0.00     0.047 A 
BRANCH   8  10
HETATM   10  C6  UNL     1      17.649  92.645  -0.545  1.00  0.00     0.256 C 
HETATM   11  O1  UNL     1      16.729  93.069   0.210  1.00  0.00    -0.267 OA
HETATM   12  N1  UNL     1      18.963  92.784  -0.106  1.00  0.00    -0.323 N 
ATOM     13  H1  UNL     1      19.676  92.441  -0.749  1.00  0.00     0.169 HD
BRANCH  12  14
HETATM   14  C7  UNL     1      19.454  93.332   1.099  1.00  0.00     0.035 A 
HETATM   15  C8  UNL     1      19.965  94.584   1.266  1.00  0.00     0.029 A 
HETATM   16  C9  UNL     1      20.421  95.051   2.473  1.00  0.00     0.003 A 
HETATM   17  C10 UNL     1      20.354  94.204   3.558  1.00  0.00     0.016 A 
HETATM   18  C11 UNL     1      19.846  92.905   3.475  1.00  0.00     0.050 A 
HETATM   19  C13 UNL     1      19.407  92.509   2.232  1.00  0.00     0.045 A 
BRANCH  18  20
HETATM   20  C12 UNL     1      19.798  92.014   4.662  1.00  0.00     0.417 C 
HETATM   21  F1  UNL     1      21.023  92.144   5.285  1.00  0.00    -0.166 F 
HETATM   22  F2  UNL     1      18.819  92.471   5.532  1.00  0.00    -0.166 F 
HETATM   23  F3  UNL     1      19.558  90.695   4.297  1.00  0.00    -0.166 F 
ENDBRANCH  18  20
ENDBRANCH  12  14
ENDBRANCH   8  10
ENDBRANCH   1   3
BRANCH   1  24
HETATM   24  C16 UNL     1      19.296  88.380  -3.471  1.00  0.00     0.122 A 
HETATM   25  N3  UNL     1      19.827  88.151  -2.250  1.00  0.00    -0.327 N 
HETATM   26  C17 UNL     1      21.056  87.646  -2.128  1.00  0.00     0.120 A 
ATOM     27  H3  UNL     1      19.284  88.367  -1.414  1.00  0.00     0.169 HD
HETATM   28  N5  UNL     1      21.769  87.368  -3.258  1.00  0.00    -0.326 N 
HETATM   29  C23 UNL     1      21.299  87.572  -4.492  1.00  0.00     0.139 A 
ATOM     30  H5  UNL     1      22.708  86.984  -3.155  1.00  0.00     0.169 HD
HETATM   31  C24 UNL     1      20.044  88.085  -4.618  1.00  0.00     0.070 A 
HETATM   32  N7  UNL     1      21.828  87.388  -5.735  1.00  0.00    -0.281 N 
HETATM   33  C25 UNL     1      19.813  88.208  -5.983  1.00  0.00     0.126 A 
HETATM   34  N6  UNL     1      20.914  87.775  -6.586  1.00  0.00    -0.307 N 
ATOM     35  H6  UNL     1      21.033  87.748  -7.599  1.00  0.00     0.186 HD
HETATM   36  C26 UNL     1      23.151  86.891  -5.975  1.00  0.00     0.179 C 
BRANCH  26  37
HETATM   37  C18 UNL     1      21.645  87.318  -0.846  1.00  0.00     0.023 A 
HETATM   38  C19 UNL     1      23.020  87.145  -0.676  1.00  0.00     0.018 A 
HETATM   39  C20 UNL     1      23.532  86.793   0.564  1.00  0.00     0.018 A 
HETATM   40  C21 UNL     1      22.694  86.613   1.643  1.00  0.00     0.087 A 
HETATM   41  N4  UNL     1      21.370  86.782   1.475  1.00  0.00    -0.374 N 
HETATM   42  C22 UNL     1      20.858  87.129   0.251  1.00  0.00     0.102 A 
ATOM     43  H4  UNL     1      20.740  86.651   2.266  1.00  0.00     0.164 HD
ENDBRANCH  26  37
ENDBRANCH   1  24
TORSDOF 6
ENDMDL
