MODEL 6
REMARK VINA RESULT: -12.059007717      6.786     10.880
REMARK  6 active torsions:
REMARK  status: ('A' for Active; 'I' for Inactive)
REMARK    1  A    between atoms: C5_5  and  C6_6 
REMARK       I    between atoms: C6_6  and  N1_8 
REMARK    2  A    between atoms: N1_8  and  C7_10 
REMARK    3  A    between atoms: C11_14  and  C12_15 
REMARK    4  A    between atoms: C15_21  and  N2_22 
REMARK    5  A    between atoms: N2_22  and  C16_24 
REMARK    6  A    between atoms: C17_27  and  C18_28 
ROOT
HETATM    1  N2  UNL     1      15.220  96.552   9.781  1.00  0.00    -0.341 N 
ATOM      2  H2  UNL     1      14.825  97.474   9.595  1.00  0.00     0.167 HD
ENDROOT
BRANCH   1   3
HETATM    3  C15 UNL     1      14.888  95.954  11.019  1.00  0.00     0.040 A 
HETATM    4  C2  UNL     1      15.552  96.386  12.143  1.00  0.00    -0.035 A 
HETATM    5  C1  UNL     1      16.492  97.539  12.178  1.00  0.00     0.050 C 
HETATM    6  C3  UNL     1      15.319  95.687  13.336  1.00  0.00     0.010 A 
HETATM    7  C4  UNL     1      14.458  94.618  13.353  1.00  0.00     0.018 A 
HETATM    8  C5  UNL     1      13.792  94.177  12.249  1.00  0.00     0.034 A 
HETATM    9  C14 UNL     1      14.007  94.851  11.066  1.00  0.00     0.047 A 
BRANCH   8  10
HETATM   10  C6  UNL     1      12.956  92.957  12.280  1.00  0.00     0.256 C 
HETATM   11  O1  UNL     1      11.788  92.955  11.798  1.00  0.00    -0.267 OA
HETATM   12  N1  UNL     1      13.430  91.771  12.833  1.00  0.00    -0.323 N 
ATOM     13  H1  UNL     1      14.372  91.818  13.222  1.00  0.00     0.169 HD
BRANCH  12  14
HETATM   14  C7  UNL     1      12.799  90.512  12.935  1.00  0.00     0.035 A 
HETATM   15  C8  UNL     1      12.197  90.001  14.044  1.00  0.00     0.029 A 
HETATM   16  C9  UNL     1      11.598  88.766  14.068  1.00  0.00     0.003 A 
HETATM   17  C10 UNL     1      11.613  88.020  12.909  1.00  0.00     0.016 A 
HETATM   18  C11 UNL     1      12.210  88.469  11.728  1.00  0.00     0.050 A 
HETATM   19  C13 UNL     1      12.790  89.717  11.782  1.00  0.00     0.045 A 
BRANCH  18  20
HETATM   20  C12 UNL     1      12.220  87.635  10.499  1.00  0.00     0.417 C 
HETATM   21  F1  UNL     1      11.163  86.757  10.626  1.00  0.00    -0.166 F 
HETATM   22  F2  UNL     1      11.979  88.446   9.400  1.00  0.00    -0.166 F 
HETATM   23  F3  UNL     1      13.423  86.955  10.357  1.00  0.00    -0.166 F 
ENDBRANCH  18  20
ENDBRANCH  12  14
ENDBRANCH   8  10
ENDBRANCH   1   3
BRANCH   1  24
HETATM   24  C16 UNL     1      16.046  96.001   8.775  1.00  0.00     0.122 A 
HETATM   25  N3  UNL     1      16.767  94.872   8.952  1.00  0.00    -0.327 N 
HETATM   26  C17 UNL     1      17.473  94.354   7.946  1.00  0.00     0.120 A 
ATOM     27  H3  UNL     1      16.772  94.413   9.862  1.00  0.00     0.169 HD
HETATM   28  N5  UNL     1      17.457  94.986   6.735  1.00  0.00    -0.326 N 
HETATM   29  C23 UNL     1      16.764  96.104   6.499  1.00  0.00     0.139 A 
ATOM     30  H5  UNL     1      18.001  94.583   5.972  1.00  0.00     0.169 HD
HETATM   31  C24 UNL     1      16.040  96.632   7.525  1.00  0.00     0.070 A 
HETATM   32  N7  UNL     1      16.617  96.897   5.400  1.00  0.00    -0.281 N 
HETATM   33  C25 UNL     1      15.438  97.779   7.021  1.00  0.00     0.126 A 
HETATM   34  N6  UNL     1      15.824  97.875   5.754  1.00  0.00    -0.307 N 
ATOM     35  H6  UNL     1      15.534  98.626   5.128  1.00  0.00     0.186 HD
HETATM   36  C26 UNL     1      17.268  96.654   4.147  1.00  0.00     0.179 C 
BRANCH  26  37
HETATM   37  C18 UNL     1      18.207  93.111   8.062  1.00  0.00     0.023 A 
HETATM   38  C19 UNL     1      18.163  92.121   7.078  1.00  0.00     0.018 A 
HETATM   39  C20 UNL     1      18.852  90.930   7.253  1.00  0.00     0.018 A 
HETATM   40  C21 UNL     1      19.591  90.710   8.396  1.00  0.00     0.087 A 
HETATM   41  N4  UNL     1      19.632  91.667   9.339  1.00  0.00    -0.374 N 
HETATM   42  C22 UNL     1      18.951  92.846   9.172  1.00  0.00     0.102 A 
ATOM     43  H4  UNL     1      20.175  91.515  10.189  1.00  0.00     0.164 HD
ENDBRANCH  26  37
ENDBRANCH   1  24
TORSDOF 6
ENDMDL
