MODEL 10
REMARK VINA RESULT: -10.722241331      5.830      9.037
REMARK  6 active torsions:
REMARK  status: ('A' for Active; 'I' for Inactive)
REMARK    1  A    between atoms: C5_5  and  C6_6 
REMARK       I    between atoms: C6_6  and  N1_8 
REMARK    2  A    between atoms: N1_8  and  C7_10 
REMARK    3  A    between atoms: C11_14  and  C12_15 
REMARK    4  A    between atoms: C15_21  and  N2_22 
REMARK    5  A    between atoms: N2_22  and  C16_24 
REMARK    6  A    between atoms: C17_27  and  C18_28 
ROOT
HETATM    1  N2  UNL     1      14.746  95.741  12.519  1.00  0.00    -0.341 N 
ATOM      2  H2  UNL     1      15.178  96.160  13.342  1.00  0.00     0.167 HD
ENDROOT
BRANCH   1   3
HETATM    3  C15 UNL     1      15.272  96.119  11.261  1.00  0.00     0.040 A 
HETATM    4  C2  UNL     1      14.792  97.269  10.680  1.00  0.00    -0.035 A 
HETATM    5  C1  UNL     1      13.864  98.226  11.342  1.00  0.00     0.050 C 
HETATM    6  C3  UNL     1      15.213  97.554   9.373  1.00  0.00     0.010 A 
HETATM    7  C4  UNL     1      16.072  96.701   8.724  1.00  0.00     0.018 A 
HETATM    8  C5  UNL     1      16.557  95.558   9.285  1.00  0.00     0.034 A 
HETATM    9  C14 UNL     1      16.155  95.261  10.569  1.00  0.00     0.047 A 
BRANCH   8  10
HETATM   10  C6  UNL     1      17.393  94.610   8.518  1.00  0.00     0.256 C 
HETATM   11  O1  UNL     1      17.932  93.615   9.080  1.00  0.00    -0.267 OA
HETATM   12  N1  UNL     1      17.607  94.777   7.153  1.00  0.00    -0.323 N 
ATOM     13  H1  UNL     1      17.165  95.598   6.740  1.00  0.00     0.169 HD
BRANCH  12  14
HETATM   14  C7  UNL     1      18.345  93.976   6.255  1.00  0.00     0.035 A 
HETATM   15  C8  UNL     1      18.801  92.714   6.489  1.00  0.00     0.029 A 
HETATM   16  C9  UNL     1      19.512  91.992   5.564  1.00  0.00     0.003 A 
HETATM   17  C10 UNL     1      19.770  92.582   4.346  1.00  0.00     0.016 A 
HETATM   18  C11 UNL     1      19.341  93.873   4.024  1.00  0.00     0.050 A 
HETATM   19  C13 UNL     1      18.634  94.534   5.003  1.00  0.00     0.045 A 
BRANCH  18  20
HETATM   20  C12 UNL     1      19.646  94.485   2.706  1.00  0.00     0.417 C 
HETATM   21  F1  UNL     1      20.031  95.785   2.970  1.00  0.00    -0.166 F 
HETATM   22  F2  UNL     1      20.724  93.823   2.138  1.00  0.00    -0.166 F 
HETATM   23  F3  UNL     1      18.544  94.450   1.863  1.00  0.00    -0.166 F 
ENDBRANCH  18  20
ENDBRANCH  12  14
ENDBRANCH   8  10
ENDBRANCH   1   3
BRANCH   1  24
HETATM   24  C16 UNL     1      13.680  94.843  12.748  1.00  0.00     0.122 A 
HETATM   25  N3  UNL     1      13.799  93.505  12.600  1.00  0.00    -0.327 N 
HETATM   26  C17 UNL     1      12.783  92.696  12.901  1.00  0.00     0.120 A 
ATOM     27  H3  UNL     1      14.675  93.111  12.256  1.00  0.00     0.169 HD
HETATM   28  N5  UNL     1      11.618  93.242  13.357  1.00  0.00    -0.326 N 
HETATM   29  C23 UNL     1      11.438  94.556  13.524  1.00  0.00     0.139 A 
ATOM     30  H5  UNL     1      10.845  92.616  13.583  1.00  0.00     0.169 HD
HETATM   31  C24 UNL     1      12.477  95.383  13.220  1.00  0.00     0.070 A 
HETATM   32  N7  UNL     1      10.381  95.308  13.940  1.00  0.00    -0.281 N 
HETATM   33  C25 UNL     1      12.025  96.674  13.467  1.00  0.00     0.126 A 
HETATM   34  N6  UNL     1      10.773  96.555  13.893  1.00  0.00    -0.307 N 
ATOM     35  H6  UNL     1      10.184  97.346  14.153  1.00  0.00     0.186 HD
HETATM   36  C26 UNL     1       9.109  94.762  14.311  1.00  0.00     0.179 C 
BRANCH  26  37
HETATM   37  C18 UNL     1      12.882  91.253  12.827  1.00  0.00     0.023 A 
HETATM   38  C19 UNL     1      13.292  90.473  13.910  1.00  0.00     0.018 A 
HETATM   39  C20 UNL     1      13.409  89.097  13.777  1.00  0.00     0.018 A 
HETATM   40  C21 UNL     1      13.118  88.482  12.578  1.00  0.00     0.087 A 
HETATM   41  N4  UNL     1      12.722  89.237  11.538  1.00  0.00    -0.374 N 
HETATM   42  C22 UNL     1      12.607  90.598  11.664  1.00  0.00     0.102 A 
ATOM     43  H4  UNL     1      12.505  88.793  10.646  1.00  0.00     0.164 HD
ENDBRANCH  26  37
ENDBRANCH   1  24
TORSDOF 6
ENDMDL
