MODEL 2
REMARK VINA RESULT: -13.580369422      1.091      1.315
REMARK  6 active torsions:
REMARK  status: ('A' for Active; 'I' for Inactive)
REMARK    1  A    between atoms: C5_5  and  C6_6 
REMARK       I    between atoms: C6_6  and  N1_8 
REMARK    2  A    between atoms: N1_8  and  C7_10 
REMARK    3  A    between atoms: C11_14  and  C12_15 
REMARK    4  A    between atoms: C15_21  and  N2_22 
REMARK    5  A    between atoms: N2_22  and  C16_24 
REMARK    6  A    between atoms: C17_27  and  C18_28 
ROOT
HETATM    1  N2  UNL     1       0.912   9.345 109.662  1.00  0.00    -0.341 N 
ATOM      2  H2  UNL     1       1.582   8.662 110.016  1.00  0.00     0.167 HD
ENDROOT
BRANCH   1   3
HETATM    3  C15 UNL     1       1.531  10.226 108.766  1.00  0.00     0.040 A 
HETATM    4  C2  UNL     1       2.131  11.356 109.351  1.00  0.00    -0.035 A 
HETATM    5  C1  UNL     1       2.285  11.503 110.828  1.00  0.00     0.050 C 
HETATM    6  C3  UNL     1       2.602  12.369 108.550  1.00  0.00     0.010 A 
HETATM    7  C4  UNL     1       2.486  12.269 107.190  1.00  0.00     0.018 A 
HETATM    8  C5  UNL     1       1.899  11.161 106.575  1.00  0.00     0.034 A 
HETATM    9  C14 UNL     1       1.437  10.160 107.401  1.00  0.00     0.047 A 
BRANCH   8  10
HETATM   10  C6  UNL     1       1.752  11.173 105.098  1.00  0.00     0.256 C 
HETATM   11  O1  UNL     1       0.648  11.301 104.558  1.00  0.00    -0.267 OA
HETATM   12  N1  UNL     1       2.900  11.044 104.273  1.00  0.00    -0.323 N 
ATOM     13  H1  UNL     1       3.788  10.914 104.757  1.00  0.00     0.169 HD
BRANCH  12  14
HETATM   14  C7  UNL     1       2.958  11.076 102.850  1.00  0.00     0.035 A 
HETATM   15  C8  UNL     1       3.840  10.365 102.092  1.00  0.00     0.029 A 
HETATM   16  C9  UNL     1       3.758  10.439 100.726  1.00  0.00     0.003 A 
HETATM   17  C10 UNL     1       2.819  11.206 100.097  1.00  0.00     0.016 A 
HETATM   18  C11 UNL     1       1.932  11.918 100.851  1.00  0.00     0.050 A 
HETATM   19  C13 UNL     1       1.993  11.861 102.200  1.00  0.00     0.045 A 
BRANCH  18  20
HETATM   20  C12 UNL     1       0.890  12.759 100.144  1.00  0.00     0.417 C 
HETATM   21  F1  UNL     1       0.907  14.038 100.628  1.00  0.00    -0.166 F 
HETATM   22  F2  UNL     1       1.250  12.771  98.781  1.00  0.00    -0.166 F 
HETATM   23  F3  UNL     1      -0.341  12.132 100.231  1.00  0.00    -0.166 F 
ENDBRANCH  18  20
ENDBRANCH  12  14
ENDBRANCH   8  10
ENDBRANCH   1   3
BRANCH   1  24
HETATM   24  C16 UNL     1      -0.337   9.130 110.206  1.00  0.00     0.122 A 
HETATM   25  N3  UNL     1      -1.279  10.059 110.536  1.00  0.00    -0.327 N 
HETATM   26  C17 UNL     1      -2.536   9.735 110.897  1.00  0.00     0.120 A 
ATOM     27  H3  UNL     1      -1.020  11.045 110.508  1.00  0.00     0.169 HD
HETATM   28  N5  UNL     1      -2.848   8.388 110.929  1.00  0.00    -0.326 N 
HETATM   29  C23 UNL     1      -2.003   7.425 110.632  1.00  0.00     0.137 A 
ATOM     30  H5  UNL     1      -3.795   8.124 111.202  1.00  0.00     0.169 HD
HETATM   31  N6  UNL     1      -2.055   6.070 110.627  1.00  0.00    -0.283 N 
HETATM   32  C26 UNL     1      -0.735   7.767 110.265  1.00  0.00     0.070 A 
HETATM   33  N7  UNL     1      -0.905   5.535 110.277  1.00  0.00    -0.305 N 
ATOM     34  H6  UNL     1      -2.886   5.530 110.867  1.00  0.00     0.189 HD
HETATM   35  C24 UNL     1      -0.601   4.109 110.166  1.00  0.00     0.177 C 
HETATM   36  C25 UNL     1      -0.087   6.567 110.052  1.00  0.00     0.128 A 
BRANCH  26  37
HETATM   37  C18 UNL     1      -3.619  10.630 111.271  1.00  0.00     0.023 A 
HETATM   38  C19 UNL     1      -3.423  12.024 111.084  1.00  0.00     0.018 A 
HETATM   39  C20 UNL     1      -4.391  12.952 111.354  1.00  0.00     0.018 A 
HETATM   40  C21 UNL     1      -5.603  12.539 111.827  1.00  0.00     0.087 A 
HETATM   41  N4  UNL     1      -5.832  11.196 112.024  1.00  0.00    -0.374 N 
HETATM   42  C22 UNL     1      -4.851  10.271 111.746  1.00  0.00     0.102 A 
ATOM     43  H4  UNL     1      -6.736  10.884 112.380  1.00  0.00     0.164 HD
ENDBRANCH  26  37
ENDBRANCH   1  24
TORSDOF 6
ENDMDL
