MODEL 12
REMARK VINA RESULT: -11.737180520      4.166      8.299
REMARK  6 active torsions:
REMARK  status: ('A' for Active; 'I' for Inactive)
REMARK    1  A    between atoms: C5_5  and  C6_6 
REMARK       I    between atoms: C6_6  and  N1_8 
REMARK    2  A    between atoms: N1_8  and  C7_10 
REMARK    3  A    between atoms: C11_14  and  C12_15 
REMARK    4  A    between atoms: C15_21  and  N2_22 
REMARK    5  A    between atoms: N2_22  and  C16_24 
REMARK    6  A    between atoms: C17_27  and  C18_28 
ROOT
HETATM    1  N2  UNL     1      -4.304   6.607 111.091  1.00  0.00    -0.341 N 
ATOM      2  H2  UNL     1      -5.073   6.265 111.667  1.00  0.00     0.167 HD
ENDROOT
BRANCH   1   3
HETATM    3  C15 UNL     1      -4.126   7.985 111.273  1.00  0.00     0.040 A 
HETATM    4  C2  UNL     1      -5.267   8.688 111.703  1.00  0.00    -0.035 A 
HETATM    5  C1  UNL     1      -6.515   7.993 112.137  1.00  0.00     0.050 C 
HETATM    6  C3  UNL     1      -5.249  10.061 111.734  1.00  0.00     0.010 A 
HETATM    7  C4  UNL     1      -4.121  10.735 111.352  1.00  0.00     0.018 A 
HETATM    8  C5  UNL     1      -2.970  10.071 110.923  1.00  0.00     0.034 A 
HETATM    9  C14 UNL     1      -3.014   8.694 110.902  1.00  0.00     0.047 A 
BRANCH   8  10
HETATM   10  C6  UNL     1      -1.821  10.886 110.458  1.00  0.00     0.256 C 
HETATM   11  O1  UNL     1      -1.979  12.007 109.964  1.00  0.00    -0.267 OA
HETATM   12  N1  UNL     1      -0.500  10.382 110.586  1.00  0.00    -0.323 N 
ATOM     13  H1  UNL     1      -0.413   9.442 110.975  1.00  0.00     0.169 HD
BRANCH  12  14
HETATM   14  C7  UNL     1       0.718  11.032 110.238  1.00  0.00     0.035 A 
HETATM   15  C8  UNL     1       1.558  11.639 111.124  1.00  0.00     0.029 A 
HETATM   16  C9  UNL     1       2.730  12.183 110.669  1.00  0.00     0.003 A 
HETATM   17  C10 UNL     1       3.087  12.138 109.351  1.00  0.00     0.016 A 
HETATM   18  C11 UNL     1       2.251  11.531 108.460  1.00  0.00     0.050 A 
HETATM   19  C13 UNL     1       1.089  10.987 108.884  1.00  0.00     0.045 A 
BRANCH  18  20
HETATM   20  C12 UNL     1       2.658  11.480 107.002  1.00  0.00     0.417 C 
HETATM   21  F1  UNL     1       1.981  12.430 106.289  1.00  0.00    -0.166 F 
HETATM   22  F2  UNL     1       4.038  11.766 106.967  1.00  0.00    -0.166 F 
HETATM   23  F3  UNL     1       2.501  10.189 106.527  1.00  0.00    -0.166 F 
ENDBRANCH  18  20
ENDBRANCH  12  14
ENDBRANCH   8  10
ENDBRANCH   1   3
BRANCH   1  24
HETATM   24  C16 UNL     1      -3.746   5.579 110.362  1.00  0.00     0.122 A 
HETATM   25  N3  UNL     1      -2.437   5.201 110.311  1.00  0.00    -0.327 N 
HETATM   26  C17 UNL     1      -2.020   4.072 109.706  1.00  0.00     0.120 A 
ATOM     27  H3  UNL     1      -1.740   5.802 110.751  1.00  0.00     0.169 HD
HETATM   28  N5  UNL     1      -2.992   3.286 109.114  1.00  0.00    -0.326 N 
HETATM   29  C23 UNL     1      -4.276   3.574 109.112  1.00  0.00     0.137 A 
ATOM     30  H5  UNL     1      -2.695   2.428 108.650  1.00  0.00     0.169 HD
HETATM   31  N6  UNL     1      -5.386   3.003 108.582  1.00  0.00    -0.283 N 
HETATM   32  C26 UNL     1      -4.684   4.718 109.730  1.00  0.00     0.070 A 
HETATM   33  N7  UNL     1      -6.468   3.709 108.829  1.00  0.00    -0.305 N 
ATOM     34  H6  UNL     1      -5.382   2.130 108.054  1.00  0.00     0.189 HD
HETATM   35  C24 UNL     1      -7.833   3.394 108.412  1.00  0.00     0.177 C 
HETATM   36  C25 UNL     1      -6.050   4.765 109.534  1.00  0.00     0.128 A 
BRANCH  26  37
HETATM   37  C18 UNL     1      -0.661   3.571 109.584  1.00  0.00     0.023 A 
HETATM   38  C19 UNL     1       0.365   4.256 110.288  1.00  0.00     0.018 A 
HETATM   39  C20 UNL     1       1.670   3.843 110.285  1.00  0.00     0.018 A 
HETATM   40  C21 UNL     1       2.019   2.728 109.580  1.00  0.00     0.087 A 
HETATM   41  N4  UNL     1       1.054   2.036 108.884  1.00  0.00    -0.374 N 
HETATM   42  C22 UNL     1      -0.256   2.460 108.896  1.00  0.00     0.102 A 
ATOM     43  H4  UNL     1       1.311   1.203 108.354  1.00  0.00     0.164 HD
ENDBRANCH  26  37
ENDBRANCH   1  24
TORSDOF 6
ENDMDL
