MODEL 10
REMARK VINA RESULT: -12.027543391      2.663      5.311
REMARK  6 active torsions:
REMARK  status: ('A' for Active; 'I' for Inactive)
REMARK    1  A    between atoms: C5_5  and  C6_6 
REMARK       I    between atoms: C6_6  and  N1_8 
REMARK    2  A    between atoms: N1_8  and  C7_10 
REMARK    3  A    between atoms: C11_14  and  C12_15 
REMARK    4  A    between atoms: C15_21  and  N2_22 
REMARK    5  A    between atoms: N2_22  and  C16_24 
REMARK    6  A    between atoms: C17_27  and  C18_28 
ROOT
HETATM    1  N2  UNL     1       1.247   8.743 109.963  1.00  0.00    -0.341 N 
ATOM      2  H2  UNL     1       1.872   8.714 110.768  1.00  0.00     0.167 HD
ENDROOT
BRANCH   1   3
HETATM    3  C15 UNL     1       1.534   9.849 109.153  1.00  0.00     0.040 A 
HETATM    4  C2  UNL     1       1.692  11.070 109.835  1.00  0.00    -0.035 A 
HETATM    5  C1  UNL     1       1.759  11.148 111.324  1.00  0.00     0.050 C 
HETATM    6  C3  UNL     1       1.793  12.240 109.122  1.00  0.00     0.010 A 
HETATM    7  C4  UNL     1       1.743  12.210 107.755  1.00  0.00     0.018 A 
HETATM    8  C5  UNL     1       1.592  11.017 107.045  1.00  0.00     0.034 A 
HETATM    9  C14 UNL     1       1.494   9.858 107.784  1.00  0.00     0.047 A 
BRANCH   8  10
HETATM   10  C6  UNL     1       1.476  11.089 105.568  1.00  0.00     0.256 C 
HETATM   11  O1  UNL     1       0.376  11.135 105.005  1.00  0.00    -0.267 OA
HETATM   12  N1  UNL     1       2.647  11.115 104.768  1.00  0.00    -0.323 N 
ATOM     13  H1  UNL     1       3.534  11.049 105.267  1.00  0.00     0.169 HD
BRANCH  12  14
HETATM   14  C7  UNL     1       2.733  11.223 103.350  1.00  0.00     0.035 A 
HETATM   15  C8  UNL     1       1.972  12.058 102.586  1.00  0.00     0.029 A 
HETATM   16  C9  UNL     1       2.188  12.110 101.234  1.00  0.00     0.003 A 
HETATM   17  C10 UNL     1       3.143  11.348 100.623  1.00  0.00     0.016 A 
HETATM   18  C11 UNL     1       3.908  10.512 101.383  1.00  0.00     0.050 A 
HETATM   19  C13 UNL     1       3.715  10.443 102.719  1.00  0.00     0.045 A 
BRANCH  18  20
HETATM   20  C12 UNL     1       4.970   9.676 100.698  1.00  0.00     0.417 C 
HETATM   21  F1  UNL     1       5.768  10.470  99.921  1.00  0.00    -0.166 F 
HETATM   22  F2  UNL     1       5.744   9.100 101.726  1.00  0.00    -0.166 F 
HETATM   23  F3  UNL     1       4.364   8.634 100.017  1.00  0.00    -0.166 F 
ENDBRANCH  18  20
ENDBRANCH  12  14
ENDBRANCH   8  10
ENDBRANCH   1   3
BRANCH   1  24
HETATM   24  C16 UNL     1       0.366   7.682 109.992  1.00  0.00     0.122 A 
HETATM   25  N3  UNL     1       0.647   6.355 109.857  1.00  0.00    -0.327 N 
HETATM   26  C17 UNL     1      -0.260   5.384 110.077  1.00  0.00     0.120 A 
ATOM     27  H3  UNL     1       1.589   6.084 109.576  1.00  0.00     0.169 HD
HETATM   28  N5  UNL     1      -1.529   5.790 110.451  1.00  0.00    -0.326 N 
HETATM   29  C23 UNL     1      -1.890   7.046 110.601  1.00  0.00     0.137 A 
ATOM     30  H5  UNL     1      -2.230   5.069 110.620  1.00  0.00     0.169 HD
HETATM   31  N6  UNL     1      -3.047   7.682 110.910  1.00  0.00    -0.283 N 
HETATM   32  C26 UNL     1      -0.960   8.018 110.378  1.00  0.00     0.070 A 
HETATM   33  N7  UNL     1      -2.908   8.990 110.902  1.00  0.00    -0.305 N 
ATOM     34  H6  UNL     1      -3.922   7.203 111.124  1.00  0.00     0.189 HD
HETATM   35  C24 UNL     1      -3.942   9.982 111.188  1.00  0.00     0.177 C 
HETATM   36  C25 UNL     1      -1.630   9.209 110.576  1.00  0.00     0.128 A 
BRANCH  26  37
HETATM   37  C18 UNL     1      -0.081   3.946 109.962  1.00  0.00     0.023 A 
HETATM   38  C19 UNL     1      -1.142   3.189 109.400  1.00  0.00     0.018 A 
HETATM   39  C20 UNL     1      -1.063   1.837 109.198  1.00  0.00     0.018 A 
HETATM   40  C21 UNL     1       0.077   1.173 109.548  1.00  0.00     0.087 A 
HETATM   41  N4  UNL     1       1.128   1.871 110.097  1.00  0.00    -0.374 N 
HETATM   42  C22 UNL     1       1.037   3.231 110.293  1.00  0.00     0.102 A 
ATOM     43  H4  UNL     1       1.981   1.378 110.362  1.00  0.00     0.164 HD
ENDBRANCH  26  37
ENDBRANCH   1  24
TORSDOF 6
ENDMDL
