MODEL 1
REMARK VINA RESULT: -13.788492469      0.000      0.000
REMARK  6 active torsions:
REMARK  status: ('A' for Active; 'I' for Inactive)
REMARK    1  A    between atoms: C5_5  and  C6_6 
REMARK       I    between atoms: C6_6  and  N1_8 
REMARK    2  A    between atoms: N1_8  and  C7_10 
REMARK    3  A    between atoms: C11_14  and  C12_15 
REMARK    4  A    between atoms: C15_21  and  N2_22 
REMARK    5  A    between atoms: N2_22  and  C16_24 
REMARK    6  A    between atoms: C17_27  and  C18_28 
ROOT
HETATM    1  N2  UNL     1       0.210  11.789 109.604  1.00  0.00    -0.341 N 
ATOM      2  H2  UNL     1       0.145  12.749 109.943  1.00  0.00     0.167 HD
ENDROOT
BRANCH   1   3
HETATM    3  C15 UNL     1       1.217  11.673 108.637  1.00  0.00     0.040 A 
HETATM    4  C2  UNL     1       2.514  12.001 109.077  1.00  0.00    -0.035 A 
HETATM    5  C1  UNL     1       2.830  12.247 110.514  1.00  0.00     0.050 C 
HETATM    6  C3  UNL     1       3.537  12.098 108.165  1.00  0.00     0.010 A 
HETATM    7  C4  UNL     1       3.290  11.872 106.838  1.00  0.00     0.018 A 
HETATM    8  C5  UNL     1       2.018  11.542 106.367  1.00  0.00     0.034 A 
HETATM    9  C14 UNL     1       1.009  11.450 107.302  1.00  0.00     0.047 A 
BRANCH   8  10
HETATM   10  C6  UNL     1       1.829  11.386 104.904  1.00  0.00     0.256 C 
HETATM   11  O1  UNL     1       0.703  11.333 104.397  1.00  0.00    -0.267 OA
HETATM   12  N1  UNL     1       2.960  11.304 104.050  1.00  0.00    -0.323 N 
ATOM     13  H1  UNL     1       3.871  11.326 104.509  1.00  0.00     0.169 HD
BRANCH  12  14
HETATM   14  C7  UNL     1       2.974  11.197 102.630  1.00  0.00     0.035 A 
HETATM   15  C8  UNL     1       3.855  10.440 101.916  1.00  0.00     0.029 A 
HETATM   16  C9  UNL     1       3.731  10.377 100.553  1.00  0.00     0.003 A 
HETATM   17  C10 UNL     1       2.749  11.050  99.883  1.00  0.00     0.016 A 
HETATM   18  C11 UNL     1       1.864  11.808 100.593  1.00  0.00     0.050 A 
HETATM   19  C13 UNL     1       1.966  11.887 101.938  1.00  0.00     0.045 A 
BRANCH  18  20
HETATM   20  C12 UNL     1       0.774  12.546  99.842  1.00  0.00     0.417 C 
HETATM   21  F1  UNL     1       0.645  13.818 100.326  1.00  0.00    -0.166 F 
HETATM   22  F2  UNL     1       1.189  12.598  98.496  1.00  0.00    -0.166 F 
HETATM   23  F3  UNL     1      -0.391  11.800  99.876  1.00  0.00    -0.166 F 
ENDBRANCH  18  20
ENDBRANCH  12  14
ENDBRANCH   8  10
ENDBRANCH   1   3
BRANCH   1  24
HETATM   24  C16 UNL     1      -0.719  10.986 110.231  1.00  0.00     0.122 A 
HETATM   25  N3  UNL     1      -1.920  11.352 110.764  1.00  0.00    -0.327 N 
HETATM   26  C17 UNL     1      -2.834  10.464 111.197  1.00  0.00     0.120 A 
ATOM     27  H3  UNL     1      -2.136  12.347 110.837  1.00  0.00     0.169 HD
HETATM   28  N5  UNL     1      -2.503   9.125 111.087  1.00  0.00    -0.326 N 
HETATM   29  C23 UNL     1      -1.369   8.681 110.591  1.00  0.00     0.137 A 
ATOM     30  H5  UNL     1      -3.183   8.437 111.412  1.00  0.00     0.169 HD
HETATM   31  N6  UNL     1      -0.810   7.458 110.419  1.00  0.00    -0.283 N 
HETATM   32  C26 UNL     1      -0.454   9.592 110.153  1.00  0.00     0.070 A 
HETATM   33  N7  UNL     1       0.395   7.537 109.897  1.00  0.00    -0.305 N 
ATOM     34  H6  UNL     1      -1.269   6.581 110.665  1.00  0.00     0.189 HD
HETATM   35  C24 UNL     1       1.285   6.422 109.577  1.00  0.00     0.177 C 
HETATM   36  C25 UNL     1       0.625   8.843 109.729  1.00  0.00     0.128 A 
BRANCH  26  37
HETATM   37  C18 UNL     1      -4.138  10.732 111.783  1.00  0.00     0.023 A 
HETATM   38  C19 UNL     1      -4.680  12.035 111.625  1.00  0.00     0.018 A 
HETATM   39  C20 UNL     1      -5.919  12.384 112.091  1.00  0.00     0.018 A 
HETATM   40  C21 UNL     1      -6.678  11.454 112.739  1.00  0.00     0.087 A 
HETATM   41  N4  UNL     1      -6.188  10.180 112.913  1.00  0.00    -0.374 N 
HETATM   42  C22 UNL     1      -4.941   9.839 112.437  1.00  0.00     0.102 A 
ATOM     43  H4  UNL     1      -6.752   9.482 113.398  1.00  0.00     0.164 HD
ENDBRANCH  26  37
ENDBRANCH   1  24
TORSDOF 6
ENDMDL
