MODEL 8
REMARK VINA RESULT: -12.435687015      2.333      4.455
REMARK  6 active torsions:
REMARK  status: ('A' for Active; 'I' for Inactive)
REMARK    1  A    between atoms: C5_5  and  C6_6 
REMARK       I    between atoms: C6_6  and  N1_8 
REMARK    2  A    between atoms: N1_8  and  C7_10 
REMARK    3  A    between atoms: C11_14  and  C12_15 
REMARK    4  A    between atoms: C15_21  and  N2_22 
REMARK    5  A    between atoms: N2_22  and  C16_24 
REMARK    6  A    between atoms: C17_27  and  C18_28 
ROOT
HETATM    1  N2  UNL     1      -0.204  11.109 109.830  1.00  0.00    -0.341 N 
ATOM      2  H2  UNL     1      -0.374  11.984 110.327  1.00  0.00     0.167 HD
ENDROOT
BRANCH   1   3
HETATM    3  C15 UNL     1       0.851  11.254 108.921  1.00  0.00     0.040 A 
HETATM    4  C2  UNL     1       2.032  11.806 109.452  1.00  0.00    -0.035 A 
HETATM    5  C1  UNL     1       2.222  12.024 110.915  1.00  0.00     0.050 C 
HETATM    6  C3  UNL     1       3.058  12.159 108.608  1.00  0.00     0.010 A 
HETATM    7  C4  UNL     1       2.926  11.967 107.260  1.00  0.00     0.018 A 
HETATM    8  C5  UNL     1       1.770  11.419 106.698  1.00  0.00     0.034 A 
HETATM    9  C14 UNL     1       0.757  11.073 107.566  1.00  0.00     0.047 A 
BRANCH   8  10
HETATM   10  C6  UNL     1       1.688  11.316 105.220  1.00  0.00     0.256 C 
HETATM   11  O1  UNL     1       0.601  11.298 104.632  1.00  0.00    -0.267 OA
HETATM   12  N1  UNL     1       2.877  11.247 104.450  1.00  0.00    -0.323 N 
ATOM     13  H1  UNL     1       3.753  11.239 104.974  1.00  0.00     0.169 HD
BRANCH  12  14
HETATM   14  C7  UNL     1       2.995  11.187 103.031  1.00  0.00     0.035 A 
HETATM   15  C8  UNL     1       2.257  11.928 102.157  1.00  0.00     0.029 A 
HETATM   16  C9  UNL     1       2.503  11.820 100.814  1.00  0.00     0.003 A 
HETATM   17  C10 UNL     1       3.467  10.988 100.319  1.00  0.00     0.016 A 
HETATM   18  C11 UNL     1       4.210  10.245 101.189  1.00  0.00     0.050 A 
HETATM   19  C13 UNL     1       3.986  10.335 102.519  1.00  0.00     0.045 A 
BRANCH  18  20
HETATM   20  C12 UNL     1       5.282   9.331 100.631  1.00  0.00     0.417 C 
HETATM   21  F1  UNL     1       6.101  10.025  99.785  1.00  0.00    -0.166 F 
HETATM   22  F2  UNL     1       6.029   8.878 101.738  1.00  0.00    -0.166 F 
HETATM   23  F3  UNL     1       4.684   8.218 100.065  1.00  0.00    -0.166 F 
ENDBRANCH  18  20
ENDBRANCH  12  14
ENDBRANCH   8  10
ENDBRANCH   1   3
BRANCH   1  24
HETATM   24  C16 UNL     1      -1.080  10.131 110.252  1.00  0.00     0.122 A 
HETATM   25  N3  UNL     1      -0.840   8.797 110.399  1.00  0.00    -0.327 N 
HETATM   26  C17 UNL     1      -1.710   7.953 110.987  1.00  0.00     0.120 A 
ATOM     27  H3  UNL     1       0.039   8.419 110.046  1.00  0.00     0.169 HD
HETATM   28  N5  UNL     1      -2.895   8.500 111.446  1.00  0.00    -0.326 N 
HETATM   29  C23 UNL     1      -3.211   9.772 111.345  1.00  0.00     0.137 A 
ATOM     30  H5  UNL     1      -3.567   7.875 111.893  1.00  0.00     0.169 HD
HETATM   31  N6  UNL     1      -4.294  10.521 111.670  1.00  0.00    -0.283 N 
HETATM   32  C26 UNL     1      -2.320  10.615 110.750  1.00  0.00     0.070 A 
HETATM   33  N7  UNL     1      -4.142  11.781 111.325  1.00  0.00    -0.305 N 
ATOM     34  H6  UNL     1      -5.126  10.151 112.129  1.00  0.00     0.189 HD
HETATM   35  C24 UNL     1      -5.104  12.865 111.523  1.00  0.00     0.177 C 
HETATM   36  C25 UNL     1      -2.933  11.852 110.759  1.00  0.00     0.128 A 
BRANCH  26  37
HETATM   37  C18 UNL     1      -1.569   6.521 111.195  1.00  0.00     0.023 A 
HETATM   38  C19 UNL     1      -0.672   5.814 110.350  1.00  0.00     0.018 A 
HETATM   39  C20 UNL     1      -0.423   4.475 110.489  1.00  0.00     0.018 A 
HETATM   40  C21 UNL     1      -1.056   3.773 111.473  1.00  0.00     0.087 A 
HETATM   41  N4  UNL     1      -1.934   4.422 112.311  1.00  0.00    -0.374 N 
HETATM   42  C22 UNL     1      -2.174   5.770 112.164  1.00  0.00     0.102 A 
ATOM     43  H4  UNL     1      -2.411   3.901 113.047  1.00  0.00     0.164 HD
ENDBRANCH  26  37
ENDBRANCH   1  24
TORSDOF 6
ENDMDL
