MODEL 4
REMARK VINA RESULT: -5.062836560      2.954      4.933
REMARK  4 active torsions:
REMARK  status: ('A' for Active; 'I' for Inactive)
REMARK    1  A    between atoms: N1_2  and  C4_5 
REMARK    2  A    between atoms: C4_5  and  C5_6 
REMARK    3  A    between atoms: C4_5  and  C9_14 
REMARK    4  A    between atoms: C5_6  and  C6_7 
ROOT
HETATM    1  C4  UNL     1       8.743  17.079  15.199  1.00  0.00     0.294 C 
ENDROOT
BRANCH   1   2
HETATM    2  N1  UNL     1       7.361  17.410  15.057  1.00  0.00    -0.064 N 
HETATM    3  C1  UNL     1       6.500  16.256  15.240  1.00  0.00     0.272 C 
HETATM    4  C2  UNL     1       7.043  18.091  13.829  1.00  0.00     0.272 C 
HETATM    5  C3  UNL     1       7.026  18.340  16.149  1.00  0.00     0.272 C 
ENDBRANCH   1   2
BRANCH   1   6
HETATM    6  C5  UNL     1       9.611  18.092  15.870  1.00  0.00     0.103 C 
BRANCH   6   7
HETATM    7  C6  UNL     1      10.824  18.487  15.159  1.00  0.00     0.028 A 
HETATM    8  C7  UNL     1      11.882  19.259  15.652  1.00  0.00     0.114 A 
HETATM    9  N2  UNL     1      12.811  19.416  14.684  1.00  0.00    -0.360 N 
HETATM   10  C8  UNL     1      12.336  18.753  13.611  1.00  0.00     0.180 A 
ATOM     11  H2  UNL     1      13.689  19.929  14.751  1.00  0.00     0.166 HD
HETATM   12  N3  UNL     1      11.153  18.198  13.890  1.00  0.00    -0.355 N 
ATOM     13  H3  UNL     1      10.590  17.645  13.243  1.00  0.00     0.166 HD
ENDBRANCH   6   7
ENDBRANCH   1   6
BRANCH   1  14
HETATM   14  C9  UNL     1       9.015  15.793  15.869  1.00  0.00     0.205 C 
HETATM   15  O1  UNL     1       9.178  15.736  17.091  1.00  0.00    -0.646 OA
HETATM   16  O2  UNL     1       9.084  14.655  15.106  1.00  0.00    -0.646 OA
ENDBRANCH   1  14
TORSDOF 4
ENDMDL
