MODEL 1
REMARK VINA RESULT: -5.782711479      0.000      0.000
REMARK  4 active torsions:
REMARK  status: ('A' for Active; 'I' for Inactive)
REMARK    1  A    between atoms: N1_2  and  C4_5 
REMARK    2  A    between atoms: C4_5  and  C5_6 
REMARK    3  A    between atoms: C4_5  and  C9_14 
REMARK    4  A    between atoms: C5_6  and  C6_7 
ROOT
HETATM    1  C4  UNL     1       8.581  16.110  15.506  1.00  0.00     0.294 C 
ENDROOT
BRANCH   1   2
HETATM    2  N1  UNL     1       9.081  17.324  16.067  1.00  0.00    -0.064 N 
HETATM    3  C1  UNL     1       8.015  18.206  16.504  1.00  0.00     0.272 C 
HETATM    4  C2  UNL     1      10.004  18.028  15.216  1.00  0.00     0.272 C 
HETATM    5  C3  UNL     1       9.828  16.961  17.283  1.00  0.00     0.272 C 
ENDBRANCH   1   2
BRANCH   1   6
HETATM    6  C5  UNL     1       8.370  14.970  16.448  1.00  0.00     0.103 C 
BRANCH   6   7
HETATM    7  C6  UNL     1       8.437  13.628  15.875  1.00  0.00     0.028 A 
HETATM    8  C7  UNL     1       9.260  13.193  14.831  1.00  0.00     0.114 A 
HETATM    9  N2  UNL     1       9.017  11.887  14.584  1.00  0.00    -0.360 N 
HETATM   10  C8  UNL     1       8.061  11.521  15.460  1.00  0.00     0.180 A 
ATOM     11  H2  UNL     1       9.465  11.300  13.881  1.00  0.00     0.166 HD
HETATM   12  N3  UNL     1       7.713  12.556  16.232  1.00  0.00    -0.355 N 
ATOM     13  H3  UNL     1       7.011  12.534  16.971  1.00  0.00     0.166 HD
ENDBRANCH   6   7
ENDBRANCH   1   6
BRANCH   1  14
HETATM   14  C9  UNL     1       7.331  16.244  14.734  1.00  0.00     0.205 C 
HETATM   15  O1  UNL     1       6.238  15.982  15.244  1.00  0.00    -0.646 OA
HETATM   16  O2  UNL     1       7.405  16.666  13.430  1.00  0.00    -0.646 OA
ENDBRANCH   1  14
TORSDOF 4
ENDMDL
