MODEL 5
REMARK VINA RESULT: -5.003667610      2.722      4.912
REMARK  4 active torsions:
REMARK  status: ('A' for Active; 'I' for Inactive)
REMARK    1  A    between atoms: N1_2  and  C4_5 
REMARK    2  A    between atoms: C4_5  and  C5_6 
REMARK    3  A    between atoms: C4_5  and  C9_14 
REMARK    4  A    between atoms: C5_6  and  C6_7 
ROOT
HETATM    1  C4  UNL     1       8.687  16.657  15.685  1.00  0.00     0.294 C 
ENDROOT
BRANCH   1   2
HETATM    2  N1  UNL     1       7.382  17.089  15.301  1.00  0.00    -0.064 N 
HETATM    3  C1  UNL     1       6.917  18.206  16.102  1.00  0.00     0.272 C 
HETATM    4  C2  UNL     1       6.399  16.038  15.277  1.00  0.00     0.272 C 
HETATM    5  C3  UNL     1       7.484  17.596  13.921  1.00  0.00     0.272 C 
ENDBRANCH   1   2
BRANCH   1   6
HETATM    6  C5  UNL     1       9.291  17.319  16.880  1.00  0.00     0.103 C 
BRANCH   6   7
HETATM    7  C6  UNL     1      10.441  18.185  16.636  1.00  0.00     0.028 A 
HETATM    8  C7  UNL     1      11.465  18.507  17.534  1.00  0.00     0.114 A 
HETATM    9  N2  UNL     1      12.337  19.347  16.936  1.00  0.00    -0.360 N 
HETATM   10  C8  UNL     1      11.862  19.542  15.690  1.00  0.00     0.180 A 
ATOM     11  H2  UNL     1      13.181  19.750  17.343  1.00  0.00     0.166 HD
HETATM   12  N3  UNL     1      10.732  18.851  15.508  1.00  0.00    -0.355 N 
ATOM     13  H3  UNL     1      10.181  18.833  14.650  1.00  0.00     0.166 HD
ENDBRANCH   6   7
ENDBRANCH   1   6
BRANCH   1  14
HETATM   14  C9  UNL     1       8.829  15.205  15.903  1.00  0.00     0.205 C 
HETATM   15  O1  UNL     1       8.824  14.730  17.042  1.00  0.00    -0.646 OA
HETATM   16  O2  UNL     1       8.968  14.385  14.810  1.00  0.00    -0.646 OA
ENDBRANCH   1  14
TORSDOF 4
ENDMDL
