MODEL 3
REMARK VINA RESULT: -5.124016721      2.923      4.954
REMARK  4 active torsions:
REMARK  status: ('A' for Active; 'I' for Inactive)
REMARK    1  A    between atoms: N1_2  and  C4_5 
REMARK    2  A    between atoms: C4_5  and  C5_6 
REMARK    3  A    between atoms: C4_5  and  C9_14 
REMARK    4  A    between atoms: C5_6  and  C6_7 
ROOT
HETATM    1  C4  UNL     1       8.709  17.017  15.258  1.00  0.00     0.294 C 
ENDROOT
BRANCH   1   2
HETATM    2  N1  UNL     1       7.327  17.361  15.161  1.00  0.00    -0.064 N 
HETATM    3  C1  UNL     1       6.937  18.349  16.150  1.00  0.00     0.272 C 
HETATM    4  C2  UNL     1       6.436  16.230  15.197  1.00  0.00     0.272 C 
HETATM    5  C3  UNL     1       7.132  18.003  13.850  1.00  0.00     0.272 C 
ENDBRANCH   1   2
BRANCH   1   6
HETATM    6  C5  UNL     1       9.601  18.004  15.937  1.00  0.00     0.103 C 
BRANCH   6   7
HETATM    7  C6  UNL     1      10.787  18.429  15.198  1.00  0.00     0.028 A 
HETATM    8  C7  UNL     1      11.840  19.220  15.670  1.00  0.00     0.114 A 
HETATM    9  N2  UNL     1      12.741  19.402  14.680  1.00  0.00    -0.360 N 
HETATM   10  C8  UNL     1      12.254  18.735  13.615  1.00  0.00     0.180 A 
ATOM     11  H2  UNL     1      13.610  19.934  14.728  1.00  0.00     0.166 HD
HETATM   12  N3  UNL     1      11.090  18.154  13.920  1.00  0.00    -0.355 N 
ATOM     13  H3  UNL     1      10.523  17.592  13.284  1.00  0.00     0.166 HD
ENDBRANCH   6   7
ENDBRANCH   1   6
BRANCH   1  14
HETATM   14  C9  UNL     1       8.988  15.710  15.882  1.00  0.00     0.205 C 
HETATM   15  O1  UNL     1       9.137  15.608  17.104  1.00  0.00    -0.646 OA
HETATM   16  O2  UNL     1       9.082  14.602  15.078  1.00  0.00    -0.646 OA
ENDBRANCH   1  14
TORSDOF 4
ENDMDL
