MODEL 2
REMARK VINA RESULT: -5.731431791      0.098      1.372
REMARK  4 active torsions:
REMARK  status: ('A' for Active; 'I' for Inactive)
REMARK    1  A    between atoms: N1_2  and  C4_5 
REMARK    2  A    between atoms: C4_5  and  C5_6 
REMARK    3  A    between atoms: C4_5  and  C9_14 
REMARK    4  A    between atoms: C5_6  and  C6_7 
ROOT
HETATM    1  C4  UNL     1       8.618  16.106  15.550  1.00  0.00     0.294 C 
ENDROOT
BRANCH   1   2
HETATM    2  N1  UNL     1       9.063  17.329  16.136  1.00  0.00    -0.064 N 
HETATM    3  C1  UNL     1       9.838  17.107  17.343  1.00  0.00     0.272 C 
HETATM    4  C2  UNL     1       8.011  18.282  16.378  1.00  0.00     0.272 C 
HETATM    5  C3  UNL     1       9.984  17.959  15.175  1.00  0.00     0.272 C 
ENDBRANCH   1   2
BRANCH   1   6
HETATM    6  C5  UNL     1       8.402  14.955  16.476  1.00  0.00     0.103 C 
BRANCH   6   7
HETATM    7  C6  UNL     1       8.461  13.620  15.885  1.00  0.00     0.028 A 
HETATM    8  C7  UNL     1       9.287  13.192  14.841  1.00  0.00     0.114 A 
HETATM    9  N2  UNL     1       9.034  11.892  14.574  1.00  0.00    -0.360 N 
HETATM   10  C8  UNL     1       8.067  11.523  15.438  1.00  0.00     0.180 A 
ATOM     11  H2  UNL     1       9.481  11.311  13.866  1.00  0.00     0.166 HD
HETATM   12  N3  UNL     1       7.724  12.550  16.221  1.00  0.00    -0.355 N 
ATOM     13  H3  UNL     1       7.015  12.525  16.955  1.00  0.00     0.166 HD
ENDBRANCH   6   7
ENDBRANCH   1   6
BRANCH   1  14
HETATM   14  C9  UNL     1       7.396  16.212  14.730  1.00  0.00     0.205 C 
HETATM   15  O1  UNL     1       7.460  16.474  13.526  1.00  0.00    -0.646 OA
HETATM   16  O2  UNL     1       6.179  16.012  15.333  1.00  0.00    -0.646 OA
ENDBRANCH   1  14
TORSDOF 4
ENDMDL
