MODEL 2
REMARK VINA RESULT: -5.465841666      1.970      2.550
REMARK  3 active torsions:
REMARK  status: ('A' for Active; 'I' for Inactive)
REMARK    1  A    between atoms: C1_2  and  C2_4 
REMARK    2  A    between atoms: C2_4  and  C3_6 
REMARK    3  A    between atoms: C3_6  and  C4_7 
ROOT
HETATM    1  C4  UNL     1       8.268  13.105  15.822  1.00  0.00     0.027 A 
HETATM    2  C5  UNL     1       9.113  12.758  14.810  1.00  0.00     0.114 A 
HETATM    3  N1  UNL     1       8.918  11.443  14.570  1.00  0.00    -0.360 N 
ATOM      4  H1  UNL     1       9.408  10.891  13.865  1.00  0.00     0.166 HD
HETATM    5  C6  UNL     1       7.976  10.981  15.410  1.00  0.00     0.180 A 
HETATM    6  N2  UNL     1       7.585  12.011  16.174  1.00  0.00    -0.355 N 
ATOM      7  H2  UNL     1       6.879  11.967  16.908  1.00  0.00     0.166 HD
ENDROOT
BRANCH   1   8
HETATM    8  C3  UNL     1       8.131  14.461  16.428  1.00  0.00     0.089 C 
BRANCH   8   9
HETATM    9  C2  UNL     1       8.514  15.528  15.453  1.00  0.00     0.188 C 
HETATM   10 CL1  UNL     1       9.205  16.931  16.290  1.00  0.00    -0.113 Cl
BRANCH   9  11
HETATM   11  C1  UNL     1       7.250  15.982  14.775  1.00  0.00     0.192 C 
HETATM   12  O1  UNL     1       6.133  15.822  15.291  1.00  0.00    -0.647 OA
HETATM   13  O2  UNL     1       7.363  16.599  13.528  1.00  0.00    -0.647 OA
ENDBRANCH   9  11
ENDBRANCH   8   9
ENDBRANCH   1   8
TORSDOF 3
ENDMDL
