MODEL 4
REMARK VINA RESULT: -5.334333759      3.746      4.717
REMARK  3 active torsions:
REMARK  status: ('A' for Active; 'I' for Inactive)
REMARK    1  A    between atoms: C1_2  and  C2_4 
REMARK    2  A    between atoms: C2_4  and  C3_6 
REMARK    3  A    between atoms: C3_6  and  C4_7 
ROOT
HETATM    1  C4  UNL     1       6.897  16.258  14.631  1.00  0.00     0.027 A 
HETATM    2  C5  UNL     1       6.255  17.301  15.228  1.00  0.00     0.114 A 
HETATM    3  N1  UNL     1       6.315  18.342  14.369  1.00  0.00    -0.360 N 
ATOM      4  H1  UNL     1       5.922  19.269  14.532  1.00  0.00     0.166 HD
HETATM    5  C6  UNL     1       6.977  17.958  13.264  1.00  0.00     0.180 A 
HETATM    6  N2  UNL     1       7.330  16.675  13.437  1.00  0.00    -0.355 N 
ATOM      7  H2  UNL     1       7.847  16.109  12.766  1.00  0.00     0.166 HD
ENDROOT
BRANCH   1   8
HETATM    8  C3  UNL     1       7.084  14.894  15.207  1.00  0.00     0.089 C 
BRANCH   8   9
HETATM    9  C2  UNL     1       8.534  14.570  15.367  1.00  0.00     0.188 C 
HETATM   10 CL1  UNL     1       8.867  12.898  14.879  1.00  0.00    -0.113 Cl
BRANCH   9  11
HETATM   11  C1  UNL     1       8.854  14.687  16.832  1.00  0.00     0.192 C 
HETATM   12  O1  UNL     1       8.998  13.689  17.556  1.00  0.00    -0.647 OA
HETATM   13  O2  UNL     1       8.990  15.967  17.371  1.00  0.00    -0.647 OA
ENDBRANCH   9  11
ENDBRANCH   8   9
ENDBRANCH   1   8
TORSDOF 3
ENDMDL
