MODEL 14
REMARK VINA RESULT: -4.887636427      1.882      2.308
REMARK  3 active torsions:
REMARK  status: ('A' for Active; 'I' for Inactive)
REMARK    1  A    between atoms: C1_2  and  C2_4 
REMARK    2  A    between atoms: C2_4  and  C3_6 
REMARK    3  A    between atoms: C3_6  and  C4_7 
ROOT
HETATM    1  C4  UNL     1       8.552  14.399  16.043  1.00  0.00     0.027 A 
HETATM    2  C5  UNL     1       8.717  13.298  16.829  1.00  0.00     0.114 A 
HETATM    3  N1  UNL     1       8.964  12.259  16.001  1.00  0.00    -0.360 N 
ATOM      4  H1  UNL     1       9.131  11.296  16.293  1.00  0.00     0.166 HD
HETATM    5  C6  UNL     1       8.953  12.701  14.731  1.00  0.00     0.180 A 
HETATM    6  N2  UNL     1       8.698  14.017  14.771  1.00  0.00    -0.355 N 
ATOM      7  H2  UNL     1       8.626  14.629  13.958  1.00  0.00     0.166 HD
ENDROOT
BRANCH   1   8
HETATM    8  C3  UNL     1       8.259  15.783  16.518  1.00  0.00     0.089 C 
BRANCH   8   9
HETATM    9  C2  UNL     1       8.310  16.762  15.390  1.00  0.00     0.188 C 
HETATM   10 CL1  UNL     1       9.831  17.675  15.411  1.00  0.00    -0.113 Cl
BRANCH   9  11
HETATM   11  C1  UNL     1       7.190  17.742  15.604  1.00  0.00     0.192 C 
HETATM   12  O1  UNL     1       7.210  18.575  16.524  1.00  0.00    -0.647 OA
HETATM   13  O2  UNL     1       6.104  17.696  14.728  1.00  0.00    -0.647 OA
ENDBRANCH   9  11
ENDBRANCH   8   9
ENDBRANCH   1   8
TORSDOF 3
ENDMDL
