MODEL 13
REMARK VINA RESULT: -4.964390658      1.190      1.783
REMARK  3 active torsions:
REMARK  status: ('A' for Active; 'I' for Inactive)
REMARK    1  A    between atoms: C1_2  and  C2_4 
REMARK    2  A    between atoms: C2_4  and  C3_6 
REMARK    3  A    between atoms: C3_6  and  C4_7 
ROOT
HETATM    1  C4  UNL     1       8.115  14.780  16.083  1.00  0.00     0.027 A 
HETATM    2  C5  UNL     1       8.361  14.107  14.924  1.00  0.00     0.114 A 
HETATM    3  N1  UNL     1       8.891  12.913  15.269  1.00  0.00    -0.360 N 
ATOM      4  H1  UNL     1       9.181  12.184  14.617  1.00  0.00     0.166 HD
HETATM    5  C6  UNL     1       8.973  12.843  16.608  1.00  0.00     0.180 A 
HETATM    6  N2  UNL     1       8.494  13.996  17.097  1.00  0.00    -0.355 N 
ATOM      7  H2  UNL     1       8.429  14.237  18.086  1.00  0.00     0.166 HD
ENDROOT
BRANCH   1   8
HETATM    8  C3  UNL     1       7.529  16.147  16.199  1.00  0.00     0.089 C 
BRANCH   8   9
HETATM    9  C2  UNL     1       8.018  17.039  15.104  1.00  0.00     0.188 C 
HETATM   10 CL1  UNL     1       8.805  18.483  15.768  1.00  0.00    -0.113 Cl
BRANCH   9  11
HETATM   11  C1  UNL     1       6.811  17.494  14.332  1.00  0.00     0.192 C 
HETATM   12  O1  UNL     1       6.785  17.496  13.091  1.00  0.00    -0.647 OA
HETATM   13  O2  UNL     1       5.696  17.925  15.054  1.00  0.00    -0.647 OA
ENDBRANCH   9  11
ENDBRANCH   8   9
ENDBRANCH   1   8
TORSDOF 3
ENDMDL
