MODEL 16
REMARK VINA RESULT: -4.824466161      2.878      3.380
REMARK  3 active torsions:
REMARK  status: ('A' for Active; 'I' for Inactive)
REMARK    1  A    between atoms: C1_2  and  C2_4 
REMARK    2  A    between atoms: C2_4  and  C3_6 
REMARK    3  A    between atoms: C3_6  and  C4_7 
ROOT
HETATM    1  C4  UNL     1       8.442  18.194  16.148  1.00  0.00     0.027 A 
HETATM    2  C5  UNL     1       9.035  17.836  17.321  1.00  0.00     0.114 A 
HETATM    3  N1  UNL     1      10.359  18.062  17.176  1.00  0.00    -0.360 N 
ATOM      4  H1  UNL     1      11.071  17.890  17.887  1.00  0.00     0.166 HD
HETATM    5  C6  UNL     1      10.587  18.549  15.944  1.00  0.00     0.180 A 
HETATM    6  N2  UNL     1       9.401  18.625  15.322  1.00  0.00    -0.355 N 
ATOM      7  H2  UNL     1       9.254  18.959  14.370  1.00  0.00     0.166 HD
ENDROOT
BRANCH   1   8
HETATM    8  C3  UNL     1       6.984  18.119  15.840  1.00  0.00     0.089 C 
BRANCH   8   9
HETATM    9  C2  UNL     1       6.691  17.003  14.889  1.00  0.00     0.188 C 
HETATM   10 CL1  UNL     1       7.858  15.682  15.085  1.00  0.00    -0.113 Cl
BRANCH   9  11
HETATM   11  C1  UNL     1       6.855  17.552  13.499  1.00  0.00     0.192 C 
HETATM   12  O1  UNL     1       7.869  17.329  12.819  1.00  0.00    -0.647 OA
HETATM   13  O2  UNL     1       5.822  18.333  12.978  1.00  0.00    -0.647 OA
ENDBRANCH   9  11
ENDBRANCH   8   9
ENDBRANCH   1   8
TORSDOF 3
ENDMDL
