MODEL 11
REMARK VINA RESULT: -5.030722220      1.954      2.445
REMARK  3 active torsions:
REMARK  status: ('A' for Active; 'I' for Inactive)
REMARK    1  A    between atoms: C1_2  and  C2_4 
REMARK    2  A    between atoms: C2_4  and  C3_6 
REMARK    3  A    between atoms: C3_6  and  C4_7 
ROOT
HETATM    1  C4  UNL     1       8.412  13.823  16.005  1.00  0.00     0.027 A 
HETATM    2  C5  UNL     1       8.939  13.380  14.829  1.00  0.00     0.114 A 
HETATM    3  N1  UNL     1       8.616  12.073  14.722  1.00  0.00    -0.360 N 
ATOM      4  H1  UNL     1       8.870  11.461  13.947  1.00  0.00     0.166 HD
HETATM    5  C6  UNL     1       7.904  11.709  15.803  1.00  0.00     0.180 A 
HETATM    6  N2  UNL     1       7.787  12.793  16.584  1.00  0.00    -0.355 N 
ATOM      7  H2  UNL     1       7.298  12.827  17.478  1.00  0.00     0.166 HD
ENDROOT
BRANCH   1   8
HETATM    8  C3  UNL     1       8.515  15.208  16.548  1.00  0.00     0.089 C 
BRANCH   8   9
HETATM    9  C2  UNL     1       7.463  16.096  15.965  1.00  0.00     0.188 C 
HETATM   10 CL1  UNL     1       6.073  15.147  15.406  1.00  0.00    -0.113 Cl
BRANCH   9  11
HETATM   11  C1  UNL     1       8.068  16.767  14.762  1.00  0.00     0.192 C 
HETATM   12  O1  UNL     1       7.501  16.774  13.658  1.00  0.00    -0.647 OA
HETATM   13  O2  UNL     1       9.305  17.395  14.917  1.00  0.00    -0.647 OA
ENDBRANCH   9  11
ENDBRANCH   8   9
ENDBRANCH   1   8
TORSDOF 3
ENDMDL
