MODEL 2
REMARK VINA RESULT: -8.980723675      5.348      9.134
REMARK  7 active torsions:
REMARK  status: ('A' for Active; 'I' for Inactive)
REMARK    1  A    between atoms: C2_2  and  N1_3 
REMARK    2  A    between atoms: N4_15  and  C8_16 
REMARK    3  A    between atoms: C8_16  and  C9_17 
REMARK    4  A    between atoms: C12_20  and  C13_21 
REMARK    5  A    between atoms: C13_21  and  N5_22 
REMARK    6  A    between atoms: N5_22  and  S1_24 
REMARK    7  A    between atoms: S1_24  and  C14_27 
ROOT
HETATM    1  C9  UNL     1      58.914  -1.734  11.409  1.00  0.00    -0.040 A 
HETATM    2  C10 UNL     1      58.218  -0.554  11.150  1.00  0.00     0.009 A 
HETATM    3  C11 UNL     1      58.290   0.049   9.914  1.00  0.00     0.009 A 
HETATM    4  C12 UNL     1      59.053  -0.499   8.903  1.00  0.00    -0.040 A 
HETATM    5  C24 UNL     1      59.735  -1.659   9.164  1.00  0.00     0.009 A 
HETATM    6  C25 UNL     1      59.666  -2.273  10.410  1.00  0.00     0.009 A 
ENDROOT
BRANCH   4   7
HETATM    7  C13 UNL     1      59.157   0.120   7.564  1.00  0.00     0.170 C 
BRANCH   7   8
HETATM    8  N5  UNL     1      59.946   1.319   7.654  1.00  0.00    -0.311 N 
ATOM      9  H5  UNL     1      60.831   1.432   8.148  1.00  0.00     0.172 HD
BRANCH   8  10
HETATM   10  S1  UNL     1      59.091   2.541   6.753  1.00  0.00     0.259 S 
HETATM   11  O3  UNL     1      58.092   1.822   5.882  1.00  0.00    -0.201 OA
HETATM   12  O4  UNL     1      60.040   3.253   5.840  1.00  0.00    -0.201 OA
BRANCH  10  13
HETATM   13  C14 UNL     1      58.244   3.624   7.818  1.00  0.00     0.080 A 
HETATM   14  C15 UNL     1      58.214   4.990   7.632  1.00  0.00     0.027 A 
HETATM   15  C16 UNL     1      57.529   5.824   8.500  1.00  0.00     0.031 A 
HETATM   16  C17 UNL     1      56.860   5.300   9.573  1.00  0.00     0.041 A 
HETATM   17  C18 UNL     1      56.892   3.928   9.757  1.00  0.00    -0.030 A 
HETATM   18  N6  UNL     1      56.211   6.323  10.357  1.00  0.00    -0.327 N 
HETATM   19  C19 UNL     1      57.566   3.074   8.909  1.00  0.00     0.034 A 
HETATM   20  C20 UNL     1      56.204   3.227  10.889  1.00  0.00     0.041 C 
HETATM   21  C21 UNL     1      54.766   3.693  10.866  1.00  0.00     0.014 C 
HETATM   22  C22 UNL     1      54.528   4.852  11.800  1.00  0.00     0.103 C 
HETATM   23  C23 UNL     1      55.304   6.055  11.421  1.00  0.00     0.222 C 
HETATM   24  O5  UNL     1      55.118   7.024  12.196  1.00  0.00    -0.273 OA
ATOM     25  H6  UNL     1      56.415   7.298  10.135  1.00  0.00     0.169 HD
ENDBRANCH  10  13
ENDBRANCH   8  10
ENDBRANCH   7   8
ENDBRANCH   4   7
BRANCH   1  26
HETATM   26  C8  UNL     1      58.770  -2.301  12.769  1.00  0.00     0.174 C 
BRANCH  26  27
HETATM   27  N4  UNL     1      59.969  -2.227  13.548  1.00  0.00    -0.279 N 
HETATM   28  C4  UNL     1      60.907  -3.182  13.544  1.00  0.00     0.145 A 
HETATM   29  N2  UNL     1      60.995  -4.342  12.895  1.00  0.00    -0.336 N 
HETATM   30  C5  UNL     1      62.063  -3.096  14.304  1.00  0.00     0.149 A 
HETATM   31  C3  UNL     1      62.162  -4.961  13.235  1.00  0.00     0.185 A 
ATOM     32  H2  UNL     1      60.298  -4.710  12.246  1.00  0.00     0.168 HD
HETATM   33  N1  UNL     1      62.828  -4.186  14.113  1.00  0.00    -0.336 N 
HETATM   34  C6  UNL     1      62.243  -1.977  15.094  1.00  0.00     0.280 A 
HETATM   35  O1  UNL     1      63.290  -1.888  15.788  1.00  0.00    -0.265 OA
HETATM   36  N3  UNL     1      61.294  -1.026  15.088  1.00  0.00    -0.273 N 
HETATM   37  C7  UNL     1      60.174  -1.151  14.326  1.00  0.00     0.331 A 
ATOM     38  H3  UNL     1      61.416  -0.194  15.665  1.00  0.00     0.173 HD
HETATM   39  O2  UNL     1      59.345  -0.210  14.389  1.00  0.00    -0.246 OA
BRANCH  33  40
HETATM   40  C2  UNL     1      64.103  -4.527  14.687  1.00  0.00     0.126 C 
HETATM   41  C1  UNL     1      65.224  -4.300  13.719  1.00  0.00     0.027 C 
ENDBRANCH  33  40
ENDBRANCH  26  27
ENDBRANCH   1  26
TORSDOF 7
ENDMDL
