MODEL 1
REMARK VINA RESULT: -9.014101591      0.000      0.000
REMARK  7 active torsions:
REMARK  status: ('A' for Active; 'I' for Inactive)
REMARK    1  A    between atoms: C2_2  and  N1_3 
REMARK    2  A    between atoms: N4_15  and  C8_16 
REMARK    3  A    between atoms: C8_16  and  C9_17 
REMARK    4  A    between atoms: C12_20  and  C13_21 
REMARK    5  A    between atoms: C13_21  and  N5_22 
REMARK    6  A    between atoms: N5_22  and  S1_24 
REMARK    7  A    between atoms: S1_24  and  C14_27 
ROOT
HETATM    1  C9  UNL     1      58.802   2.360   3.678  1.00  0.00    -0.040 A 
HETATM    2  C10 UNL     1      59.844   1.496   4.014  1.00  0.00     0.009 A 
HETATM    3  C11 UNL     1      59.685   0.554   5.005  1.00  0.00     0.009 A 
HETATM    4  C12 UNL     1      58.493   0.442   5.692  1.00  0.00    -0.040 A 
HETATM    5  C24 UNL     1      57.473   1.295   5.357  1.00  0.00     0.009 A 
HETATM    6  C25 UNL     1      57.626   2.248   4.357  1.00  0.00     0.009 A 
ENDROOT
BRANCH   4   7
HETATM    7  C13 UNL     1      58.286  -0.554   6.764  1.00  0.00     0.170 C 
BRANCH   7   8
HETATM    8  N5  UNL     1      57.309  -0.057   7.694  1.00  0.00    -0.311 N 
ATOM      9  H5  UNL     1      56.295  -0.137   7.616  1.00  0.00     0.172 HD
BRANCH   8  10
HETATM   10  S1  UNL     1      58.198   0.710   8.981  1.00  0.00     0.259 S 
HETATM   11  O3  UNL     1      59.650   0.696   8.577  1.00  0.00    -0.201 OA
HETATM   12  O4  UNL     1      58.081  -0.105  10.232  1.00  0.00    -0.201 OA
BRANCH  10  13
HETATM   13  C14 UNL     1      57.683   2.356   9.203  1.00  0.00     0.080 A 
HETATM   14  C15 UNL     1      57.994   3.368   8.319  1.00  0.00     0.027 A 
HETATM   15  C16 UNL     1      57.567   4.668   8.527  1.00  0.00     0.031 A 
HETATM   16  C17 UNL     1      56.815   4.978   9.629  1.00  0.00     0.041 A 
HETATM   17  C18 UNL     1      56.503   3.960  10.514  1.00  0.00    -0.030 A 
HETATM   18  N6  UNL     1      56.469   6.378   9.669  1.00  0.00    -0.327 N 
HETATM   19  C19 UNL     1      56.916   2.656  10.332  1.00  0.00     0.034 A 
HETATM   20  C20 UNL     1      55.691   4.162  11.757  1.00  0.00     0.041 C 
HETATM   21  C21 UNL     1      54.418   4.854  11.324  1.00  0.00     0.014 C 
HETATM   22  C22 UNL     1      54.507   6.352  11.467  1.00  0.00     0.103 C 
HETATM   23  C23 UNL     1      55.552   6.944  10.600  1.00  0.00     0.222 C 
HETATM   24  O5  UNL     1      55.639   8.190  10.715  1.00  0.00    -0.273 OA
ATOM     25  H6  UNL     1      56.907   7.000   8.990  1.00  0.00     0.169 HD
ENDBRANCH  10  13
ENDBRANCH   8  10
ENDBRANCH   7   8
ENDBRANCH   4   7
BRANCH   1  26
HETATM   26  C8  UNL     1      59.074   3.336   2.598  1.00  0.00     0.174 C 
BRANCH  26  27
HETATM   27  N4  UNL     1      59.363   4.653   3.080  1.00  0.00    -0.279 N 
HETATM   28  C4  UNL     1      60.584   5.041   3.469  1.00  0.00     0.145 A 
HETATM   29  N2  UNL     1      61.750   4.397   3.519  1.00  0.00    -0.336 N 
HETATM   30  C5  UNL     1      60.848   6.320   3.933  1.00  0.00     0.149 A 
HETATM   31  C3  UNL     1      62.710   5.242   3.997  1.00  0.00     0.185 A 
ATOM     32  H2  UNL     1      61.900   3.427   3.244  1.00  0.00     0.168 HD
HETATM   33  N1  UNL     1      62.149   6.439   4.255  1.00  0.00    -0.336 N 
HETATM   34  C6  UNL     1      59.803   7.222   3.992  1.00  0.00     0.280 A 
HETATM   35  O1  UNL     1      60.033   8.387   4.411  1.00  0.00    -0.265 OA
HETATM   36  N3  UNL     1      58.584   6.820   3.597  1.00  0.00    -0.273 N 
HETATM   37  C7  UNL     1      58.368   5.554   3.148  1.00  0.00     0.331 A 
ATOM     38  H3  UNL     1      57.805   7.477   3.634  1.00  0.00     0.173 HD
HETATM   39  O2  UNL     1      57.195   5.274   2.803  1.00  0.00    -0.246 OA
BRANCH  33  40
HETATM   40  C2  UNL     1      62.869   7.573   4.773  1.00  0.00     0.126 C 
HETATM   41  C1  UNL     1      63.554   8.338   3.682  1.00  0.00     0.027 C 
ENDBRANCH  33  40
ENDBRANCH  26  27
ENDBRANCH   1  26
TORSDOF 7
ENDMDL
