MODEL 3
REMARK VINA RESULT: -8.800266125      1.761      2.304
REMARK  7 active torsions:
REMARK  status: ('A' for Active; 'I' for Inactive)
REMARK    1  A    between atoms: C2_2  and  N1_3 
REMARK    2  A    between atoms: N4_15  and  C8_16 
REMARK    3  A    between atoms: C8_16  and  C9_17 
REMARK    4  A    between atoms: C12_20  and  C13_21 
REMARK    5  A    between atoms: C13_21  and  N5_22 
REMARK    6  A    between atoms: N5_22  and  S1_24 
REMARK    7  A    between atoms: S1_24  and  C14_27 
ROOT
HETATM    1  C9  UNL     1      58.631   4.474   4.278  1.00  0.00    -0.040 A 
HETATM    2  C10 UNL     1      57.745   3.397   4.298  1.00  0.00     0.009 A 
HETATM    3  C11 UNL     1      58.039   2.259   5.015  1.00  0.00     0.009 A 
HETATM    4  C12 UNL     1      59.216   2.155   5.728  1.00  0.00    -0.040 A 
HETATM    5  C24 UNL     1      60.082   3.217   5.703  1.00  0.00     0.009 A 
HETATM    6  C25 UNL     1      59.792   4.370   4.982  1.00  0.00     0.009 A 
ENDROOT
BRANCH   4   7
HETATM    7  C13 UNL     1      59.568   0.949   6.506  1.00  0.00     0.170 C 
BRANCH   7   8
HETATM    8  N5  UNL     1      59.789   1.315   7.879  1.00  0.00    -0.311 N 
ATOM      9  H5  UNL     1      60.673   1.601   8.300  1.00  0.00     0.172 HD
BRANCH   8  10
HETATM   10  S1  UNL     1      58.250   1.172   8.682  1.00  0.00     0.259 S 
HETATM   11  O3  UNL     1      58.488   0.388   9.947  1.00  0.00    -0.201 OA
HETATM   12  O4  UNL     1      57.310   0.370   7.836  1.00  0.00    -0.201 OA
BRANCH  10  13
HETATM   13  C14 UNL     1      57.612   2.737   9.093  1.00  0.00     0.080 A 
HETATM   14  C15 UNL     1      57.784   3.852   8.300  1.00  0.00     0.027 A 
HETATM   15  C16 UNL     1      57.262   5.083   8.658  1.00  0.00     0.031 A 
HETATM   16  C17 UNL     1      56.556   5.219   9.823  1.00  0.00     0.041 A 
HETATM   17  C18 UNL     1      56.384   4.098  10.617  1.00  0.00    -0.030 A 
HETATM   18  N6  UNL     1      56.096   6.572  10.021  1.00  0.00    -0.327 N 
HETATM   19  C19 UNL     1      56.893   2.859  10.285  1.00  0.00     0.034 A 
HETATM   20  C20 UNL     1      55.634   4.108  11.914  1.00  0.00     0.041 C 
HETATM   21  C21 UNL     1      54.283   4.721  11.619  1.00  0.00     0.014 C 
HETATM   22  C22 UNL     1      54.255   6.201  11.906  1.00  0.00     0.103 C 
HETATM   23  C23 UNL     1      55.193   6.963  11.049  1.00  0.00     0.222 C 
HETATM   24  O5  UNL     1      55.182   8.196  11.284  1.00  0.00    -0.273 OA
ATOM     25  H6  UNL     1      56.439   7.292   9.385  1.00  0.00     0.169 HD
ENDBRANCH  10  13
ENDBRANCH   8  10
ENDBRANCH   7   8
ENDBRANCH   4   7
BRANCH   1  26
HETATM   26  C8  UNL     1      58.221   5.651   3.477  1.00  0.00     0.174 C 
BRANCH  26  27
HETATM   27  N4  UNL     1      59.316   6.315   2.837  1.00  0.00    -0.279 N 
HETATM   28  C4  UNL     1      59.940   7.377   3.364  1.00  0.00     0.145 A 
HETATM   29  N2  UNL     1      59.752   8.048   4.499  1.00  0.00    -0.336 N 
HETATM   30  C5  UNL     1      60.999   8.009   2.732  1.00  0.00     0.149 A 
HETATM   31  C3  UNL     1      60.660   9.064   4.577  1.00  0.00     0.185 A 
ATOM     32  H2  UNL     1      59.041   7.836   5.199  1.00  0.00     0.168 HD
HETATM   33  N1  UNL     1      61.437   9.040   3.476  1.00  0.00    -0.336 N 
HETATM   34  C6  UNL     1      61.419   7.517   1.511  1.00  0.00     0.280 A 
HETATM   35  O1  UNL     1      62.381   8.084   0.929  1.00  0.00    -0.265 OA
HETATM   36  N3  UNL     1      60.785   6.451   0.995  1.00  0.00    -0.273 N 
HETATM   37  C7  UNL     1      59.748   5.861   1.649  1.00  0.00     0.331 A 
ATOM     38  H3  UNL     1      61.086   6.077   0.095  1.00  0.00     0.173 HD
HETATM   39  O2  UNL     1      59.220   4.871   1.085  1.00  0.00    -0.246 OA
BRANCH  33  40
HETATM   40  C2  UNL     1      62.505   9.971   3.222  1.00  0.00     0.126 C 
HETATM   41  C1  UNL     1      62.989  10.615   4.485  1.00  0.00     0.027 C 
ENDBRANCH  33  40
ENDBRANCH  26  27
ENDBRANCH   1  26
TORSDOF 7
ENDMDL
