MODEL 1
REMARK VINA RESULT: -6.420141083      0.000      0.000
REMARK  1 active torsions:
REMARK  status: ('A' for Active; 'I' for Inactive)
REMARK    1  A    between atoms: C1_2  and  C2_4 
ROOT
HETATM    1  C2  UNL     1     134.017   4.931  69.161  1.00  0.00     0.111 A 
HETATM    2  C3  UNL     1     134.568   4.569  70.382  1.00  0.00     0.038 A 
HETATM    3  C4  UNL     1     134.259   3.357  70.996  1.00  0.00     0.018 A 
HETATM    4  C5  UNL     1     133.389   2.482  70.397  1.00  0.00     0.008 A 
HETATM    5  C6  UNL     1     133.069   1.272  70.992  1.00  0.00     0.016 A 
HETATM    6  C7  UNL     1     132.186   0.424  70.347  1.00  0.00     0.018 A 
HETATM    7  C8  UNL     1     131.674   0.838  69.142  1.00  0.00     0.089 A 
HETATM    8  N1  UNL     1     131.999   2.016  68.584  1.00  0.00    -0.352 N 
ATOM      9  H1  UNL     1     131.587   2.271  67.686  1.00  0.00     0.166 HD
HETATM   10  C9  UNL     1     132.853   2.869  69.179  1.00  0.00     0.116 A 
HETATM   11  N2  UNL     1     133.169   4.045  68.609  1.00  0.00    -0.336 N 
ATOM     12  H2  UNL     1     132.744   4.277  67.711  1.00  0.00     0.168 HD
ENDROOT
BRANCH   1  13
HETATM   13  C1  UNL     1     134.343   6.199  68.523  1.00  0.00     0.226 C 
HETATM   14  O1  UNL     1     135.000   7.099  69.100  1.00  0.00    -0.643 OA
HETATM   15  O2  UNL     1     133.917   6.432  67.227  1.00  0.00    -0.643 OA
ENDBRANCH   1  13
TORSDOF 1
ENDMDL
