MODEL 3
REMARK VINA RESULT: -6.097633585      1.333      2.083
REMARK  1 active torsions:
REMARK  status: ('A' for Active; 'I' for Inactive)
REMARK    1  A    between atoms: C1_2  and  C2_4 
ROOT
HETATM    1  C2  UNL     1     133.622   4.682  68.836  1.00  0.00     0.111 A 
HETATM    2  C3  UNL     1     132.670   3.929  68.163  1.00  0.00     0.038 A 
HETATM    3  C4  UNL     1     132.275   2.672  68.616  1.00  0.00     0.018 A 
HETATM    4  C5  UNL     1     132.829   2.143  69.755  1.00  0.00     0.008 A 
HETATM    5  C6  UNL     1     132.450   0.895  70.221  1.00  0.00     0.016 A 
HETATM    6  C7  UNL     1     133.038   0.407  71.375  1.00  0.00     0.018 A 
HETATM    7  C8  UNL     1     133.973   1.199  71.995  1.00  0.00     0.089 A 
HETATM    8  N1  UNL     1     134.325   2.406  71.525  1.00  0.00    -0.352 N 
ATOM      9  H1  UNL     1     135.026   2.950  72.027  1.00  0.00     0.166 HD
HETATM   10  C9  UNL     1     133.777   2.917  70.406  1.00  0.00     0.116 A 
HETATM   11  N2  UNL     1     134.139   4.127  69.946  1.00  0.00    -0.336 N 
ATOM     12  H2  UNL     1     134.842   4.652  70.467  1.00  0.00     0.168 HD
ENDROOT
BRANCH   1  13
HETATM   13  C1  UNL     1     134.031   5.996  68.358  1.00  0.00     0.226 C 
HETATM   14  O1  UNL     1     134.732   6.779  69.043  1.00  0.00    -0.643 OA
HETATM   15  O2  UNL     1     133.638   6.407  67.097  1.00  0.00    -0.643 OA
ENDBRANCH   1  13
TORSDOF 1
ENDMDL
