MODEL 2
REMARK VINA RESULT: -6.348047489     13.420     14.105
REMARK  1 active torsions:
REMARK  status: ('A' for Active; 'I' for Inactive)
REMARK    1  A    between atoms: C1_2  and  C2_4 
ROOT
HETATM    1  C2  UNL     1     121.638  12.227  71.695  1.00  0.00     0.111 A 
HETATM    2  C3  UNL     1     122.385  12.056  70.538  1.00  0.00     0.038 A 
HETATM    3  C4  UNL     1     123.729  11.689  70.579  1.00  0.00     0.018 A 
HETATM    4  C5  UNL     1     124.352  11.486  71.785  1.00  0.00     0.008 A 
HETATM    5  C6  UNL     1     125.687  11.121  71.847  1.00  0.00     0.016 A 
HETATM    6  C7  UNL     1     126.269  10.929  73.088  1.00  0.00     0.018 A 
HETATM    7  C8  UNL     1     125.479  11.114  74.196  1.00  0.00     0.089 A 
HETATM    8  N1  UNL     1     124.186  11.469  74.111  1.00  0.00    -0.352 N 
ATOM      9  H1  UNL     1     123.648  11.592  74.968  1.00  0.00     0.166 HD
HETATM   10  C9  UNL     1     123.583  11.665  72.924  1.00  0.00     0.116 A 
HETATM   11  N2  UNL     1     122.288  12.020  72.854  1.00  0.00    -0.336 N 
ATOM     12  H2  UNL     1     121.771  12.137  73.726  1.00  0.00     0.168 HD
ENDROOT
BRANCH   1  13
HETATM   13  C1  UNL     1     120.234  12.611  71.646  1.00  0.00     0.226 C 
HETATM   14  O1  UNL     1     119.853  13.802  71.754  1.00  0.00    -0.643 OA
HETATM   15  O2  UNL     1     119.273  11.632  71.473  1.00  0.00    -0.643 OA
ENDBRANCH   1  13
TORSDOF 1
ENDMDL
