MODEL 6
REMARK VINA RESULT: -10.292014481      2.445      5.207
REMARK  11 active torsions:
REMARK  status: ('A' for Active; 'I' for Inactive)
REMARK    1  A    between atoms: C4_4  and  C5_5 
REMARK    2  A    between atoms: C5_5  and  S1_6 
REMARK    3  A    between atoms: S1_6  and  C6_7 
REMARK    4  A    between atoms: C6_7  and  C7_8 
REMARK    5  A    between atoms: C11_15  and  C12_16 
REMARK    6  A    between atoms: C17_21  and  C18_22 
REMARK    7  A    between atoms: C18_22  and  C19_23 
REMARK    8  A    between atoms: C19_23  and  C20_24 
REMARK    9  A    between atoms: C20_24  and  O1_25 
REMARK   10  A    between atoms: O1_25  and  C21_26 
REMARK   11  A    between atoms: C31_36  and  C32_37 
ROOT
HETATM    1  C12 UNL     1      11.902  -0.444  29.073  1.00  0.00     0.006 A 
HETATM    2  C13 UNL     1      10.549  -0.803  29.116  1.00  0.00     0.015 A 
HETATM    3  C14 UNL     1       9.820  -0.968  27.963  1.00  0.00     0.002 A 
HETATM    4  C15 UNL     1      10.394  -0.783  26.732  1.00  0.00     0.014 A 
HETATM    5  C16 UNL     1      11.719  -0.429  26.656  1.00  0.00     0.000 A 
HETATM    6  C17 UNL     1      12.544  -0.167  25.541  1.00  0.00    -0.012 A 
HETATM    7  C31 UNL     1      13.753   0.154  26.082  1.00  0.00     0.117 A 
HETATM    8  N3  UNL     1      13.686   0.091  27.441  1.00  0.00    -0.349 N 
ATOM      9  H3  UNL     1      14.458   0.284  28.079  1.00  0.00     0.166 HD
HETATM   10  C33 UNL     1      12.441  -0.266  27.811  1.00  0.00     0.055 A 
ENDROOT
BRANCH   1  11
HETATM   11  C11 UNL     1      12.666  -0.339  30.309  1.00  0.00     0.025 A 
HETATM   12  C7  UNL     1      13.304  -1.249  31.074  1.00  0.00     0.048 A 
HETATM   13  N1  UNL     1      13.884  -0.573  32.095  1.00  0.00    -0.301 N 
HETATM   14  N2  UNL     1      13.654   0.716  32.025  1.00  0.00    -0.300 N 
ATOM     15  H1  UNL     1      14.435  -1.015  32.832  1.00  0.00     0.187 HD
HETATM   16  C8  UNL     1      14.143   1.706  32.953  1.00  0.00     0.177 C 
HETATM   17  C9  UNL     1      12.898   0.900  30.927  1.00  0.00     0.037 A 
HETATM   18  C10 UNL     1      12.388   2.212  30.455  1.00  0.00     0.071 C 
BRANCH  12  19
HETATM   19  C6  UNL     1      13.361  -2.718  30.817  1.00  0.00     0.133 C 
BRANCH  19  20
HETATM   20  S1  UNL     1      14.801  -3.192  29.881  1.00  0.00    -0.157 SA
BRANCH  20  21
HETATM   21  C5  UNL     1      15.864  -1.883  29.312  1.00  0.00     0.132 C 
BRANCH  21  22
HETATM   22  C4  UNL     1      17.134  -2.346  28.763  1.00  0.00     0.037 A 
HETATM   23  C3  UNL     1      18.151  -2.978  29.489  1.00  0.00     0.053 A 
HETATM   24  C2  UNL     1      19.171  -3.249  28.622  1.00  0.00     0.026 A 
HETATM   25  C1  UNL     1      20.477  -3.917  28.875  1.00  0.00     0.070 C 
HETATM   26  N5  UNL     1      18.792  -2.800  27.411  1.00  0.00    -0.301 N 
HETATM   27  N4  UNL     1      17.572  -2.266  27.516  1.00  0.00    -0.302 N 
HETATM   28  C34 UNL     1      19.545  -2.849  26.149  1.00  0.00     0.177 C 
ATOM     29  H4  UNL     1      17.051  -1.853  26.742  1.00  0.00     0.186 HD
ENDBRANCH  21  22
ENDBRANCH  20  21
ENDBRANCH  19  20
ENDBRANCH  12  19
ENDBRANCH   1  11
BRANCH   6  30
HETATM   30  C18 UNL     1      12.099  -0.319  24.158  1.00  0.00     0.044 C 
BRANCH  30  31
HETATM   31  C19 UNL     1      11.891   0.973  23.400  1.00  0.00     0.031 C 
BRANCH  31  32
HETATM   32  C20 UNL     1      10.551   1.594  23.879  1.00  0.00     0.176 C 
BRANCH  32  33
HETATM   33  O1  UNL     1       9.504   0.740  23.533  1.00  0.00    -0.350 OA
BRANCH  33  34
HETATM   34  C21 UNL     1       8.176   0.842  23.773  1.00  0.00     0.079 A 
HETATM   35  C22 UNL     1       7.571   1.839  24.470  1.00  0.00     0.037 A 
HETATM   36  C23 UNL     1       6.189   1.903  24.696  1.00  0.00     0.004 A 
HETATM   37  C24 UNL     1       5.402   0.894  24.177  1.00  0.00     0.012 A 
HETATM   38  C25 UNL     1       5.984  -0.133  23.462  1.00  0.00    -0.023 A 
HETATM   39  C26 UNL     1       5.163  -1.151  22.943  1.00  0.00     0.012 A 
HETATM   40  C30 UNL     1       7.328  -0.176  23.255  1.00  0.00     0.007 A 
HETATM   41  C27 UNL     1       5.779  -2.175  22.227  1.00  0.00     0.001 A 
HETATM   42  C28 UNL     1       7.138  -2.220  22.015  1.00  0.00     0.001 A 
HETATM   43  C29 UNL     1       7.923  -1.206  22.535  1.00  0.00     0.015 A 
ENDBRANCH  33  34
ENDBRANCH  32  33
ENDBRANCH  31  32
ENDBRANCH  30  31
ENDBRANCH   6  30
BRANCH   7  44
HETATM   44  C32 UNL     1      14.958   0.521  25.321  1.00  0.00     0.227 C 
HETATM   45  O2  UNL     1      14.980   1.551  24.617  1.00  0.00    -0.643 OA
HETATM   46  O3  UNL     1      16.088  -0.275  25.373  1.00  0.00    -0.643 OA
ENDBRANCH   7  44
TORSDOF 11
ENDMDL
