MODEL 1
REMARK VINA RESULT: -10.946839021      0.000      0.000
REMARK  11 active torsions:
REMARK  status: ('A' for Active; 'I' for Inactive)
REMARK    1  A    between atoms: C4_4  and  C5_5 
REMARK    2  A    between atoms: C5_5  and  S1_6 
REMARK    3  A    between atoms: S1_6  and  C6_7 
REMARK    4  A    between atoms: C6_7  and  C7_8 
REMARK    5  A    between atoms: C11_15  and  C12_16 
REMARK    6  A    between atoms: C17_21  and  C18_22 
REMARK    7  A    between atoms: C18_22  and  C19_23 
REMARK    8  A    between atoms: C19_23  and  C20_24 
REMARK    9  A    between atoms: C20_24  and  O1_25 
REMARK   10  A    between atoms: O1_25  and  C21_26 
REMARK   11  A    between atoms: C31_36  and  C32_37 
ROOT
HETATM    1  C12 UNL     1      11.889  -0.705  29.279  1.00  0.00     0.006 A 
HETATM    2  C13 UNL     1      10.539  -1.064  29.369  1.00  0.00     0.015 A 
HETATM    3  C14 UNL     1       9.737  -1.100  28.253  1.00  0.00     0.002 A 
HETATM    4  C15 UNL     1      10.233  -0.782  27.016  1.00  0.00     0.014 A 
HETATM    5  C16 UNL     1      11.554  -0.424  26.895  1.00  0.00     0.000 A 
HETATM    6  C17 UNL     1      12.309  -0.041  25.765  1.00  0.00    -0.012 A 
HETATM    7  C31 UNL     1      13.552   0.216  26.260  1.00  0.00     0.117 A 
HETATM    8  N3  UNL     1      13.571   0.004  27.606  1.00  0.00    -0.349 N 
ATOM      9  H3  UNL     1      14.384   0.124  28.210  1.00  0.00     0.166 HD
HETATM   10  C33 UNL     1      12.348  -0.390  28.013  1.00  0.00     0.055 A 
ENDROOT
BRANCH   1  11
HETATM   11  C11 UNL     1      12.731  -0.738  30.467  1.00  0.00     0.025 A 
HETATM   12  C7  UNL     1      12.831   0.067  31.545  1.00  0.00     0.048 A 
HETATM   13  N1  UNL     1      13.766  -0.476  32.362  1.00  0.00    -0.301 N 
HETATM   14  N2  UNL     1      14.268  -1.582  31.867  1.00  0.00    -0.300 N 
ATOM     15  H1  UNL     1      14.047  -0.072  33.256  1.00  0.00     0.187 HD
HETATM   16  C8  UNL     1      15.271  -2.403  32.500  1.00  0.00     0.177 C 
HETATM   17  C9  UNL     1      13.650  -1.777  30.688  1.00  0.00     0.037 A 
HETATM   18  C10 UNL     1      13.909  -2.914  29.768  1.00  0.00     0.071 C 
BRANCH  12  19
HETATM   19  C6  UNL     1      12.038   1.309  31.781  1.00  0.00     0.133 C 
BRANCH  19  20
HETATM   20  S1  UNL     1      12.792   2.749  31.053  1.00  0.00    -0.157 SA
BRANCH  20  21
HETATM   21  C5  UNL     1      12.430   3.074  29.340  1.00  0.00     0.132 C 
BRANCH  21  22
HETATM   22  C4  UNL     1      11.053   3.490  29.094  1.00  0.00     0.037 A 
HETATM   23  C3  UNL     1      10.141   2.829  28.263  1.00  0.00     0.053 A 
HETATM   24  C2  UNL     1       8.969   3.531  28.294  1.00  0.00     0.026 A 
HETATM   25  C1  UNL     1       7.681   3.256  27.600  1.00  0.00     0.070 C 
HETATM   26  N5  UNL     1       9.158   4.581  29.115  1.00  0.00    -0.301 N 
HETATM   27  N4  UNL     1      10.408   4.538  29.583  1.00  0.00    -0.302 N 
HETATM   28  C34 UNL     1       8.199   5.637  29.471  1.00  0.00     0.177 C 
ATOM     29  H4  UNL     1      10.809   5.219  30.228  1.00  0.00     0.186 HD
ENDBRANCH  21  22
ENDBRANCH  20  21
ENDBRANCH  19  20
ENDBRANCH  12  19
ENDBRANCH   1  11
BRANCH   6  30
HETATM   30  C18 UNL     1      11.776  -0.040  24.405  1.00  0.00     0.044 C 
BRANCH  30  31
HETATM   31  C19 UNL     1      11.576   1.328  23.791  1.00  0.00     0.031 C 
BRANCH  31  32
HETATM   32  C20 UNL     1      10.165   1.831  24.203  1.00  0.00     0.176 C 
BRANCH  32  33
HETATM   33  O1  UNL     1       9.199   1.028  23.597  1.00  0.00    -0.350 OA
BRANCH  33  34
HETATM   34  C21 UNL     1       7.859   0.988  23.771  1.00  0.00     0.079 A 
HETATM   35  C22 UNL     1       7.116   1.926  24.416  1.00  0.00     0.037 A 
HETATM   36  C23 UNL     1       5.726   1.842  24.575  1.00  0.00     0.004 A 
HETATM   37  C24 UNL     1       5.079   0.743  24.044  1.00  0.00     0.012 A 
HETATM   38  C25 UNL     1       5.803  -0.227  23.381  1.00  0.00    -0.023 A 
HETATM   39  C26 UNL     1       5.124  -1.339  22.849  1.00  0.00     0.012 A 
HETATM   40  C30 UNL     1       7.153  -0.127  23.239  1.00  0.00     0.007 A 
HETATM   41  C27 UNL     1       5.882  -2.302  22.187  1.00  0.00     0.001 A 
HETATM   42  C28 UNL     1       7.247  -2.201  22.040  1.00  0.00     0.001 A 
HETATM   43  C29 UNL     1       7.890  -1.098  22.572  1.00  0.00     0.015 A 
ENDBRANCH  33  34
ENDBRANCH  32  33
ENDBRANCH  31  32
ENDBRANCH  30  31
ENDBRANCH   6  30
BRANCH   7  44
HETATM   44  C32 UNL     1      14.710   0.663  25.468  1.00  0.00     0.227 C 
HETATM   45  O2  UNL     1      15.166   1.817  25.599  1.00  0.00    -0.643 OA
HETATM   46  O3  UNL     1      15.310  -0.193  24.562  1.00  0.00    -0.643 OA
ENDBRANCH   7  44
TORSDOF 11
ENDMDL
