MODEL 12
REMARK VINA RESULT: -10.072180131      2.917      5.822
REMARK  11 active torsions:
REMARK  status: ('A' for Active; 'I' for Inactive)
REMARK    1  A    between atoms: C4_4  and  C5_5 
REMARK    2  A    between atoms: C5_5  and  S1_6 
REMARK    3  A    between atoms: S1_6  and  C6_7 
REMARK    4  A    between atoms: C6_7  and  C7_8 
REMARK    5  A    between atoms: C11_15  and  C12_16 
REMARK    6  A    between atoms: C17_21  and  C18_22 
REMARK    7  A    between atoms: C18_22  and  C19_23 
REMARK    8  A    between atoms: C19_23  and  C20_24 
REMARK    9  A    between atoms: C20_24  and  O1_25 
REMARK   10  A    between atoms: O1_25  and  C21_26 
REMARK   11  A    between atoms: C31_36  and  C32_37 
ROOT
HETATM    1  C12 UNL     1      12.176  -1.011  29.077  1.00  0.00     0.006 A 
HETATM    2  C13 UNL     1      10.832  -1.399  29.031  1.00  0.00     0.015 A 
HETATM    3  C14 UNL     1      10.118  -1.350  27.858  1.00  0.00     0.002 A 
HETATM    4  C15 UNL     1      10.700  -0.919  26.695  1.00  0.00     0.014 A 
HETATM    5  C16 UNL     1      12.018  -0.530  26.707  1.00  0.00     0.000 A 
HETATM    6  C17 UNL     1      12.847  -0.040  25.676  1.00  0.00    -0.012 A 
HETATM    7  C31 UNL     1      14.043   0.194  26.285  1.00  0.00     0.117 A 
HETATM    8  N3  UNL     1      13.964  -0.133  27.606  1.00  0.00    -0.349 N 
ATOM      9  H3  UNL     1      14.726  -0.053  28.280  1.00  0.00     0.166 HD
HETATM   10  C33 UNL     1      12.724  -0.580  27.882  1.00  0.00     0.055 A 
ENDROOT
BRANCH   1  11
HETATM   11  C11 UNL     1      12.926  -1.133  30.321  1.00  0.00     0.025 A 
HETATM   12  C7  UNL     1      13.943  -1.933  30.706  1.00  0.00     0.048 A 
HETATM   13  N1  UNL     1      14.271  -1.577  31.971  1.00  0.00    -0.301 N 
HETATM   14  N2  UNL     1      13.523  -0.595  32.415  1.00  0.00    -0.300 N 
ATOM     15  H1  UNL     1      15.013  -2.020  32.514  1.00  0.00     0.187 HD
HETATM   16  C8  UNL     1      13.632   0.017  33.717  1.00  0.00     0.177 C 
HETATM   17  C9  UNL     1      12.673  -0.293  31.417  1.00  0.00     0.037 A 
HETATM   18  C10 UNL     1      11.630   0.761  31.478  1.00  0.00     0.071 C 
BRANCH  12  19
HETATM   19  C6  UNL     1      14.581  -2.993  29.871  1.00  0.00     0.133 C 
BRANCH  19  20
HETATM   20  S1  UNL     1      16.347  -2.795  29.749  1.00  0.00    -0.157 SA
BRANCH  20  21
HETATM   21  C5  UNL     1      16.965  -1.900  28.340  1.00  0.00     0.132 C 
BRANCH  21  22
HETATM   22  C4  UNL     1      18.090  -2.547  27.673  1.00  0.00     0.037 A 
HETATM   23  C3  UNL     1      19.114  -1.888  26.982  1.00  0.00     0.053 A 
HETATM   24  C2  UNL     1      19.968  -2.839  26.500  1.00  0.00     0.026 A 
HETATM   25  C1  UNL     1      21.218  -2.677  25.709  1.00  0.00     0.070 C 
HETATM   26  N5  UNL     1      19.485  -4.035  26.885  1.00  0.00    -0.301 N 
HETATM   27  N4  UNL     1      18.364  -3.840  27.584  1.00  0.00    -0.302 N 
HETATM   28  C34 UNL     1      20.040  -5.369  26.607  1.00  0.00     0.177 C 
ATOM     29  H4  UNL     1      17.798  -4.583  27.993  1.00  0.00     0.186 HD
ENDBRANCH  21  22
ENDBRANCH  20  21
ENDBRANCH  19  20
ENDBRANCH  12  19
ENDBRANCH   1  11
BRANCH   6  30
HETATM   30  C18 UNL     1      12.420   0.070  24.284  1.00  0.00     0.044 C 
BRANCH  30  31
HETATM   31  C19 UNL     1      12.247   1.483  23.771  1.00  0.00     0.031 C 
BRANCH  31  32
HETATM   32  C20 UNL     1      10.867   1.565  23.062  1.00  0.00     0.176 C 
BRANCH  32  33
HETATM   33  O1  UNL     1       9.930   0.848  23.804  1.00  0.00    -0.350 OA
BRANCH  33  34
HETATM   34  C21 UNL     1       8.875   0.104  23.398  1.00  0.00     0.079 A 
HETATM   35  C22 UNL     1       8.949  -1.065  22.709  1.00  0.00     0.037 A 
HETATM   36  C23 UNL     1       7.827  -1.802  22.305  1.00  0.00     0.004 A 
HETATM   37  C24 UNL     1       6.579  -1.308  22.630  1.00  0.00     0.012 A 
HETATM   38  C25 UNL     1       6.468  -0.125  23.330  1.00  0.00    -0.023 A 
HETATM   39  C26 UNL     1       5.186   0.360  23.649  1.00  0.00     0.012 A 
HETATM   40  C30 UNL     1       7.570   0.576  23.712  1.00  0.00     0.007 A 
HETATM   41  C27 UNL     1       5.106   1.559  24.355  1.00  0.00     0.001 A 
HETATM   42  C28 UNL     1       6.220   2.267  24.744  1.00  0.00     0.001 A 
HETATM   43  C29 UNL     1       7.468   1.769  24.418  1.00  0.00     0.015 A 
ENDBRANCH  33  34
ENDBRANCH  32  33
ENDBRANCH  31  32
ENDBRANCH  30  31
ENDBRANCH   6  30
BRANCH   7  44
HETATM   44  C32 UNL     1      15.247   0.726  25.627  1.00  0.00     0.227 C 
HETATM   45  O2  UNL     1      15.744   1.813  25.986  1.00  0.00    -0.643 OA
HETATM   46  O3  UNL     1      15.847   0.026  24.596  1.00  0.00    -0.643 OA
ENDBRANCH   7  44
TORSDOF 11
ENDMDL
