MODEL 2
REMARK VINA RESULT: -10.556454296      2.884      5.589
REMARK  11 active torsions:
REMARK  status: ('A' for Active; 'I' for Inactive)
REMARK    1  A    between atoms: C4_4  and  C5_5 
REMARK    2  A    between atoms: C5_5  and  S1_6 
REMARK    3  A    between atoms: S1_6  and  C6_7 
REMARK    4  A    between atoms: C6_7  and  C7_8 
REMARK    5  A    between atoms: C11_15  and  C12_16 
REMARK    6  A    between atoms: C17_21  and  C18_22 
REMARK    7  A    between atoms: C18_22  and  C19_23 
REMARK    8  A    between atoms: C19_23  and  C20_24 
REMARK    9  A    between atoms: C20_24  and  O1_25 
REMARK   10  A    between atoms: O1_25  and  C21_26 
REMARK   11  A    between atoms: C31_36  and  C32_37 
ROOT
HETATM    1  C12 UNL     1      12.155  -0.697  28.870  1.00  0.00     0.006 A 
HETATM    2  C13 UNL     1      10.804  -1.038  29.003  1.00  0.00     0.015 A 
HETATM    3  C14 UNL     1       9.972  -1.088  27.910  1.00  0.00     0.002 A 
HETATM    4  C15 UNL     1      10.439  -0.803  26.654  1.00  0.00     0.014 A 
HETATM    5  C16 UNL     1      11.760  -0.463  26.490  1.00  0.00     0.000 A 
HETATM    6  C17 UNL     1      12.489  -0.115  25.332  1.00  0.00    -0.012 A 
HETATM    7  C31 UNL     1      13.748   0.138  25.788  1.00  0.00     0.117 A 
HETATM    8  N3  UNL     1      13.800  -0.045  27.138  1.00  0.00    -0.349 N 
ATOM      9  H3  UNL     1      14.630   0.078  27.718  1.00  0.00     0.166 HD
HETATM   10  C33 UNL     1      12.585  -0.415  27.585  1.00  0.00     0.055 A 
ENDROOT
BRANCH   1  11
HETATM   11  C11 UNL     1      13.028  -0.715  30.036  1.00  0.00     0.025 A 
HETATM   12  C7  UNL     1      13.991  -1.565  30.450  1.00  0.00     0.048 A 
HETATM   13  N1  UNL     1      14.502  -1.059  31.598  1.00  0.00    -0.301 N 
HETATM   14  N2  UNL     1      13.922   0.067  31.939  1.00  0.00    -0.300 N 
ATOM     15  H1  UNL     1      15.250  -1.500  32.133  1.00  0.00     0.187 HD
HETATM   16  C8  UNL     1      14.249   0.859  33.100  1.00  0.00     0.177 C 
HETATM   17  C9  UNL     1      12.998   0.312  30.993  1.00  0.00     0.037 A 
HETATM   18  C10 UNL     1      12.089   1.486  30.974  1.00  0.00     0.071 C 
BRANCH  12  19
HETATM   19  C6  UNL     1      14.408  -2.816  29.751  1.00  0.00     0.133 C 
BRANCH  19  20
HETATM   20  S1  UNL     1      16.175  -2.934  29.560  1.00  0.00    -0.157 SA
BRANCH  20  21
HETATM   21  C5  UNL     1      16.925  -1.915  28.308  1.00  0.00     0.132 C 
BRANCH  21  22
HETATM   22  C4  UNL     1      18.068  -2.533  27.645  1.00  0.00     0.037 A 
HETATM   23  C3  UNL     1      19.082  -1.848  26.966  1.00  0.00     0.053 A 
HETATM   24  C2  UNL     1      19.961  -2.777  26.485  1.00  0.00     0.026 A 
HETATM   25  C1  UNL     1      21.212  -2.583  25.704  1.00  0.00     0.070 C 
HETATM   26  N5  UNL     1      19.501  -3.986  26.859  1.00  0.00    -0.301 N 
HETATM   27  N4  UNL     1      18.372  -3.819  27.551  1.00  0.00    -0.302 N 
HETATM   28  C34 UNL     1      20.088  -5.305  26.578  1.00  0.00     0.177 C 
ATOM     29  H4  UNL     1      17.819  -4.578  27.952  1.00  0.00     0.186 HD
ENDBRANCH  21  22
ENDBRANCH  20  21
ENDBRANCH  19  20
ENDBRANCH  12  19
ENDBRANCH   1  11
BRANCH   6  30
HETATM   30  C18 UNL     1      11.920  -0.136  23.987  1.00  0.00     0.044 C 
BRANCH  30  31
HETATM   31  C19 UNL     1      11.656   1.222  23.376  1.00  0.00     0.031 C 
BRANCH  31  32
HETATM   32  C20 UNL     1      10.293   1.730  23.920  1.00  0.00     0.176 C 
BRANCH  32  33
HETATM   33  O1  UNL     1       9.286   0.850  23.523  1.00  0.00    -0.350 OA
BRANCH  33  34
HETATM   34  C21 UNL     1       7.953   0.888  23.745  1.00  0.00     0.079 A 
HETATM   35  C22 UNL     1       7.291   1.859  24.428  1.00  0.00     0.037 A 
HETATM   36  C23 UNL     1       5.904   1.856  24.636  1.00  0.00     0.004 A 
HETATM   37  C24 UNL     1       5.175   0.806  24.115  1.00  0.00     0.012 A 
HETATM   38  C25 UNL     1       5.815  -0.196  23.415  1.00  0.00    -0.023 A 
HETATM   39  C26 UNL     1       5.052  -1.257  22.894  1.00  0.00     0.012 A 
HETATM   40  C30 UNL     1       7.162  -0.174  23.225  1.00  0.00     0.007 A 
HETATM   41  C27 UNL     1       5.727  -2.254  22.193  1.00  0.00     0.001 A 
HETATM   42  C28 UNL     1       7.089  -2.233  21.998  1.00  0.00     0.001 A 
HETATM   43  C29 UNL     1       7.816  -1.178  22.520  1.00  0.00     0.015 A 
ENDBRANCH  33  34
ENDBRANCH  32  33
ENDBRANCH  31  32
ENDBRANCH  30  31
ENDBRANCH   6  30
BRANCH   7  44
HETATM   44  C32 UNL     1      14.889   0.554  24.957  1.00  0.00     0.227 C 
HETATM   45  O2  UNL     1      14.852   1.618  24.306  1.00  0.00    -0.643 OA
HETATM   46  O3  UNL     1      16.024  -0.234  24.882  1.00  0.00    -0.643 OA
ENDBRANCH   7  44
TORSDOF 11
ENDMDL
