MODEL 3
REMARK VINA RESULT: -10.514583389      0.547      1.654
REMARK  11 active torsions:
REMARK  status: ('A' for Active; 'I' for Inactive)
REMARK    1  A    between atoms: C4_4  and  C5_5 
REMARK    2  A    between atoms: C5_5  and  S1_6 
REMARK    3  A    between atoms: S1_6  and  C6_7 
REMARK    4  A    between atoms: C6_7  and  C7_8 
REMARK    5  A    between atoms: C11_15  and  C12_16 
REMARK    6  A    between atoms: C17_21  and  C18_22 
REMARK    7  A    between atoms: C18_22  and  C19_23 
REMARK    8  A    between atoms: C19_23  and  C20_24 
REMARK    9  A    between atoms: C20_24  and  O1_25 
REMARK   10  A    between atoms: O1_25  and  C21_26 
REMARK   11  A    between atoms: C31_36  and  C32_37 
ROOT
HETATM    1  C12 UNL     1      12.053  -0.713  29.168  1.00  0.00     0.006 A 
HETATM    2  C13 UNL     1      10.701  -1.072  29.125  1.00  0.00     0.015 A 
HETATM    3  C14 UNL     1      10.004  -1.076  27.940  1.00  0.00     0.002 A 
HETATM    4  C15 UNL     1      10.612  -0.726  26.763  1.00  0.00     0.014 A 
HETATM    5  C16 UNL     1      11.938  -0.368  26.772  1.00  0.00     0.000 A 
HETATM    6  C17 UNL     1      12.793   0.043  25.726  1.00  0.00    -0.012 A 
HETATM    7  C31 UNL     1      13.986   0.285  26.339  1.00  0.00     0.117 A 
HETATM    8  N3  UNL     1      13.882   0.036  27.675  1.00  0.00    -0.349 N 
ATOM      9  H3  UNL     1      14.636   0.138  28.355  1.00  0.00     0.166 HD
HETATM   10  C33 UNL     1      12.627  -0.365  27.958  1.00  0.00     0.055 A 
ENDROOT
BRANCH   1  11
HETATM   11  C11 UNL     1      12.784  -0.780  30.427  1.00  0.00     0.025 A 
HETATM   12  C7  UNL     1      12.786  -0.003  31.531  1.00  0.00     0.048 A 
HETATM   13  N1  UNL     1      13.642  -0.570  32.415  1.00  0.00    -0.301 N 
HETATM   14  N2  UNL     1      14.185  -1.665  31.940  1.00  0.00    -0.300 N 
ATOM     15  H1  UNL     1      13.840  -0.190  33.341  1.00  0.00     0.187 HD
HETATM   16  C8  UNL     1      15.126  -2.505  32.640  1.00  0.00     0.177 C 
HETATM   17  C9  UNL     1      13.677  -1.827  30.704  1.00  0.00     0.037 A 
HETATM   18  C10 UNL     1      14.018  -2.941  29.783  1.00  0.00     0.071 C 
BRANCH  12  19
HETATM   19  C6  UNL     1      11.977   1.237  31.725  1.00  0.00     0.133 C 
BRANCH  19  20
HETATM   20  S1  UNL     1      12.775   2.684  31.062  1.00  0.00    -0.157 SA
BRANCH  20  21
HETATM   21  C5  UNL     1      12.433   3.091  29.363  1.00  0.00     0.132 C 
BRANCH  21  22
HETATM   22  C4  UNL     1      11.056   3.507  29.118  1.00  0.00     0.037 A 
HETATM   23  C3  UNL     1      10.147   2.853  28.278  1.00  0.00     0.053 A 
HETATM   24  C2  UNL     1       8.973   3.551  28.314  1.00  0.00     0.026 A 
HETATM   25  C1  UNL     1       7.688   3.280  27.615  1.00  0.00     0.070 C 
HETATM   26  N5  UNL     1       9.158   4.593  29.146  1.00  0.00    -0.301 N 
HETATM   27  N4  UNL     1      10.408   4.549  29.616  1.00  0.00    -0.302 N 
HETATM   28  C34 UNL     1       8.197   5.645  29.511  1.00  0.00     0.177 C 
ATOM     29  H4  UNL     1      10.807   5.224  30.269  1.00  0.00     0.186 HD
ENDBRANCH  21  22
ENDBRANCH  20  21
ENDBRANCH  19  20
ENDBRANCH  12  19
ENDBRANCH   1  11
BRANCH   6  30
HETATM   30  C18 UNL     1      12.387   0.082  24.324  1.00  0.00     0.044 C 
BRANCH  30  31
HETATM   31  C19 UNL     1      12.170   1.465  23.752  1.00  0.00     0.031 C 
BRANCH  31  32
HETATM   32  C20 UNL     1      10.807   1.463  23.007  1.00  0.00     0.176 C 
BRANCH  32  33
HETATM   33  O1  UNL     1       9.882   0.730  23.751  1.00  0.00    -0.350 OA
BRANCH  33  34
HETATM   34  C21 UNL     1       8.837  -0.027  23.346  1.00  0.00     0.079 A 
HETATM   35  C22 UNL     1       8.925  -1.206  22.677  1.00  0.00     0.037 A 
HETATM   36  C23 UNL     1       7.812  -1.957  22.274  1.00  0.00     0.004 A 
HETATM   37  C24 UNL     1       6.557  -1.467  22.578  1.00  0.00     0.012 A 
HETATM   38  C25 UNL     1       6.432  -0.274  23.259  1.00  0.00    -0.023 A 
HETATM   39  C26 UNL     1       5.143   0.207  23.558  1.00  0.00     0.012 A 
HETATM   40  C30 UNL     1       7.526   0.440  23.640  1.00  0.00     0.007 A 
HETATM   41  C27 UNL     1       5.049   1.416  24.244  1.00  0.00     0.001 A 
HETATM   42  C28 UNL     1       6.154   2.138  24.633  1.00  0.00     0.001 A 
HETATM   43  C29 UNL     1       7.409   1.643  24.327  1.00  0.00     0.015 A 
ENDBRANCH  33  34
ENDBRANCH  32  33
ENDBRANCH  31  32
ENDBRANCH  30  31
ENDBRANCH   6  30
BRANCH   7  44
HETATM   44  C32 UNL     1      15.211   0.749  25.669  1.00  0.00     0.227 C 
HETATM   45  O2  UNL     1      15.734   1.839  25.978  1.00  0.00    -0.643 OA
HETATM   46  O3  UNL     1      15.802  -0.017  24.681  1.00  0.00    -0.643 OA
ENDBRANCH   7  44
TORSDOF 11
ENDMDL
