MODEL 14
REMARK VINA RESULT: -9.924223746      0.759      1.320
REMARK  11 active torsions:
REMARK  status: ('A' for Active; 'I' for Inactive)
REMARK    1  A    between atoms: C4_4  and  C5_5 
REMARK    2  A    between atoms: C5_5  and  S1_6 
REMARK    3  A    between atoms: S1_6  and  C6_7 
REMARK    4  A    between atoms: C6_7  and  C7_8 
REMARK    5  A    between atoms: C11_15  and  C12_16 
REMARK    6  A    between atoms: C17_21  and  C18_22 
REMARK    7  A    between atoms: C18_22  and  C19_23 
REMARK    8  A    between atoms: C19_23  and  C20_24 
REMARK    9  A    between atoms: C20_24  and  O1_25 
REMARK   10  A    between atoms: O1_25  and  C21_26 
REMARK   11  A    between atoms: C31_36  and  C32_37 
ROOT
HETATM    1  C12 UNL     1      11.994  -0.723  29.239  1.00  0.00     0.006 A 
HETATM    2  C13 UNL     1      10.647  -1.081  29.373  1.00  0.00     0.015 A 
HETATM    3  C14 UNL     1       9.817  -1.148  28.280  1.00  0.00     0.002 A 
HETATM    4  C15 UNL     1      10.281  -0.863  27.023  1.00  0.00     0.014 A 
HETATM    5  C16 UNL     1      11.598  -0.508  26.857  1.00  0.00     0.000 A 
HETATM    6  C17 UNL     1      12.323  -0.156  25.699  1.00  0.00    -0.012 A 
HETATM    7  C31 UNL     1      13.578   0.116  26.154  1.00  0.00     0.117 A 
HETATM    8  N3  UNL     1      13.632  -0.059  27.504  1.00  0.00    -0.349 N 
ATOM      9  H3  UNL     1      14.459   0.078  28.084  1.00  0.00     0.166 HD
HETATM   10  C33 UNL     1      12.421  -0.442  27.953  1.00  0.00     0.055 A 
ENDROOT
BRANCH   1  11
HETATM   11  C11 UNL     1      12.866  -0.723  30.406  1.00  0.00     0.025 A 
HETATM   12  C7  UNL     1      13.030   0.139  31.431  1.00  0.00     0.048 A 
HETATM   13  N1  UNL     1      13.963  -0.395  32.255  1.00  0.00    -0.301 N 
HETATM   14  N2  UNL     1      14.404  -1.549  31.815  1.00  0.00    -0.300 N 
ATOM     15  H1  UNL     1      14.285   0.048  33.116  1.00  0.00     0.187 HD
HETATM   16  C8  UNL     1      15.390  -2.374  32.471  1.00  0.00     0.177 C 
HETATM   17  C9  UNL     1      13.746  -1.786  30.666  1.00  0.00     0.037 A 
HETATM   18  C10 UNL     1      13.933  -2.985  29.809  1.00  0.00     0.071 C 
BRANCH  12  19
HETATM   19  C6  UNL     1      12.297   1.427  31.612  1.00  0.00     0.133 C 
BRANCH  19  20
HETATM   20  S1  UNL     1      12.754   2.649  30.400  1.00  0.00    -0.157 SA
BRANCH  20  21
HETATM   21  C5  UNL     1      11.549   3.040  29.149  1.00  0.00     0.132 C 
BRANCH  21  22
HETATM   22  C4  UNL     1      10.793   4.259  29.416  1.00  0.00     0.037 A 
HETATM   23  C3  UNL     1      11.341   5.487  29.805  1.00  0.00     0.053 A 
HETATM   24  C2  UNL     1      10.310   6.371  29.958  1.00  0.00     0.026 A 
HETATM   25  C1  UNL     1      10.344   7.807  30.349  1.00  0.00     0.070 C 
HETATM   26  N5  UNL     1       9.175   5.708  29.672  1.00  0.00    -0.301 N 
HETATM   27  N4  UNL     1       9.483   4.449  29.350  1.00  0.00    -0.302 N 
HETATM   28  C34 UNL     1       7.795   6.218  29.700  1.00  0.00     0.177 C 
ATOM     29  H4  UNL     1       8.805   3.734  29.089  1.00  0.00     0.186 HD
ENDBRANCH  21  22
ENDBRANCH  20  21
ENDBRANCH  19  20
ENDBRANCH  12  19
ENDBRANCH   1  11
BRANCH   6  30
HETATM   30  C18 UNL     1      11.756  -0.192  24.353  1.00  0.00     0.044 C 
BRANCH  30  31
HETATM   31  C19 UNL     1      11.679   1.144  23.648  1.00  0.00     0.031 C 
BRANCH  31  32
HETATM   32  C20 UNL     1      10.291   1.768  23.963  1.00  0.00     0.176 C 
BRANCH  32  33
HETATM   33  O1  UNL     1       9.291   0.908  23.508  1.00  0.00    -0.350 OA
BRANCH  33  34
HETATM   34  C21 UNL     1       7.961   0.908  23.751  1.00  0.00     0.079 A 
HETATM   35  C22 UNL     1       7.283   1.855  24.451  1.00  0.00     0.037 A 
HETATM   36  C23 UNL     1       5.901   1.812  24.681  1.00  0.00     0.004 A 
HETATM   37  C24 UNL     1       5.192   0.746  24.162  1.00  0.00     0.012 A 
HETATM   38  C25 UNL     1       5.849  -0.232  23.444  1.00  0.00    -0.023 A 
HETATM   39  C26 UNL     1       5.107  -1.310  22.926  1.00  0.00     0.012 A 
HETATM   40  C30 UNL     1       7.192  -0.172  23.233  1.00  0.00     0.007 A 
HETATM   41  C27 UNL     1       5.798  -2.283  22.206  1.00  0.00     0.001 A 
HETATM   42  C28 UNL     1       7.156  -2.222  21.991  1.00  0.00     0.001 A 
HETATM   43  C29 UNL     1       7.862  -1.152  22.511  1.00  0.00     0.015 A 
ENDBRANCH  33  34
ENDBRANCH  32  33
ENDBRANCH  31  32
ENDBRANCH  30  31
ENDBRANCH   6  30
BRANCH   7  44
HETATM   44  C32 UNL     1      14.714   0.542  25.321  1.00  0.00     0.227 C 
HETATM   45  O2  UNL     1      15.120  -0.171  24.381  1.00  0.00    -0.643 OA
HETATM   46  O3  UNL     1      15.354   1.743  25.571  1.00  0.00    -0.643 OA
ENDBRANCH   7  44
TORSDOF 11
ENDMDL
