MODEL 11
REMARK VINA RESULT: -7.504462078      5.147     10.836
REMARK  11 active torsions:
REMARK  status: ('A' for Active; 'I' for Inactive)
REMARK    1  A    between atoms: O1_2  and  C2_3 
REMARK    2  A    between atoms: C10_12  and  O3_13 
REMARK    3  A    between atoms: C13_17  and  O4_18 
REMARK    4  A    between atoms: C17_24  and  O6_25 
REMARK    5  A    between atoms: C17_24  and  C18_27 
REMARK    6  A    between atoms: C18_27  and  C19_29 
REMARK    7  A    between atoms: C19_29  and  O8_30 
REMARK    8  A    between atoms: C21_33  and  O9_34 
REMARK    9  A    between atoms: O9_34  and  C22_35 
REMARK   10  A    between atoms: C24_37  and  N1_38 
REMARK   11  A    between atoms: C25_42  and  O10_43 
ROOT
HETATM    1  C2  UNL     1     -12.446  -5.688  -4.942  1.00  0.00     0.083 A 
HETATM    2  C3  UNL     1     -12.697  -6.348  -6.146  1.00  0.00     0.038 A 
HETATM    3  C4  UNL     1     -13.801  -6.051  -6.914  1.00  0.00     0.004 A 
HETATM    4  C5  UNL     1     -14.660  -5.083  -6.475  1.00  0.00     0.017 A 
HETATM    5  C6  UNL     1     -14.406  -4.436  -5.289  1.00  0.00     0.032 A 
HETATM    6  C7  UNL     1     -13.314  -4.712  -4.500  1.00  0.00     0.062 A 
HETATM    7  C8  UNL     1     -13.047  -4.022  -3.241  1.00  0.00     0.200 A 
HETATM    8  O2  UNL     1     -12.032  -4.327  -2.577  1.00  0.00    -0.286 OA
HETATM    9  C9  UNL     1     -13.993  -2.993  -2.808  1.00  0.00     0.066 A 
HETATM   10  C10 UNL     1     -13.766  -2.317  -1.609  1.00  0.00     0.090 A 
HETATM   11  C11 UNL     1     -14.679  -1.358  -1.238  1.00  0.00     0.014 A 
HETATM   12  C12 UNL     1     -15.779  -1.082  -2.034  1.00  0.00    -0.009 A 
HETATM   13  C13 UNL     1     -16.027  -1.726  -3.209  1.00  0.00     0.088 A 
HETATM   14  C14 UNL     1     -15.103  -2.702  -3.592  1.00  0.00     0.066 A 
HETATM   15  C15 UNL     1     -15.331  -3.407  -4.833  1.00  0.00     0.197 A 
HETATM   16  O5  UNL     1     -16.342  -3.119  -5.518  1.00  0.00    -0.286 OA
HETATM   17  C16 UNL     1     -16.682  -0.031  -1.522  1.00  0.00     0.088 C 
HETATM   18  C17 UNL     1     -15.905   1.204  -1.147  1.00  0.00     0.127 C 
HETATM   19  C20 UNL     1     -14.615   0.894  -0.478  1.00  0.00     0.083 C 
HETATM   20  C21 UNL     1     -14.560  -0.568   0.002  1.00  0.00     0.164 C 
ENDROOT
BRANCH  20  21
HETATM   21  O9  UNL     1     -13.423  -0.785   0.734  1.00  0.00    -0.351 OA
BRANCH  21  22
HETATM   22  C22 UNL     1     -13.417   0.053   1.825  1.00  0.00     0.263 C 
HETATM   23  C23 UNL     1     -12.972  -0.567   3.111  1.00  0.00     0.096 C 
HETATM   24  C24 UNL     1     -11.548  -1.010   3.104  1.00  0.00     0.219 C 
HETATM   25  C25 UNL     1     -10.686   0.139   2.621  1.00  0.00     0.177 C 
HETATM   26  C26 UNL     1     -11.291   0.780   1.386  1.00  0.00     0.151 C 
HETATM   27  C27 UNL     1     -10.444   1.977   1.049  1.00  0.00     0.042 C 
HETATM   28  O11 UNL     1     -12.592   1.174   1.583  1.00  0.00    -0.354 OA
BRANCH  24  29
HETATM   29  N1  UNL     1     -11.189  -1.285   4.505  1.00  0.00    -0.072 N 
ATOM     30  H13 UNL     1     -11.985  -1.566   5.079  1.00  0.00     0.274 HD
ATOM     31  H12 UNL     1     -10.641  -2.138   4.622  1.00  0.00     0.274 HD
ATOM     32  H11 UNL     1     -10.715  -0.451   4.852  1.00  0.00     0.274 HD
ENDBRANCH  24  29
BRANCH  25  33
HETATM   33  O10 UNL     1     -10.502   1.066   3.643  1.00  0.00    -0.391 OA
ATOM     34  H10 UNL     1      -9.986   1.800   3.332  1.00  0.00     0.210 HD
ENDBRANCH  25  33
ENDBRANCH  21  22
ENDBRANCH  20  21
BRANCH  10  35
HETATM   35  O3  UNL     1     -12.712  -2.536  -0.783  1.00  0.00    -0.359 OA
ATOM     36  H3  UNL     1     -12.695  -2.320   0.142  1.00  0.00     0.217 HD
ENDBRANCH  10  35
BRANCH  18  37
HETATM   37  O6  UNL     1     -15.677   1.912  -2.338  1.00  0.00    -0.382 OA
ATOM     38  H6  UNL     1     -14.904   2.444  -2.194  1.00  0.00     0.211 HD
ENDBRANCH  18  37
BRANCH  18  39
HETATM   39  C18 UNL     1     -16.796   2.019  -0.250  1.00  0.00     0.184 C 
HETATM   40  O7  UNL     1     -17.157   1.561   0.810  1.00  0.00    -0.292 OA
BRANCH  39  41
HETATM   41  C19 UNL     1     -17.232   3.366  -0.647  1.00  0.00     0.245 C 
BRANCH  41  42
HETATM   42  O8  UNL     1     -18.077   3.354  -1.732  1.00  0.00    -0.393 OA
ATOM     43  H8  UNL     1     -18.652   4.110  -1.759  1.00  0.00     0.209 HD
ENDBRANCH  41  42
ENDBRANCH  39  41
ENDBRANCH  18  39
BRANCH  13  44
HETATM   44  O4  UNL     1     -17.105  -1.489  -4.039  1.00  0.00    -0.359 OA
ATOM     45  H4  UNL     1     -17.537  -2.141  -4.578  1.00  0.00     0.217 HD
ENDBRANCH  13  44
BRANCH   1  46
HETATM   46  O1  UNL     1     -11.346  -5.978  -4.168  1.00  0.00    -0.355 OA
HETATM   47  C1  UNL     1     -10.646  -7.202  -4.246  1.00  0.00     0.210 C 
ENDBRANCH   1  46
TORSDOF 11
ENDMDL
