MODEL 10
REMARK VINA RESULT: -7.731769467      3.791      5.376
REMARK  11 active torsions:
REMARK  status: ('A' for Active; 'I' for Inactive)
REMARK    1  A    between atoms: O1_2  and  C2_3 
REMARK    2  A    between atoms: C10_12  and  O3_13 
REMARK    3  A    between atoms: C13_17  and  O4_18 
REMARK    4  A    between atoms: C17_24  and  O6_25 
REMARK    5  A    between atoms: C17_24  and  C18_27 
REMARK    6  A    between atoms: C18_27  and  C19_29 
REMARK    7  A    between atoms: C19_29  and  O8_30 
REMARK    8  A    between atoms: C21_33  and  O9_34 
REMARK    9  A    between atoms: O9_34  and  C22_35 
REMARK   10  A    between atoms: C24_37  and  N1_38 
REMARK   11  A    between atoms: C25_42  and  O10_43 
ROOT
HETATM    1  C2  UNL     1     -18.665   4.981   0.889  1.00  0.00     0.083 A 
HETATM    2  C3  UNL     1     -19.987   4.695   0.545  1.00  0.00     0.038 A 
HETATM    3  C4  UNL     1     -20.370   3.433   0.147  1.00  0.00     0.004 A 
HETATM    4  C5  UNL     1     -19.423   2.449   0.095  1.00  0.00     0.017 A 
HETATM    5  C6  UNL     1     -18.123   2.738   0.437  1.00  0.00     0.032 A 
HETATM    6  C7  UNL     1     -17.711   3.988   0.836  1.00  0.00     0.062 A 
HETATM    7  C8  UNL     1     -16.329   4.291   1.198  1.00  0.00     0.200 A 
HETATM    8  O2  UNL     1     -16.028   5.454   1.553  1.00  0.00    -0.286 OA
HETATM    9  C9  UNL     1     -15.347   3.209   1.128  1.00  0.00     0.066 A 
HETATM   10  C10 UNL     1     -14.018   3.468   1.468  1.00  0.00     0.090 A 
HETATM   11  C11 UNL     1     -13.128   2.425   1.388  1.00  0.00     0.014 A 
HETATM   12  C12 UNL     1     -13.545   1.166   0.985  1.00  0.00    -0.009 A 
HETATM   13  C13 UNL     1     -14.835   0.883   0.648  1.00  0.00     0.088 A 
HETATM   14  C14 UNL     1     -15.745   1.940   0.726  1.00  0.00     0.066 A 
HETATM   15  C15 UNL     1     -17.123   1.680   0.376  1.00  0.00     0.197 A 
HETATM   16  O5  UNL     1     -17.451   0.523   0.018  1.00  0.00    -0.286 OA
HETATM   17  C16 UNL     1     -12.490   0.134   0.942  1.00  0.00     0.088 C 
HETATM   18  C17 UNL     1     -11.715   0.108   2.234  1.00  0.00     0.127 C 
HETATM   19  C20 UNL     1     -11.451   1.467   2.776  1.00  0.00     0.083 C 
HETATM   20  C21 UNL     1     -11.697   2.559   1.719  1.00  0.00     0.164 C 
ENDROOT
BRANCH  20  21
HETATM   21  O9  UNL     1     -11.314   3.782   2.202  1.00  0.00    -0.351 OA
BRANCH  21  22
HETATM   22  C22 UNL     1     -10.148   4.171   1.583  1.00  0.00     0.263 C 
HETATM   23  C23 UNL     1      -9.834   5.631   1.662  1.00  0.00     0.096 C 
HETATM   24  C24 UNL     1      -9.578   6.117   3.049  1.00  0.00     0.219 C 
HETATM   25  C25 UNL     1      -8.552   5.211   3.698  1.00  0.00     0.177 C 
HETATM   26  C26 UNL     1      -8.893   3.753   3.451  1.00  0.00     0.151 C 
HETATM   27  C27 UNL     1      -7.767   2.933   4.021  1.00  0.00     0.042 C 
HETATM   28  O11 UNL     1      -9.046   3.468   2.117  1.00  0.00    -0.354 OA
BRANCH  24  29
HETATM   29  N1  UNL     1      -8.980   7.456   2.919  1.00  0.00    -0.072 N 
ATOM     30  H13 UNL     1      -8.331   7.535   2.136  1.00  0.00     0.274 HD
ATOM     31  H12 UNL     1      -9.642   8.166   2.606  1.00  0.00     0.274 HD
ATOM     32  H11 UNL     1      -8.553   7.671   3.820  1.00  0.00     0.274 HD
ENDBRANCH  24  29
BRANCH  25  33
HETATM   33  O10 UNL     1      -7.275   5.524   3.240  1.00  0.00    -0.391 OA
ATOM     34  H10 UNL     1      -6.664   4.837   3.478  1.00  0.00     0.210 HD
ENDBRANCH  25  33
ENDBRANCH  21  22
ENDBRANCH  20  21
BRANCH  10  35
HETATM   35  O3  UNL     1     -13.542   4.673   1.870  1.00  0.00    -0.359 OA
ATOM     36  H3  UNL     1     -13.809   5.125   2.662  1.00  0.00     0.217 HD
ENDBRANCH  10  35
BRANCH  18  37
HETATM   37  O6  UNL     1     -12.477  -0.640   3.145  1.00  0.00    -0.382 OA
ATOM     38  H6  UNL     1     -12.915  -0.015   3.710  1.00  0.00     0.211 HD
ENDBRANCH  18  37
BRANCH  18  39
HETATM   39  C18 UNL     1     -10.428  -0.619   1.951  1.00  0.00     0.184 C 
HETATM   40  O7  UNL     1     -10.260  -1.139   0.872  1.00  0.00    -0.292 OA
BRANCH  39  41
HETATM   41  C19 UNL     1      -9.374  -0.703   2.972  1.00  0.00     0.245 C 
BRANCH  41  42
HETATM   42  O8  UNL     1      -9.787  -1.351   4.114  1.00  0.00    -0.393 OA
ATOM     43  H8  UNL     1      -9.062  -1.651   4.649  1.00  0.00     0.209 HD
ENDBRANCH  41  42
ENDBRANCH  39  41
ENDBRANCH  18  39
BRANCH  13  44
HETATM   44  O4  UNL     1     -15.303  -0.350   0.241  1.00  0.00    -0.359 OA
ATOM     45  H4  UNL     1     -15.738  -0.984   0.799  1.00  0.00     0.217 HD
ENDBRANCH  13  44
BRANCH   1  46
HETATM   46  O1  UNL     1     -18.273   6.238   1.287  1.00  0.00    -0.355 OA
HETATM   47  C1  UNL     1     -19.154   7.175   1.872  1.00  0.00     0.210 C 
ENDBRANCH   1  46
TORSDOF 11
ENDMDL
