MODEL 2
REMARK VINA RESULT: -10.168785019      1.456      2.056
REMARK  11 active torsions:
REMARK  status: ('A' for Active; 'I' for Inactive)
REMARK    1  A    between atoms: O1_2  and  C2_3 
REMARK    2  A    between atoms: C10_12  and  O3_13 
REMARK    3  A    between atoms: C13_17  and  O4_18 
REMARK    4  A    between atoms: C17_24  and  O6_25 
REMARK    5  A    between atoms: C17_24  and  C18_27 
REMARK    6  A    between atoms: C18_27  and  C19_29 
REMARK    7  A    between atoms: C19_29  and  O8_30 
REMARK    8  A    between atoms: C21_33  and  O9_34 
REMARK    9  A    between atoms: O9_34  and  C22_35 
REMARK   10  A    between atoms: C24_37  and  N1_38 
REMARK   11  A    between atoms: C25_42  and  O10_43 
ROOT
HETATM    1  C2  UNL     1     -20.573   8.767   2.589  1.00  0.00     0.083 A 
HETATM    2  C3  UNL     1     -21.926   9.067   2.759  1.00  0.00     0.038 A 
HETATM    3  C4  UNL     1     -22.912   8.178   2.392  1.00  0.00     0.004 A 
HETATM    4  C5  UNL     1     -22.542   6.978   1.852  1.00  0.00     0.017 A 
HETATM    5  C6  UNL     1     -21.208   6.689   1.689  1.00  0.00     0.032 A 
HETATM    6  C7  UNL     1     -20.201   7.557   2.044  1.00  0.00     0.062 A 
HETATM    7  C8  UNL     1     -18.785   7.246   1.869  1.00  0.00     0.200 A 
HETATM    8  O2  UNL     1     -17.925   8.086   2.216  1.00  0.00    -0.286 OA
HETATM    9  C9  UNL     1     -18.433   5.951   1.287  1.00  0.00     0.066 A 
HETATM   10  C10 UNL     1     -17.088   5.625   1.106  1.00  0.00     0.090 A 
HETATM   11  C11 UNL     1     -16.801   4.399   0.556  1.00  0.00     0.014 A 
HETATM   12  C12 UNL     1     -17.816   3.526   0.199  1.00  0.00    -0.009 A 
HETATM   13  C13 UNL     1     -19.138   3.817   0.363  1.00  0.00     0.088 A 
HETATM   14  C14 UNL     1     -19.437   5.062   0.921  1.00  0.00     0.066 A 
HETATM   15  C15 UNL     1     -20.828   5.406   1.111  1.00  0.00     0.197 A 
HETATM   16  O5  UNL     1     -21.710   4.582   0.772  1.00  0.00    -0.286 OA
HETATM   17  C16 UNL     1     -17.372   2.243  -0.382  1.00  0.00     0.088 C 
HETATM   18  C17 UNL     1     -16.325   1.597   0.489  1.00  0.00     0.127 C 
HETATM   19  C20 UNL     1     -15.355   2.575   1.046  1.00  0.00     0.083 C 
HETATM   20  C21 UNL     1     -15.424   3.927   0.313  1.00  0.00     0.164 C 
ENDROOT
BRANCH  20  21
HETATM   21  O9  UNL     1     -14.428   4.758   0.753  1.00  0.00    -0.351 OA
BRANCH  21  22
HETATM   22  C22 UNL     1     -13.619   5.099  -0.306  1.00  0.00     0.263 C 
HETATM   23  C23 UNL     1     -12.610   6.168  -0.028  1.00  0.00     0.096 C 
HETATM   24  C24 UNL     1     -11.583   5.777   0.981  1.00  0.00     0.219 C 
HETATM   25  C25 UNL     1     -10.997   4.438   0.581  1.00  0.00     0.177 C 
HETATM   26  C26 UNL     1     -12.096   3.466   0.196  1.00  0.00     0.151 C 
HETATM   27  C27 UNL     1     -11.424   2.213  -0.300  1.00  0.00     0.042 C 
HETATM   28  O11 UNL     1     -12.921   3.966  -0.780  1.00  0.00    -0.354 OA
BRANCH  24  29
HETATM   29  N1  UNL     1     -10.511   6.782   0.898  1.00  0.00    -0.072 N 
ATOM     30  H13 UNL     1     -10.822   7.674   0.511  1.00  0.00     0.274 HD
ATOM     31  H12 UNL     1     -10.216   7.135   1.808  1.00  0.00     0.274 HD
ATOM     32  H11 UNL     1      -9.753   6.354   0.366  1.00  0.00     0.274 HD
ENDBRANCH  24  29
BRANCH  25  33
HETATM   33  O10 UNL     1     -10.074   4.605  -0.448  1.00  0.00    -0.391 OA
ATOM     34  H10 UNL     1      -9.383   5.196  -0.176  1.00  0.00     0.210 HD
ENDBRANCH  25  33
ENDBRANCH  21  22
ENDBRANCH  20  21
BRANCH  10  35
HETATM   35  O3  UNL     1     -16.046   6.429   1.434  1.00  0.00    -0.359 OA
ATOM     36  H3  UNL     1     -15.348   6.680   0.840  1.00  0.00     0.217 HD
ENDBRANCH  10  35
BRANCH  18  37
HETATM   37  O6  UNL     1     -17.010   0.946   1.527  1.00  0.00    -0.382 OA
ATOM     38  H6  UNL     1     -16.416   0.294   1.878  1.00  0.00     0.211 HD
ENDBRANCH  18  37
BRANCH  18  39
HETATM   39  C18 UNL     1     -15.628   0.571  -0.363  1.00  0.00     0.184 C 
HETATM   40  O7  UNL     1     -14.433   0.418  -0.255  1.00  0.00    -0.292 OA
BRANCH  39  41
HETATM   41  C19 UNL     1     -16.384  -0.246  -1.323  1.00  0.00     0.245 C 
BRANCH  41  42
HETATM   42  O8  UNL     1     -17.300  -1.072  -0.715  1.00  0.00    -0.393 OA
ATOM     43  H8  UNL     1     -18.183  -0.945  -1.040  1.00  0.00     0.209 HD
ENDBRANCH  41  42
ENDBRANCH  39  41
ENDBRANCH  18  39
BRANCH  13  44
HETATM   44  O4  UNL     1     -20.187   2.985   0.025  1.00  0.00    -0.359 OA
ATOM     45  H4  UNL     1     -20.965   2.842   0.549  1.00  0.00     0.217 HD
ENDBRANCH  13  44
BRANCH   1  46
HETATM   46  O1  UNL     1     -19.581   9.648   2.952  1.00  0.00    -0.355 OA
HETATM   47  C1  UNL     1     -19.587  11.013   2.587  1.00  0.00     0.210 C 
ENDBRANCH   1  46
TORSDOF 11
ENDMDL
