MODEL 7
REMARK VINA RESULT: -8.010859940      4.771     10.385
REMARK  11 active torsions:
REMARK  status: ('A' for Active; 'I' for Inactive)
REMARK    1  A    between atoms: O1_2  and  C2_3 
REMARK    2  A    between atoms: C10_12  and  O3_13 
REMARK    3  A    between atoms: C13_17  and  O4_18 
REMARK    4  A    between atoms: C17_24  and  O6_25 
REMARK    5  A    between atoms: C17_24  and  C18_27 
REMARK    6  A    between atoms: C18_27  and  C19_29 
REMARK    7  A    between atoms: C19_29  and  O8_30 
REMARK    8  A    between atoms: C21_33  and  O9_34 
REMARK    9  A    between atoms: O9_34  and  C22_35 
REMARK   10  A    between atoms: C24_37  and  N1_38 
REMARK   11  A    between atoms: C25_42  and  O10_43 
ROOT
HETATM    1  C2  UNL     1     -12.378  -5.572  -3.842  1.00  0.00     0.083 A 
HETATM    2  C3  UNL     1     -12.566  -6.511  -4.858  1.00  0.00     0.038 A 
HETATM    3  C4  UNL     1     -13.619  -6.415  -5.741  1.00  0.00     0.004 A 
HETATM    4  C5  UNL     1     -14.490  -5.371  -5.608  1.00  0.00     0.017 A 
HETATM    5  C6  UNL     1     -14.298  -4.449  -4.606  1.00  0.00     0.032 A 
HETATM    6  C7  UNL     1     -13.257  -4.519  -3.709  1.00  0.00     0.062 A 
HETATM    7  C8  UNL     1     -13.056  -3.538  -2.646  1.00  0.00     0.200 A 
HETATM    8  O2  UNL     1     -12.086  -3.667  -1.866  1.00  0.00    -0.286 OA
HETATM    9  C9  UNL     1     -14.013  -2.436  -2.539  1.00  0.00     0.066 A 
HETATM   10  C10 UNL     1     -13.848  -1.482  -1.533  1.00  0.00     0.090 A 
HETATM   11  C11 UNL     1     -14.768  -0.464  -1.467  1.00  0.00     0.014 A 
HETATM   12  C12 UNL     1     -15.816  -0.396  -2.371  1.00  0.00    -0.009 A 
HETATM   13  C13 UNL     1     -16.002  -1.311  -3.363  1.00  0.00     0.088 A 
HETATM   14  C14 UNL     1     -15.071  -2.349  -3.436  1.00  0.00     0.066 A 
HETATM   15  C15 UNL     1     -15.234  -3.340  -4.475  1.00  0.00     0.197 A 
HETATM   16  O5  UNL     1     -16.200  -3.234  -5.269  1.00  0.00    -0.286 OA
HETATM   17  C16 UNL     1     -16.733   0.748  -2.190  1.00  0.00     0.088 C 
HETATM   18  C17 UNL     1     -15.963   2.039  -2.087  1.00  0.00     0.127 C 
HETATM   19  C20 UNL     1     -14.720   1.907  -1.285  1.00  0.00     0.083 C 
HETATM   20  C21 UNL     1     -14.712   0.609  -0.457  1.00  0.00     0.164 C 
ENDROOT
BRANCH  20  21
HETATM   21  O9  UNL     1     -13.623   0.583   0.374  1.00  0.00    -0.351 OA
BRANCH  21  22
HETATM   22  C22 UNL     1     -14.028   0.831   1.665  1.00  0.00     0.263 C 
HETATM   23  C23 UNL     1     -13.334   0.034   2.723  1.00  0.00     0.096 C 
HETATM   24  C24 UNL     1     -11.876   0.329   2.837  1.00  0.00     0.219 C 
HETATM   25  C25 UNL     1     -11.693   1.829   2.948  1.00  0.00     0.177 C 
HETATM   26  C26 UNL     1     -12.537   2.550   1.915  1.00  0.00     0.151 C 
HETATM   27  C27 UNL     1     -12.390   4.025   2.173  1.00  0.00     0.042 C 
HETATM   28  O11 UNL     1     -13.863   2.197   1.981  1.00  0.00    -0.354 OA
BRANCH  24  29
HETATM   29  N1  UNL     1     -11.425  -0.276   4.102  1.00  0.00    -0.072 N 
ATOM     30  H13 UNL     1     -12.000  -1.064   4.400  1.00  0.00     0.274 HD
ATOM     31  H12 UNL     1     -10.546  -0.786   4.015  1.00  0.00     0.274 HD
ATOM     32  H11 UNL     1     -11.388   0.479   4.787  1.00  0.00     0.274 HD
ENDBRANCH  24  29
BRANCH  25  33
HETATM   33  O10 UNL     1     -11.987   2.256   4.240  1.00  0.00    -0.391 OA
ATOM     34  H10 UNL     1     -11.902   3.199   4.302  1.00  0.00     0.210 HD
ENDBRANCH  25  33
ENDBRANCH  21  22
ENDBRANCH  20  21
BRANCH  10  35
HETATM   35  O3  UNL     1     -12.847  -1.488  -0.617  1.00  0.00    -0.359 OA
ATOM     36  H3  UNL     1     -12.830  -2.030   0.163  1.00  0.00     0.217 HD
ENDBRANCH  10  35
BRANCH  18  37
HETATM   37  O6  UNL     1     -15.657   2.430  -3.400  1.00  0.00    -0.382 OA
ATOM     38  H6  UNL     1     -15.184   3.251  -3.336  1.00  0.00     0.211 HD
ENDBRANCH  18  37
BRANCH  18  39
HETATM   39  C18 UNL     1     -16.895   3.050  -1.475  1.00  0.00     0.184 C 
HETATM   40  O7  UNL     1     -16.708   4.229  -1.668  1.00  0.00    -0.292 OA
BRANCH  39  41
HETATM   41  C19 UNL     1     -18.029   2.619  -0.645  1.00  0.00     0.245 C 
BRANCH  41  42
HETATM   42  O8  UNL     1     -19.220   3.189  -1.031  1.00  0.00    -0.393 OA
ATOM     43  H8  UNL     1     -19.501   3.884  -0.447  1.00  0.00     0.209 HD
ENDBRANCH  41  42
ENDBRANCH  39  41
ENDBRANCH  18  39
BRANCH  13  44
HETATM   44  O4  UNL     1     -17.027  -1.289  -4.289  1.00  0.00    -0.359 OA
ATOM     45  H4  UNL     1     -17.292  -2.022  -4.832  1.00  0.00     0.217 HD
ENDBRANCH  13  44
BRANCH   1  46
HETATM   46  O1  UNL     1     -11.330  -5.659  -2.956  1.00  0.00    -0.355 OA
HETATM   47  C1  UNL     1     -10.930  -6.869  -2.346  1.00  0.00     0.210 C 
ENDBRANCH   1  46
TORSDOF 11
ENDMDL
