MODEL 1
REMARK VINA RESULT: -7.843535219      0.000      0.000
REMARK  5 active torsions:
REMARK  status: ('A' for Active; 'I' for Inactive)
REMARK    1  A    between atoms: C1_2  and  C2_4 
REMARK    2  A    between atoms: C5_7  and  C6_8 
REMARK       I    between atoms: C6_8  and  N2_10 
REMARK    3  A    between atoms: N2_10  and  C7_12 
REMARK    4  A    between atoms: C11_16  and  C12_17 
REMARK    5  A    between atoms: C12_17  and  N3_18 
ROOT
HETATM    1  C6  UNL     1       5.986  10.342   0.994  1.00  0.00     0.257 C 
HETATM    2  O2  UNL     1       6.188  10.448  -0.242  1.00  0.00    -0.267 OA
HETATM    3  N2  UNL     1       7.058  10.502   1.889  1.00  0.00    -0.323 N 
ATOM      4  H2  UNL     1       6.827  10.395   2.877  1.00  0.00     0.169 HD
ENDROOT
BRANCH   1   5
HETATM    5  C5  UNL     1       4.615  10.043   1.491  1.00  0.00     0.044 A 
HETATM    6  C4  UNL     1       4.267   8.723   1.604  1.00  0.00     0.009 A 
HETATM    7  C3  UNL     1       5.001   7.558   1.410  1.00  0.00     0.049 A 
HETATM    8  C17 UNL     1       3.010   8.361   2.002  1.00  0.00     0.044 A 
HETATM    9  C2  UNL     1       4.162   6.496   1.700  1.00  0.00     0.099 A 
HETATM   10  N4  UNL     1       2.982   7.030   2.048  1.00  0.00    -0.351 N 
ATOM     11  H4  UNL     1       2.164   6.483   2.316  1.00  0.00     0.166 HD
HETATM   12  C16 UNL     1       2.075   9.359   2.290  1.00  0.00     0.030 A 
HETATM   13  C15 UNL     1       2.435  10.686   2.171  1.00  0.00     0.003 A 
HETATM   14  C14 UNL     1       3.712  11.070   1.771  1.00  0.00     0.018 A 
BRANCH   9  15
HETATM   15  C1  UNL     1       4.510   5.061   1.659  1.00  0.00     0.281 C 
HETATM   16  N1  UNL     1       5.849   4.652   1.680  1.00  0.00    -0.056 NA
HETATM   17  O1  UNL     1       3.576   4.192   1.602  1.00  0.00    -0.269 OA
ENDBRANCH   9  15
ENDBRANCH   1   5
BRANCH   3  18
HETATM   18  C7  UNL     1       8.405  10.790   1.609  1.00  0.00     0.035 A 
HETATM   19  C8  UNL     1       9.286   9.850   1.184  1.00  0.00     0.029 A 
HETATM   20  C9  UNL     1      10.641  10.087   0.885  1.00  0.00     0.003 A 
HETATM   21  C10 UNL     1      11.054  11.389   1.058  1.00  0.00     0.009 A 
HETATM   22  C11 UNL     1      10.203  12.403   1.491  1.00  0.00    -0.031 A 
HETATM   23  C13 UNL     1       8.893  12.097   1.761  1.00  0.00     0.038 A 
BRANCH  22  24
HETATM   24  C12 UNL     1      10.828  13.731   1.615  1.00  0.00     0.268 C 
BRANCH  24  25
HETATM   25  N3  UNL     1      12.146  13.830   1.101  1.00  0.00    -0.075 N 
ATOM     26  H33 UNL     1      12.226  13.295   0.235  1.00  0.00     0.274 HD
ATOM     27  H32 UNL     1      12.314  14.772   0.746  1.00  0.00     0.274 HD
ATOM     28  H31 UNL     1      12.887  13.563   1.748  1.00  0.00     0.274 HD
ENDBRANCH  24  25
ENDBRANCH  22  24
ENDBRANCH   3  18
TORSDOF 5
ENDMDL
