MODEL 2
REMARK VINA RESULT: -7.666288164      2.750      7.741
REMARK  5 active torsions:
REMARK  status: ('A' for Active; 'I' for Inactive)
REMARK    1  A    between atoms: C1_2  and  C2_4 
REMARK    2  A    between atoms: C5_7  and  C6_8 
REMARK       I    between atoms: C6_8  and  N2_10 
REMARK    3  A    between atoms: N2_10  and  C7_12 
REMARK    4  A    between atoms: C11_16  and  C12_17 
REMARK    5  A    between atoms: C12_17  and  N3_18 
ROOT
HETATM    1  C6  UNL     1       4.232   7.425   1.788  1.00  0.00     0.257 C 
HETATM    2  O2  UNL     1       5.411   7.203   2.162  1.00  0.00    -0.267 OA
HETATM    3  N2  UNL     1       3.436   6.359   1.334  1.00  0.00    -0.323 N 
ATOM      4  H2  UNL     1       2.493   6.609   1.036  1.00  0.00     0.169 HD
ENDROOT
BRANCH   1   5
HETATM    5  C5  UNL     1       3.698   8.814   1.825  1.00  0.00     0.044 A 
HETATM    6  C4  UNL     1       4.482   9.798   1.284  1.00  0.00     0.009 A 
HETATM    7  C3  UNL     1       5.698   9.741   0.611  1.00  0.00     0.049 A 
HETATM    8  C17 UNL     1       4.090  11.108   1.325  1.00  0.00     0.044 A 
HETATM    9  C2  UNL     1       6.023  11.037   0.249  1.00  0.00     0.099 A 
HETATM   10  N4  UNL     1       5.030  11.816   0.700  1.00  0.00    -0.351 N 
ATOM     11  H4  UNL     1       4.998  12.829   0.580  1.00  0.00     0.166 HD
HETATM   12  C16 UNL     1       2.875  11.435   1.932  1.00  0.00     0.030 A 
HETATM   13  C15 UNL     1       2.093  10.436   2.476  1.00  0.00     0.003 A 
HETATM   14  C14 UNL     1       2.476   9.098   2.438  1.00  0.00     0.018 A 
BRANCH   9  15
HETATM   15  C1  UNL     1       7.216  11.467  -0.508  1.00  0.00     0.281 C 
HETATM   16  N1  UNL     1       7.484  10.936  -1.777  1.00  0.00    -0.056 NA
HETATM   17  O1  UNL     1       8.006  12.328   0.005  1.00  0.00    -0.269 OA
ENDBRANCH   9  15
ENDBRANCH   1   5
BRANCH   3  18
HETATM   18  C7  UNL     1       3.763   4.995   1.233  1.00  0.00     0.035 A 
HETATM   19  C8  UNL     1       5.003   4.514   1.491  1.00  0.00     0.029 A 
HETATM   20  C9  UNL     1       5.380   3.161   1.411  1.00  0.00     0.003 A 
HETATM   21  C10 UNL     1       4.374   2.301   1.032  1.00  0.00     0.009 A 
HETATM   22  C11 UNL     1       3.078   2.727   0.752  1.00  0.00    -0.031 A 
HETATM   23  C13 UNL     1       2.784   4.062   0.855  1.00  0.00     0.038 A 
BRANCH  22  24
HETATM   24  C12 UNL     1       2.141   1.658   0.363  1.00  0.00     0.268 C 
BRANCH  24  25
HETATM   25  N3  UNL     1       1.299   1.961  -0.737  1.00  0.00    -0.075 N 
ATOM     26  H33 UNL     1       0.383   2.263  -0.405  1.00  0.00     0.274 HD
ATOM     27  H32 UNL     1       1.615   2.817  -1.194  1.00  0.00     0.274 HD
ATOM     28  H31 UNL     1       1.195   1.215  -1.424  1.00  0.00     0.274 HD
ENDBRANCH  24  25
ENDBRANCH  22  24
ENDBRANCH   3  18
TORSDOF 5
ENDMDL
