MODEL 6
REMARK VINA RESULT: -7.044600328      2.197      2.243
REMARK  5 active torsions:
REMARK  status: ('A' for Active; 'I' for Inactive)
REMARK    1  A    between atoms: C1_2  and  C2_4 
REMARK    2  A    between atoms: C5_7  and  C6_8 
REMARK       I    between atoms: C6_8  and  N2_10 
REMARK    3  A    between atoms: N2_10  and  C7_12 
REMARK    4  A    between atoms: C11_16  and  C12_17 
REMARK    5  A    between atoms: C12_17  and  N3_18 
ROOT
HETATM    1  C6  UNL     1       5.769  11.375   1.337  1.00  0.00     0.257 C 
HETATM    2  O2  UNL     1       6.746  11.201   2.107  1.00  0.00    -0.267 OA
HETATM    3  N2  UNL     1       5.980  11.920   0.058  1.00  0.00    -0.323 N 
ATOM      4  H2  UNL     1       5.143  12.043  -0.512  1.00  0.00     0.169 HD
ENDROOT
BRANCH   1   5
HETATM    5  C5  UNL     1       4.400  11.008   1.793  1.00  0.00     0.044 A 
HETATM    6  C4  UNL     1       4.066   9.680   1.759  1.00  0.00     0.009 A 
HETATM    7  C3  UNL     1       4.813   8.551   1.440  1.00  0.00     0.049 A 
HETATM    8  C17 UNL     1       2.811   9.263   2.110  1.00  0.00     0.044 A 
HETATM    9  C2  UNL     1       3.984   7.455   1.609  1.00  0.00     0.099 A 
HETATM   10  N4  UNL     1       2.798   7.935   2.009  1.00  0.00    -0.351 N 
ATOM     11  H4  UNL     1       1.985   7.354   2.212  1.00  0.00     0.166 HD
HETATM   12  C16 UNL     1       1.865  10.213   2.502  1.00  0.00     0.030 A 
HETATM   13  C15 UNL     1       2.211  11.550   2.531  1.00  0.00     0.003 A 
HETATM   14  C14 UNL     1       3.485  11.989   2.181  1.00  0.00     0.018 A 
BRANCH   9  15
HETATM   15  C1  UNL     1       4.348   6.037   1.412  1.00  0.00     0.281 C 
HETATM   16  N1  UNL     1       5.585   5.550   1.854  1.00  0.00    -0.056 NA
HETATM   17  O1  UNL     1       3.523   5.254   0.831  1.00  0.00    -0.269 OA
ENDBRANCH   9  15
ENDBRANCH   1   5
BRANCH   3  18
HETATM   18  C7  UNL     1       7.187  12.318  -0.541  1.00  0.00     0.035 A 
HETATM   19  C8  UNL     1       7.948  11.483  -1.292  1.00  0.00     0.029 A 
HETATM   20  C9  UNL     1       9.159  11.833  -1.917  1.00  0.00     0.003 A 
HETATM   21  C10 UNL     1       9.561  13.134  -1.715  1.00  0.00     0.009 A 
HETATM   22  C11 UNL     1       8.829  14.044  -0.955  1.00  0.00    -0.031 A 
HETATM   23  C13 UNL     1       7.655  13.632  -0.379  1.00  0.00     0.038 A 
BRANCH  22  24
HETATM   24  C12 UNL     1       9.421  15.390  -0.854  1.00  0.00     0.268 C 
BRANCH  24  25
HETATM   25  N3  UNL     1      10.473  15.659  -1.766  1.00  0.00    -0.075 N 
ATOM     26  H33 UNL     1      10.544  16.662  -1.934  1.00  0.00     0.274 HD
ATOM     27  H32 UNL     1      11.375  15.487  -1.321  1.00  0.00     0.274 HD
ATOM     28  H31 UNL     1      10.420  15.157  -2.653  1.00  0.00     0.274 HD
ENDBRANCH  24  25
ENDBRANCH  22  24
ENDBRANCH   3  18
TORSDOF 5
ENDMDL
