MODEL 3
REMARK VINA RESULT: -7.610452477      2.179      7.363
REMARK  5 active torsions:
REMARK  status: ('A' for Active; 'I' for Inactive)
REMARK    1  A    between atoms: C1_2  and  C2_4 
REMARK    2  A    between atoms: C5_7  and  C6_8 
REMARK       I    between atoms: C6_8  and  N2_10 
REMARK    3  A    between atoms: N2_10  and  C7_12 
REMARK    4  A    between atoms: C11_16  and  C12_17 
REMARK    5  A    between atoms: C12_17  and  N3_18 
ROOT
HETATM    1  C6  UNL     1       3.370   7.890   1.999  1.00  0.00     0.257 C 
HETATM    2  O2  UNL     1       2.761   7.417   2.992  1.00  0.00    -0.267 OA
HETATM    3  N2  UNL     1       4.096   7.030   1.156  1.00  0.00    -0.323 N 
ATOM      4  H2  UNL     1       4.574   7.479   0.375  1.00  0.00     0.169 HD
ENDROOT
BRANCH   1   5
HETATM    5  C5  UNL     1       3.318   9.353   1.734  1.00  0.00     0.044 A 
HETATM    6  C4  UNL     1       4.512   9.993   1.529  1.00  0.00     0.009 A 
HETATM    7  C3  UNL     1       5.812   9.508   1.441  1.00  0.00     0.049 A 
HETATM    8  C17 UNL     1       4.557  11.346   1.332  1.00  0.00     0.044 A 
HETATM    9  C2  UNL     1       6.634  10.593   1.187  1.00  0.00     0.099 A 
HETATM   10  N4  UNL     1       5.835  11.668   1.132  1.00  0.00    -0.351 N 
ATOM     11  H4  UNL     1       6.165  12.618   0.958  1.00  0.00     0.166 HD
HETATM   12  C16 UNL     1       3.366  12.075   1.346  1.00  0.00     0.030 A 
HETATM   13  C15 UNL     1       2.168  11.421   1.555  1.00  0.00     0.003 A 
HETATM   14  C14 UNL     1       2.105  10.044   1.753  1.00  0.00     0.018 A 
BRANCH   9  15
HETATM   15  C1  UNL     1       8.097  10.563   0.989  1.00  0.00     0.281 C 
HETATM   16  N1  UNL     1       8.959  11.087   1.961  1.00  0.00    -0.056 NA
HETATM   17  O1  UNL     1       8.573  10.054  -0.080  1.00  0.00    -0.269 OA
ENDBRANCH   9  15
ENDBRANCH   1   5
BRANCH   3  18
HETATM   18  C7  UNL     1       4.254   5.636   1.244  1.00  0.00     0.035 A 
HETATM   19  C8  UNL     1       5.398   5.050   1.675  1.00  0.00     0.029 A 
HETATM   20  C9  UNL     1       5.604   3.662   1.787  1.00  0.00     0.003 A 
HETATM   21  C10 UNL     1       4.533   2.884   1.412  1.00  0.00     0.009 A 
HETATM   22  C11 UNL     1       3.329   3.420   0.959  1.00  0.00    -0.031 A 
HETATM   23  C13 UNL     1       3.200   4.783   0.880  1.00  0.00     0.038 A 
BRANCH  22  24
HETATM   24  C12 UNL     1       2.299   2.427   0.605  1.00  0.00     0.268 C 
BRANCH  24  25
HETATM   25  N3  UNL     1       2.551   1.106   1.055  1.00  0.00    -0.075 N 
ATOM     26  H33 UNL     1       3.437   1.071   1.560  1.00  0.00     0.274 HD
ATOM     27  H32 UNL     1       1.906   0.863   1.806  1.00  0.00     0.274 HD
ATOM     28  H31 UNL     1       2.531   0.389   0.330  1.00  0.00     0.274 HD
ENDBRANCH  24  25
ENDBRANCH  22  24
ENDBRANCH   3  18
TORSDOF 5
ENDMDL
