MODEL 5
REMARK VINA RESULT: -7.188677763      1.561      1.900
REMARK  5 active torsions:
REMARK  status: ('A' for Active; 'I' for Inactive)
REMARK    1  A    between atoms: C1_2  and  C2_4 
REMARK    2  A    between atoms: C5_7  and  C6_8 
REMARK       I    between atoms: C6_8  and  N2_10 
REMARK    3  A    between atoms: N2_10  and  C7_12 
REMARK    4  A    between atoms: C11_16  and  C12_17 
REMARK    5  A    between atoms: C12_17  and  N3_18 
ROOT
HETATM    1  C6  UNL     1       5.416  11.003   0.714  1.00  0.00     0.257 C 
HETATM    2  O2  UNL     1       5.759  10.337  -0.296  1.00  0.00    -0.267 OA
HETATM    3  N2  UNL     1       6.192  12.103   1.117  1.00  0.00    -0.323 N 
ATOM      4  H2  UNL     1       5.864  12.593   1.949  1.00  0.00     0.169 HD
ENDROOT
BRANCH   1   5
HETATM    5  C5  UNL     1       4.196  10.611   1.473  1.00  0.00     0.044 A 
HETATM    6  C4  UNL     1       3.947   9.271   1.604  1.00  0.00     0.009 A 
HETATM    7  C3  UNL     1       4.681   8.155   1.215  1.00  0.00     0.049 A 
HETATM    8  C17 UNL     1       2.820   8.827   2.239  1.00  0.00     0.044 A 
HETATM    9  C2  UNL     1       3.975   7.040   1.631  1.00  0.00     0.099 A 
HETATM   10  N4  UNL     1       2.869   7.495   2.237  1.00  0.00    -0.351 N 
ATOM     11  H4  UNL     1       2.153   6.895   2.647  1.00  0.00     0.166 HD
HETATM   12  C16 UNL     1       1.917   9.760   2.753  1.00  0.00     0.030 A 
HETATM   13  C15 UNL     1       2.177  11.109   2.615  1.00  0.00     0.003 A 
HETATM   14  C14 UNL     1       3.322  11.577   1.974  1.00  0.00     0.018 A 
BRANCH   9  15
HETATM   15  C1  UNL     1       4.378   5.629   1.462  1.00  0.00     0.281 C 
HETATM   16  N1  UNL     1       3.488   4.693   0.921  1.00  0.00    -0.056 NA
HETATM   17  O1  UNL     1       5.550   5.266   1.816  1.00  0.00    -0.269 OA
ENDBRANCH   9  15
ENDBRANCH   1   5
BRANCH   3  18
HETATM   18  C7  UNL     1       7.360  12.620   0.530  1.00  0.00     0.035 A 
HETATM   19  C8  UNL     1       7.344  13.399  -0.580  1.00  0.00     0.029 A 
HETATM   20  C9  UNL     1       8.482  13.944  -1.203  1.00  0.00     0.003 A 
HETATM   21  C10 UNL     1       9.680  13.628  -0.602  1.00  0.00     0.009 A 
HETATM   22  C11 UNL     1       9.769  12.834   0.539  1.00  0.00    -0.031 A 
HETATM   23  C13 UNL     1       8.616  12.339   1.093  1.00  0.00     0.038 A 
BRANCH  22  24
HETATM   24  C12 UNL     1      11.138  12.607   1.035  1.00  0.00     0.268 C 
BRANCH  24  25
HETATM   25  N3  UNL     1      12.141  13.408   0.432  1.00  0.00    -0.075 N 
ATOM     26  H33 UNL     1      13.054  12.966   0.540  1.00  0.00     0.274 HD
ATOM     27  H32 UNL     1      12.048  13.380  -0.584  1.00  0.00     0.274 HD
ATOM     28  H31 UNL     1      12.178  14.375   0.754  1.00  0.00     0.274 HD
ENDBRANCH  24  25
ENDBRANCH  22  24
ENDBRANCH   3  18
TORSDOF 5
ENDMDL
