MODEL 5
REMARK VINA RESULT: -8.508649381      1.387      1.715
REMARK  8 active torsions:
REMARK  status: ('A' for Active; 'I' for Inactive)
REMARK    1  A    between atoms: C2_2  and  C4_4 
REMARK    2  A    between atoms: C4_4  and  N1_5 
REMARK    3  A    between atoms: C4_4  and  C20_32 
REMARK    4  A    between atoms: N1_5  and  C5_7 
REMARK    5  A    between atoms: C6_10  and  N3_11 
REMARK    6  A    between atoms: N3_11  and  C7_13 
REMARK    7  A    between atoms: C11_17  and  C12_18 
REMARK    8  A    between atoms: C12_18  and  N4_19 
ROOT
HETATM    1  C5  UNL     1       6.250   9.447   1.298  1.00  0.00     0.681 A 
HETATM    2  N2  UNL     1       5.608   8.281   1.365  1.00  0.00    -0.176 N 
ATOM      3  H2  UNL     1       6.133   7.438   1.130  1.00  0.00     0.186 HD
HETATM    4  C6  UNL     1       4.321   8.134   1.721  1.00  0.00     0.134 A 
HETATM    5  C14 UNL     1       3.609   9.294   2.045  1.00  0.00     0.036 A 
HETATM    6  C15 UNL     1       2.290   9.298   2.427  1.00  0.00     0.017 A 
HETATM    7  C16 UNL     1       1.603  10.485   2.747  1.00  0.00     0.001 A 
HETATM    8  C17 UNL     1       2.264  11.683   2.677  1.00  0.00     0.002 A 
HETATM    9  C18 UNL     1       3.580  11.658   2.295  1.00  0.00     0.031 A 
HETATM   10  C19 UNL     1       4.273  10.489   1.976  1.00  0.00     0.063 A 
HETATM   11  N5  UNL     1       5.553  10.531   1.610  1.00  0.00    -0.191 N 
ATOM     12  H5  UNL     1       6.018  11.438   1.567  1.00  0.00     0.184 HD
ENDROOT
BRANCH   4  13
HETATM   13  N3  UNL     1       3.680   6.882   1.778  1.00  0.00    -0.341 N 
ATOM     14  H3  UNL     1       2.676   6.893   1.958  1.00  0.00     0.167 HD
BRANCH  13  15
HETATM   15  C7  UNL     1       4.281   5.609   1.612  1.00  0.00     0.034 A 
HETATM   16  C8  UNL     1       5.584   5.332   1.837  1.00  0.00     0.029 A 
HETATM   17  C9  UNL     1       6.092   4.034   1.642  1.00  0.00     0.003 A 
HETATM   18  C10 UNL     1       5.290   3.009   1.218  1.00  0.00     0.009 A 
HETATM   19  C11 UNL     1       3.959   3.273   0.984  1.00  0.00    -0.031 A 
HETATM   20  C13 UNL     1       3.486   4.536   1.178  1.00  0.00     0.038 A 
BRANCH  19  21
HETATM   21  C12 UNL     1       3.032   2.193   0.519  1.00  0.00     0.268 C 
BRANCH  21  22
HETATM   22  N4  UNL     1       1.782   2.226   1.249  1.00  0.00    -0.075 N 
ATOM     23  H43 UNL     1       1.853   2.798   2.091  1.00  0.00     0.274 HD
ATOM     24  H42 UNL     1       1.073   2.766   0.753  1.00  0.00     0.274 HD
ATOM     25  H41 UNL     1       1.454   1.284   1.463  1.00  0.00     0.274 HD
ENDBRANCH  21  22
ENDBRANCH  19  21
ENDBRANCH  13  15
ENDBRANCH   4  13
BRANCH   1  26
HETATM   26  N1  UNL     1       7.603   9.452   0.887  1.00  0.00    -0.211 N 
ATOM     27  H1  UNL     1       7.855   8.769   0.173  1.00  0.00     0.178 HD
BRANCH  26  28
HETATM   28  C4  UNL     1       8.661  10.297   1.347  1.00  0.00     0.203 C 
BRANCH  28  29
HETATM   29  C2  UNL     1       9.938  10.251   0.604  1.00  0.00     0.011 C 
HETATM   30  C1  UNL     1      11.041  10.780   1.519  1.00  0.00     0.012 C 
HETATM   31  C3  UNL     1      10.408   8.926   0.112  1.00  0.00     0.012 C 
ENDBRANCH  28  29
BRANCH  28  32
HETATM   32  C20 UNL     1       8.174  11.698   1.384  1.00  0.00     0.197 C 
HETATM   33  O1  UNL     1       8.020  12.245   2.511  1.00  0.00    -0.646 OA
HETATM   34  O2  UNL     1       7.867  12.480   0.292  1.00  0.00    -0.646 OA
ENDBRANCH  28  32
ENDBRANCH  26  28
ENDBRANCH   1  26
TORSDOF 8
ENDMDL
