MODEL 4
REMARK VINA RESULT: -8.559917086      1.746      5.200
REMARK  8 active torsions:
REMARK  status: ('A' for Active; 'I' for Inactive)
REMARK    1  A    between atoms: C2_2  and  C4_4 
REMARK    2  A    between atoms: C4_4  and  N1_5 
REMARK    3  A    between atoms: C4_4  and  C20_32 
REMARK    4  A    between atoms: N1_5  and  C5_7 
REMARK    5  A    between atoms: C6_10  and  N3_11 
REMARK    6  A    between atoms: N3_11  and  C7_13 
REMARK    7  A    between atoms: C11_17  and  C12_18 
REMARK    8  A    between atoms: C12_18  and  N4_19 
ROOT
HETATM    1  C5  UNL     1       6.983   7.322   2.281  1.00  0.00     0.681 A 
HETATM    2  N2  UNL     1       5.844   7.950   1.990  1.00  0.00    -0.176 N 
ATOM      3  H2  UNL     1       5.842   8.970   2.030  1.00  0.00     0.186 HD
HETATM    4  C6  UNL     1       4.698   7.339   1.647  1.00  0.00     0.134 A 
HETATM    5  C14 UNL     1       4.709   5.941   1.592  1.00  0.00     0.036 A 
HETATM    6  C15 UNL     1       3.615   5.181   1.257  1.00  0.00     0.017 A 
HETATM    7  C16 UNL     1       3.660   3.775   1.210  1.00  0.00     0.001 A 
HETATM    8  C17 UNL     1       4.833   3.131   1.509  1.00  0.00     0.002 A 
HETATM    9  C18 UNL     1       5.913   3.906   1.841  1.00  0.00     0.031 A 
HETATM   10  C19 UNL     1       5.882   5.300   1.890  1.00  0.00     0.063 A 
HETATM   11  N5  UNL     1       6.967   5.998   2.221  1.00  0.00    -0.191 N 
ATOM     12  H5  UNL     1       7.825   5.490   2.438  1.00  0.00     0.184 HD
ENDROOT
BRANCH   4  13
HETATM   13  N3  UNL     1       3.514   8.040   1.350  1.00  0.00    -0.341 N 
ATOM     14  H3  UNL     1       3.053   7.802   0.472  1.00  0.00     0.167 HD
BRANCH  13  15
HETATM   15  C7  UNL     1       2.895   9.041   2.140  1.00  0.00     0.034 A 
HETATM   16  C8  UNL     1       3.095  10.371   2.000  1.00  0.00     0.029 A 
HETATM   17  C9  UNL     1       2.435  11.292   2.835  1.00  0.00     0.003 A 
HETATM   18  C10 UNL     1       1.573  10.880   3.815  1.00  0.00     0.009 A 
HETATM   19  C11 UNL     1       1.358   9.528   3.971  1.00  0.00    -0.031 A 
HETATM   20  C13 UNL     1       2.006   8.651   3.153  1.00  0.00     0.038 A 
BRANCH  19  21
HETATM   21  C12 UNL     1       0.426   9.016   5.024  1.00  0.00     0.268 C 
BRANCH  21  22
HETATM   22  N4  UNL     1      -0.787   8.487   4.438  1.00  0.00    -0.075 N 
ATOM     23  H43 UNL     1      -1.524   9.191   4.399  1.00  0.00     0.274 HD
ATOM     24  H42 UNL     1      -0.678   8.320   3.437  1.00  0.00     0.274 HD
ATOM     25  H41 UNL     1      -1.097   7.646   4.926  1.00  0.00     0.274 HD
ENDBRANCH  21  22
ENDBRANCH  19  21
ENDBRANCH  13  15
ENDBRANCH   4  13
BRANCH   1  26
HETATM   26  N1  UNL     1       8.108   8.097   2.645  1.00  0.00    -0.211 N 
ATOM     27  H1  UNL     1       8.706   7.702   3.372  1.00  0.00     0.178 HD
BRANCH  26  28
HETATM   28  C4  UNL     1       8.513   9.364   2.122  1.00  0.00     0.203 C 
BRANCH  28  29
HETATM   29  C2  UNL     1       9.534  10.117   2.881  1.00  0.00     0.011 C 
HETATM   30  C1  UNL     1       9.683  11.497   2.241  1.00  0.00     0.012 C 
HETATM   31  C3  UNL     1       9.285  10.358   4.330  1.00  0.00     0.012 C 
ENDBRANCH  28  29
BRANCH  28  32
HETATM   32  C20 UNL     1       8.988   9.178   0.728  1.00  0.00     0.197 C 
HETATM   33  O1  UNL     1      10.021   8.478   0.540  1.00  0.00    -0.646 OA
HETATM   34  O2  UNL     1       8.404   9.701  -0.404  1.00  0.00    -0.646 OA
ENDBRANCH  28  32
ENDBRANCH  26  28
ENDBRANCH   1  26
TORSDOF 8
ENDMDL
