MODEL 6
REMARK VINA RESULT: -8.369462350      1.709      5.615
REMARK  8 active torsions:
REMARK  status: ('A' for Active; 'I' for Inactive)
REMARK    1  A    between atoms: C2_2  and  C4_4 
REMARK    2  A    between atoms: C4_4  and  N1_5 
REMARK    3  A    between atoms: C4_4  and  C20_32 
REMARK    4  A    between atoms: N1_5  and  C5_7 
REMARK    5  A    between atoms: C6_10  and  N3_11 
REMARK    6  A    between atoms: N3_11  and  C7_13 
REMARK    7  A    between atoms: C11_17  and  C12_18 
REMARK    8  A    between atoms: C12_18  and  N4_19 
ROOT
HETATM    1  C5  UNL     1       6.937   7.318   2.279  1.00  0.00     0.681 A 
HETATM    2  N2  UNL     1       5.780   7.929   2.023  1.00  0.00    -0.176 N 
ATOM      3  H2  UNL     1       5.760   8.948   2.081  1.00  0.00     0.186 HD
HETATM    4  C6  UNL     1       4.638   7.302   1.693  1.00  0.00     0.134 A 
HETATM    5  C14 UNL     1       4.674   5.906   1.612  1.00  0.00     0.036 A 
HETATM    6  C15 UNL     1       3.588   5.132   1.286  1.00  0.00     0.017 A 
HETATM    7  C16 UNL     1       3.658   3.728   1.213  1.00  0.00     0.001 A 
HETATM    8  C17 UNL     1       4.848   3.101   1.477  1.00  0.00     0.002 A 
HETATM    9  C18 UNL     1       5.920   3.890   1.800  1.00  0.00     0.031 A 
HETATM   10  C19 UNL     1       5.864   5.283   1.875  1.00  0.00     0.063 A 
HETATM   11  N5  UNL     1       6.944   5.995   2.196  1.00  0.00    -0.191 N 
ATOM     12  H5  UNL     1       7.815   5.499   2.386  1.00  0.00     0.184 HD
ENDROOT
BRANCH   4  13
HETATM   13  N3  UNL     1       3.436   7.986   1.432  1.00  0.00    -0.341 N 
ATOM     14  H3  UNL     1       2.956   7.747   0.564  1.00  0.00     0.167 HD
BRANCH  13  15
HETATM   15  C7  UNL     1       2.823   8.972   2.245  1.00  0.00     0.034 A 
HETATM   16  C8  UNL     1       1.949   8.717   3.245  1.00  0.00     0.029 A 
HETATM   17  C9  UNL     1       1.388   9.763   4.000  1.00  0.00     0.003 A 
HETATM   18  C10 UNL     1       1.703  11.072   3.751  1.00  0.00     0.009 A 
HETATM   19  C11 UNL     1       2.591  11.351   2.736  1.00  0.00    -0.031 A 
HETATM   20  C13 UNL     1       3.124  10.323   2.016  1.00  0.00     0.038 A 
BRANCH  19  21
HETATM   21  C12 UNL     1       2.974  12.762   2.417  1.00  0.00     0.268 C 
BRANCH  21  22
HETATM   22  N4  UNL     1       3.483  12.874   1.066  1.00  0.00    -0.075 N 
ATOM     23  H43 UNL     1       3.700  11.959   0.670  1.00  0.00     0.274 HD
ATOM     24  H42 UNL     1       2.753  13.157   0.412  1.00  0.00     0.274 HD
ATOM     25  H41 UNL     1       4.287  13.500   1.025  1.00  0.00     0.274 HD
ENDBRANCH  21  22
ENDBRANCH  19  21
ENDBRANCH  13  15
ENDBRANCH   4  13
BRANCH   1  26
HETATM   26  N1  UNL     1       8.054   8.107   2.634  1.00  0.00    -0.211 N 
ATOM     27  H1  UNL     1       8.640   7.739   3.384  1.00  0.00     0.178 HD
BRANCH  26  28
HETATM   28  C4  UNL     1       8.467   9.355   2.073  1.00  0.00     0.203 C 
BRANCH  28  29
HETATM   29  C2  UNL     1       9.564  10.077   2.753  1.00  0.00     0.011 C 
HETATM   30  C1  UNL     1       9.680  11.466   2.128  1.00  0.00     0.012 C 
HETATM   31  C3  UNL     1       9.447  10.291   4.222  1.00  0.00     0.012 C 
ENDBRANCH  28  29
BRANCH  28  32
HETATM   32  C20 UNL     1       8.837   9.143   0.651  1.00  0.00     0.197 C 
HETATM   33  O1  UNL     1       9.775   8.338   0.394  1.00  0.00    -0.646 OA
HETATM   34  O2  UNL     1       8.249   9.746  -0.439  1.00  0.00    -0.646 OA
ENDBRANCH  28  32
ENDBRANCH  26  28
ENDBRANCH   1  26
TORSDOF 8
ENDMDL
