MODEL 2
REMARK VINA RESULT: -9.186812004      1.524      1.790
REMARK  8 active torsions:
REMARK  status: ('A' for Active; 'I' for Inactive)
REMARK    1  A    between atoms: C2_2  and  C4_4 
REMARK    2  A    between atoms: C4_4  and  N1_5 
REMARK    3  A    between atoms: C4_4  and  C20_32 
REMARK    4  A    between atoms: N1_5  and  C5_7 
REMARK    5  A    between atoms: C6_10  and  N3_11 
REMARK    6  A    between atoms: N3_11  and  C7_13 
REMARK    7  A    between atoms: C11_17  and  C12_18 
REMARK    8  A    between atoms: C12_18  and  N4_19 
ROOT
HETATM    1  C5  UNL     1       6.255   9.467   1.357  1.00  0.00     0.681 A 
HETATM    2  N2  UNL     1       5.608   8.302   1.361  1.00  0.00    -0.176 N 
ATOM      3  H2  UNL     1       6.136   7.466   1.106  1.00  0.00     0.186 HD
HETATM    4  C6  UNL     1       4.311   8.146   1.676  1.00  0.00     0.134 A 
HETATM    5  C14 UNL     1       3.594   9.295   2.027  1.00  0.00     0.036 A 
HETATM    6  C15 UNL     1       2.266   9.290   2.373  1.00  0.00     0.017 A 
HETATM    7  C16 UNL     1       1.574  10.466   2.722  1.00  0.00     0.001 A 
HETATM    8  C17 UNL     1       2.241  11.663   2.718  1.00  0.00     0.002 A 
HETATM    9  C18 UNL     1       3.566  11.648   2.370  1.00  0.00     0.031 A 
HETATM   10  C19 UNL     1       4.264  10.490   2.023  1.00  0.00     0.063 A 
HETATM   11  N5  UNL     1       5.554  10.541   1.693  1.00  0.00    -0.191 N 
ATOM     12  H5  UNL     1       6.022  11.447   1.699  1.00  0.00     0.184 HD
ENDROOT
BRANCH   4  13
HETATM   13  N3  UNL     1       3.665   6.896   1.666  1.00  0.00    -0.341 N 
ATOM     14  H3  UNL     1       2.648   6.908   1.747  1.00  0.00     0.167 HD
BRANCH  13  15
HETATM   15  C7  UNL     1       4.276   5.622   1.555  1.00  0.00     0.034 A 
HETATM   16  C8  UNL     1       5.570   5.356   1.838  1.00  0.00     0.029 A 
HETATM   17  C9  UNL     1       6.090   4.056   1.695  1.00  0.00     0.003 A 
HETATM   18  C10 UNL     1       5.309   3.017   1.266  1.00  0.00     0.009 A 
HETATM   19  C11 UNL     1       3.986   3.269   0.974  1.00  0.00    -0.031 A 
HETATM   20  C13 UNL     1       3.502   4.535   1.118  1.00  0.00     0.038 A 
BRANCH  19  21
HETATM   21  C12 UNL     1       3.083   2.174   0.502  1.00  0.00     0.268 C 
BRANCH  21  22
HETATM   22  N4  UNL     1       1.825   2.187   1.219  1.00  0.00    -0.075 N 
ATOM     23  H43 UNL     1       1.967   2.127   2.227  1.00  0.00     0.274 HD
ATOM     24  H42 UNL     1       1.379   3.104   1.179  1.00  0.00     0.274 HD
ATOM     25  H41 UNL     1       1.202   1.452   0.884  1.00  0.00     0.274 HD
ENDBRANCH  21  22
ENDBRANCH  19  21
ENDBRANCH  13  15
ENDBRANCH   4  13
BRANCH   1  26
HETATM   26  N1  UNL     1       7.618   9.483   0.983  1.00  0.00    -0.211 N 
ATOM     27  H1  UNL     1       7.897  10.226   0.342  1.00  0.00     0.178 HD
BRANCH  26  28
HETATM   28  C4  UNL     1       8.655   8.587   1.391  1.00  0.00     0.203 C 
BRANCH  28  29
HETATM   29  C2  UNL     1      10.052   9.023   1.179  1.00  0.00     0.011 C 
HETATM   30  C1  UNL     1      10.457   8.646  -0.245  1.00  0.00     0.012 C 
HETATM   31  C3  UNL     1      10.356  10.474   1.327  1.00  0.00     0.012 C 
ENDBRANCH  28  29
BRANCH  28  32
HETATM   32  C20 UNL     1       8.465   8.257   2.826  1.00  0.00     0.197 C 
HETATM   33  O1  UNL     1       8.200   7.062   3.132  1.00  0.00    -0.646 OA
HETATM   34  O2  UNL     1       8.551   9.140   3.880  1.00  0.00    -0.646 OA
ENDBRANCH  28  32
ENDBRANCH  26  28
ENDBRANCH   1  26
TORSDOF 8
ENDMDL
