MODEL 1
REMARK VINA RESULT: -9.322879939      0.000      0.000
REMARK  8 active torsions:
REMARK  status: ('A' for Active; 'I' for Inactive)
REMARK    1  A    between atoms: C2_2  and  C4_4 
REMARK    2  A    between atoms: C4_4  and  N1_5 
REMARK    3  A    between atoms: C4_4  and  C20_32 
REMARK    4  A    between atoms: N1_5  and  C5_7 
REMARK    5  A    between atoms: C6_10  and  N3_11 
REMARK    6  A    between atoms: N3_11  and  C7_13 
REMARK    7  A    between atoms: C11_17  and  C12_18 
REMARK    8  A    between atoms: C12_18  and  N4_19 
ROOT
HETATM    1  C5  UNL     1       6.664   9.054   1.819  1.00  0.00     0.681 A 
HETATM    2  N2  UNL     1       5.896   7.965   1.811  1.00  0.00    -0.176 N 
ATOM      3  H2  UNL     1       6.362   7.057   1.792  1.00  0.00     0.186 HD
HETATM    4  C6  UNL     1       4.552   7.975   1.828  1.00  0.00     0.134 A 
HETATM    5  C14 UNL     1       3.920   9.223   1.857  1.00  0.00     0.036 A 
HETATM    6  C15 UNL     1       2.558   9.388   1.878  1.00  0.00     0.017 A 
HETATM    7  C16 UNL     1       1.954  10.660   1.908  1.00  0.00     0.001 A 
HETATM    8  C17 UNL     1       2.745  11.779   1.916  1.00  0.00     0.002 A 
HETATM    9  C18 UNL     1       4.103  11.593   1.896  1.00  0.00     0.031 A 
HETATM   10  C19 UNL     1       4.714  10.339   1.867  1.00  0.00     0.063 A 
HETATM   11  N5  UNL     1       6.041  10.224   1.848  1.00  0.00    -0.191 N 
ATOM     12  H5  UNL     1       6.603  11.076   1.854  1.00  0.00     0.184 HD
ENDROOT
BRANCH   4  13
HETATM   13  N3  UNL     1       3.777   6.800   1.817  1.00  0.00    -0.341 N 
ATOM     14  H3  UNL     1       2.778   6.912   1.989  1.00  0.00     0.167 HD
BRANCH  13  15
HETATM   15  C7  UNL     1       4.237   5.478   1.592  1.00  0.00     0.034 A 
HETATM   16  C8  UNL     1       5.513   5.063   1.755  1.00  0.00     0.029 A 
HETATM   17  C9  UNL     1       5.877   3.727   1.505  1.00  0.00     0.003 A 
HETATM   18  C10 UNL     1       4.958   2.802   1.089  1.00  0.00     0.009 A 
HETATM   19  C11 UNL     1       3.653   3.207   0.918  1.00  0.00    -0.031 A 
HETATM   20  C13 UNL     1       3.320   4.505   1.165  1.00  0.00     0.038 A 
BRANCH  19  21
HETATM   21  C12 UNL     1       2.603   2.241   0.465  1.00  0.00     0.268 C 
BRANCH  21  22
HETATM   22  N4  UNL     1       2.874   0.905   0.954  1.00  0.00    -0.075 N 
ATOM     23  H43 UNL     1       3.141   0.276   0.197  1.00  0.00     0.274 HD
ATOM     24  H42 UNL     1       3.738   0.872   1.495  1.00  0.00     0.274 HD
ATOM     25  H41 UNL     1       2.085   0.539   1.485  1.00  0.00     0.274 HD
ENDBRANCH  21  22
ENDBRANCH  19  21
ENDBRANCH  13  15
ENDBRANCH   4  13
BRANCH   1  26
HETATM   26  N1  UNL     1       8.068   8.892   1.779  1.00  0.00    -0.211 N 
ATOM     27  H1  UNL     1       8.429   8.030   2.188  1.00  0.00     0.178 HD
BRANCH  26  28
HETATM   28  C4  UNL     1       9.043   9.785   1.237  1.00  0.00     0.203 C 
BRANCH  28  29
HETATM   29  C2  UNL     1      10.256  10.038   2.044  1.00  0.00     0.011 C 
HETATM   30  C1  UNL     1      10.981  11.245   1.450  1.00  0.00     0.012 C 
HETATM   31  C3  UNL     1      10.076  10.334   3.493  1.00  0.00     0.012 C 
ENDBRANCH  28  29
BRANCH  28  32
HETATM   32  C20 UNL     1       9.450   9.295  -0.104  1.00  0.00     0.197 C 
HETATM   33  O1  UNL     1       8.961   9.864  -1.119  1.00  0.00    -0.646 OA
HETATM   34  O2  UNL     1      10.324   8.261  -0.359  1.00  0.00    -0.646 OA
ENDBRANCH  28  32
ENDBRANCH  26  28
ENDBRANCH   1  26
TORSDOF 8
ENDMDL
