MODEL 7
REMARK VINA RESULT: -8.217874359      1.849      5.295
REMARK  8 active torsions:
REMARK  status: ('A' for Active; 'I' for Inactive)
REMARK    1  A    between atoms: C2_2  and  C4_4 
REMARK    2  A    between atoms: C4_4  and  N1_5 
REMARK    3  A    between atoms: C4_4  and  C20_32 
REMARK    4  A    between atoms: N1_5  and  C5_7 
REMARK    5  A    between atoms: C6_10  and  N3_11 
REMARK    6  A    between atoms: N3_11  and  C7_13 
REMARK    7  A    between atoms: C11_17  and  C12_18 
REMARK    8  A    between atoms: C12_18  and  N4_19 
ROOT
HETATM    1  C5  UNL     1       6.958   7.746   2.169  1.00  0.00     0.681 A 
HETATM    2  N2  UNL     1       5.760   8.283   1.938  1.00  0.00    -0.176 N 
ATOM      3  H2  UNL     1       5.686   9.301   1.957  1.00  0.00     0.186 HD
HETATM    4  C6  UNL     1       4.643   7.583   1.682  1.00  0.00     0.134 A 
HETATM    5  C14 UNL     1       4.752   6.188   1.655  1.00  0.00     0.036 A 
HETATM    6  C15 UNL     1       3.698   5.344   1.406  1.00  0.00     0.017 A 
HETATM    7  C16 UNL     1       3.842   3.944   1.386  1.00  0.00     0.001 A 
HETATM    8  C17 UNL     1       5.075   3.393   1.623  1.00  0.00     0.002 A 
HETATM    9  C18 UNL     1       6.114   4.252   1.869  1.00  0.00     0.031 A 
HETATM   10  C19 UNL     1       5.985   5.641   1.891  1.00  0.00     0.063 A 
HETATM   11  N5  UNL     1       7.035   6.422   2.137  1.00  0.00    -0.191 N 
ATOM     12  H5  UNL     1       7.939   5.983   2.310  1.00  0.00     0.184 HD
ENDROOT
BRANCH   4  13
HETATM   13  N3  UNL     1       3.395   8.190   1.446  1.00  0.00    -0.341 N 
ATOM     14  H3  UNL     1       2.899   7.899   0.604  1.00  0.00     0.167 HD
BRANCH  13  15
HETATM   15  C7  UNL     1       2.755   9.163   2.254  1.00  0.00     0.034 A 
HETATM   16  C8  UNL     1       2.937  10.498   2.149  1.00  0.00     0.029 A 
HETATM   17  C9  UNL     1       2.257  11.390   2.999  1.00  0.00     0.003 A 
HETATM   18  C10 UNL     1       1.390  10.942   3.959  1.00  0.00     0.009 A 
HETATM   19  C11 UNL     1       1.192   9.584   4.080  1.00  0.00    -0.031 A 
HETATM   20  C13 UNL     1       1.860   8.737   3.248  1.00  0.00     0.038 A 
BRANCH  19  21
HETATM   21  C12 UNL     1       0.256   9.034   5.110  1.00  0.00     0.268 C 
BRANCH  21  22
HETATM   22  N4  UNL     1      -0.322  10.092   5.912  1.00  0.00    -0.075 N 
ATOM     23  H43 UNL     1       0.159  10.980   5.764  1.00  0.00     0.274 HD
ATOM     24  H42 UNL     1      -1.246  10.358   5.572  1.00  0.00     0.274 HD
ATOM     25  H41 UNL     1      -0.343   9.838   6.899  1.00  0.00     0.274 HD
ENDBRANCH  21  22
ENDBRANCH  19  21
ENDBRANCH  13  15
ENDBRANCH   4  13
BRANCH   1  26
HETATM   26  N1  UNL     1       8.045   8.607   2.445  1.00  0.00    -0.211 N 
ATOM     27  H1  UNL     1       8.589   8.386   3.278  1.00  0.00     0.178 HD
BRANCH  26  28
HETATM   28  C4  UNL     1       8.475   9.749   1.700  1.00  0.00     0.203 C 
BRANCH  28  29
HETATM   29  C2  UNL     1       9.510  10.609   2.313  1.00  0.00     0.011 C 
HETATM   30  C1  UNL     1       9.929   9.978   3.641  1.00  0.00     0.012 C 
HETATM   31  C3  UNL     1      10.767  10.836   1.547  1.00  0.00     0.012 C 
ENDBRANCH  28  29
BRANCH  28  32
HETATM   32  C20 UNL     1       8.948   9.302   0.366  1.00  0.00     0.197 C 
HETATM   33  O1  UNL     1       8.502   9.896  -0.654  1.00  0.00    -0.646 OA
HETATM   34  O2  UNL     1       9.843   8.283   0.123  1.00  0.00    -0.646 OA
ENDBRANCH  28  32
ENDBRANCH  26  28
ENDBRANCH   1  26
TORSDOF 8
ENDMDL
