MODEL 3
REMARK VINA RESULT: -8.709076272      1.382      1.665
REMARK  8 active torsions:
REMARK  status: ('A' for Active; 'I' for Inactive)
REMARK    1  A    between atoms: C2_2  and  C4_4 
REMARK    2  A    between atoms: C4_4  and  N1_5 
REMARK    3  A    between atoms: C4_4  and  C20_32 
REMARK    4  A    between atoms: N1_5  and  C5_7 
REMARK    5  A    between atoms: C6_10  and  N3_11 
REMARK    6  A    between atoms: N3_11  and  C7_13 
REMARK    7  A    between atoms: C11_17  and  C12_18 
REMARK    8  A    between atoms: C12_18  and  N4_19 
ROOT
HETATM    1  C5  UNL     1       5.798   9.656   1.433  1.00  0.00     0.681 A 
HETATM    2  N2  UNL     1       5.263   8.436   1.493  1.00  0.00    -0.176 N 
ATOM      3  H2  UNL     1       5.859   7.645   1.248  1.00  0.00     0.186 HD
HETATM    4  C6  UNL     1       3.995   8.172   1.853  1.00  0.00     0.134 A 
HETATM    5  C14 UNL     1       3.184   9.262   2.190  1.00  0.00     0.036 A 
HETATM    6  C15 UNL     1       1.873   9.146   2.578  1.00  0.00     0.017 A 
HETATM    7  C16 UNL     1       1.084  10.263   2.911  1.00  0.00     0.001 A 
HETATM    8  C17 UNL     1       1.636  11.516   2.849  1.00  0.00     0.002 A 
HETATM    9  C18 UNL     1       2.946  11.611   2.460  1.00  0.00     0.031 A 
HETATM   10  C19 UNL     1       3.739  10.512   2.129  1.00  0.00     0.063 A 
HETATM   11  N5  UNL     1       5.008  10.671   1.757  1.00  0.00    -0.191 N 
ATOM     12  H5  UNL     1       5.390  11.616   1.721  1.00  0.00     0.184 HD
ENDROOT
BRANCH   4  13
HETATM   13  N3  UNL     1       3.468   6.868   1.902  1.00  0.00    -0.341 N 
ATOM     14  H3  UNL     1       2.477   6.786   2.126  1.00  0.00     0.167 HD
BRANCH  13  15
HETATM   15  C7  UNL     1       4.169   5.657   1.674  1.00  0.00     0.034 A 
HETATM   16  C8  UNL     1       5.494   5.479   1.875  1.00  0.00     0.029 A 
HETATM   17  C9  UNL     1       6.103   4.237   1.618  1.00  0.00     0.003 A 
HETATM   18  C10 UNL     1       5.383   3.169   1.156  1.00  0.00     0.009 A 
HETATM   19  C11 UNL     1       4.032   3.332   0.946  1.00  0.00    -0.031 A 
HETATM   20  C13 UNL     1       3.459   4.543   1.200  1.00  0.00     0.038 A 
BRANCH  19  21
HETATM   21  C12 UNL     1       3.191   2.201   0.442  1.00  0.00     0.268 C 
BRANCH  21  22
HETATM   22  N4  UNL     1       1.947   2.105   1.177  1.00  0.00    -0.075 N 
ATOM     23  H43 UNL     1       2.034   1.483   1.981  1.00  0.00     0.274 HD
ATOM     24  H42 UNL     1       1.736   2.971   1.673  1.00  0.00     0.274 HD
ATOM     25  H41 UNL     1       1.179   1.825   0.568  1.00  0.00     0.274 HD
ENDBRANCH  21  22
ENDBRANCH  19  21
ENDBRANCH  13  15
ENDBRANCH   4  13
BRANCH   1  26
HETATM   26  N1  UNL     1       7.142   9.785   1.017  1.00  0.00    -0.211 N 
ATOM     27  H1  UNL     1       7.294   9.840   0.010  1.00  0.00     0.178 HD
BRANCH  26  28
HETATM   28  C4  UNL     1       8.315   9.848   1.831  1.00  0.00     0.203 C 
BRANCH  28  29
HETATM   29  C2  UNL     1       8.226  10.612   3.094  1.00  0.00     0.011 C 
HETATM   30  C1  UNL     1       9.494  10.345   3.903  1.00  0.00     0.012 C 
HETATM   31  C3  UNL     1       8.097  12.093   3.001  1.00  0.00     0.012 C 
ENDBRANCH  28  29
BRANCH  28  32
HETATM   32  C20 UNL     1       8.763   8.465   2.134  1.00  0.00     0.197 C 
HETATM   33  O1  UNL     1       9.826   8.052   1.595  1.00  0.00    -0.646 OA
HETATM   34  O2  UNL     1       8.123   7.569   2.962  1.00  0.00    -0.646 OA
ENDBRANCH  28  32
ENDBRANCH  26  28
ENDBRANCH   1  26
TORSDOF 8
ENDMDL
