MODEL 5
REMARK VINA RESULT: -9.154089232      1.422      1.861
REMARK  7 active torsions:
REMARK  status: ('A' for Active; 'I' for Inactive)
REMARK    1  A    between atoms: N1_1  and  C1_5 
REMARK    2  A    between atoms: C1_5  and  C2_6 
REMARK    3  A    between atoms: C6_10  and  N2_11 
REMARK    4  A    between atoms: N2_11  and  C7_13 
REMARK    5  A    between atoms: C8_16  and  N4_17 
REMARK    6  A    between atoms: N4_17  and  C9_19 
REMARK    7  A    between atoms: C14_24  and  C15_25 
ROOT
HETATM    1  C7  UNL     1       3.817   7.725   1.642  1.00  0.00     0.134 A 
HETATM    2  N3  UNL     1       4.964   8.000   0.990  1.00  0.00    -0.176 N 
ATOM      3  H3  UNL     1       5.488   7.217   0.599  1.00  0.00     0.186 HD
HETATM    4  C8  UNL     1       5.466   9.233   0.817  1.00  0.00     0.680 A 
HETATM    5  N5  UNL     1       4.824  10.304   1.308  1.00  0.00    -0.191 N 
ATOM      6  H5  UNL     1       5.203  11.242   1.179  1.00  0.00     0.184 HD
HETATM    7  C16 UNL     1       3.675  10.114   1.971  1.00  0.00     0.063 A 
HETATM    8  C17 UNL     1       3.031  11.236   2.469  1.00  0.00     0.031 A 
HETATM    9  C18 UNL     1       1.852  11.072   3.153  1.00  0.00     0.002 A 
HETATM   10  C19 UNL     1       1.315   9.833   3.344  1.00  0.00     0.001 A 
HETATM   11  C20 UNL     1       1.986   8.728   2.832  1.00  0.00     0.017 A 
HETATM   12  C21 UNL     1       3.155   8.824   2.147  1.00  0.00     0.036 A 
ENDROOT
BRANCH   1  13
HETATM   13  N2  UNL     1       3.310   6.433   1.796  1.00  0.00    -0.341 N 
ATOM     14  H2  UNL     1       2.366   6.362   2.175  1.00  0.00     0.167 HD
BRANCH  13  15
HETATM   15  C6  UNL     1       3.958   5.202   1.484  1.00  0.00     0.034 A 
HETATM   16  C5  UNL     1       5.327   5.143   1.622  1.00  0.00     0.029 A 
HETATM   17  C4  UNL     1       6.020   4.000   1.333  1.00  0.00     0.003 A 
HETATM   18  C3  UNL     1       5.331   2.888   0.895  1.00  0.00     0.009 A 
HETATM   19  C2  UNL     1       3.966   2.891   0.740  1.00  0.00    -0.031 A 
HETATM   20  C22 UNL     1       3.299   4.085   1.048  1.00  0.00     0.038 A 
BRANCH  19  21
HETATM   21  C1  UNL     1       3.203   1.702   0.269  1.00  0.00     0.268 C 
BRANCH  21  22
HETATM   22  N1  UNL     1       4.109   0.771  -0.379  1.00  0.00    -0.075 N 
ATOM     23  H13 UNL     1       4.126  -0.138   0.084  1.00  0.00     0.274 HD
ATOM     24  H12 UNL     1       3.762   0.465  -1.288  1.00  0.00     0.274 HD
ATOM     25  H11 UNL     1       5.038   1.189  -0.441  1.00  0.00     0.274 HD
ENDBRANCH  21  22
ENDBRANCH  19  21
ENDBRANCH  13  15
ENDBRANCH   1  13
BRANCH   4  26
HETATM   26  N4  UNL     1       6.685   9.464   0.116  1.00  0.00    -0.220 N 
ATOM     27  H4  UNL     1       6.629   9.782  -0.852  1.00  0.00     0.178 HD
BRANCH  26  28
HETATM   28  C9  UNL     1       7.990   9.276   0.692  1.00  0.00     0.113 C 
HETATM   29  C10 UNL     1       9.064   9.079  -0.351  1.00  0.00     0.026 C 
HETATM   30  C11 UNL     1      10.385   8.875   0.365  1.00  0.00     0.002 C 
HETATM   31  C12 UNL     1      10.777  10.102   1.127  1.00  0.00     0.001 C 
HETATM   32  C13 UNL     1       9.702  10.354   2.168  1.00  0.00     0.017 C 
HETATM   33  C14 UNL     1       8.337  10.446   1.559  1.00  0.00     0.110 C 
BRANCH  33  34
HETATM   34  C15 UNL     1       8.218  11.740   0.835  1.00  0.00     0.179 C 
HETATM   35  O1  UNL     1       7.126  12.218   0.447  1.00  0.00    -0.648 OA
HETATM   36  O2  UNL     1       9.360  12.478   0.561  1.00  0.00    -0.648 OA
ENDBRANCH  33  34
ENDBRANCH  26  28
ENDBRANCH   4  26
TORSDOF 7
ENDMDL
