MODEL 6
REMARK VINA RESULT: -9.118540620      1.961      5.360
REMARK  7 active torsions:
REMARK  status: ('A' for Active; 'I' for Inactive)
REMARK    1  A    between atoms: N1_1  and  C1_5 
REMARK    2  A    between atoms: C1_5  and  C2_6 
REMARK    3  A    between atoms: C6_10  and  N2_11 
REMARK    4  A    between atoms: N2_11  and  C7_13 
REMARK    5  A    between atoms: C8_16  and  N4_17 
REMARK    6  A    between atoms: N4_17  and  C9_19 
REMARK    7  A    between atoms: C14_24  and  C15_25 
ROOT
HETATM    1  C7  UNL     1       4.126   6.911   1.624  1.00  0.00     0.134 A 
HETATM    2  N3  UNL     1       5.267   7.606   1.805  1.00  0.00    -0.176 N 
ATOM      3  H3  UNL     1       5.191   8.614   1.948  1.00  0.00     0.186 HD
HETATM    4  C8  UNL     1       6.496   7.067   1.810  1.00  0.00     0.680 A 
HETATM    5  N5  UNL     1       6.660   5.748   1.626  1.00  0.00    -0.191 N 
ATOM      6  H5  UNL     1       7.593   5.334   1.629  1.00  0.00     0.184 HD
HETATM    7  C16 UNL     1       5.574   4.986   1.439  1.00  0.00     0.063 A 
HETATM    8  C17 UNL     1       5.770   3.626   1.251  1.00  0.00     0.031 A 
HETATM    9  C18 UNL     1       4.676   2.822   1.056  1.00  0.00     0.002 A 
HETATM   10  C19 UNL     1       3.413   3.339   1.047  1.00  0.00     0.001 A 
HETATM   11  C20 UNL     1       3.251   4.707   1.238  1.00  0.00     0.017 A 
HETATM   12  C21 UNL     1       4.293   5.555   1.435  1.00  0.00     0.036 A 
ENDROOT
BRANCH   1  13
HETATM   13  N2  UNL     1       2.858   7.496   1.636  1.00  0.00    -0.341 N 
ATOM     14  H2  UNL     1       2.142   7.031   1.079  1.00  0.00     0.167 HD
BRANCH  13  15
HETATM   15  C6  UNL     1       2.448   8.669   2.336  1.00  0.00     0.034 A 
HETATM   16  C5  UNL     1       2.998   9.871   1.953  1.00  0.00     0.029 A 
HETATM   17  C4  UNL     1       2.662  11.037   2.583  1.00  0.00     0.003 A 
HETATM   18  C3  UNL     1       1.754  11.003   3.622  1.00  0.00     0.009 A 
HETATM   19  C2  UNL     1       1.175   9.831   4.046  1.00  0.00    -0.031 A 
HETATM   20  C22 UNL     1       1.551   8.662   3.369  1.00  0.00     0.038 A 
BRANCH  19  21
HETATM   21  C1  UNL     1       0.193   9.772   5.164  1.00  0.00     0.268 C 
BRANCH  21  22
HETATM   22  N1  UNL     1      -0.589   8.554   5.057  1.00  0.00    -0.075 N 
ATOM     23  H13 UNL     1      -0.924   8.393   4.107  1.00  0.00     0.274 HD
ATOM     24  H12 UNL     1      -0.015   7.717   5.153  1.00  0.00     0.274 HD
ATOM     25  H11 UNL     1      -1.351   8.579   5.735  1.00  0.00     0.274 HD
ENDBRANCH  21  22
ENDBRANCH  19  21
ENDBRANCH  13  15
ENDBRANCH   1  13
BRANCH   4  26
HETATM   26  N4  UNL     1       7.668   7.852   2.007  1.00  0.00    -0.220 N 
ATOM     27  H4  UNL     1       8.018   7.960   2.959  1.00  0.00     0.178 HD
BRANCH  26  28
HETATM   28  C9  UNL     1       8.387   8.503   0.944  1.00  0.00     0.113 C 
HETATM   29  C10 UNL     1       7.636   9.680   0.369  1.00  0.00     0.026 C 
HETATM   30  C11 UNL     1       8.473  10.273  -0.748  1.00  0.00     0.002 C 
HETATM   31  C12 UNL     1       9.756  10.829  -0.216  1.00  0.00     0.001 C 
HETATM   32  C13 UNL     1      10.529   9.679   0.402  1.00  0.00     0.017 C 
HETATM   33  C14 UNL     1       9.728   8.951   1.436  1.00  0.00     0.110 C 
BRANCH  33  34
HETATM   34  C15 UNL     1       9.627   9.799   2.653  1.00  0.00     0.179 C 
HETATM   35  O1  UNL     1       9.864  11.030   2.661  1.00  0.00    -0.648 OA
HETATM   36  O2  UNL     1       9.254   9.223   3.859  1.00  0.00    -0.648 OA
ENDBRANCH  33  34
ENDBRANCH  26  28
ENDBRANCH   4  26
TORSDOF 7
ENDMDL
