MODEL 1
REMARK VINA RESULT: -9.715517635      0.000      0.000
REMARK  7 active torsions:
REMARK  status: ('A' for Active; 'I' for Inactive)
REMARK    1  A    between atoms: N1_1  and  C1_5 
REMARK    2  A    between atoms: C1_5  and  C2_6 
REMARK    3  A    between atoms: C6_10  and  N2_11 
REMARK    4  A    between atoms: N2_11  and  C7_13 
REMARK    5  A    between atoms: C8_16  and  N4_17 
REMARK    6  A    between atoms: N4_17  and  C9_19 
REMARK    7  A    between atoms: C14_24  and  C15_25 
ROOT
HETATM    1  C7  UNL     1       3.961   7.817   1.589  1.00  0.00     0.134 A 
HETATM    2  N3  UNL     1       5.180   8.006   1.045  1.00  0.00    -0.176 N 
ATOM      3  H3  UNL     1       5.693   7.182   0.732  1.00  0.00     0.186 HD
HETATM    4  C8  UNL     1       5.767   9.203   0.886  1.00  0.00     0.680 A 
HETATM    5  N5  UNL     1       5.143  10.324   1.278  1.00  0.00    -0.191 N 
ATOM      6  H5  UNL     1       5.586  11.235   1.159  1.00  0.00     0.184 HD
HETATM    7  C16 UNL     1       3.926  10.221   1.830  1.00  0.00     0.063 A 
HETATM    8  C17 UNL     1       3.302  11.394   2.228  1.00  0.00     0.031 A 
HETATM    9  C18 UNL     1       2.056  11.319   2.796  1.00  0.00     0.002 A 
HETATM   10  C19 UNL     1       1.432  10.118   2.970  1.00  0.00     0.001 A 
HETATM   11  C20 UNL     1       2.085   8.960   2.561  1.00  0.00     0.017 A 
HETATM   12  C21 UNL     1       3.318   8.969   1.993  1.00  0.00     0.036 A 
ENDROOT
BRANCH   1  13
HETATM   13  N2  UNL     1       3.368   6.561   1.731  1.00  0.00    -0.341 N 
ATOM     14  H2  UNL     1       2.408   6.553   2.075  1.00  0.00     0.167 HD
BRANCH  13  15
HETATM   15  C6  UNL     1       3.948   5.289   1.450  1.00  0.00     0.034 A 
HETATM   16  C5  UNL     1       5.307   5.151   1.620  1.00  0.00     0.029 A 
HETATM   17  C4  UNL     1       5.936   3.965   1.361  1.00  0.00     0.003 A 
HETATM   18  C3  UNL     1       5.191   2.889   0.922  1.00  0.00     0.009 A 
HETATM   19  C2  UNL     1       3.832   2.972   0.736  1.00  0.00    -0.031 A 
HETATM   20  C22 UNL     1       3.232   4.208   1.013  1.00  0.00     0.038 A 
BRANCH  19  21
HETATM   21  C1  UNL     1       3.010   1.824   0.263  1.00  0.00     0.268 C 
BRANCH  21  22
HETATM   22  N1  UNL     1       1.751   1.800   0.987  1.00  0.00    -0.075 N 
ATOM     23  H13 UNL     1       1.818   2.266   1.892  1.00  0.00     0.274 HD
ATOM     24  H12 UNL     1       1.050   2.407   0.562  1.00  0.00     0.274 HD
ATOM     25  H11 UNL     1       1.427   0.837   1.073  1.00  0.00     0.274 HD
ENDBRANCH  21  22
ENDBRANCH  19  21
ENDBRANCH  13  15
ENDBRANCH   1  13
BRANCH   4  26
HETATM   26  N4  UNL     1       7.059   9.342   0.302  1.00  0.00    -0.220 N 
ATOM     27  H4  UNL     1       7.296   8.741  -0.487  1.00  0.00     0.178 HD
BRANCH  26  28
HETATM   28  C9  UNL     1       8.050  10.281   0.759  1.00  0.00     0.113 C 
HETATM   29  C10 UNL     1       8.543   9.974   2.153  1.00  0.00     0.026 C 
HETATM   30  C11 UNL     1       9.562  11.030   2.535  1.00  0.00     0.002 C 
HETATM   31  C12 UNL     1      10.767  10.956   1.651  1.00  0.00     0.001 C 
HETATM   32  C13 UNL     1      10.306  11.227   0.231  1.00  0.00     0.017 C 
HETATM   33  C14 UNL     1       9.205  10.305  -0.192  1.00  0.00     0.110 C 
BRANCH  33  34
HETATM   34  C15 UNL     1       9.773   8.951  -0.424  1.00  0.00     0.179 C 
HETATM   35  O1  UNL     1      10.894   8.586   0.005  1.00  0.00    -0.648 OA
HETATM   36  O2  UNL     1       9.046   8.020  -1.152  1.00  0.00    -0.648 OA
ENDBRANCH  33  34
ENDBRANCH  26  28
ENDBRANCH   4  26
TORSDOF 7
ENDMDL
