MODEL 3
REMARK VINA RESULT: -9.327970724      1.733      5.071
REMARK  7 active torsions:
REMARK  status: ('A' for Active; 'I' for Inactive)
REMARK    1  A    between atoms: N1_1  and  C1_5 
REMARK    2  A    between atoms: C1_5  and  C2_6 
REMARK    3  A    between atoms: C6_10  and  N2_11 
REMARK    4  A    between atoms: N2_11  and  C7_13 
REMARK    5  A    between atoms: C8_16  and  N4_17 
REMARK    6  A    between atoms: N4_17  and  C9_19 
REMARK    7  A    between atoms: C14_24  and  C15_25 
ROOT
HETATM    1  C7  UNL     1       4.351   7.023   1.482  1.00  0.00     0.134 A 
HETATM    2  N3  UNL     1       5.525   7.625   1.758  1.00  0.00    -0.176 N 
ATOM      3  H3  UNL     1       5.529   8.642   1.838  1.00  0.00     0.186 HD
HETATM    4  C8  UNL     1       6.690   6.981   1.934  1.00  0.00     0.680 A 
HETATM    5  N5  UNL     1       6.749   5.644   1.840  1.00  0.00    -0.191 N 
ATOM      6  H5  UNL     1       7.632   5.152   1.974  1.00  0.00     0.184 HD
HETATM    7  C16 UNL     1       5.624   4.970   1.568  1.00  0.00     0.063 A 
HETATM    8  C17 UNL     1       5.710   3.590   1.475  1.00  0.00     0.031 A 
HETATM    9  C18 UNL     1       4.574   2.873   1.197  1.00  0.00     0.002 A 
HETATM   10  C19 UNL     1       3.375   3.497   1.014  1.00  0.00     0.001 A 
HETATM   11  C20 UNL     1       3.321   4.884   1.113  1.00  0.00     0.017 A 
HETATM   12  C21 UNL     1       4.410   5.648   1.385  1.00  0.00     0.036 A 
ENDROOT
BRANCH   1  13
HETATM   13  N2  UNL     1       3.151   7.716   1.316  1.00  0.00    -0.341 N 
ATOM     14  H2  UNL     1       2.612   7.490   0.480  1.00  0.00     0.167 HD
BRANCH  13  15
HETATM   15  C6  UNL     1       2.590   8.703   2.179  1.00  0.00     0.034 A 
HETATM   16  C5  UNL     1       2.996  10.007   2.013  1.00  0.00     0.029 A 
HETATM   17  C4  UNL     1       2.511  11.008   2.808  1.00  0.00     0.003 A 
HETATM   18  C3  UNL     1       1.596  10.700   3.795  1.00  0.00     0.009 A 
HETATM   19  C2  UNL     1       1.156   9.415   4.004  1.00  0.00    -0.031 A 
HETATM   20  C22 UNL     1       1.683   8.423   3.165  1.00  0.00     0.038 A 
BRANCH  19  21
HETATM   21  C1  UNL     1       0.170   9.060   5.063  1.00  0.00     0.268 C 
BRANCH  21  22
HETATM   22  N1  UNL     1      -0.919   8.301   4.475  1.00  0.00    -0.075 N 
ATOM     23  H13 UNL     1      -1.800   8.815   4.491  1.00  0.00     0.274 HD
ATOM     24  H12 UNL     1      -0.823   8.210   3.463  1.00  0.00     0.274 HD
ATOM     25  H11 UNL     1      -0.991   7.396   4.939  1.00  0.00     0.274 HD
ENDBRANCH  21  22
ENDBRANCH  19  21
ENDBRANCH  13  15
ENDBRANCH   1  13
BRANCH   4  26
HETATM   26  N4  UNL     1       7.902   7.672   2.226  1.00  0.00    -0.220 N 
ATOM     27  H4  UNL     1       8.766   7.131   2.262  1.00  0.00     0.178 HD
BRANCH  26  28
HETATM   28  C9  UNL     1       7.979   9.088   2.474  1.00  0.00     0.113 C 
HETATM   29  C10 UNL     1       9.017   9.441   3.512  1.00  0.00     0.026 C 
HETATM   30  C11 UNL     1       8.998  10.945   3.704  1.00  0.00     0.002 C 
HETATM   31  C12 UNL     1       9.417  11.650   2.452  1.00  0.00     0.001 C 
HETATM   32  C13 UNL     1       8.414  11.292   1.371  1.00  0.00     0.017 C 
HETATM   33  C14 UNL     1       8.274   9.812   1.197  1.00  0.00     0.110 C 
BRANCH  33  34
HETATM   34  C15 UNL     1       9.490   9.288   0.520  1.00  0.00     0.179 C 
HETATM   35  O1  UNL     1      10.606   9.859   0.561  1.00  0.00    -0.648 OA
HETATM   36  O2  UNL     1       9.414   8.107  -0.204  1.00  0.00    -0.648 OA
ENDBRANCH  33  34
ENDBRANCH  26  28
ENDBRANCH   4  26
TORSDOF 7
ENDMDL
