MODEL 4
REMARK VINA RESULT: -9.285147547      1.713      5.439
REMARK  7 active torsions:
REMARK  status: ('A' for Active; 'I' for Inactive)
REMARK    1  A    between atoms: N1_1  and  C1_5 
REMARK    2  A    between atoms: C1_5  and  C2_6 
REMARK    3  A    between atoms: C6_10  and  N2_11 
REMARK    4  A    between atoms: N2_11  and  C7_13 
REMARK    5  A    between atoms: C8_16  and  N4_17 
REMARK    6  A    between atoms: N4_17  and  C9_19 
REMARK    7  A    between atoms: C14_24  and  C15_25 
ROOT
HETATM    1  C7  UNL     1       4.280   7.002   1.539  1.00  0.00     0.134 A 
HETATM    2  N3  UNL     1       5.449   7.625   1.791  1.00  0.00    -0.176 N 
ATOM      3  H3  UNL     1       5.432   8.639   1.898  1.00  0.00     0.186 HD
HETATM    4  C8  UNL     1       6.633   7.004   1.912  1.00  0.00     0.680 A 
HETATM    5  N5  UNL     1       6.719   5.672   1.781  1.00  0.00    -0.191 N 
ATOM      6  H5  UNL     1       7.617   5.197   1.872  1.00  0.00     0.184 HD
HETATM    7  C16 UNL     1       5.601   4.978   1.528  1.00  0.00     0.063 A 
HETATM    8  C17 UNL     1       5.715   3.603   1.397  1.00  0.00     0.031 A 
HETATM    9  C18 UNL     1       4.587   2.867   1.138  1.00  0.00     0.002 A 
HETATM   10  C19 UNL     1       3.368   3.468   1.011  1.00  0.00     0.001 A 
HETATM   11  C20 UNL     1       3.287   4.849   1.148  1.00  0.00     0.017 A 
HETATM   12  C21 UNL     1       4.367   5.632   1.404  1.00  0.00     0.036 A 
ENDROOT
BRANCH   1  13
HETATM   13  N2  UNL     1       3.060   7.671   1.431  1.00  0.00    -0.341 N 
ATOM     14  H2  UNL     1       2.436   7.353   0.689  1.00  0.00     0.167 HD
BRANCH  13  15
HETATM   15  C6  UNL     1       2.582   8.746   2.237  1.00  0.00     0.034 A 
HETATM   16  C5  UNL     1       1.773   8.436   3.307  1.00  0.00     0.029 A 
HETATM   17  C4  UNL     1       1.269   9.414   4.120  1.00  0.00     0.003 A 
HETATM   18  C3  UNL     1       1.578  10.733   3.859  1.00  0.00     0.009 A 
HETATM   19  C2  UNL     1       2.381  11.098   2.804  1.00  0.00    -0.031 A 
HETATM   20  C22 UNL     1       2.874  10.061   1.999  1.00  0.00     0.038 A 
BRANCH  19  21
HETATM   21  C1  UNL     1       2.727  12.515   2.505  1.00  0.00     0.268 C 
BRANCH  21  22
HETATM   22  N1  UNL     1       3.989  12.563   1.789  1.00  0.00    -0.075 N 
ATOM     23  H13 UNL     1       4.739  12.091   2.295  1.00  0.00     0.274 HD
ATOM     24  H12 UNL     1       3.983  11.974   0.956  1.00  0.00     0.274 HD
ATOM     25  H11 UNL     1       4.221  13.533   1.573  1.00  0.00     0.274 HD
ENDBRANCH  21  22
ENDBRANCH  19  21
ENDBRANCH  13  15
ENDBRANCH   1  13
BRANCH   4  26
HETATM   26  N4  UNL     1       7.838   7.715   2.181  1.00  0.00    -0.220 N 
ATOM     27  H4  UNL     1       8.708   7.185   2.223  1.00  0.00     0.178 HD
BRANCH  26  28
HETATM   28  C9  UNL     1       7.899   9.137   2.398  1.00  0.00     0.113 C 
HETATM   29  C10 UNL     1       8.881   9.519   3.479  1.00  0.00     0.026 C 
HETATM   30  C11 UNL     1       8.850  11.027   3.633  1.00  0.00     0.002 C 
HETATM   31  C12 UNL     1       9.332  11.702   2.387  1.00  0.00     0.001 C 
HETATM   32  C13 UNL     1       8.387  11.315   1.265  1.00  0.00     0.017 C 
HETATM   33  C14 UNL     1       8.259   9.831   1.121  1.00  0.00     0.110 C 
BRANCH  33  34
HETATM   34  C15 UNL     1       9.509   9.295   0.520  1.00  0.00     0.179 C 
HETATM   35  O1  UNL     1      10.625   9.857   0.626  1.00  0.00    -0.648 OA
HETATM   36  O2  UNL     1       9.467   8.111  -0.202  1.00  0.00    -0.648 OA
ENDBRANCH  33  34
ENDBRANCH  26  28
ENDBRANCH   4  26
TORSDOF 7
ENDMDL
