MODEL 4
REMARK VINA RESULT: -6.580829626      3.415      6.941
REMARK  5 active torsions:
REMARK  status: ('A' for Active; 'I' for Inactive)
REMARK    1  A    between atoms: C2_2  and  C4_4 
REMARK    2  A    between atoms: C4_4  and  C5_5 
REMARK       I    between atoms: C5_5  and  N1_7 
REMARK    3  A    between atoms: N1_7  and  C6_9 
REMARK    4  A    between atoms: C15_18  and  C16_19 
REMARK    5  A    between atoms: C16_19  and  N2_20 
ROOT
HETATM    1  C6  UNL     1       6.158  51.257  73.618  1.00  0.00     0.035 A 
HETATM    2  C7  UNL     1       5.460  50.949  74.739  1.00  0.00     0.029 A 
HETATM    3  C8  UNL     1       4.344  51.724  75.090  1.00  0.00     0.003 A 
HETATM    4  C9  UNL     1       3.938  52.791  74.327  1.00  0.00     0.012 A 
HETATM    5  C10 UNL     1       4.647  53.124  73.166  1.00  0.00    -0.024 A 
HETATM    6  C11 UNL     1       4.224  54.239  72.366  1.00  0.00    -0.025 A 
HETATM    7  C12 UNL     1       3.627  55.338  72.947  1.00  0.00     0.012 A 
HETATM    8  C13 UNL     1       3.213  56.424  72.192  1.00  0.00     0.001 A 
HETATM    9  C14 UNL     1       3.406  56.398  70.822  1.00  0.00     0.009 A 
HETATM   10  C15 UNL     1       3.994  55.323  70.223  1.00  0.00    -0.032 A 
HETATM   11  C17 UNL     1       4.398  54.252  71.010  1.00  0.00     0.021 A 
HETATM   12  C18 UNL     1       5.724  52.352  72.856  1.00  0.00     0.042 A 
ENDROOT
BRANCH   1  13
HETATM   13  N1  UNL     1       7.282  50.549  73.155  1.00  0.00    -0.327 N 
HETATM   14  C5  UNL     1       7.437  49.146  73.110  1.00  0.00     0.222 C 
HETATM   15  O1  UNL     1       6.548  48.391  73.490  1.00  0.00    -0.273 OA
ATOM     16  H1  UNL     1       8.067  51.106  72.818  1.00  0.00     0.169 HD
BRANCH  14  17
HETATM   17  C4  UNL     1       8.721  48.573  72.583  1.00  0.00     0.107 C 
BRANCH  17  18
HETATM   18  C2  UNL     1       8.404  47.298  71.870  1.00  0.00    -0.014 C 
HETATM   19  C1  UNL     1       8.949  47.392  70.461  1.00  0.00     0.010 C 
HETATM   20  C3  UNL     1       8.933  46.119  72.621  1.00  0.00     0.010 C 
ENDBRANCH  17  18
ENDBRANCH  14  17
ENDBRANCH   1  13
BRANCH  10  21
HETATM   21  C16 UNL     1       4.224  55.248  68.760  1.00  0.00     0.268 C 
BRANCH  21  22
HETATM   22  N2  UNL     1       4.700  53.929  68.437  1.00  0.00    -0.075 N 
ATOM     23  H23 UNL     1       5.160  53.892  67.526  1.00  0.00     0.274 HD
ATOM     24  H22 UNL     1       5.498  53.651  69.009  1.00  0.00     0.274 HD
ATOM     25  H21 UNL     1       3.920  53.275  68.507  1.00  0.00     0.274 HD
ENDBRANCH  21  22
ENDBRANCH  10  21
TORSDOF 5
ENDMDL
