MODEL 3
REMARK VINA RESULT: -6.665169020      2.957      7.210
REMARK  5 active torsions:
REMARK  status: ('A' for Active; 'I' for Inactive)
REMARK    1  A    between atoms: C2_2  and  C4_4 
REMARK    2  A    between atoms: C4_4  and  C5_5 
REMARK       I    between atoms: C5_5  and  N1_7 
REMARK    3  A    between atoms: N1_7  and  C6_9 
REMARK    4  A    between atoms: C15_18  and  C16_19 
REMARK    5  A    between atoms: C16_19  and  N2_20 
ROOT
HETATM    1  C6  UNL     1       8.057  49.472  72.501  1.00  0.00     0.035 A 
HETATM    2  C7  UNL     1       8.904  50.212  71.744  1.00  0.00     0.029 A 
HETATM    3  C8  UNL     1       8.644  51.579  71.556  1.00  0.00     0.003 A 
HETATM    4  C9  UNL     1       7.551  52.190  72.119  1.00  0.00     0.012 A 
HETATM    5  C10 UNL     1       6.665  51.441  72.903  1.00  0.00    -0.024 A 
HETATM    6  C11 UNL     1       5.521  52.078  73.493  1.00  0.00    -0.025 A 
HETATM    7  C12 UNL     1       4.896  53.132  72.861  1.00  0.00     0.012 A 
HETATM    8  C13 UNL     1       3.791  53.759  73.414  1.00  0.00     0.001 A 
HETATM    9  C14 UNL     1       3.307  53.310  74.630  1.00  0.00     0.009 A 
HETATM   10  C15 UNL     1       3.907  52.269  75.276  1.00  0.00    -0.032 A 
HETATM   11  C17 UNL     1       5.013  51.664  74.693  1.00  0.00     0.021 A 
HETATM   12  C18 UNL     1       6.946  50.119  73.065  1.00  0.00     0.042 A 
ENDROOT
BRANCH   1  13
HETATM   13  N1  UNL     1       8.217  48.102  72.774  1.00  0.00    -0.327 N 
HETATM   14  C5  UNL     1       9.019  47.186  72.059  1.00  0.00     0.222 C 
HETATM   15  O1  UNL     1       9.682  47.538  71.088  1.00  0.00    -0.273 OA
ATOM     16  H1  UNL     1       7.700  47.731  73.571  1.00  0.00     0.169 HD
BRANCH  14  17
HETATM   17  C4  UNL     1       9.058  45.752  72.503  1.00  0.00     0.107 C 
BRANCH  17  18
HETATM   18  C2  UNL     1       8.008  45.003  71.748  1.00  0.00    -0.014 C 
HETATM   19  C1  UNL     1       6.850  44.731  72.684  1.00  0.00     0.010 C 
HETATM   20  C3  UNL     1       7.598  45.746  70.517  1.00  0.00     0.010 C 
ENDBRANCH  17  18
ENDBRANCH  14  17
ENDBRANCH   1  13
BRANCH  10  21
HETATM   21  C16 UNL     1       3.427  51.752  76.580  1.00  0.00     0.268 C 
BRANCH  21  22
HETATM   22  N2  UNL     1       4.567  51.378  77.374  1.00  0.00    -0.075 N 
ATOM     23  H23 UNL     1       5.149  50.677  76.915  1.00  0.00     0.274 HD
ATOM     24  H22 UNL     1       5.263  52.122  77.433  1.00  0.00     0.274 HD
ATOM     25  H21 UNL     1       4.240  51.074  78.292  1.00  0.00     0.274 HD
ENDBRANCH  21  22
ENDBRANCH  10  21
TORSDOF 5
ENDMDL
