MODEL 1
REMARK VINA RESULT: -7.582427237      0.000      0.000
REMARK  5 active torsions:
REMARK  status: ('A' for Active; 'I' for Inactive)
REMARK    1  A    between atoms: C2_2  and  C4_4 
REMARK    2  A    between atoms: C4_4  and  C5_5 
REMARK       I    between atoms: C5_5  and  N1_7 
REMARK    3  A    between atoms: N1_7  and  C6_9 
REMARK    4  A    between atoms: C15_18  and  C16_19 
REMARK    5  A    between atoms: C16_19  and  N2_20 
ROOT
HETATM    1  C6  UNL     1       4.184  51.840  75.458  1.00  0.00     0.035 A 
HETATM    2  C7  UNL     1       3.520  52.818  74.794  1.00  0.00     0.029 A 
HETATM    3  C8  UNL     1       3.959  53.204  73.517  1.00  0.00     0.003 A 
HETATM    4  C9  UNL     1       5.046  52.616  72.920  1.00  0.00     0.012 A 
HETATM    5  C10 UNL     1       5.744  51.604  73.591  1.00  0.00    -0.024 A 
HETATM    6  C11 UNL     1       6.881  50.987  72.968  1.00  0.00    -0.025 A 
HETATM    7  C12 UNL     1       7.693  51.703  72.114  1.00  0.00     0.012 A 
HETATM    8  C13 UNL     1       8.795  51.126  71.504  1.00  0.00     0.001 A 
HETATM    9  C14 UNL     1       9.082  49.797  71.763  1.00  0.00     0.009 A 
HETATM   10  C15 UNL     1       8.295  49.066  72.604  1.00  0.00    -0.032 A 
HETATM   11  C17 UNL     1       7.198  49.677  73.198  1.00  0.00     0.021 A 
HETATM   12  C18 UNL     1       5.292  51.255  74.827  1.00  0.00     0.042 A 
ENDROOT
BRANCH   1  13
HETATM   13  N1  UNL     1       3.834  51.358  76.732  1.00  0.00    -0.327 N 
HETATM   14  C5  UNL     1       3.436  52.128  77.847  1.00  0.00     0.222 C 
HETATM   15  O1  UNL     1       3.356  53.351  77.784  1.00  0.00    -0.273 OA
ATOM     16  H1  UNL     1       3.872  50.348  76.865  1.00  0.00     0.169 HD
BRANCH  14  17
HETATM   17  C4  UNL     1       3.103  51.428  79.133  1.00  0.00     0.107 C 
BRANCH  17  18
HETATM   18  C2  UNL     1       4.278  50.589  79.522  1.00  0.00    -0.014 C 
HETATM   19  C1  UNL     1       5.121  51.375  80.502  1.00  0.00     0.010 C 
HETATM   20  C3  UNL     1       3.837  49.268  80.064  1.00  0.00     0.010 C 
ENDBRANCH  17  18
ENDBRANCH  14  17
ENDBRANCH   1  13
BRANCH  10  21
HETATM   21  C16 UNL     1       8.561  47.640  72.913  1.00  0.00     0.268 C 
BRANCH  21  22
HETATM   22  N2  UNL     1       9.879  47.307  72.444  1.00  0.00    -0.075 N 
ATOM     23  H23 UNL     1       9.860  46.683  71.636  1.00  0.00     0.274 HD
ATOM     24  H22 UNL     1      10.348  48.097  72.000  1.00  0.00     0.274 HD
ATOM     25  H21 UNL     1      10.415  46.922  73.222  1.00  0.00     0.274 HD
ENDBRANCH  21  22
ENDBRANCH  10  21
TORSDOF 5
ENDMDL
