MODEL 8
REMARK VINA RESULT: -7.225408169      1.312      1.365
REMARK  7 active torsions:
REMARK  status: ('A' for Active; 'I' for Inactive)
REMARK       I    between atoms: C2_2  and  N1_4 
REMARK    1  A    between atoms: N1_4  and  C3_6 
REMARK    2  A    between atoms: C4_7  and  O2_8 
REMARK    3  A    between atoms: C5_11  and  C6_12 
REMARK    4  A    between atoms: C6_12  and  O4_13 
REMARK    5  A    between atoms: O4_13  and  P1_14 
REMARK    6  A    between atoms: C7_18  and  O8_19 
REMARK    7  A    between atoms: C8_21  and  O9_22 
ROOT
HETATM    1  C3  UNL     1     121.664-113.494 105.672  1.00  0.00     0.170 C 
HETATM    2  C4  UNL     1     122.826-113.603 106.599  1.00  0.00     0.282 C 
HETATM    3  O3  UNL     1     124.028-113.180 106.169  1.00  0.00    -0.349 OA
HETATM    4  C5  UNL     1     124.440-113.465 104.911  1.00  0.00     0.180 C 
HETATM    5  C7  UNL     1     123.341-113.850 103.954  1.00  0.00     0.180 C 
HETATM    6  C8  UNL     1     122.134-113.048 104.295  1.00  0.00     0.177 C 
ENDROOT
BRANCH   4   7
HETATM    7  C6  UNL     1     125.240-112.362 104.247  1.00  0.00     0.217 C 
BRANCH   7   8
HETATM    8  O4  UNL     1     125.918-112.854 103.156  1.00  0.00    -0.280 OA
BRANCH   8   9
HETATM    9  P1  UNL     1     127.625-112.742 103.533  1.00  0.00     0.422 P 
HETATM   10  O5  UNL     1     128.035-111.084 103.730  1.00  0.00    -0.617 OA
HETATM   11  O6  UNL     1     128.525-113.449 102.311  1.00  0.00    -0.617 OA
HETATM   12  O7  UNL     1     127.891-113.594 105.036  1.00  0.00    -0.617 OA
ENDBRANCH   8   9
ENDBRANCH   7   8
ENDBRANCH   4   7
BRANCH   5  13
HETATM   13  O8  UNL     1     123.129-115.198 104.076  1.00  0.00    -0.390 OA
ATOM     14  H8  UNL     1     123.879-115.646 103.701  1.00  0.00     0.210 HD
ENDBRANCH   5  13
BRANCH   2  15
HETATM   15  O2  UNL     1     122.937-114.959 106.971  1.00  0.00    -0.369 OA
ATOM     16  H2  UNL     1     122.368-115.457 106.394  1.00  0.00     0.212 HD
ENDBRANCH   2  15
BRANCH   6  17
HETATM   17  O9  UNL     1     122.411-111.688 104.423  1.00  0.00    -0.391 OA
ATOM     18  H9  UNL     1     122.935-111.612 105.212  1.00  0.00     0.210 HD
ENDBRANCH   6  17
BRANCH   1  19
HETATM   19  N1  UNL     1     120.861-114.688 105.605  1.00  0.00    -0.349 N 
HETATM   20  C2  UNL     1     119.544-114.614 105.087  1.00  0.00     0.214 C 
HETATM   21  C1  UNL     1     118.692-115.819 105.004  1.00  0.00     0.117 C 
HETATM   22  O1  UNL     1     119.037-113.516 104.675  1.00  0.00    -0.274 OA
ATOM     23  H1  UNL     1     121.237-115.580 105.927  1.00  0.00     0.163 HD
ENDBRANCH   1  19
TORSDOF 7
ENDMDL
