MODEL 14
REMARK VINA RESULT: -7.048781521      1.156      1.762
REMARK  7 active torsions:
REMARK  status: ('A' for Active; 'I' for Inactive)
REMARK       I    between atoms: C2_2  and  N1_4 
REMARK    1  A    between atoms: N1_4  and  C3_6 
REMARK    2  A    between atoms: C4_7  and  O2_8 
REMARK    3  A    between atoms: C5_11  and  C6_12 
REMARK    4  A    between atoms: C6_12  and  O4_13 
REMARK    5  A    between atoms: O4_13  and  P1_14 
REMARK    6  A    between atoms: C7_18  and  O8_19 
REMARK    7  A    between atoms: C8_21  and  O9_22 
ROOT
HETATM    1  C3  UNL     1     121.844-113.764 104.644  1.00  0.00     0.170 C 
HETATM    2  C4  UNL     1     122.518-112.586 105.258  1.00  0.00     0.282 C 
HETATM    3  O3  UNL     1     123.591-112.067 104.636  1.00  0.00    -0.349 OA
HETATM    4  C5  UNL     1     124.531-112.884 104.105  1.00  0.00     0.180 C 
HETATM    5  C7  UNL     1     124.079-114.303 103.867  1.00  0.00     0.180 C 
HETATM    6  C8  UNL     1     122.649-114.266 103.454  1.00  0.00     0.177 C 
ENDROOT
BRANCH   4   7
HETATM    7  C6  UNL     1     125.134-112.388 102.805  1.00  0.00     0.217 C 
BRANCH   7   8
HETATM    8  O4  UNL     1     126.197-111.555 103.060  1.00  0.00    -0.280 OA
BRANCH   8   9
HETATM    9  P1  UNL     1     127.631-112.560 103.074  1.00  0.00     0.422 P 
HETATM   10  O5  UNL     1     127.955-113.032 104.695  1.00  0.00    -0.617 OA
HETATM   11  O6  UNL     1     128.922-111.720 102.416  1.00  0.00    -0.617 OA
HETATM   12  O7  UNL     1     127.292-113.977 102.108  1.00  0.00    -0.617 OA
ENDBRANCH   8   9
ENDBRANCH   7   8
ENDBRANCH   4   7
BRANCH   5  13
HETATM   13  O8  UNL     1     124.275-115.007 105.026  1.00  0.00    -0.390 OA
ATOM     14  H8  UNL     1     125.036-114.644 105.463  1.00  0.00     0.210 HD
ENDBRANCH   5  13
BRANCH   2  15
HETATM   15  O2  UNL     1     122.897-112.957 106.566  1.00  0.00    -0.369 OA
ATOM     16  H2  UNL     1     122.369-112.444 107.168  1.00  0.00     0.212 HD
ENDBRANCH   2  15
BRANCH   6  17
HETATM   17  O9  UNL     1     122.408-113.348 102.433  1.00  0.00    -0.391 OA
ATOM     18  H9  UNL     1     122.180-113.872 101.674  1.00  0.00     0.210 HD
ENDBRANCH   6  17
BRANCH   1  19
HETATM   19  N1  UNL     1     121.554-114.821 105.580  1.00  0.00    -0.349 N 
HETATM   20  C2  UNL     1     120.282-114.873 106.201  1.00  0.00     0.214 C 
HETATM   21  C1  UNL     1     119.951-115.943 107.166  1.00  0.00     0.117 C 
HETATM   22  O1  UNL     1     119.372-114.009 105.959  1.00  0.00    -0.274 OA
ATOM     23  H1  UNL     1     122.260-115.526 105.795  1.00  0.00     0.163 HD
ENDBRANCH   1  19
TORSDOF 7
ENDMDL
