MODEL 2
REMARK VINA RESULT: -7.969864851      0.017      1.117
REMARK  7 active torsions:
REMARK  status: ('A' for Active; 'I' for Inactive)
REMARK       I    between atoms: C2_2  and  N1_4 
REMARK    1  A    between atoms: N1_4  and  C3_6 
REMARK    2  A    between atoms: C4_7  and  O2_8 
REMARK    3  A    between atoms: C5_11  and  C6_12 
REMARK    4  A    between atoms: C6_12  and  O4_13 
REMARK    5  A    between atoms: O4_13  and  P1_14 
REMARK    6  A    between atoms: C7_18  and  O8_19 
REMARK    7  A    between atoms: C8_21  and  O9_22 
ROOT
HETATM    1  C3  UNL     1     122.449-113.557 105.171  1.00  0.00     0.170 C 
HETATM    2  C4  UNL     1     123.868-113.936 105.421  1.00  0.00     0.282 C 
HETATM    3  O3  UNL     1     124.815-113.440 104.605  1.00  0.00    -0.349 OA
HETATM    4  C5  UNL     1     124.602-113.386 103.269  1.00  0.00     0.180 C 
HETATM    5  C7  UNL     1     123.157-113.476 102.851  1.00  0.00     0.180 C 
HETATM    6  C8  UNL     1     122.338-112.769 103.874  1.00  0.00     0.177 C 
ENDROOT
BRANCH   4   7
HETATM    7  C6  UNL     1     125.185-112.163 102.588  1.00  0.00     0.217 C 
BRANCH   7   8
HETATM    8  O4  UNL     1     125.934-111.432 103.480  1.00  0.00    -0.280 OA
BRANCH   8   9
HETATM    9  P1  UNL     1     127.601-111.918 103.253  1.00  0.00     0.422 P 
HETATM   10  O5  UNL     1     127.747-112.678 101.718  1.00  0.00    -0.617 OA
HETATM   11  O6  UNL     1     128.067-112.949 104.488  1.00  0.00    -0.617 OA
HETATM   12  O7  UNL     1     128.582-110.471 103.286  1.00  0.00    -0.617 OA
ENDBRANCH   8   9
ENDBRANCH   7   8
ENDBRANCH   4   7
BRANCH   5  13
HETATM   13  O8  UNL     1     122.832-114.802 102.741  1.00  0.00    -0.390 OA
ATOM     14  H8  UNL     1     123.579-115.256 102.368  1.00  0.00     0.210 HD
ENDBRANCH   5  13
BRANCH   2  15
HETATM   15  O2  UNL     1     123.937-115.345 105.380  1.00  0.00    -0.369 OA
ATOM     16  H2  UNL     1     123.045-115.671 105.416  1.00  0.00     0.212 HD
ENDBRANCH   2  15
BRANCH   6  17
HETATM   17  O9  UNL     1     122.830-111.499 104.172  1.00  0.00    -0.391 OA
ATOM     18  H9  UNL     1     122.161-111.090 104.708  1.00  0.00     0.210 HD
ENDBRANCH   6  17
BRANCH   1  19
HETATM   19  N1  UNL     1     121.536-114.672 105.200  1.00  0.00    -0.349 N 
HETATM   20  C2  UNL     1     120.399-114.620 106.045  1.00  0.00     0.214 C 
HETATM   21  C1  UNL     1     119.442-115.745 106.100  1.00  0.00     0.117 C 
HETATM   22  O1  UNL     1     120.151-113.611 106.788  1.00  0.00    -0.274 OA
ATOM     23  H1  UNL     1     121.707-115.492 104.619  1.00  0.00     0.163 HD
ENDBRANCH   1  19
TORSDOF 7
ENDMDL
