MODEL 9
REMARK VINA RESULT: -7.141781667      2.907      6.325
REMARK  7 active torsions:
REMARK  status: ('A' for Active; 'I' for Inactive)
REMARK       I    between atoms: C2_2  and  N1_4 
REMARK    1  A    between atoms: N1_4  and  C3_6 
REMARK    2  A    between atoms: C4_7  and  O2_8 
REMARK    3  A    between atoms: C5_11  and  C6_12 
REMARK    4  A    between atoms: C6_12  and  O4_13 
REMARK    5  A    between atoms: O4_13  and  P1_14 
REMARK    6  A    between atoms: C7_18  and  O8_19 
REMARK    7  A    between atoms: C8_21  and  O9_22 
ROOT
HETATM    1  C3  UNL     1     124.757-112.067 103.331  1.00  0.00     0.170 C 
HETATM    2  C4  UNL     1     124.207-112.973 102.285  1.00  0.00     0.282 C 
HETATM    3  O3  UNL     1     123.154-113.749 102.602  1.00  0.00    -0.349 OA
HETATM    4  C5  UNL     1     123.109-114.379 103.799  1.00  0.00     0.180 C 
HETATM    5  C7  UNL     1     124.026-113.811 104.852  1.00  0.00     0.180 C 
HETATM    6  C8  UNL     1     124.078-112.334 104.667  1.00  0.00     0.177 C 
ENDROOT
BRANCH   4   7
HETATM    7  C6  UNL     1     121.725-114.460 104.415  1.00  0.00     0.217 C 
BRANCH   7   8
HETATM    8  O4  UNL     1     121.815-114.523 105.785  1.00  0.00    -0.280 OA
BRANCH   8   9
HETATM    9  P1  UNL     1     120.177-114.449 106.401  1.00  0.00     0.422 P 
HETATM   10  O5  UNL     1     119.818-115.934 107.188  1.00  0.00    -0.617 OA
HETATM   11  O6  UNL     1     119.110-114.153 105.145  1.00  0.00    -0.617 OA
HETATM   12  O7  UNL     1     120.108-113.140 107.559  1.00  0.00    -0.617 OA
ENDBRANCH   8   9
ENDBRANCH   7   8
ENDBRANCH   4   7
BRANCH   5  13
HETATM   13  O8  UNL     1     125.252-114.403 104.707  1.00  0.00    -0.390 OA
ATOM     14  H8  UNL     1     125.795-114.134 105.439  1.00  0.00     0.210 HD
ENDBRANCH   5  13
BRANCH   2  15
HETATM   15  O2  UNL     1     125.262-113.806 101.858  1.00  0.00    -0.369 OA
ATOM     16  H2  UNL     1     126.071-113.417 102.169  1.00  0.00     0.212 HD
ENDBRANCH   2  15
BRANCH   6  17
HETATM   17  O9  UNL     1     122.812-111.761 104.557  1.00  0.00    -0.391 OA
ATOM     18  H9  UNL     1     122.968-110.847 104.350  1.00  0.00     0.210 HD
ENDBRANCH   6  17
BRANCH   1  19
HETATM   19  N1  UNL     1     126.194-112.111 103.441  1.00  0.00    -0.349 N 
HETATM   20  C2  UNL     1     126.989-111.494 102.444  1.00  0.00     0.214 C 
HETATM   21  C1  UNL     1     128.464-111.520 102.525  1.00  0.00     0.117 C 
HETATM   22  O1  UNL     1     126.474-110.893 101.441  1.00  0.00    -0.274 OA
ATOM     23  H1  UNL     1     126.634-112.584 104.230  1.00  0.00     0.163 HD
ENDBRANCH   1  19
TORSDOF 7
ENDMDL
