MODEL 1
REMARK VINA RESULT: -7.997848686      0.000      0.000
REMARK  7 active torsions:
REMARK  status: ('A' for Active; 'I' for Inactive)
REMARK       I    between atoms: C2_2  and  N1_4 
REMARK    1  A    between atoms: N1_4  and  C3_6 
REMARK    2  A    between atoms: C4_7  and  O2_8 
REMARK    3  A    between atoms: C5_11  and  C6_12 
REMARK    4  A    between atoms: C6_12  and  O4_13 
REMARK    5  A    between atoms: O4_13  and  P1_14 
REMARK    6  A    between atoms: C7_18  and  O8_19 
REMARK    7  A    between atoms: C8_21  and  O9_22 
ROOT
HETATM    1  C3  UNL     1     122.448-113.557 105.169  1.00  0.00     0.170 C 
HETATM    2  C4  UNL     1     123.867-113.936 105.419  1.00  0.00     0.282 C 
HETATM    3  O3  UNL     1     124.814-113.438 104.605  1.00  0.00    -0.349 OA
HETATM    4  C5  UNL     1     124.602-113.381 103.269  1.00  0.00     0.180 C 
HETATM    5  C7  UNL     1     123.157-113.471 102.850  1.00  0.00     0.180 C 
HETATM    6  C8  UNL     1     122.338-112.766 103.874  1.00  0.00     0.177 C 
ENDROOT
BRANCH   4   7
HETATM    7  C6  UNL     1     125.185-112.156 102.591  1.00  0.00     0.217 C 
BRANCH   7   8
HETATM    8  O4  UNL     1     125.939-111.431 103.482  1.00  0.00    -0.280 OA
BRANCH   8   9
HETATM    9  P1  UNL     1     127.608-111.895 103.223  1.00  0.00     0.422 P 
HETATM   10  O5  UNL     1     128.587-110.483 103.284  1.00  0.00    -0.617 OA
HETATM   11  O6  UNL     1     127.759-112.676 101.749  1.00  0.00    -0.617 OA
HETATM   12  O7  UNL     1     128.062-112.979 104.517  1.00  0.00    -0.617 OA
ENDBRANCH   8   9
ENDBRANCH   7   8
ENDBRANCH   4   7
BRANCH   5  13
HETATM   13  O8  UNL     1     122.832-114.797 102.737  1.00  0.00    -0.390 OA
ATOM     14  H8  UNL     1     121.978-114.855 102.324  1.00  0.00     0.210 HD
ENDBRANCH   5  13
BRANCH   2  15
HETATM   15  O2  UNL     1     123.936-115.345 105.375  1.00  0.00    -0.369 OA
ATOM     16  H2  UNL     1     124.825-115.589 105.607  1.00  0.00     0.212 HD
ENDBRANCH   2  15
BRANCH   6  17
HETATM   17  O9  UNL     1     122.830-111.497 104.174  1.00  0.00    -0.391 OA
ATOM     18  H9  UNL     1     123.661-111.647 104.610  1.00  0.00     0.210 HD
ENDBRANCH   6  17
BRANCH   1  19
HETATM   19  N1  UNL     1     121.535-114.672 105.196  1.00  0.00    -0.349 N 
HETATM   20  C2  UNL     1     120.393-114.618 106.033  1.00  0.00     0.214 C 
HETATM   21  C1  UNL     1     119.437-115.744 106.085  1.00  0.00     0.117 C 
HETATM   22  O1  UNL     1     120.140-113.607 106.772  1.00  0.00    -0.274 OA
ATOM     23  H1  UNL     1     121.710-115.494 104.618  1.00  0.00     0.163 HD
ENDBRANCH   1  19
TORSDOF 7
ENDMDL
