MODEL 11
REMARK VINA RESULT: -7.109651920      2.825      6.299
REMARK  7 active torsions:
REMARK  status: ('A' for Active; 'I' for Inactive)
REMARK       I    between atoms: C2_2  and  N1_4 
REMARK    1  A    between atoms: N1_4  and  C3_6 
REMARK    2  A    between atoms: C4_7  and  O2_8 
REMARK    3  A    between atoms: C5_11  and  C6_12 
REMARK    4  A    between atoms: C6_12  and  O4_13 
REMARK    5  A    between atoms: O4_13  and  P1_14 
REMARK    6  A    between atoms: C7_18  and  O8_19 
REMARK    7  A    between atoms: C8_21  and  O9_22 
ROOT
HETATM    1  C3  UNL     1     124.363-113.000 102.421  1.00  0.00     0.170 C 
HETATM    2  C4  UNL     1     125.186-113.129 103.656  1.00  0.00     0.282 C 
HETATM    3  O3  UNL     1     124.621-113.677 104.746  1.00  0.00    -0.349 OA
HETATM    4  C5  UNL     1     123.354-113.349 105.094  1.00  0.00     0.180 C 
HETATM    5  C7  UNL     1     122.530-112.737 103.989  1.00  0.00     0.180 C 
HETATM    6  C8  UNL     1     122.921-113.390 102.710  1.00  0.00     0.177 C 
ENDROOT
BRANCH   4   7
HETATM    7  C6  UNL     1     122.543-114.493 105.670  1.00  0.00     0.217 C 
BRANCH   7   8
HETATM    8  O4  UNL     1     121.341-114.606 105.011  1.00  0.00    -0.280 OA
BRANCH   8   9
HETATM    9  P1  UNL     1     120.089-114.555 106.234  1.00  0.00     0.422 P 
HETATM   10  O5  UNL     1     118.558-114.551 105.453  1.00  0.00    -0.617 OA
HETATM   11  O6  UNL     1     120.286-113.197 107.194  1.00  0.00    -0.617 OA
HETATM   12  O7  UNL     1     120.246-115.998 107.209  1.00  0.00    -0.617 OA
ENDBRANCH   8   9
ENDBRANCH   7   8
ENDBRANCH   4   7
BRANCH   5  13
HETATM   13  O8  UNL     1     122.765-111.388 103.986  1.00  0.00    -0.390 OA
ATOM     14  H8  UNL     1     123.018-111.133 104.866  1.00  0.00     0.210 HD
ENDBRANCH   5  13
BRANCH   2  15
HETATM   15  O2  UNL     1     125.642-111.837 103.992  1.00  0.00    -0.369 OA
ATOM     16  H2  UNL     1     126.591-111.854 103.952  1.00  0.00     0.212 HD
ENDBRANCH   2  15
BRANCH   6  17
HETATM   17  O9  UNL     1     122.927-114.782 102.796  1.00  0.00    -0.391 OA
ATOM     18  H9  UNL     1     122.904-114.975 103.726  1.00  0.00     0.210 HD
ENDBRANCH   6  17
BRANCH   1  19
HETATM   19  N1  UNL     1     124.453-111.704 101.796  1.00  0.00    -0.349 N 
HETATM   20  C2  UNL     1     125.171-111.564 100.582  1.00  0.00     0.214 C 
HETATM   21  C1  UNL     1     125.284-110.250  99.915  1.00  0.00     0.117 C 
HETATM   22  O1  UNL     1     125.746-112.554 100.015  1.00  0.00    -0.274 OA
ATOM     23  H1  UNL     1     124.005-110.894 102.225  1.00  0.00     0.163 HD
ENDBRANCH   1  19
TORSDOF 7
ENDMDL
