MODEL 10
REMARK VINA RESULT: -7.138897445      2.828      6.304
REMARK  7 active torsions:
REMARK  status: ('A' for Active; 'I' for Inactive)
REMARK       I    between atoms: C2_2  and  N1_4 
REMARK    1  A    between atoms: N1_4  and  C3_6 
REMARK    2  A    between atoms: C4_7  and  O2_8 
REMARK    3  A    between atoms: C5_11  and  C6_12 
REMARK    4  A    between atoms: C6_12  and  O4_13 
REMARK    5  A    between atoms: O4_13  and  P1_14 
REMARK    6  A    between atoms: C7_18  and  O8_19 
REMARK    7  A    between atoms: C8_21  and  O9_22 
ROOT
HETATM    1  C3  UNL     1     124.365-113.013 102.468  1.00  0.00     0.170 C 
HETATM    2  C4  UNL     1     125.153-113.147 103.726  1.00  0.00     0.282 C 
HETATM    3  O3  UNL     1     124.557-113.700 104.797  1.00  0.00    -0.349 OA
HETATM    4  C5  UNL     1     123.281-113.375 105.109  1.00  0.00     0.180 C 
HETATM    5  C7  UNL     1     122.488-112.760 103.984  1.00  0.00     0.180 C 
HETATM    6  C8  UNL     1     122.916-113.407 102.714  1.00  0.00     0.177 C 
ENDROOT
BRANCH   4   7
HETATM    7  C6  UNL     1     122.455-114.523 105.657  1.00  0.00     0.217 C 
BRANCH   7   8
HETATM    8  O4  UNL     1     121.285-114.651 104.947  1.00  0.00    -0.280 OA
BRANCH   8   9
HETATM    9  P1  UNL     1     119.981-114.612 106.115  1.00  0.00     0.422 P 
HETATM   10  O5  UNL     1     120.113-113.167 107.038  1.00  0.00    -0.617 OA
HETATM   11  O6  UNL     1     120.053-115.968 107.095  1.00  0.00    -0.617 OA
HETATM   12  O7  UNL     1     118.475-114.602 105.225  1.00  0.00    -0.617 OA
ENDBRANCH   8   9
ENDBRANCH   7   8
ENDBRANCH   4   7
BRANCH   5  13
HETATM   13  O8  UNL     1     122.721-111.410 103.993  1.00  0.00    -0.390 OA
ATOM     14  H8  UNL     1     121.911-110.975 104.236  1.00  0.00     0.210 HD
ENDBRANCH   5  13
BRANCH   2  15
HETATM   15  O2  UNL     1     125.597-111.855 104.080  1.00  0.00    -0.369 OA
ATOM     16  H2  UNL     1     126.228-111.584 103.423  1.00  0.00     0.212 HD
ENDBRANCH   2  15
BRANCH   6  17
HETATM   17  O9  UNL     1     122.922-114.798 102.794  1.00  0.00    -0.391 OA
ATOM     18  H9  UNL     1     122.016-115.060 102.675  1.00  0.00     0.210 HD
ENDBRANCH   6  17
BRANCH   1  19
HETATM   19  N1  UNL     1     124.472-111.715 101.852  1.00  0.00    -0.349 N 
HETATM   20  C2  UNL     1     125.166-111.580 100.624  1.00  0.00     0.214 C 
HETATM   21  C1  UNL     1     125.295-110.264  99.964  1.00  0.00     0.117 C 
HETATM   22  O1  UNL     1     125.708-112.578 100.038  1.00  0.00    -0.274 OA
ATOM     23  H1  UNL     1     124.050-110.898 102.296  1.00  0.00     0.163 HD
ENDBRANCH   1  19
TORSDOF 7
ENDMDL
