MODEL 7
REMARK VINA RESULT: -7.550200019      4.106      8.624
REMARK  5 active torsions:
REMARK  status: ('A' for Active; 'I' for Inactive)
REMARK    1  A    between atoms: C4_6  and  C5_7 
REMARK    2  A    between atoms: C8_10  and  C9_11 
REMARK    3  A    between atoms: C9_11  and  C10_12 
REMARK    4  A    between atoms: C9_11  and  C11_18 
REMARK       I    between atoms: C10_12  and  N2_14 
REMARK    5  A    between atoms: N2_14  and  O2_16 
ROOT
HETATM    1  C5  UNL     1      -7.967  -2.775  13.059  1.00  0.00    -0.023 A 
HETATM    2  C6  UNL     1      -7.994  -2.901  14.424  1.00  0.00     0.013 A 
HETATM    3  C7  UNL     1      -6.960  -2.414  15.181  1.00  0.00     0.009 A 
HETATM    4  C8  UNL     1      -5.876  -1.792  14.603  1.00  0.00    -0.040 A 
HETATM    5  C17 UNL     1      -5.851  -1.667  13.236  1.00  0.00     0.009 A 
HETATM    6  C18 UNL     1      -6.886  -2.154  12.471  1.00  0.00     0.013 A 
ENDROOT
BRANCH   4   7
HETATM    7  C9  UNL     1      -4.763  -1.276  15.464  1.00  0.00     0.148 C 
BRANCH   7   8
HETATM    8  C10 UNL     1      -4.180  -2.457  16.151  1.00  0.00     0.254 C 
HETATM    9  O1  UNL     1      -4.615  -3.595  15.874  1.00  0.00    -0.270 OA
HETATM   10  N2  UNL     1      -3.140  -2.319  17.116  1.00  0.00    -0.237 N 
ATOM     11  H2  UNL     1      -2.787  -1.389  17.343  1.00  0.00     0.197 HD
BRANCH  10  12
HETATM   12  O2  UNL     1      -2.618  -3.393  17.732  1.00  0.00    -0.287 OA
ATOM     13  H2  UNL     1      -1.934  -3.300  18.385  1.00  0.00     0.244 HD
ENDBRANCH  10  12
ENDBRANCH   7   8
BRANCH   7  14
HETATM   14  C11 UNL     1      -5.236  -0.300  16.444  1.00  0.00    -0.002 A 
HETATM   15  C12 UNL     1      -5.973  -0.677  17.551  1.00  0.00     0.011 A 
HETATM   16  C13 UNL     1      -6.403   0.244  18.464  1.00  0.00     0.001 A 
HETATM   17  C14 UNL     1      -6.129   1.590  18.334  1.00  0.00     0.003 A 
HETATM   18  C15 UNL     1      -5.395   1.993  17.239  1.00  0.00     0.043 A 
HETATM   19  C16 UNL     1      -4.962   1.042  16.314  1.00  0.00     0.123 A 
HETATM   20  F1  UNL     1      -4.250   1.546  15.253  1.00  0.00    -0.206 F 
ENDBRANCH   7  14
ENDBRANCH   4   7
BRANCH   1  21
HETATM   21  C4  UNL     1      -9.045  -3.288  12.233  1.00  0.00     0.005 A 
HETATM   22  C3  UNL     1     -10.346  -3.273  12.697  1.00  0.00     0.103 A 
HETATM   23  N1  UNL     1     -11.308  -3.758  11.881  1.00  0.00    -0.355 N 
HETATM   24  C2  UNL     1     -11.055  -4.247  10.656  1.00  0.00     0.076 A 
ATOM     25  H1  UNL     1     -12.273  -3.752  12.212  1.00  0.00     0.166 HD
HETATM   26  C1  UNL     1     -12.129  -4.777   9.767  1.00  0.00     0.089 C 
HETATM   27  N3  UNL     1      -9.789  -4.250  10.231  1.00  0.00    -0.355 N 
HETATM   28  C19 UNL     1      -8.781  -3.786  10.985  1.00  0.00     0.103 A 
ATOM     29  H3  UNL     1      -9.582  -4.618   9.302  1.00  0.00     0.166 HD
ENDBRANCH   1  21
TORSDOF 5
ENDMDL
