MODEL 2
REMARK VINA RESULT: -10.508480756      1.266      1.381
REMARK  5 active torsions:
REMARK  status: ('A' for Active; 'I' for Inactive)
REMARK    1  A    between atoms: C4_6  and  C5_7 
REMARK    2  A    between atoms: C8_10  and  C9_11 
REMARK    3  A    between atoms: C9_11  and  C10_12 
REMARK    4  A    between atoms: C9_11  and  C11_18 
REMARK       I    between atoms: C10_12  and  N2_14 
REMARK    5  A    between atoms: N2_14  and  O2_16 
ROOT
HETATM    1  C5  UNL     1      -7.096  -2.308  14.182  1.00  0.00    -0.023 A 
HETATM    2  C6  UNL     1      -7.068  -2.127  12.824  1.00  0.00     0.013 A 
HETATM    3  C7  UNL     1      -7.842  -2.913  12.009  1.00  0.00     0.009 A 
HETATM    4  C8  UNL     1      -8.658  -3.895  12.521  1.00  0.00    -0.040 A 
HETATM    5  C17 UNL     1      -8.684  -4.074  13.882  1.00  0.00     0.009 A 
HETATM    6  C18 UNL     1      -7.910  -3.289  14.705  1.00  0.00     0.013 A 
ENDROOT
BRANCH   4   7
HETATM    7  C9  UNL     1      -9.487  -4.737  11.599  1.00  0.00     0.148 C 
BRANCH   7   8
HETATM    8  C10 UNL     1     -10.873  -4.207  11.676  1.00  0.00     0.254 C 
HETATM    9  O1  UNL     1     -11.112  -3.246  12.437  1.00  0.00    -0.270 OA
HETATM   10  N2  UNL     1     -11.929  -4.771  10.904  1.00  0.00    -0.237 N 
ATOM     11  H2  UNL     1     -11.734  -5.557  10.284  1.00  0.00     0.197 HD
BRANCH  10  12
HETATM   12  O2  UNL     1     -13.181  -4.284  10.980  1.00  0.00    -0.287 OA
ATOM     13  H2  UNL     1     -13.632  -3.967  10.206  1.00  0.00     0.244 HD
ENDBRANCH  10  12
ENDBRANCH   7   8
BRANCH   7  14
HETATM   14  C11 UNL     1      -9.462  -6.149  11.976  1.00  0.00    -0.002 A 
HETATM   15  C12 UNL     1     -10.106  -6.614  13.107  1.00  0.00     0.011 A 
HETATM   16  C13 UNL     1     -10.080  -7.938  13.444  1.00  0.00     0.001 A 
HETATM   17  C14 UNL     1      -9.418  -8.877  12.681  1.00  0.00     0.003 A 
HETATM   18  C15 UNL     1      -8.767  -8.440  11.548  1.00  0.00     0.043 A 
HETATM   19  C16 UNL     1      -8.800  -7.086  11.214  1.00  0.00     0.123 A 
HETATM   20  F1  UNL     1      -8.112  -6.751  10.074  1.00  0.00    -0.206 F 
ENDBRANCH   7  14
ENDBRANCH   4   7
BRANCH   1  21
HETATM   21  C4  UNL     1      -6.281  -1.495  15.067  1.00  0.00     0.005 A 
HETATM   22  C3  UNL     1      -5.319  -0.650  14.548  1.00  0.00     0.103 A 
HETATM   23  N1  UNL     1      -4.596   0.088  15.421  1.00  0.00    -0.355 N 
HETATM   24  C2  UNL     1      -4.772   0.033  16.751  1.00  0.00     0.076 A 
ATOM     25  H1  UNL     1      -3.883   0.716  15.051  1.00  0.00     0.166 HD
HETATM   26  C1  UNL     1      -3.967   0.855  17.701  1.00  0.00     0.089 C 
HETATM   27  N3  UNL     1      -5.709  -0.792  17.227  1.00  0.00    -0.355 N 
HETATM   28  C19 UNL     1      -6.465  -1.554  16.423  1.00  0.00     0.103 A 
ATOM     29  H3  UNL     1      -5.854  -0.843  18.235  1.00  0.00     0.166 HD
ENDBRANCH   1  21
TORSDOF 5
ENDMDL
