MODEL 1
REMARK VINA RESULT: -10.640633269      0.000      0.000
REMARK  5 active torsions:
REMARK  status: ('A' for Active; 'I' for Inactive)
REMARK    1  A    between atoms: C4_6  and  C5_7 
REMARK    2  A    between atoms: C8_10  and  C9_11 
REMARK    3  A    between atoms: C9_11  and  C10_12 
REMARK    4  A    between atoms: C9_11  and  C11_18 
REMARK       I    between atoms: C10_12  and  N2_14 
REMARK    5  A    between atoms: N2_14  and  O2_16 
ROOT
HETATM    1  C5  UNL     1      -7.315  -2.515  13.878  1.00  0.00    -0.023 A 
HETATM    2  C6  UNL     1      -7.226  -2.232  12.540  1.00  0.00     0.013 A 
HETATM    3  C7  UNL     1      -7.968  -2.948  11.635  1.00  0.00     0.009 A 
HETATM    4  C8  UNL     1      -8.811  -3.959  12.035  1.00  0.00    -0.040 A 
HETATM    5  C17 UNL     1      -8.898  -4.240  13.377  1.00  0.00     0.009 A 
HETATM    6  C18 UNL     1      -8.157  -3.525  14.289  1.00  0.00     0.013 A 
ENDROOT
BRANCH   4   7
HETATM    7  C9  UNL     1      -9.602  -4.723  11.016  1.00  0.00     0.148 C 
BRANCH   7   8
HETATM    8  C10 UNL     1     -11.006  -4.742  11.501  1.00  0.00     0.254 C 
HETATM    9  O1  UNL     1     -11.401  -5.719  12.172  1.00  0.00    -0.270 OA
HETATM   10  N2  UNL     1     -11.906  -3.675  11.218  1.00  0.00    -0.237 N 
ATOM     11  H2  UNL     1     -11.583  -2.878  10.669  1.00  0.00     0.197 HD
BRANCH  10  12
HETATM   12  O2  UNL     1     -13.175  -3.701  11.662  1.00  0.00    -0.287 OA
ATOM     13  H2  UNL     1     -13.592  -2.918  12.003  1.00  0.00     0.244 HD
ENDBRANCH  10  12
ENDBRANCH   7   8
BRANCH   7  14
HETATM   14  C11 UNL     1      -9.104  -6.087  10.847  1.00  0.00    -0.002 A 
HETATM   15  C12 UNL     1      -8.198  -6.647  11.728  1.00  0.00     0.011 A 
HETATM   16  C13 UNL     1      -7.747  -7.926  11.562  1.00  0.00     0.001 A 
HETATM   17  C14 UNL     1      -8.167  -8.724  10.518  1.00  0.00     0.003 A 
HETATM   18  C15 UNL     1      -9.070  -8.189   9.625  1.00  0.00     0.043 A 
HETATM   19  C16 UNL     1      -9.524  -6.881   9.805  1.00  0.00     0.123 A 
HETATM   20  F1  UNL     1     -10.412  -6.439   8.855  1.00  0.00    -0.206 F 
ENDBRANCH   7  14
ENDBRANCH   4   7
BRANCH   1  21
HETATM   21  C4  UNL     1      -6.536  -1.777  14.856  1.00  0.00     0.005 A 
HETATM   22  C3  UNL     1      -5.498  -0.962  14.450  1.00  0.00     0.103 A 
HETATM   23  N1  UNL     1      -4.813  -0.295  15.406  1.00  0.00    -0.355 N 
HETATM   24  C2  UNL     1      -5.096  -0.391  16.715  1.00  0.00     0.076 A 
ATOM     25  H1  UNL     1      -4.044   0.311  15.119  1.00  0.00     0.166 HD
HETATM   26  C1  UNL     1      -4.332   0.354  17.758  1.00  0.00     0.089 C 
HETATM   27  N3  UNL     1      -6.106  -1.185  17.082  1.00  0.00    -0.355 N 
HETATM   28  C19 UNL     1      -6.830  -1.878  16.191  1.00  0.00     0.103 A 
ATOM     29  H3  UNL     1      -6.333  -1.267  18.073  1.00  0.00     0.166 HD
ENDBRANCH   1  21
TORSDOF 5
ENDMDL
