MODEL 4
REMARK VINA RESULT: -7.912240199      4.429      8.857
REMARK  5 active torsions:
REMARK  status: ('A' for Active; 'I' for Inactive)
REMARK    1  A    between atoms: C4_6  and  C5_7 
REMARK    2  A    between atoms: C8_10  and  C9_11 
REMARK    3  A    between atoms: C9_11  and  C10_12 
REMARK    4  A    between atoms: C9_11  and  C11_18 
REMARK       I    between atoms: C10_12  and  N2_14 
REMARK    5  A    between atoms: N2_14  and  O2_16 
ROOT
HETATM    1  C5  UNL     1      -7.440  -2.587  13.718  1.00  0.00    -0.023 A 
HETATM    2  C6  UNL     1      -6.437  -1.818  13.188  1.00  0.00     0.013 A 
HETATM    3  C7  UNL     1      -5.571  -1.151  14.017  1.00  0.00     0.009 A 
HETATM    4  C8  UNL     1      -5.681  -1.231  15.386  1.00  0.00    -0.040 A 
HETATM    5  C17 UNL     1      -6.687  -2.003  15.914  1.00  0.00     0.009 A 
HETATM    6  C18 UNL     1      -7.559  -2.674  15.088  1.00  0.00     0.013 A 
ENDROOT
BRANCH   4   7
HETATM    7  C9  UNL     1      -4.718  -0.485  16.259  1.00  0.00     0.148 C 
BRANCH   7   8
HETATM    8  C10 UNL     1      -3.914  -1.511  16.973  1.00  0.00     0.254 C 
HETATM    9  O1  UNL     1      -3.346  -1.199  18.041  1.00  0.00    -0.270 OA
HETATM   10  N2  UNL     1      -3.778  -2.835  16.466  1.00  0.00    -0.237 N 
ATOM     11  H2  UNL     1      -4.241  -3.088  15.593  1.00  0.00     0.197 HD
BRANCH  10  12
HETATM   12  O2  UNL     1      -3.049  -3.757  17.118  1.00  0.00    -0.287 OA
ATOM     13  H2  UNL     1      -3.341  -4.659  17.181  1.00  0.00     0.244 HD
ENDBRANCH  10  12
ENDBRANCH   7   8
BRANCH   7  14
HETATM   14  C11 UNL     1      -5.405   0.378  17.218  1.00  0.00    -0.002 A 
HETATM   15  C12 UNL     1      -6.105  -0.137  18.293  1.00  0.00     0.011 A 
HETATM   16  C13 UNL     1      -6.737   0.682  19.186  1.00  0.00     0.001 A 
HETATM   17  C14 UNL     1      -6.711   2.056  19.068  1.00  0.00     0.003 A 
HETATM   18  C15 UNL     1      -6.019   2.596  18.005  1.00  0.00     0.043 A 
HETATM   19  C16 UNL     1      -5.378   1.750  17.100  1.00  0.00     0.123 A 
HETATM   20  F1  UNL     1      -4.728   2.385  16.071  1.00  0.00    -0.206 F 
ENDBRANCH   7  14
ENDBRANCH   4   7
BRANCH   1  21
HETATM   21  C4  UNL     1      -8.375  -3.298  12.864  1.00  0.00     0.005 A 
HETATM   22  C3  UNL     1      -8.915  -4.502  13.272  1.00  0.00     0.103 A 
HETATM   23  N1  UNL     1      -9.785  -5.114  12.437  1.00  0.00    -0.355 N 
HETATM   24  C2  UNL     1     -10.140  -4.607  11.245  1.00  0.00     0.076 A 
ATOM     25  H1  UNL     1     -10.191  -6.003  12.727  1.00  0.00     0.166 HD
HETATM   26  C1  UNL     1     -11.103  -5.295  10.336  1.00  0.00     0.089 C 
HETATM   27  N3  UNL     1      -9.604  -3.441  10.874  1.00  0.00    -0.355 N 
HETATM   28  C19 UNL     1      -8.734  -2.776  11.649  1.00  0.00     0.103 A 
ATOM     29  H3  UNL     1      -9.865  -3.044   9.972  1.00  0.00     0.166 HD
ENDBRANCH   1  21
TORSDOF 5
ENDMDL
