MODEL 5
REMARK VINA RESULT: -7.761310423      4.399      9.063
REMARK  5 active torsions:
REMARK  status: ('A' for Active; 'I' for Inactive)
REMARK    1  A    between atoms: C4_6  and  C5_7 
REMARK    2  A    between atoms: C8_10  and  C9_11 
REMARK    3  A    between atoms: C9_11  and  C10_12 
REMARK    4  A    between atoms: C9_11  and  C11_18 
REMARK       I    between atoms: C10_12  and  N2_14 
REMARK    5  A    between atoms: N2_14  and  O2_16 
ROOT
HETATM    1  C5  UNL     1      -7.343  -2.479  14.030  1.00  0.00    -0.023 A 
HETATM    2  C6  UNL     1      -7.483  -2.574  15.390  1.00  0.00     0.013 A 
HETATM    3  C7  UNL     1      -6.661  -1.854  16.218  1.00  0.00     0.009 A 
HETATM    4  C8  UNL     1      -5.681  -1.028  15.718  1.00  0.00    -0.040 A 
HETATM    5  C17 UNL     1      -5.542  -0.934  14.355  1.00  0.00     0.009 A 
HETATM    6  C18 UNL     1      -6.365  -1.654  13.519  1.00  0.00     0.013 A 
ENDROOT
BRANCH   4   7
HETATM    7  C9  UNL     1      -4.798  -0.260  16.656  1.00  0.00     0.148 C 
BRANCH   7   8
HETATM    8  C10 UNL     1      -3.967  -1.264  17.369  1.00  0.00     0.254 C 
HETATM    9  O1  UNL     1      -3.772  -2.377  16.835  1.00  0.00    -0.270 OA
HETATM   10  N2  UNL     1      -3.393  -0.986  18.642  1.00  0.00    -0.237 N 
ATOM     11  H2  UNL     1      -3.554  -0.078  19.078  1.00  0.00     0.197 HD
BRANCH  10  12
HETATM   12  O2  UNL     1      -2.641  -1.901  19.280  1.00  0.00    -0.287 OA
ATOM     13  H2  UNL     1      -2.631  -1.953  20.228  1.00  0.00     0.244 HD
ENDBRANCH  10  12
ENDBRANCH   7   8
BRANCH   7  14
HETATM   14  C11 UNL     1      -5.572   0.530  17.612  1.00  0.00    -0.002 A 
HETATM   15  C12 UNL     1      -6.245  -0.057  18.668  1.00  0.00     0.011 A 
HETATM   16  C13 UNL     1      -6.958   0.694  19.559  1.00  0.00     0.001 A 
HETATM   17  C14 UNL     1      -7.046   2.067  19.458  1.00  0.00     0.003 A 
HETATM   18  C15 UNL     1      -6.384   2.677  18.414  1.00  0.00     0.043 A 
HETATM   19  C16 UNL     1      -5.659   1.900  17.510  1.00  0.00     0.123 A 
HETATM   20  F1  UNL     1      -5.047   2.601  16.501  1.00  0.00    -0.206 F 
ENDBRANCH   7  14
ENDBRANCH   4   7
BRANCH   1  21
HETATM   21  C4  UNL     1      -8.195  -3.235  13.130  1.00  0.00     0.005 A 
HETATM   22  C3  UNL     1      -8.384  -2.812  11.829  1.00  0.00     0.103 A 
HETATM   23  N1  UNL     1      -9.183  -3.560  11.036  1.00  0.00    -0.355 N 
HETATM   24  C2  UNL     1      -9.793  -4.681  11.455  1.00  0.00     0.076 A 
ATOM     25  H1  UNL     1      -9.330  -3.259  10.072  1.00  0.00     0.166 HD
HETATM   26  C1  UNL     1     -10.671  -5.496  10.566  1.00  0.00     0.089 C 
HETATM   27  N3  UNL     1      -9.594  -5.069  12.718  1.00  0.00    -0.355 N 
HETATM   28  C19 UNL     1      -8.815  -4.378  13.563  1.00  0.00     0.103 A 
ATOM     29  H3  UNL     1     -10.050  -5.918  13.050  1.00  0.00     0.166 HD
ENDBRANCH   1  21
TORSDOF 5
ENDMDL
