MODEL 5
REMARK VINA RESULT: -8.241503106      3.677      4.649
REMARK  8 active torsions:
REMARK  status: ('A' for Active; 'I' for Inactive)
REMARK    1  A    between atoms: N4_10  and  C5_11 
REMARK    2  A    between atoms: C6_13  and  C7_14 
REMARK    3  A    between atoms: C7_14  and  O2_15 
REMARK    4  A    between atoms: O2_15  and  P1_16 
REMARK    5  A    between atoms: P1_16  and  O5_19 
REMARK    6  A    between atoms: O5_19  and  P2_20 
REMARK    7  A    between atoms: C8_24  and  O9_25 
REMARK    8  A    between atoms: C9_27  and  O10_28 
ROOT
HETATM    1  C5  UNL     1     -44.783  80.806 149.312  1.00  0.00     0.262 C 
HETATM    2  O1  UNL     1     -46.092  80.363 149.135  1.00  0.00    -0.353 OA
HETATM    3  C6  UNL     1     -46.528  79.829 150.313  1.00  0.00     0.180 C 
HETATM    4  C8  UNL     1     -45.836  80.535 151.447  1.00  0.00     0.182 C 
HETATM    5  C9  UNL     1     -44.753  81.308 150.720  1.00  0.00     0.198 C 
ENDROOT
BRANCH   1   6
HETATM    6  N4  UNL     1     -44.591  81.874 148.334  1.00  0.00    -0.297 N 
HETATM    7  C2  UNL     1     -43.409  82.150 147.728  1.00  0.00     0.146 A 
HETATM    8  N2  UNL     1     -42.190  81.587 147.832  1.00  0.00    -0.314 N 
HETATM    9  C3  UNL     1     -43.660  83.221 146.885  1.00  0.00     0.146 A 
HETATM   10  C1  UNL     1     -41.202  82.086 147.095  1.00  0.00     0.196 A 
ATOM     11  H2  UNL     1     -42.029  80.800 148.459  1.00  0.00     0.170 HD
HETATM   12  N1  UNL     1     -39.910  81.507 147.189  1.00  0.00    -0.063 NA
HETATM   13  N5  UNL     1     -41.397  83.127 146.259  1.00  0.00    -0.295 N 
HETATM   14  C10 UNL     1     -42.605  83.710 146.134  1.00  0.00     0.278 A 
ATOM     15  H5  UNL     1     -40.613  83.480 145.710  1.00  0.00     0.171 HD
HETATM   16  O11 UNL     1     -42.788  84.697 145.343  1.00  0.00    -0.265 OA
HETATM   17  N3  UNL     1     -44.965  83.585 146.979  1.00  0.00    -0.345 N 
HETATM   18  C4  UNL     1     -45.521  82.748 147.873  1.00  0.00     0.188 A 
ATOM     19  H3  UNL     1     -45.430  84.340 146.474  1.00  0.00     0.167 HD
ENDBRANCH   1   6
BRANCH   5  20
HETATM   20  O10 UNL     1     -43.545  80.985 151.375  1.00  0.00    -0.388 OA
ATOM     21  H10 UNL     1     -43.485  81.387 152.233  1.00  0.00     0.210 HD
ENDBRANCH   5  20
BRANCH   3  22
HETATM   22  C7  UNL     1     -48.010  79.968 150.516  1.00  0.00     0.216 C 
BRANCH  22  23
HETATM   23  O2  UNL     1     -48.286  79.670 151.849  1.00  0.00    -0.287 OA
BRANCH  23  24
HETATM   24  P1  UNL     1     -48.695  78.237 152.258  1.00  0.00     0.418 P 
HETATM   25  O3  UNL     1     -47.848  78.414 153.664  1.00  0.00    -0.624 OA
HETATM   26  O4  UNL     1     -50.287  78.786 152.233  1.00  0.00    -0.624 OA
BRANCH  24  27
HETATM   27  O5  UNL     1     -49.257  76.901 152.771  1.00  0.00    -0.173 OA
BRANCH  27  28
HETATM   28  P2  UNL     1     -48.588  75.642 153.349  1.00  0.00     0.431 P 
HETATM   29  O6  UNL     1     -47.705  74.427 153.733  1.00  0.00    -0.616 OA
HETATM   30  O7  UNL     1     -48.484  75.129 151.763  1.00  0.00    -0.616 OA
HETATM   31  O8  UNL     1     -49.901  75.166 154.188  1.00  0.00    -0.616 OA
ENDBRANCH  27  28
ENDBRANCH  24  27
ENDBRANCH  23  24
ENDBRANCH  22  23
ENDBRANCH   3  22
BRANCH   4  32
HETATM   32  O9  UNL     1     -45.303  79.548 152.282  1.00  0.00    -0.390 OA
ATOM     33  H9  UNL     1     -45.229  78.755 151.764  1.00  0.00     0.210 HD
ENDBRANCH   4  32
TORSDOF 8
ENDMDL
