MODEL 1
REMARK VINA RESULT: -8.886538962      0.000      0.000
REMARK  8 active torsions:
REMARK  status: ('A' for Active; 'I' for Inactive)
REMARK    1  A    between atoms: N4_10  and  C5_11 
REMARK    2  A    between atoms: C6_13  and  C7_14 
REMARK    3  A    between atoms: C7_14  and  O2_15 
REMARK    4  A    between atoms: O2_15  and  P1_16 
REMARK    5  A    between atoms: P1_16  and  O5_19 
REMARK    6  A    between atoms: O5_19  and  P2_20 
REMARK    7  A    between atoms: C8_24  and  O9_25 
REMARK    8  A    between atoms: C9_27  and  O10_28 
ROOT
HETATM    1  C5  UNL     1     -47.470  82.007 148.934  1.00  0.00     0.262 C 
HETATM    2  O1  UNL     1     -47.210  80.892 149.729  1.00  0.00    -0.353 OA
HETATM    3  C6  UNL     1     -46.763  81.325 150.943  1.00  0.00     0.180 C 
HETATM    4  C8  UNL     1     -47.387  82.663 151.236  1.00  0.00     0.182 C 
HETATM    5  C9  UNL     1     -47.988  83.029 149.894  1.00  0.00     0.198 C 
ENDROOT
BRANCH   1   6
HETATM    6  N4  UNL     1     -48.483  81.579 147.972  1.00  0.00    -0.297 N 
HETATM    7  C2  UNL     1     -48.606  82.083 146.719  1.00  0.00     0.146 A 
HETATM    8  N2  UNL     1     -47.911  83.027 146.055  1.00  0.00    -0.314 N 
HETATM    9  C3  UNL     1     -49.676  81.413 146.147  1.00  0.00     0.146 A 
HETATM   10  C1  UNL     1     -48.274  83.316 144.808  1.00  0.00     0.196 A 
ATOM     11  H2  UNL     1     -47.127  83.507 146.496  1.00  0.00     0.170 HD
HETATM   12  N1  UNL     1     -47.554  84.306 144.092  1.00  0.00    -0.063 NA
HETATM   13  N5  UNL     1     -49.308  82.690 144.209  1.00  0.00    -0.295 N 
HETATM   14  C10 UNL     1     -50.022  81.743 144.848  1.00  0.00     0.278 A 
ATOM     15  H5  UNL     1     -49.555  82.940 143.251  1.00  0.00     0.171 HD
HETATM   16  O11 UNL     1     -51.002  81.152 144.279  1.00  0.00    -0.265 OA
HETATM   17  N3  UNL     1     -50.189  80.523 147.035  1.00  0.00    -0.345 N 
HETATM   18  C4  UNL     1     -49.444  80.638 148.149  1.00  0.00     0.188 A 
ATOM     19  H3  UNL     1     -50.978  79.894 146.887  1.00  0.00     0.167 HD
ENDBRANCH   1   6
BRANCH   5  20
HETATM   20  O10 UNL     1     -47.512  84.324 149.600  1.00  0.00    -0.388 OA
ATOM     21  H10 UNL     1     -47.482  84.491 148.665  1.00  0.00     0.210 HD
ENDBRANCH   5  20
BRANCH   3  22
HETATM   22  C7  UNL     1     -47.112  80.395 152.071  1.00  0.00     0.216 C 
BRANCH  22  23
HETATM   23  O2  UNL     1     -48.394  79.904 151.836  1.00  0.00    -0.287 OA
BRANCH  23  24
HETATM   24  P1  UNL     1     -48.718  78.416 152.096  1.00  0.00     0.418 P 
HETATM   25  O3  UNL     1     -47.800  78.472 153.467  1.00  0.00    -0.624 OA
HETATM   26  O4  UNL     1     -50.331  78.886 152.217  1.00  0.00    -0.624 OA
BRANCH  24  27
HETATM   27  O5  UNL     1     -49.193  77.004 152.478  1.00  0.00    -0.173 OA
BRANCH  27  28
HETATM   28  P2  UNL     1     -48.501  75.828 153.188  1.00  0.00     0.431 P 
HETATM   29  O6  UNL     1     -47.598  74.676 153.698  1.00  0.00    -0.616 OA
HETATM   30  O7  UNL     1     -48.411  75.135 151.671  1.00  0.00    -0.616 OA
HETATM   31  O8  UNL     1     -49.798  75.438 154.095  1.00  0.00    -0.616 OA
ENDBRANCH  27  28
ENDBRANCH  24  27
ENDBRANCH  23  24
ENDBRANCH  22  23
ENDBRANCH   3  22
BRANCH   4  32
HETATM   32  O9  UNL     1     -46.351  83.529 151.598  1.00  0.00    -0.390 OA
ATOM     33  H9  UNL     1     -46.214  83.424 152.533  1.00  0.00     0.210 HD
ENDBRANCH   4  32
TORSDOF 8
ENDMDL
