MODEL 2
REMARK VINA RESULT: -8.424317400      3.347      4.496
REMARK  8 active torsions:
REMARK  status: ('A' for Active; 'I' for Inactive)
REMARK    1  A    between atoms: N4_10  and  C5_11 
REMARK    2  A    between atoms: C6_13  and  C7_14 
REMARK    3  A    between atoms: C7_14  and  O2_15 
REMARK    4  A    between atoms: O2_15  and  P1_16 
REMARK    5  A    between atoms: P1_16  and  O5_19 
REMARK    6  A    between atoms: O5_19  and  P2_20 
REMARK    7  A    between atoms: C8_24  and  O9_25 
REMARK    8  A    between atoms: C9_27  and  O10_28 
ROOT
HETATM    1  C5  UNL     1     -44.067  79.489 150.639  1.00  0.00     0.262 C 
HETATM    2  O1  UNL     1     -45.417  79.400 150.303  1.00  0.00    -0.353 OA
HETATM    3  C6  UNL     1     -46.155  79.641 151.426  1.00  0.00     0.180 C 
HETATM    4  C8  UNL     1     -45.386  80.579 152.316  1.00  0.00     0.182 C 
HETATM    5  C9  UNL     1     -44.016  80.572 151.668  1.00  0.00     0.198 C 
ENDROOT
BRANCH   1   6
HETATM    6  N4  UNL     1     -43.377  79.857 149.405  1.00  0.00    -0.297 N 
HETATM    7  C2  UNL     1     -43.853  80.748 148.500  1.00  0.00     0.146 A 
HETATM    8  N2  UNL     1     -44.982  81.482 148.468  1.00  0.00    -0.314 N 
HETATM    9  C3  UNL     1     -42.904  80.806 147.493  1.00  0.00     0.146 A 
HETATM   10  C1  UNL     1     -45.181  82.286 147.427  1.00  0.00     0.196 A 
ATOM     11  H2  UNL     1     -45.667  81.423 149.221  1.00  0.00     0.170 HD
HETATM   12  N1  UNL     1     -46.363  83.067 147.374  1.00  0.00    -0.063 NA
HETATM   13  N5  UNL     1     -44.285  82.377 146.422  1.00  0.00    -0.295 N 
HETATM   14  C10 UNL     1     -43.148  81.655 146.428  1.00  0.00     0.278 A 
ATOM     15  H5  UNL     1     -44.474  83.006 145.641  1.00  0.00     0.171 HD
HETATM   16  O11 UNL     1     -42.301  81.742 145.474  1.00  0.00    -0.265 OA
HETATM   17  N3  UNL     1     -41.875  79.969 147.781  1.00  0.00    -0.345 N 
HETATM   18  C4  UNL     1     -42.182  79.394 148.958  1.00  0.00     0.188 A 
ATOM     19  H3  UNL     1     -41.038  79.808 147.220  1.00  0.00     0.167 HD
ENDBRANCH   1   6
BRANCH   5  20
HETATM   20  O10 UNL     1     -43.102  80.279 152.703  1.00  0.00    -0.388 OA
ATOM     21  H10 UNL     1     -42.998  79.344 152.835  1.00  0.00     0.210 HD
ENDBRANCH   5  20
BRANCH   3  22
HETATM   22  C7  UNL     1     -47.490  80.268 151.136  1.00  0.00     0.216 C 
BRANCH  22  23
HETATM   23  O2  UNL     1     -48.364  79.899 152.157  1.00  0.00    -0.287 OA
BRANCH  23  24
HETATM   24  P1  UNL     1     -48.708  78.410 152.388  1.00  0.00     0.418 P 
HETATM   25  O3  UNL     1     -48.149  78.538 153.936  1.00  0.00    -0.624 OA
HETATM   26  O4  UNL     1     -50.312  78.834 152.100  1.00  0.00    -0.624 OA
BRANCH  24  27
HETATM   27  O5  UNL     1     -49.229  76.997 152.698  1.00  0.00    -0.173 OA
BRANCH  27  28
HETATM   28  P2  UNL     1     -48.561  75.748 153.297  1.00  0.00     0.431 P 
HETATM   29  O6  UNL     1     -47.679  74.539 153.701  1.00  0.00    -0.616 OA
HETATM   30  O7  UNL     1     -48.465  75.204 151.720  1.00  0.00    -0.616 OA
HETATM   31  O8  UNL     1     -49.872  75.292 154.150  1.00  0.00    -0.616 OA
ENDBRANCH  27  28
ENDBRANCH  24  27
ENDBRANCH  23  24
ENDBRANCH  22  23
ENDBRANCH   3  22
BRANCH   4  32
HETATM   32  O9  UNL     1     -45.363  80.007 153.592  1.00  0.00    -0.390 OA
ATOM     33  H9  UNL     1     -44.902  80.613 154.161  1.00  0.00     0.210 HD
ENDBRANCH   4  32
TORSDOF 8
ENDMDL
