MODEL 4
REMARK VINA RESULT: -8.351486015      3.366      4.845
REMARK  8 active torsions:
REMARK  status: ('A' for Active; 'I' for Inactive)
REMARK    1  A    between atoms: N4_10  and  C5_11 
REMARK    2  A    between atoms: C6_13  and  C7_14 
REMARK    3  A    between atoms: C7_14  and  O2_15 
REMARK    4  A    between atoms: O2_15  and  P1_16 
REMARK    5  A    between atoms: P1_16  and  O5_19 
REMARK    6  A    between atoms: O5_19  and  P2_20 
REMARK    7  A    between atoms: C8_24  and  O9_25 
REMARK    8  A    between atoms: C9_27  and  O10_28 
ROOT
HETATM    1  C5  UNL     1     -45.835  79.437 151.049  1.00  0.00     0.262 C 
HETATM    2  O1  UNL     1     -47.097  78.852 150.961  1.00  0.00    -0.353 OA
HETATM    3  C6  UNL     1     -47.459  78.423 152.204  1.00  0.00     0.180 C 
HETATM    4  C8  UNL     1     -46.822  79.322 153.229  1.00  0.00     0.182 C 
HETATM    5  C9  UNL     1     -45.832  80.103 152.388  1.00  0.00     0.198 C 
ENDROOT
BRANCH   1   6
HETATM    6  N4  UNL     1     -45.764  80.395 149.949  1.00  0.00    -0.297 N 
HETATM    7  C2  UNL     1     -44.631  80.688 149.263  1.00  0.00     0.146 A 
HETATM    8  N2  UNL     1     -43.367  80.237 149.377  1.00  0.00    -0.314 N 
HETATM    9  C3  UNL     1     -44.997  81.631 148.316  1.00  0.00     0.146 A 
HETATM   10  C1  UNL     1     -42.448  80.720 148.546  1.00  0.00     0.196 A 
ATOM     11  H2  UNL     1     -43.121  79.542 150.083  1.00  0.00     0.170 HD
HETATM   12  N1  UNL     1     -41.112  80.257 148.649  1.00  0.00    -0.063 NA
HETATM   13  N5  UNL     1     -42.756  81.638 147.606  1.00  0.00    -0.295 N 
HETATM   14  C10 UNL     1     -44.012  82.108 147.469  1.00  0.00     0.278 A 
ATOM     15  H5  UNL     1     -42.024  81.983 146.987  1.00  0.00     0.171 HD
HETATM   16  O11 UNL     1     -44.301  82.979 146.580  1.00  0.00    -0.265 OA
HETATM   17  N3  UNL     1     -46.323  81.902 148.425  1.00  0.00    -0.345 N 
HETATM   18  C4  UNL     1     -46.777  81.135 149.432  1.00  0.00     0.188 A 
ATOM     19  H3  UNL     1     -46.865  82.555 147.858  1.00  0.00     0.167 HD
ENDBRANCH   1   6
BRANCH   5  20
HETATM   20  O10 UNL     1     -44.589  79.978 153.042  1.00  0.00    -0.388 OA
ATOM     21  H10 UNL     1     -44.210  79.114 152.928  1.00  0.00     0.210 HD
ENDBRANCH   5  20
BRANCH   3  22
HETATM   22  C7  UNL     1     -48.945  78.443 152.430  1.00  0.00     0.216 C 
BRANCH  22  23
HETATM   23  O2  UNL     1     -49.394  77.124 152.425  1.00  0.00    -0.287 OA
BRANCH  23  24
HETATM   24  P1  UNL     1     -48.591  76.024 153.156  1.00  0.00     0.418 P 
HETATM   25  O3  UNL     1     -49.901  75.728 154.115  1.00  0.00    -0.624 OA
HETATM   26  O4  UNL     1     -48.513  75.228 151.674  1.00  0.00    -0.624 OA
BRANCH  24  27
HETATM   27  O5  UNL     1     -47.882  74.797 153.753  1.00  0.00    -0.173 OA
BRANCH  27  28
HETATM   28  P2  UNL     1     -47.163  74.556 155.091  1.00  0.00     0.431 P 
HETATM   29  O6  UNL     1     -46.393  74.604 156.435  1.00  0.00    -0.616 OA
HETATM   30  O7  UNL     1     -45.899  75.413 154.415  1.00  0.00    -0.616 OA
HETATM   31  O8  UNL     1     -47.119  72.936 154.929  1.00  0.00    -0.616 OA
ENDBRANCH  27  28
ENDBRANCH  24  27
ENDBRANCH  23  24
ENDBRANCH  22  23
ENDBRANCH   3  22
BRANCH   4  32
HETATM   32  O9  UNL     1     -46.182  78.497 154.159  1.00  0.00    -0.390 OA
ATOM     33  H9  UNL     1     -46.798  77.813 154.395  1.00  0.00     0.210 HD
ENDBRANCH   4  32
TORSDOF 8
ENDMDL
