MODEL 3
REMARK VINA RESULT: -8.437958540      1.910      6.378
REMARK  11 active torsions:
REMARK  status: ('A' for Active; 'I' for Inactive)
REMARK    1  A    between atoms: N4_10  and  C5_11 
REMARK    2  A    between atoms: C6_13  and  C7_14 
REMARK    3  A    between atoms: C7_14  and  O2_15 
REMARK    4  A    between atoms: O2_15  and  P1_16 
REMARK    5  A    between atoms: P1_16  and  O5_19 
REMARK    6  A    between atoms: O5_19  and  P2_20 
REMARK    7  A    between atoms: C8_24  and  O9_25 
REMARK    8  A    between atoms: O9_25  and  P3_26 
REMARK    9  A    between atoms: P3_26  and  O12_29 
REMARK   10  A    between atoms: O12_29  and  P4_30 
REMARK   11  A    between atoms: C9_34  and  O16_35 
ROOT
HETATM    1  C5  UNL     1     -48.059 -32.924 143.952  1.00  0.00     0.262 C 
HETATM    2  O1  UNL     1     -46.733 -32.915 144.474  1.00  0.00    -0.353 OA
HETATM    3  C6  UNL     1     -46.651 -33.846 145.457  1.00  0.00     0.180 C 
HETATM    4  C8  UNL     1     -47.815 -34.768 145.336  1.00  0.00     0.198 C 
HETATM    5  C9  UNL     1     -48.424 -34.321 143.975  1.00  0.00     0.199 C 
ENDROOT
BRANCH   1   6
HETATM    6  N4  UNL     1     -48.000 -32.152 142.782  1.00  0.00    -0.297 N 
HETATM    7  C2  UNL     1     -48.724 -32.167 141.661  1.00  0.00     0.146 A 
HETATM    8  N2  UNL     1     -49.755 -32.931 141.276  1.00  0.00    -0.314 N 
HETATM    9  C3  UNL     1     -48.249 -31.169 140.792  1.00  0.00     0.146 A 
HETATM   10  C1  UNL     1     -50.314 -32.725 140.062  1.00  0.00     0.196 A 
ATOM     11  H2  UNL     1     -50.115 -33.659 141.892  1.00  0.00     0.170 HD
HETATM   12  N1  UNL     1     -51.415 -33.561 139.682  1.00  0.00    -0.063 NA
HETATM   13  N5  UNL     1     -49.860 -31.772 139.231  1.00  0.00    -0.295 N 
HETATM   14  C10 UNL     1     -48.833 -30.974 139.556  1.00  0.00     0.278 A 
ATOM     15  H5  UNL     1     -50.312 -31.652 138.324  1.00  0.00     0.171 HD
HETATM   16  O17 UNL     1     -48.391 -30.075 138.794  1.00  0.00    -0.265 OA
HETATM   17  N3  UNL     1     -47.240 -30.592 141.450  1.00  0.00    -0.345 N 
HETATM   18  C4  UNL     1     -47.074 -31.155 142.625  1.00  0.00     0.188 A 
ATOM     19  H3  UNL     1     -46.677 -29.822 141.091  1.00  0.00     0.167 HD
ENDBRANCH   1   6
BRANCH   5  20
HETATM   20  O16 UNL     1     -49.800 -34.583 144.223  1.00  0.00    -0.388 OA
ATOM     21  H16 UNL     1     -49.982 -35.398 144.675  1.00  0.00     0.210 HD
ENDBRANCH   5  20
BRANCH   3  22
HETATM   22  C7  UNL     1     -45.313 -34.593 145.393  1.00  0.00     0.216 C 
BRANCH  22  23
HETATM   23  O2  UNL     1     -44.381 -33.716 144.908  1.00  0.00    -0.287 OA
BRANCH  23  24
HETATM   24  P1  UNL     1     -43.049 -34.588 144.404  1.00  0.00     0.418 P 
HETATM   25  O3  UNL     1     -42.769 -34.959 145.877  1.00  0.00    -0.624 OA
HETATM   26  O4  UNL     1     -41.663 -33.790 144.130  1.00  0.00    -0.624 OA
BRANCH  24  27
HETATM   27  O5  UNL     1     -43.541 -34.337 142.970  1.00  0.00    -0.173 OA
BRANCH  27  28
HETATM   28  P2  UNL     1     -43.166 -33.064 142.075  1.00  0.00     0.431 P 
HETATM   29  O6  UNL     1     -44.359 -33.153 141.132  1.00  0.00    -0.616 OA
HETATM   30  O7  UNL     1     -43.647 -31.521 142.534  1.00  0.00    -0.616 OA
HETATM   31  O8  UNL     1     -42.095 -33.197 140.784  1.00  0.00    -0.616 OA
ENDBRANCH  27  28
ENDBRANCH  24  27
ENDBRANCH  23  24
ENDBRANCH  22  23
ENDBRANCH   3  22
BRANCH   4  32
HETATM   32  O9  UNL     1     -48.673 -34.532 146.362  1.00  0.00    -0.279 OA
BRANCH  32  33
HETATM   33  P3  UNL     1     -49.099 -35.631 147.432  1.00  0.00     0.419 P 
HETATM   34  O10 UNL     1     -50.574 -36.445 147.328  1.00  0.00    -0.624 OA
HETATM   35  O11 UNL     1     -48.104 -36.103 148.686  1.00  0.00    -0.624 OA
BRANCH  33  36
HETATM   36  O12 UNL     1     -49.793 -34.630 148.362  1.00  0.00    -0.173 OA
BRANCH  36  37
HETATM   37  P4  UNL     1     -49.253 -33.428 149.127  1.00  0.00     0.431 P 
HETATM   38  O13 UNL     1     -50.274 -32.437 148.238  1.00  0.00    -0.616 OA
HETATM   39  O14 UNL     1     -49.830 -34.095 150.559  1.00  0.00    -0.616 OA
HETATM   40  O15 UNL     1     -47.714 -33.579 148.744  1.00  0.00    -0.616 OA
ENDBRANCH  36  37
ENDBRANCH  33  36
ENDBRANCH  32  33
ENDBRANCH   4  32
TORSDOF 11
ENDMDL
