MODEL 4
REMARK VINA RESULT: -8.426213916      2.965      5.865
REMARK  11 active torsions:
REMARK  status: ('A' for Active; 'I' for Inactive)
REMARK    1  A    between atoms: N4_10  and  C5_11 
REMARK    2  A    between atoms: C6_13  and  C7_14 
REMARK    3  A    between atoms: C7_14  and  O2_15 
REMARK    4  A    between atoms: O2_15  and  P1_16 
REMARK    5  A    between atoms: P1_16  and  O5_19 
REMARK    6  A    between atoms: O5_19  and  P2_20 
REMARK    7  A    between atoms: C8_24  and  O9_25 
REMARK    8  A    between atoms: O9_25  and  P3_26 
REMARK    9  A    between atoms: P3_26  and  O12_29 
REMARK   10  A    between atoms: O12_29  and  P4_30 
REMARK   11  A    between atoms: C9_34  and  O16_35 
ROOT
HETATM    1  C5  UNL     1     -47.965 -33.502 144.284  1.00  0.00     0.262 C 
HETATM    2  O1  UNL     1     -48.791 -32.723 145.145  1.00  0.00    -0.353 OA
HETATM    3  C6  UNL     1     -48.756 -33.270 146.387  1.00  0.00     0.180 C 
HETATM    4  C8  UNL     1     -47.589 -34.194 146.466  1.00  0.00     0.198 C 
HETATM    5  C9  UNL     1     -46.857 -33.881 145.129  1.00  0.00     0.199 C 
ENDROOT
BRANCH   1   6
HETATM    6  N4  UNL     1     -47.830 -32.740 143.114  1.00  0.00    -0.297 N 
HETATM    7  C2  UNL     1     -48.588 -32.634 142.021  1.00  0.00     0.146 A 
HETATM    8  N2  UNL     1     -49.739 -33.225 141.674  1.00  0.00    -0.314 N 
HETATM    9  C3  UNL     1     -47.996 -31.716 141.136  1.00  0.00     0.146 A 
HETATM   10  C1  UNL     1     -50.303 -32.927 140.482  1.00  0.00     0.196 A 
ATOM     11  H2  UNL     1     -50.185 -33.893 142.302  1.00  0.00     0.170 HD
HETATM   12  N1  UNL     1     -51.534 -33.578 140.143  1.00  0.00    -0.063 NA
HETATM   13  N5  UNL     1     -49.738 -32.050 139.635  1.00  0.00    -0.295 N 
HETATM   14  C10 UNL     1     -48.587 -31.424 139.923  1.00  0.00     0.278 A 
ATOM     15  H5  UNL     1     -50.198 -31.855 138.746  1.00  0.00     0.171 HD
HETATM   16  O17 UNL     1     -48.039 -30.600 139.146  1.00  0.00    -0.265 OA
HETATM   17  N3  UNL     1     -46.885 -31.309 141.757  1.00  0.00    -0.345 N 
HETATM   18  C4  UNL     1     -46.766 -31.898 142.924  1.00  0.00     0.188 A 
ATOM     19  H3  UNL     1     -46.223 -30.633 141.377  1.00  0.00     0.167 HD
ENDBRANCH   1   6
BRANCH   5  20
HETATM   20  O16 UNL     1     -46.294 -35.158 144.851  1.00  0.00    -0.388 OA
ATOM     21  H16 UNL     1     -45.534 -35.387 145.373  1.00  0.00     0.210 HD
ENDBRANCH   5  20
BRANCH   3  22
HETATM   22  C7  UNL     1     -48.704 -32.180 147.463  1.00  0.00     0.216 C 
BRANCH  22  23
HETATM   23  O2  UNL     1     -49.921 -32.169 148.089  1.00  0.00    -0.287 OA
BRANCH  23  24
HETATM   24  P1  UNL     1     -50.111 -30.692 148.845  1.00  0.00     0.418 P 
HETATM   25  O3  UNL     1     -48.582 -30.486 148.767  1.00  0.00    -0.624 OA
HETATM   26  O4  UNL     1     -50.234 -30.664 150.464  1.00  0.00    -0.624 OA
BRANCH  24  27
HETATM   27  O5  UNL     1     -51.623 -30.905 148.679  1.00  0.00    -0.173 OA
BRANCH  27  28
HETATM   28  P2  UNL     1     -52.519 -31.897 149.561  1.00  0.00     0.431 P 
HETATM   29  O6  UNL     1     -53.756 -31.855 148.672  1.00  0.00    -0.616 OA
HETATM   30  O7  UNL     1     -52.424 -33.560 149.344  1.00  0.00    -0.616 OA
HETATM   31  O8  UNL     1     -53.404 -31.329 150.874  1.00  0.00    -0.616 OA
ENDBRANCH  27  28
ENDBRANCH  24  27
ENDBRANCH  23  24
ENDBRANCH  22  23
ENDBRANCH   3  22
BRANCH   4  32
HETATM   32  O9  UNL     1     -48.042 -35.474 146.493  1.00  0.00    -0.279 OA
BRANCH  32  33
HETATM   33  P3  UNL     1     -49.075 -36.026 147.572  1.00  0.00     0.419 P 
HETATM   34  O10 UNL     1     -48.607 -36.348 149.161  1.00  0.00    -0.624 OA
HETATM   35  O11 UNL     1     -50.692 -36.262 147.235  1.00  0.00    -0.624 OA
BRANCH  33  36
HETATM   36  O12 UNL     1     -48.796 -37.500 147.261  1.00  0.00    -0.173 OA
BRANCH  36  37
HETATM   37  P4  UNL     1     -48.814 -38.735 148.153  1.00  0.00     0.431 P 
HETATM   38  O13 UNL     1     -48.814 -39.697 146.777  1.00  0.00    -0.616 OA
HETATM   39  O14 UNL     1     -47.335 -38.271 148.806  1.00  0.00    -0.616 OA
HETATM   40  O15 UNL     1     -50.163 -38.432 148.945  1.00  0.00    -0.616 OA
ENDBRANCH  36  37
ENDBRANCH  33  36
ENDBRANCH  32  33
ENDBRANCH   4  32
TORSDOF 11
ENDMDL
