MODEL 5
REMARK VINA RESULT: -8.375734539      1.769      6.252
REMARK  11 active torsions:
REMARK  status: ('A' for Active; 'I' for Inactive)
REMARK    1  A    between atoms: N4_10  and  C5_11 
REMARK    2  A    between atoms: C6_13  and  C7_14 
REMARK    3  A    between atoms: C7_14  and  O2_15 
REMARK    4  A    between atoms: O2_15  and  P1_16 
REMARK    5  A    between atoms: P1_16  and  O5_19 
REMARK    6  A    between atoms: O5_19  and  P2_20 
REMARK    7  A    between atoms: C8_24  and  O9_25 
REMARK    8  A    between atoms: O9_25  and  P3_26 
REMARK    9  A    between atoms: P3_26  and  O12_29 
REMARK   10  A    between atoms: O12_29  and  P4_30 
REMARK   11  A    between atoms: C9_34  and  O16_35 
ROOT
HETATM    1  C5  UNL     1     -47.742 -32.950 144.039  1.00  0.00     0.262 C 
HETATM    2  O1  UNL     1     -46.384 -32.995 144.468  1.00  0.00    -0.353 OA
HETATM    3  C6  UNL     1     -46.280 -33.897 145.475  1.00  0.00     0.180 C 
HETATM    4  C8  UNL     1     -47.496 -34.759 145.468  1.00  0.00     0.198 C 
HETATM    5  C9  UNL     1     -48.176 -34.324 144.138  1.00  0.00     0.199 C 
ENDROOT
BRANCH   1   6
HETATM    6  N4  UNL     1     -47.728 -32.220 142.842  1.00  0.00    -0.297 N 
HETATM    7  C2  UNL     1     -48.530 -32.230 141.775  1.00  0.00     0.146 A 
HETATM    8  N2  UNL     1     -49.625 -32.948 141.491  1.00  0.00    -0.314 N 
HETATM    9  C3  UNL     1     -48.067 -31.288 140.840  1.00  0.00     0.146 A 
HETATM   10  C1  UNL     1     -50.258 -32.750 140.312  1.00  0.00     0.196 A 
ATOM     11  H2  UNL     1     -49.978 -33.636 142.156  1.00  0.00     0.170 HD
HETATM   12  N1  UNL     1     -51.426 -33.536 140.041  1.00  0.00    -0.063 NA
HETATM   13  N5  UNL     1     -49.816 -31.851 139.418  1.00  0.00    -0.295 N 
HETATM   14  C10 UNL     1     -48.727 -31.101 139.642  1.00  0.00     0.278 A 
ATOM     15  H5  UNL     1     -50.325 -31.735 138.541  1.00  0.00     0.171 HD
HETATM   16  O17 UNL     1     -48.295 -30.252 138.819  1.00  0.00    -0.265 OA
HETATM   17  N3  UNL     1     -46.984 -30.747 141.405  1.00  0.00    -0.345 N 
HETATM   18  C4  UNL     1     -46.764 -31.280 142.584  1.00  0.00     0.188 A 
ATOM     19  H3  UNL     1     -46.409 -30.021 140.980  1.00  0.00     0.167 HD
ENDBRANCH   1   6
BRANCH   5  20
HETATM   20  O16 UNL     1     -49.543 -34.503 144.489  1.00  0.00    -0.388 OA
ATOM     21  H16 UNL     1     -49.703 -34.694 145.405  1.00  0.00     0.210 HD
ENDBRANCH   5  20
BRANCH   3  22
HETATM   22  C7  UNL     1     -44.991 -34.716 145.345  1.00  0.00     0.216 C 
BRANCH  22  23
HETATM   23  O2  UNL     1     -44.481 -34.477 144.098  1.00  0.00    -0.287 OA
BRANCH  23  24
HETATM   24  P1  UNL     1     -42.817 -34.587 144.179  1.00  0.00     0.418 P 
HETATM   25  O3  UNL     1     -42.944 -35.020 145.656  1.00  0.00    -0.624 OA
HETATM   26  O4  UNL     1     -41.965 -33.230 144.442  1.00  0.00    -0.624 OA
BRANCH  24  27
HETATM   27  O5  UNL     1     -42.819 -34.357 142.660  1.00  0.00    -0.173 OA
BRANCH  27  28
HETATM   28  P2  UNL     1     -43.391 -33.055 141.923  1.00  0.00     0.431 P 
HETATM   29  O6  UNL     1     -42.414 -33.071 140.754  1.00  0.00    -0.616 OA
HETATM   30  O7  UNL     1     -44.676 -33.173 140.848  1.00  0.00    -0.616 OA
HETATM   31  O8  UNL     1     -42.883 -31.514 142.369  1.00  0.00    -0.616 OA
ENDBRANCH  27  28
ENDBRANCH  24  27
ENDBRANCH  23  24
ENDBRANCH  22  23
ENDBRANCH   3  22
BRANCH   4  32
HETATM   32  O9  UNL     1     -48.266 -34.444 146.542  1.00  0.00    -0.279 OA
BRANCH  32  33
HETATM   33  P3  UNL     1     -47.961 -34.937 148.025  1.00  0.00     0.419 P 
HETATM   34  O10 UNL     1     -46.396 -35.322 148.527  1.00  0.00    -0.624 OA
HETATM   35  O11 UNL     1     -49.142 -35.048 149.199  1.00  0.00    -0.624 OA
BRANCH  33  36
HETATM   36  O12 UNL     1     -48.149 -36.423 147.698  1.00  0.00    -0.173 OA
BRANCH  36  37
HETATM   37  P4  UNL     1     -49.328 -37.361 147.929  1.00  0.00     0.431 P 
HETATM   38  O13 UNL     1     -48.585 -38.496 146.941  1.00  0.00    -0.616 OA
HETATM   39  O14 UNL     1     -48.975 -37.377 149.573  1.00  0.00    -0.616 OA
HETATM   40  O15 UNL     1     -50.488 -36.420 147.374  1.00  0.00    -0.616 OA
ENDBRANCH  36  37
ENDBRANCH  33  36
ENDBRANCH  32  33
ENDBRANCH   4  32
TORSDOF 11
ENDMDL
