MODEL 2
REMARK VINA RESULT: -9.568566731      4.246      5.915
REMARK  7 active torsions:
REMARK  status: ('A' for Active; 'I' for Inactive)
REMARK    1  A    between atoms: N2_7  and  C3_8 
REMARK    2  A    between atoms: C6_12  and  C7_13 
REMARK    3  A    between atoms: C6_12  and  P1_19 
REMARK    4  A    between atoms: C16_28  and  C17_29 
REMARK    5  A    between atoms: C17_29  and  S1_30 
REMARK    6  A    between atoms: S1_30  and  C18_31 
REMARK    7  A    between atoms: C18_31  and  P2_32 
ROOT
HETATM    1  C3  UNL     1      -4.857  24.177  28.980  1.00  0.00     0.235 C 
HETATM    2  C4  UNL     1      -3.940  24.362  30.170  1.00  0.00     0.089 C 
HETATM    3  C5  UNL     1      -4.653  25.579  30.795  1.00  0.00     0.161 C 
HETATM    4  O3  UNL     1      -3.951  26.153  31.789  1.00  0.00    -0.332 OA
HETATM    5  C6  UNL     1      -3.247  27.291  31.528  1.00  0.00     0.312 C 
HETATM    6  O7  UNL     1      -2.923  27.517  30.249  1.00  0.00    -0.338 OA
HETATM    7  C13 UNL     1      -3.984  27.467  29.351  1.00  0.00     0.207 C 
HETATM    8  C14 UNL     1      -4.936  26.340  29.555  1.00  0.00     0.177 C 
HETATM    9  O8  UNL     1      -4.842  25.457  28.453  1.00  0.00    -0.356 OA
ENDROOT
BRANCH   1  10
HETATM   10  N2  UNL     1      -4.494  23.169  28.046  1.00  0.00    -0.282 N 
HETATM   11  C2  UNL     1      -4.613  21.851  28.250  1.00  0.00     0.331 A 
HETATM   12  N1  UNL     1      -4.168  20.976  27.306  1.00  0.00    -0.275 N 
HETATM   13  O2  UNL     1      -5.131  21.418  29.312  1.00  0.00    -0.246 OA
HETATM   14  C1  UNL     1      -3.619  21.390  26.177  1.00  0.00     0.257 A 
ATOM     15  H1  UNL     1      -4.260  19.975  27.474  1.00  0.00     0.173 HD
HETATM   16  O1  UNL     1      -3.211  20.562  25.299  1.00  0.00    -0.267 OA
HETATM   17  C16 UNL     1      -3.487  22.753  25.931  1.00  0.00     0.035 A 
HETATM   18  C15 UNL     1      -3.929  23.605  26.880  1.00  0.00     0.112 A 
BRANCH  17  19
HETATM   19  C17 UNL     1      -2.698  23.153  24.727  1.00  0.00     0.120 C 
BRANCH  19  20
HETATM   20  S1  UNL     1      -3.131  24.896  24.434  1.00  0.00    -0.151 SA
BRANCH  20  21
HETATM   21  C18 UNL     1      -1.660  25.938  24.321  1.00  0.00     0.219 C 
BRANCH  21  22
HETATM   22  P2  UNL     1      -0.824  25.549  22.872  1.00  0.00     0.269 P 
HETATM   23  O9  UNL     1      -1.116  26.743  21.991  1.00  0.00    -0.639 OA
HETATM   24  O10 UNL     1       0.825  25.889  22.730  1.00  0.00    -0.639 OA
HETATM   25  O11 UNL     1      -1.511  24.545  21.725  1.00  0.00    -0.639 OA
ENDBRANCH  21  22
ENDBRANCH  20  21
ENDBRANCH  19  20
ENDBRANCH  17  19
ENDBRANCH   1  10
BRANCH   5  26
HETATM   26  C7  UNL     1      -2.000  27.175  32.364  1.00  0.00     0.018 A 
HETATM   27  C8  UNL     1      -1.031  28.137  32.438  1.00  0.00     0.013 A 
HETATM   28  C9  UNL     1       0.183  27.903  33.109  1.00  0.00     0.001 A 
HETATM   29  C10 UNL     1       0.423  26.702  33.702  1.00  0.00     0.000 A 
HETATM   30  C11 UNL     1      -0.560  25.710  33.634  1.00  0.00     0.001 A 
HETATM   31  C12 UNL     1      -1.741  25.974  32.974  1.00  0.00     0.013 A 
ENDBRANCH   5  26
BRANCH   5  32
HETATM   32  P1  UNL     1      -4.172  28.694  32.161  1.00  0.00     0.330 P 
HETATM   33  O4  UNL     1      -4.240  28.261  33.583  1.00  0.00    -0.636 OA
HETATM   34  O5  UNL     1      -3.258  29.996  32.531  1.00  0.00    -0.636 OA
HETATM   35  O6  UNL     1      -5.816  28.686  32.056  1.00  0.00    -0.636 OA
ENDBRANCH   5  32
TORSDOF 7
ENDMDL
