MODEL 1
REMARK VINA RESULT: -9.902255805      0.000      0.000
REMARK  7 active torsions:
REMARK  status: ('A' for Active; 'I' for Inactive)
REMARK    1  A    between atoms: N2_7  and  C3_8 
REMARK    2  A    between atoms: C6_12  and  C7_13 
REMARK    3  A    between atoms: C6_12  and  P1_19 
REMARK    4  A    between atoms: C16_28  and  C17_29 
REMARK    5  A    between atoms: C17_29  and  S1_30 
REMARK    6  A    between atoms: S1_30  and  C18_31 
REMARK    7  A    between atoms: C18_31  and  P2_32 
ROOT
HETATM    1  C3  UNL     1      -2.892  20.724  29.436  1.00  0.00     0.235 C 
HETATM    2  C4  UNL     1      -2.287  21.807  28.570  1.00  0.00     0.089 C 
HETATM    3  C5  UNL     1      -3.102  22.994  29.122  1.00  0.00     0.161 C 
HETATM    4  O3  UNL     1      -2.960  24.119  28.397  1.00  0.00    -0.332 OA
HETATM    5  C6  UNL     1      -3.939  24.464  27.513  1.00  0.00     0.312 C 
HETATM    6  O7  UNL     1      -4.737  23.477  27.087  1.00  0.00    -0.338 OA
HETATM    7  C13 UNL     1      -5.329  22.718  28.090  1.00  0.00     0.207 C 
HETATM    8  C14 UNL     1      -4.428  22.338  29.214  1.00  0.00     0.177 C 
HETATM    9  O8  UNL     1      -4.239  20.936  29.194  1.00  0.00    -0.356 OA
ENDROOT
BRANCH   1  10
HETATM   10  N2  UNL     1      -2.468  19.391  29.180  1.00  0.00    -0.282 N 
HETATM   11  C2  UNL     1      -2.578  18.369  30.038  1.00  0.00     0.331 A 
HETATM   12  N1  UNL     1      -2.073  17.148  29.707  1.00  0.00    -0.275 N 
HETATM   13  O2  UNL     1      -3.145  18.534  31.150  1.00  0.00    -0.246 OA
HETATM   14  C1  UNL     1      -1.472  16.934  28.550  1.00  0.00     0.257 A 
ATOM     15  H1  UNL     1      -2.160  16.379  30.370  1.00  0.00     0.173 HD
HETATM   16  O1  UNL     1      -1.008  15.786  28.249  1.00  0.00    -0.267 OA
HETATM   17  C16 UNL     1      -1.347  17.974  27.633  1.00  0.00     0.035 A 
HETATM   18  C15 UNL     1      -1.849  19.177  27.980  1.00  0.00     0.112 A 
BRANCH  17  19
HETATM   19  C17 UNL     1      -0.502  17.718  26.428  1.00  0.00     0.120 C 
BRANCH  19  20
HETATM   20  S1  UNL     1      -0.521  19.280  25.495  1.00  0.00    -0.151 SA
BRANCH  20  21
HETATM   21  C18 UNL     1      -1.631  19.193  24.072  1.00  0.00     0.219 C 
BRANCH  21  22
HETATM   22  P2  UNL     1      -3.019  20.150  24.402  1.00  0.00     0.269 P 
HETATM   23  O9  UNL     1      -3.145  20.991  23.153  1.00  0.00    -0.639 OA
HETATM   24  O10 UNL     1      -4.562  19.530  24.102  1.00  0.00    -0.639 OA
HETATM   25  O11 UNL     1      -2.906  21.542  25.319  1.00  0.00    -0.639 OA
ENDBRANCH  21  22
ENDBRANCH  20  21
ENDBRANCH  19  20
ENDBRANCH  17  19
ENDBRANCH   1  10
BRANCH   5  26
HETATM   26  C7  UNL     1      -3.210  25.079  26.348  1.00  0.00     0.018 A 
HETATM   27  C8  UNL     1      -3.523  24.848  25.037  1.00  0.00     0.013 A 
HETATM   28  C9  UNL     1      -2.705  25.324  23.996  1.00  0.00     0.001 A 
HETATM   29  C10 UNL     1      -1.574  26.028  24.272  1.00  0.00     0.000 A 
HETATM   30  C11 UNL     1      -1.243  26.271  25.608  1.00  0.00     0.001 A 
HETATM   31  C12 UNL     1      -2.069  25.795  26.605  1.00  0.00     0.013 A 
ENDBRANCH   5  26
BRANCH   5  32
HETATM   32  P1  UNL     1      -4.941  25.762  28.245  1.00  0.00     0.330 P 
HETATM   33  O4  UNL     1      -3.831  26.678  28.626  1.00  0.00    -0.636 OA
HETATM   34  O5  UNL     1      -5.550  26.833  27.175  1.00  0.00    -0.636 OA
HETATM   35  O6  UNL     1      -5.400  25.627  29.822  1.00  0.00    -0.636 OA
ENDBRANCH   5  32
TORSDOF 7
ENDMDL
