MODEL 3
REMARK VINA RESULT: -9.420469303      4.924      8.489
REMARK  7 active torsions:
REMARK  status: ('A' for Active; 'I' for Inactive)
REMARK    1  A    between atoms: N2_7  and  C3_8 
REMARK    2  A    between atoms: C6_12  and  C7_13 
REMARK    3  A    between atoms: C6_12  and  P1_19 
REMARK    4  A    between atoms: C16_28  and  C17_29 
REMARK    5  A    between atoms: C17_29  and  S1_30 
REMARK    6  A    between atoms: S1_30  and  C18_31 
REMARK    7  A    between atoms: C18_31  and  P2_32 
ROOT
HETATM    1  C3  UNL     1      -4.562  26.826  29.506  1.00  0.00     0.235 C 
HETATM    2  C4  UNL     1      -4.107  27.025  28.077  1.00  0.00     0.089 C 
HETATM    3  C5  UNL     1      -4.800  25.790  27.465  1.00  0.00     0.161 C 
HETATM    4  O3  UNL     1      -4.415  25.537  26.201  1.00  0.00    -0.332 OA
HETATM    5  C6  UNL     1      -3.498  24.553  25.974  1.00  0.00     0.312 C 
HETATM    6  O7  UNL     1      -2.714  24.214  27.004  1.00  0.00    -0.338 OA
HETATM    7  C13 UNL     1      -3.384  23.898  28.181  1.00  0.00     0.207 C 
HETATM    8  C14 UNL     1      -4.507  24.808  28.537  1.00  0.00     0.177 C 
HETATM    9  O8  UNL     1      -4.166  25.516  29.714  1.00  0.00    -0.356 OA
ENDROOT
BRANCH   1  10
HETATM   10  N2  UNL     1      -4.052  27.739  30.471  1.00  0.00    -0.282 N 
HETATM   11  C2  UNL     1      -2.921  28.444  30.342  1.00  0.00     0.331 A 
HETATM   12  N1  UNL     1      -2.497  29.237  31.364  1.00  0.00    -0.275 N 
HETATM   13  O2  UNL     1      -2.249  28.374  29.280  1.00  0.00    -0.246 OA
HETATM   14  C1  UNL     1      -3.176  29.339  32.494  1.00  0.00     0.257 A 
ATOM     15  H1  UNL     1      -1.633  29.767  31.255  1.00  0.00     0.173 HD
HETATM   16  O1  UNL     1      -2.771  30.090  33.441  1.00  0.00    -0.267 OA
HETATM   17  C16 UNL     1      -4.358  28.625  32.657  1.00  0.00     0.035 A 
HETATM   18  C15 UNL     1      -4.760  27.840  31.636  1.00  0.00     0.112 A 
BRANCH  17  19
HETATM   19  C17 UNL     1      -4.978  28.639  34.016  1.00  0.00     0.120 C 
BRANCH  19  20
HETATM   20  S1  UNL     1      -6.724  29.070  33.736  1.00  0.00    -0.151 SA
BRANCH  20  21
HETATM   21  C18 UNL     1      -7.815  27.665  34.051  1.00  0.00     0.219 C 
BRANCH  21  22
HETATM   22  P2  UNL     1      -8.057  26.820  32.575  1.00  0.00     0.269 P 
HETATM   23  O9  UNL     1      -9.446  26.248  32.745  1.00  0.00    -0.639 OA
HETATM   24  O10 UNL     1      -8.600  27.648  31.206  1.00  0.00    -0.639 OA
HETATM   25  O11 UNL     1      -7.457  25.275  32.360  1.00  0.00    -0.639 OA
ENDBRANCH  21  22
ENDBRANCH  20  21
ENDBRANCH  19  20
ENDBRANCH  17  19
ENDBRANCH   1  10
BRANCH   5  26
HETATM   26  C7  UNL     1      -2.660  25.060  24.831  1.00  0.00     0.018 A 
HETATM   27  C8  UNL     1      -2.877  24.743  23.518  1.00  0.00     0.013 A 
HETATM   28  C9  UNL     1      -1.965  25.119  22.516  1.00  0.00     0.001 A 
HETATM   29  C10 UNL     1      -0.835  25.809  22.832  1.00  0.00     0.000 A 
HETATM   30  C11 UNL     1      -0.602  26.138  24.170  1.00  0.00     0.001 A 
HETATM   31  C12 UNL     1      -1.519  25.760  25.128  1.00  0.00     0.013 A 
ENDBRANCH   5  26
BRANCH   5  32
HETATM   32  P1  UNL     1      -4.361  23.093  25.382  1.00  0.00     0.330 P 
HETATM   33  O4  UNL     1      -4.092  22.215  26.553  1.00  0.00    -0.636 OA
HETATM   34  O5  UNL     1      -5.968  23.095  25.665  1.00  0.00    -0.636 OA
HETATM   35  O6  UNL     1      -3.572  22.043  24.386  1.00  0.00    -0.636 OA
ENDBRANCH   5  32
TORSDOF 7
ENDMDL
