MODEL 4
REMARK VINA RESULT: -9.713410224      1.351      1.775
REMARK  6 active torsions:
REMARK  status: ('A' for Active; 'I' for Inactive)
REMARK    1  A    between atoms: N2_7  and  C3_8 
REMARK    2  A    between atoms: C6_12  and  C7_13 
REMARK    3  A    between atoms: C6_12  and  P1_19 
REMARK    4  A    between atoms: C16_28  and  C17_29 
REMARK    5  A    between atoms: C18_30  and  C19_31 
REMARK    6  A    between atoms: C19_31  and  P2_32 
ROOT
HETATM    1  C3  UNL     1      -4.221  22.402  27.463  1.00  0.00     0.235 C 
HETATM    2  C4  UNL     1      -3.437  22.597  28.749  1.00  0.00     0.089 C 
HETATM    3  C5  UNL     1      -4.371  23.653  29.369  1.00  0.00     0.161 C 
HETATM    4  O3  UNL     1      -3.733  24.389  30.324  1.00  0.00    -0.332 OA
HETATM    5  C6  UNL     1      -4.211  25.708  30.458  1.00  0.00     0.312 C 
HETATM    6  O7  UNL     1      -3.828  26.378  29.317  1.00  0.00    -0.338 OA
HETATM    7  C13 UNL     1      -3.589  25.623  28.208  1.00  0.00     0.207 C 
HETATM    8  C14 UNL     1      -4.622  24.495  28.111  1.00  0.00     0.177 C 
HETATM    9  O8  UNL     1      -4.366  23.696  27.030  1.00  0.00    -0.356 OA
ENDROOT
BRANCH   1  10
HETATM   10  N2  UNL     1      -3.585  21.529  26.532  1.00  0.00    -0.281 N 
HETATM   11  C2  UNL     1      -4.087  21.527  25.279  1.00  0.00     0.331 A 
HETATM   12  N1  UNL     1      -3.587  20.756  24.307  1.00  0.00    -0.275 N 
HETATM   13  O2  UNL     1      -5.076  22.274  24.967  1.00  0.00    -0.246 OA
HETATM   14  C1  UNL     1      -2.540  19.947  24.583  1.00  0.00     0.261 A 
ATOM     15  H1  UNL     1      -3.991  20.779  23.371  1.00  0.00     0.173 HD
HETATM   16  O1  UNL     1      -2.092  19.237  23.656  1.00  0.00    -0.267 OA
HETATM   17  C16 UNL     1      -1.979  19.897  25.836  1.00  0.00     0.048 A 
HETATM   18  C15 UNL     1      -2.567  20.734  26.783  1.00  0.00     0.115 A 
BRANCH  17  19
HETATM   19  C17 UNL     1      -0.860  19.066  26.232  1.00  0.00     0.015 C 
HETATM   20  C18 UNL     1      -0.876  17.821  26.630  1.00  0.00    -0.012 C 
BRANCH  20  21
HETATM   21  C19 UNL     1       0.374  17.086  27.012  1.00  0.00     0.173 C 
BRANCH  21  22
HETATM   22  P2  UNL     1       0.449  16.361  28.590  1.00  0.00     0.263 P 
HETATM   23  O9  UNL     1       1.613  16.678  29.649  1.00  0.00    -0.639 OA
HETATM   24  O10 UNL     1      -0.651  15.071  28.915  1.00  0.00    -0.639 OA
HETATM   25  O11 UNL     1      -0.622  17.234  29.271  1.00  0.00    -0.639 OA
ENDBRANCH  21  22
ENDBRANCH  20  21
ENDBRANCH  17  19
ENDBRANCH   1  10
BRANCH   5  26
HETATM   26  C7  UNL     1      -3.378  26.300  31.540  1.00  0.00     0.018 A 
HETATM   27  C8  UNL     1      -2.778  25.569  32.532  1.00  0.00     0.013 A 
HETATM   28  C9  UNL     1      -2.008  26.165  33.524  1.00  0.00     0.001 A 
HETATM   29  C10 UNL     1      -1.831  27.526  33.528  1.00  0.00     0.000 A 
HETATM   30  C11 UNL     1      -2.423  28.280  32.541  1.00  0.00     0.001 A 
HETATM   31  C12 UNL     1      -3.191  27.661  31.557  1.00  0.00     0.013 A 
ENDBRANCH   5  26
BRANCH   5  32
HETATM   32  P1  UNL     1      -5.845  25.689  30.993  1.00  0.00     0.330 P 
HETATM   33  O4  UNL     1      -5.578  26.299  32.383  1.00  0.00    -0.636 OA
HETATM   34  O5  UNL     1      -6.506  24.338  31.731  1.00  0.00    -0.636 OA
HETATM   35  O6  UNL     1      -6.838  27.009  30.673  1.00  0.00    -0.636 OA
ENDBRANCH   5  32
TORSDOF 6
ENDMDL
