MODEL 1
REMARK VINA RESULT: -10.515894686      0.000      0.000
REMARK  6 active torsions:
REMARK  status: ('A' for Active; 'I' for Inactive)
REMARK    1  A    between atoms: N2_7  and  C3_8 
REMARK    2  A    between atoms: C6_12  and  C7_13 
REMARK    3  A    between atoms: C6_12  and  P1_19 
REMARK    4  A    between atoms: C16_28  and  C17_29 
REMARK    5  A    between atoms: C18_30  and  C19_31 
REMARK    6  A    between atoms: C19_31  and  P2_32 
ROOT
HETATM    1  C3  UNL     1      -4.774  23.694  27.703  1.00  0.00     0.235 C 
HETATM    2  C4  UNL     1      -3.796  23.691  28.864  1.00  0.00     0.089 C 
HETATM    3  C5  UNL     1      -4.409  24.887  29.617  1.00  0.00     0.161 C 
HETATM    4  O3  UNL     1      -3.514  25.454  30.474  1.00  0.00    -0.332 OA
HETATM    5  C6  UNL     1      -3.699  26.836  30.681  1.00  0.00     0.312 C 
HETATM    6  O7  UNL     1      -3.355  27.456  29.501  1.00  0.00    -0.338 OA
HETATM    7  C13 UNL     1      -3.425  26.706  28.365  1.00  0.00     0.207 C 
HETATM    8  C14 UNL     1      -4.662  25.802  28.412  1.00  0.00     0.177 C 
HETATM    9  O8  UNL     1      -4.721  25.005  27.301  1.00  0.00    -0.356 OA
ENDROOT
BRANCH   1  10
HETATM   10  N2  UNL     1      -4.457  22.745  26.686  1.00  0.00    -0.281 N 
HETATM   11  C2  UNL     1      -5.288  22.712  25.623  1.00  0.00     0.331 A 
HETATM   12  N1  UNL     1      -5.110  21.870  24.599  1.00  0.00    -0.275 N 
HETATM   13  O2  UNL     1      -6.296  23.496  25.553  1.00  0.00    -0.246 OA
HETATM   14  C1  UNL     1      -4.060  21.020  24.622  1.00  0.00     0.261 A 
ATOM     15  H1  UNL     1      -5.758  21.870  23.811  1.00  0.00     0.173 HD
HETATM   16  O1  UNL     1      -3.916  20.244  23.653  1.00  0.00    -0.267 OA
HETATM   17  C16 UNL     1      -3.174  20.998  25.673  1.00  0.00     0.048 A 
HETATM   18  C15 UNL     1      -3.441  21.909  26.693  1.00  0.00     0.115 A 
BRANCH  17  19
HETATM   19  C17 UNL     1      -2.022  20.128  25.793  1.00  0.00     0.015 C 
HETATM   20  C18 UNL     1      -1.999  18.840  26.013  1.00  0.00    -0.012 C 
BRANCH  20  21
HETATM   21  C19 UNL     1      -0.718  18.067  26.115  1.00  0.00     0.173 C 
BRANCH  21  22
HETATM   22  P2  UNL     1      -0.438  17.126  27.550  1.00  0.00     0.263 P 
HETATM   23  O9  UNL     1       0.968  17.096  28.322  1.00  0.00    -0.639 OA
HETATM   24  O10 UNL     1      -1.668  16.003  28.004  1.00  0.00    -0.639 OA
HETATM   25  O11 UNL     1      -1.145  18.061  28.551  1.00  0.00    -0.639 OA
ENDBRANCH  21  22
ENDBRANCH  20  21
ENDBRANCH  17  19
ENDBRANCH   1  10
BRANCH   5  26
HETATM   26  C7  UNL     1      -2.625  27.220  31.636  1.00  0.00     0.018 A 
HETATM   27  C8  UNL     1      -1.977  28.428  31.616  1.00  0.00     0.013 A 
HETATM   28  C9  UNL     1      -0.977  28.743  32.529  1.00  0.00     0.001 A 
HETATM   29  C10 UNL     1      -0.613  27.831  33.488  1.00  0.00     0.000 A 
HETATM   30  C11 UNL     1      -1.250  26.612  33.526  1.00  0.00     0.001 A 
HETATM   31  C12 UNL     1      -2.248  26.317  32.602  1.00  0.00     0.013 A 
ENDBRANCH   5  26
BRANCH   5  32
HETATM   32  P1  UNL     1      -5.216  27.115  31.444  1.00  0.00     0.330 P 
HETATM   33  O4  UNL     1      -5.134  28.655  31.429  1.00  0.00    -0.636 OA
HETATM   34  O5  UNL     1      -5.360  27.156  33.113  1.00  0.00    -0.636 OA
HETATM   35  O6  UNL     1      -6.605  27.242  30.504  1.00  0.00    -0.636 OA
ENDBRANCH   5  32
TORSDOF 6
ENDMDL
