MODEL 5
REMARK VINA RESULT: -9.538533006      3.846      5.521
REMARK  6 active torsions:
REMARK  status: ('A' for Active; 'I' for Inactive)
REMARK    1  A    between atoms: N2_7  and  C3_8 
REMARK    2  A    between atoms: C6_12  and  C7_13 
REMARK    3  A    between atoms: C6_12  and  P1_19 
REMARK    4  A    between atoms: C16_28  and  C17_29 
REMARK    5  A    between atoms: C18_30  and  C19_31 
REMARK    6  A    between atoms: C19_31  and  P2_32 
ROOT
HETATM    1  C3  UNL     1      -2.739  20.294  26.303  1.00  0.00     0.235 C 
HETATM    2  C4  UNL     1      -2.242  21.511  27.063  1.00  0.00     0.089 C 
HETATM    3  C5  UNL     1      -3.410  22.444  26.688  1.00  0.00     0.161 C 
HETATM    4  O3  UNL     1      -3.067  23.756  26.823  1.00  0.00    -0.332 OA
HETATM    5  C6  UNL     1      -3.735  24.627  25.938  1.00  0.00     0.312 C 
HETATM    6  O7  UNL     1      -3.240  24.358  24.681  1.00  0.00    -0.338 OA
HETATM    7  C13 UNL     1      -2.699  23.124  24.481  1.00  0.00     0.207 C 
HETATM    8  C14 UNL     1      -3.533  22.063  25.208  1.00  0.00     0.177 C 
HETATM    9  O8  UNL     1      -2.975  20.823  25.059  1.00  0.00    -0.356 OA
ENDROOT
BRANCH   1  10
HETATM   10  N2  UNL     1      -1.829  19.196  26.323  1.00  0.00    -0.281 N 
HETATM   11  C2  UNL     1      -1.326  18.819  25.128  1.00  0.00     0.331 A 
HETATM   12  N1  UNL     1      -0.463  17.805  25.001  1.00  0.00    -0.275 N 
HETATM   13  O2  UNL     1      -1.661  19.425  24.054  1.00  0.00    -0.246 OA
HETATM   14  C1  UNL     1      -0.075  17.130  26.106  1.00  0.00     0.261 A 
ATOM     15  H1  UNL     1      -0.104  17.545  24.083  1.00  0.00     0.173 HD
HETATM   16  O1  UNL     1       0.732  16.186  25.959  1.00  0.00    -0.267 OA
HETATM   17  C16 UNL     1      -0.547  17.459  27.353  1.00  0.00     0.048 A 
HETATM   18  C15 UNL     1      -1.441  18.527  27.387  1.00  0.00     0.115 A 
BRANCH  17  19
HETATM   19  C17 UNL     1      -0.194  16.800  28.595  1.00  0.00     0.015 C 
HETATM   20  C18 UNL     1      -0.456  17.182  29.817  1.00  0.00    -0.012 C 
BRANCH  20  21
HETATM   21  C19 UNL     1      -0.022  16.390  31.015  1.00  0.00     0.173 C 
BRANCH  21  22
HETATM   22  P2  UNL     1       0.924  17.194  32.232  1.00  0.00     0.263 P 
HETATM   23  O9  UNL     1       1.676  16.416  33.417  1.00  0.00    -0.639 OA
HETATM   24  O10 UNL     1       0.834  18.917  32.284  1.00  0.00    -0.639 OA
HETATM   25  O11 UNL     1       2.185  17.443  31.383  1.00  0.00    -0.639 OA
ENDBRANCH  21  22
ENDBRANCH  20  21
ENDBRANCH  17  19
ENDBRANCH   1  10
BRANCH   5  26
HETATM   26  C7  UNL     1      -3.206  25.978  26.270  1.00  0.00     0.018 A 
HETATM   27  C8  UNL     1      -3.704  26.770  27.272  1.00  0.00     0.013 A 
HETATM   28  C9  UNL     1      -3.177  28.028  27.546  1.00  0.00     0.001 A 
HETATM   29  C10 UNL     1      -2.128  28.508  26.804  1.00  0.00     0.000 A 
HETATM   30  C11 UNL     1      -1.613  27.729  25.794  1.00  0.00     0.001 A 
HETATM   31  C12 UNL     1      -2.155  26.473  25.536  1.00  0.00     0.013 A 
ENDBRANCH   5  26
BRANCH   5  32
HETATM   32  P1  UNL     1      -5.422  24.618  26.271  1.00  0.00     0.330 P 
HETATM   33  O4  UNL     1      -5.881  24.338  24.825  1.00  0.00    -0.636 OA
HETATM   34  O5  UNL     1      -6.321  26.032  26.264  1.00  0.00    -0.636 OA
HETATM   35  O6  UNL     1      -6.171  23.179  26.721  1.00  0.00    -0.636 OA
ENDBRANCH   5  32
TORSDOF 6
ENDMDL
