MODEL 2
REMARK VINA RESULT: -7.325754797      3.614      5.826
REMARK  5 active torsions:
REMARK  status: ('A' for Active; 'I' for Inactive)
REMARK    1  A    between atoms: N4_13  and  C7_14 
REMARK    2  A    between atoms: C8_16  and  C9_17 
REMARK    3  A    between atoms: C9_17  and  O2_18 
REMARK    4  A    between atoms: C10_20  and  O3_21 
REMARK    5  A    between atoms: C11_23  and  O4_24 
ROOT
HETATM    1  N1  UNL     1      11.601   8.452   8.174  1.00  0.00    -0.082 NA
HETATM    2  C1  UNL     1      11.842   9.479   9.107  1.00  0.00     0.132 A 
HETATM    3  N2  UNL     1      11.423  10.751   8.921  1.00  0.00    -0.340 N 
ATOM      4  H2  UNL     1      10.910  10.991   8.073  1.00  0.00     0.167 HD
HETATM    5  C2  UNL     1      11.674  11.712   9.842  1.00  0.00     0.183 A 
HETATM    6  N3  UNL     1      12.347  11.393  10.955  1.00  0.00    -0.338 N 
ATOM      7  H3  UNL     1      12.529  12.123  11.643  1.00  0.00     0.168 HD
HETATM    8  C3  UNL     1      12.790  10.147  11.201  1.00  0.00     0.125 A 
HETATM    9  C4  UNL     1      12.539   9.147  10.259  1.00  0.00     0.067 A 
HETATM   10  C5  UNL     1      13.088   7.984  10.745  1.00  0.00     0.039 A 
HETATM   11  I1  UNL     1      13.058   6.101   9.803  1.00  0.00    -0.042 I 
HETATM   12  C6  UNL     1      13.660   8.310  11.971  1.00  0.00     0.114 A 
HETATM   13  N4  UNL     1      13.472   9.612  12.231  1.00  0.00    -0.311 N 
ENDROOT
BRANCH  13  14
HETATM   14  C7  UNL     1      13.908  10.329  13.384  1.00  0.00     0.261 C 
HETATM   15  O1  UNL     1      14.724   9.557  14.236  1.00  0.00    -0.353 OA
HETATM   16  C8  UNL     1      14.968  10.490  15.238  1.00  0.00     0.179 C 
HETATM   17  C10 UNL     1      13.586  10.934  15.625  1.00  0.00     0.182 C 
HETATM   18  C11 UNL     1      12.802  10.727  14.325  1.00  0.00     0.198 C 
BRANCH  16  19
HETATM   19  C9  UNL     1      15.682   9.915  16.422  1.00  0.00     0.198 C 
BRANCH  19  20
HETATM   20  O2  UNL     1      14.786   9.072  17.082  1.00  0.00    -0.398 OA
ATOM     21  H2  UNL     1      14.026   8.970  16.522  1.00  0.00     0.209 HD
ENDBRANCH  19  20
ENDBRANCH  16  19
BRANCH  17  22
HETATM   22  O3  UNL     1      13.614  12.252  16.011  1.00  0.00    -0.390 OA
ATOM     23  H3  UNL     1      12.889  12.719  15.612  1.00  0.00     0.210 HD
ENDBRANCH  17  22
BRANCH  18  24
HETATM   24  O4  UNL     1      12.167  11.901  13.940  1.00  0.00    -0.388 OA
ATOM     25  H4  UNL     1      11.357  12.052  14.414  1.00  0.00     0.210 HD
ENDBRANCH  18  24
ENDBRANCH  13  14
TORSDOF 5
ENDMDL
