MODEL 4
REMARK VINA RESULT: -7.213805491      2.837      4.593
REMARK  5 active torsions:
REMARK  status: ('A' for Active; 'I' for Inactive)
REMARK    1  A    between atoms: N4_13  and  C7_14 
REMARK    2  A    between atoms: C8_16  and  C9_17 
REMARK    3  A    between atoms: C9_17  and  O2_18 
REMARK    4  A    between atoms: C10_20  and  O3_21 
REMARK    5  A    between atoms: C11_23  and  O4_24 
ROOT
HETATM    1  N1  UNL     1      10.720   9.160   8.493  1.00  0.00    -0.082 NA
HETATM    2  C1  UNL     1      11.640   8.238   9.026  1.00  0.00     0.132 A 
HETATM    3  N2  UNL     1      11.719   6.955   8.606  1.00  0.00    -0.340 N 
ATOM      4  H2  UNL     1      11.092   6.629   7.871  1.00  0.00     0.167 HD
HETATM    5  C2  UNL     1      12.619   6.097   9.144  1.00  0.00     0.183 A 
HETATM    6  N3  UNL     1      13.442   6.530  10.107  1.00  0.00    -0.338 N 
ATOM      7  H3  UNL     1      14.116   5.876  10.505  1.00  0.00     0.168 HD
HETATM    8  C3  UNL     1      13.414   7.793  10.570  1.00  0.00     0.125 A 
HETATM    9  C4  UNL     1      12.492   8.688  10.025  1.00  0.00     0.067 A 
HETATM   10  C5  UNL     1      12.669   9.892  10.662  1.00  0.00     0.039 A 
HETATM   11  I1  UNL     1      11.589  11.664  10.304  1.00  0.00    -0.042 I 
HETATM   12  C6  UNL     1      13.696   9.696  11.580  1.00  0.00     0.114 A 
HETATM   13  N4  UNL     1      14.134   8.430  11.512  1.00  0.00    -0.311 N 
ENDROOT
BRANCH  13  14
HETATM   14  C7  UNL     1      15.172   7.838  12.289  1.00  0.00     0.261 C 
HETATM   15  O1  UNL     1      15.861   6.818  11.602  1.00  0.00    -0.353 OA
HETATM   16  C8  UNL     1      16.768   6.440  12.586  1.00  0.00     0.179 C 
HETATM   17  C10 UNL     1      15.884   6.166  13.768  1.00  0.00     0.182 C 
HETATM   18  C11 UNL     1      14.693   7.095  13.507  1.00  0.00     0.198 C 
BRANCH  16  19
HETATM   19  C9  UNL     1      17.556   5.219  12.228  1.00  0.00     0.198 C 
BRANCH  19  20
HETATM   20  O2  UNL     1      18.858   5.632  11.939  1.00  0.00    -0.398 OA
ATOM     21  H2  UNL     1      19.440   5.181  12.539  1.00  0.00     0.209 HD
ENDBRANCH  19  20
ENDBRANCH  16  19
BRANCH  17  22
HETATM   22  O3  UNL     1      16.547   6.484  14.928  1.00  0.00    -0.390 OA
ATOM     23  H3  UNL     1      16.254   5.917  15.632  1.00  0.00     0.210 HD
ENDBRANCH  17  22
BRANCH  18  24
HETATM   24  O4  UNL     1      14.474   7.930  14.595  1.00  0.00    -0.388 OA
ATOM     25  H4  UNL     1      14.958   7.662  15.367  1.00  0.00     0.210 HD
ENDBRANCH  18  24
ENDBRANCH  13  14
TORSDOF 5
ENDMDL
