MODEL 7
REMARK VINA RESULT: -7.167222635      1.809      2.624
REMARK  5 active torsions:
REMARK  status: ('A' for Active; 'I' for Inactive)
REMARK    1  A    between atoms: N4_13  and  C7_14 
REMARK    2  A    between atoms: C8_16  and  C9_17 
REMARK    3  A    between atoms: C9_17  and  O2_18 
REMARK    4  A    between atoms: C10_20  and  O3_21 
REMARK    5  A    between atoms: C11_23  and  O4_24 
ROOT
HETATM    1  N1  UNL     1      11.522  13.968  14.833  1.00  0.00    -0.082 NA
HETATM    2  C1  UNL     1      12.404  12.872  14.895  1.00  0.00     0.132 A 
HETATM    3  N2  UNL     1      13.203  12.635  15.960  1.00  0.00    -0.340 N 
ATOM      4  H2  UNL     1      13.177  13.269  16.758  1.00  0.00     0.167 HD
HETATM    5  C2  UNL     1      14.039  11.569  15.983  1.00  0.00     0.183 A 
HETATM    6  N3  UNL     1      14.070  10.738  14.934  1.00  0.00    -0.338 N 
ATOM      7  H3  UNL     1      14.702   9.937  14.962  1.00  0.00     0.168 HD
HETATM    8  C3  UNL     1      13.301  10.917  13.846  1.00  0.00     0.125 A 
HETATM    9  C4  UNL     1      12.435  12.011  13.808  1.00  0.00     0.067 A 
HETATM   10  C5  UNL     1      11.772  11.964  12.605  1.00  0.00     0.039 A 
HETATM   11  I1  UNL     1      10.323  13.331  11.923  1.00  0.00    -0.042 I 
HETATM   12  C6  UNL     1      12.255  10.839  11.942  1.00  0.00     0.114 A 
HETATM   13  N4  UNL     1      13.172  10.221  12.701  1.00  0.00    -0.311 N 
ENDROOT
BRANCH  13  14
HETATM   14  C7  UNL     1      13.897   9.036  12.376  1.00  0.00     0.261 C 
HETATM   15  O1  UNL     1      13.600   8.545  11.089  1.00  0.00    -0.353 OA
HETATM   16  C8  UNL     1      14.419   7.421  11.070  1.00  0.00     0.179 C 
HETATM   17  C10 UNL     1      14.022   6.697  12.324  1.00  0.00     0.182 C 
HETATM   18  C11 UNL     1      13.554   7.843  13.228  1.00  0.00     0.198 C 
BRANCH  16  19
HETATM   19  C9  UNL     1      14.203   6.550   9.872  1.00  0.00     0.198 C 
BRANCH  19  20
HETATM   20  O2  UNL     1      14.576   5.252  10.227  1.00  0.00    -0.398 OA
ATOM     21  H2  UNL     1      14.575   5.205  11.175  1.00  0.00     0.209 HD
ENDBRANCH  19  20
ENDBRANCH  16  19
BRANCH  17  22
HETATM   22  O3  UNL     1      15.108   6.036  12.843  1.00  0.00    -0.390 OA
ATOM     23  H3  UNL     1      15.112   6.117  13.790  1.00  0.00     0.210 HD
ENDBRANCH  17  22
BRANCH  18  24
HETATM   24  O4  UNL     1      14.241   7.830  14.435  1.00  0.00    -0.388 OA
ATOM     25  H4  UNL     1      13.708   7.517  15.157  1.00  0.00     0.210 HD
ENDBRANCH  18  24
ENDBRANCH  13  14
TORSDOF 5
ENDMDL
