MODEL 14
REMARK VINA RESULT: -7.041080532      2.300      3.668
REMARK  5 active torsions:
REMARK  status: ('A' for Active; 'I' for Inactive)
REMARK    1  A    between atoms: N4_13  and  C7_14 
REMARK    2  A    between atoms: C8_16  and  C9_17 
REMARK    3  A    between atoms: C9_17  and  O2_18 
REMARK    4  A    between atoms: C10_20  and  O3_21 
REMARK    5  A    between atoms: C11_23  and  O4_24 
ROOT
HETATM    1  N1  UNL     1       9.816  13.725  11.959  1.00  0.00    -0.082 NA
HETATM    2  C1  UNL     1      10.850  13.214  12.766  1.00  0.00     0.132 A 
HETATM    3  N2  UNL     1      11.158  13.731  13.977  1.00  0.00    -0.340 N 
ATOM      4  H2  UNL     1      10.626  14.525  14.333  1.00  0.00     0.167 HD
HETATM    5  C2  UNL     1      12.161  13.212  14.725  1.00  0.00     0.183 A 
HETATM    6  N3  UNL     1      12.856  12.169  14.255  1.00  0.00    -0.338 N 
ATOM      7  H3  UNL     1      13.608  11.784  14.826  1.00  0.00     0.168 HD
HETATM    8  C3  UNL     1      12.600  11.608  13.059  1.00  0.00     0.125 A 
HETATM    9  C4  UNL     1      11.569  12.133  12.278  1.00  0.00     0.067 A 
HETATM   10  C5  UNL     1      11.516  11.390  11.123  1.00  0.00     0.039 A 
HETATM   11  I1  UNL     1      10.177  11.668   9.521  1.00  0.00    -0.042 I 
HETATM   12  C6  UNL     1      12.519  10.431  11.233  1.00  0.00     0.114 A 
HETATM   13  N4  UNL     1      13.160  10.575  12.403  1.00  0.00    -0.311 N 
ENDROOT
BRANCH  13  14
HETATM   14  C7  UNL     1      14.246   9.788  12.887  1.00  0.00     0.261 C 
HETATM   15  O1  UNL     1      14.509   8.659  12.086  1.00  0.00    -0.353 OA
HETATM   16  C8  UNL     1      15.569   8.106  12.796  1.00  0.00     0.179 C 
HETATM   17  C10 UNL     1      15.019   8.000  14.189  1.00  0.00     0.182 C 
HETATM   18  C11 UNL     1      14.000   9.143  14.225  1.00  0.00     0.198 C 
BRANCH  16  19
HETATM   19  C9  UNL     1      15.982   6.759  12.292  1.00  0.00     0.198 C 
BRANCH  19  20
HETATM   20  O2  UNL     1      15.629   6.690  10.943  1.00  0.00    -0.398 OA
ATOM     21  H2  UNL     1      15.555   5.771  10.715  1.00  0.00     0.209 HD
ENDBRANCH  19  20
ENDBRANCH  16  19
BRANCH  17  22
HETATM   22  O3  UNL     1      16.030   8.177  15.102  1.00  0.00    -0.390 OA
ATOM     23  H3  UNL     1      16.251   9.099  15.163  1.00  0.00     0.210 HD
ENDBRANCH  17  22
BRANCH  18  24
HETATM   24  O4  UNL     1      14.256   9.998  15.289  1.00  0.00    -0.388 OA
ATOM     25  H4  UNL     1      14.271   9.548  16.126  1.00  0.00     0.210 HD
ENDBRANCH  18  24
ENDBRANCH  13  14
TORSDOF 5
ENDMDL
