MODEL 3
REMARK VINA RESULT: -7.240301479      3.386      5.538
REMARK  5 active torsions:
REMARK  status: ('A' for Active; 'I' for Inactive)
REMARK    1  A    between atoms: N4_13  and  C7_14 
REMARK    2  A    between atoms: C8_16  and  C9_17 
REMARK    3  A    between atoms: C9_17  and  O2_18 
REMARK    4  A    between atoms: C10_20  and  O3_21 
REMARK    5  A    between atoms: C11_23  and  O4_24 
ROOT
HETATM    1  N1  UNL     1      11.616   8.569   8.330  1.00  0.00    -0.082 NA
HETATM    2  C1  UNL     1      12.469   8.502   9.448  1.00  0.00     0.132 A 
HETATM    3  N2  UNL     1      13.307   7.464   9.670  1.00  0.00    -0.340 N 
ATOM      4  H2  UNL     1      13.333   6.690   9.006  1.00  0.00     0.167 HD
HETATM    5  C2  UNL     1      14.113   7.436  10.758  1.00  0.00     0.183 A 
HETATM    6  N3  UNL     1      14.078   8.454  11.626  1.00  0.00    -0.338 N 
ATOM      7  H3  UNL     1      14.690   8.424  12.441  1.00  0.00     0.168 HD
HETATM    8  C3  UNL     1      13.268   9.516  11.464  1.00  0.00     0.125 A 
HETATM    9  C4  UNL     1      12.431   9.558  10.347  1.00  0.00     0.067 A 
HETATM   10  C5  UNL     1      11.718  10.731  10.418  1.00  0.00     0.039 A 
HETATM   11  I1  UNL     1      10.279  11.401   9.034  1.00  0.00    -0.042 I 
HETATM   12  C6  UNL     1      12.141  11.371  11.579  1.00  0.00     0.114 A 
HETATM   13  N4  UNL     1      13.073  10.629  12.196  1.00  0.00    -0.311 N 
ENDROOT
BRANCH  13  14
HETATM   14  C7  UNL     1      13.750  10.939  13.411  1.00  0.00     0.261 C 
HETATM   15  O1  UNL     1      14.444   9.837  13.951  1.00  0.00    -0.353 OA
HETATM   16  C8  UNL     1      14.970  10.426  15.096  1.00  0.00     0.179 C 
HETATM   17  C10 UNL     1      13.758  11.020  15.753  1.00  0.00     0.182 C 
HETATM   18  C11 UNL     1      12.841  11.298  14.557  1.00  0.00     0.198 C 
BRANCH  16  19
HETATM   19  C9  UNL     1      15.637   9.449  16.013  1.00  0.00     0.198 C 
BRANCH  19  20
HETATM   20  O2  UNL     1      14.715   9.112  17.005  1.00  0.00    -0.398 OA
ATOM     21  H2  UNL     1      14.940   8.244  17.319  1.00  0.00     0.209 HD
ENDBRANCH  19  20
ENDBRANCH  16  19
BRANCH  17  22
HETATM   22  O3  UNL     1      14.107  12.170  16.419  1.00  0.00    -0.390 OA
ATOM     23  H3  UNL     1      13.357  12.504  16.898  1.00  0.00     0.210 HD
ENDBRANCH  17  22
BRANCH  18  24
HETATM   24  O4  UNL     1      12.451  12.630  14.535  1.00  0.00    -0.388 OA
ATOM     25  H4  UNL     1      13.098  13.196  14.129  1.00  0.00     0.210 HD
ENDBRANCH  18  24
ENDBRANCH  13  14
TORSDOF 5
ENDMDL
