MODEL 7
REMARK VINA RESULT: -7.345972791      3.281      5.432
REMARK  5 active torsions:
REMARK  status: ('A' for Active; 'I' for Inactive)
REMARK    1  A    between atoms: N4_13  and  C7_14 
REMARK    2  A    between atoms: C8_16  and  C9_17 
REMARK    3  A    between atoms: C9_17  and  O2_18 
REMARK    4  A    between atoms: C10_20  and  O3_21 
REMARK    5  A    between atoms: C11_23  and  O4_24 
ROOT
HETATM    1  N1  UNL     1      66.900  30.802   8.047  1.00  0.00    -0.082 NA
HETATM    2  C1  UNL     1      66.052  30.908   9.180  1.00  0.00     0.132 A 
HETATM    3  N2  UNL     1      65.258  31.969   9.397  1.00  0.00    -0.340 N 
ATOM      4  H2  UNL     1      65.252  32.740   8.729  1.00  0.00     0.167 HD
HETATM    5  C2  UNL     1      64.467  32.029  10.488  1.00  0.00     0.183 A 
HETATM    6  N3  UNL     1      64.471  31.013  11.370  1.00  0.00    -0.338 N 
ATOM      7  H3  UNL     1      63.868  31.070  12.191  1.00  0.00     0.168 HD
HETATM    8  C3  UNL     1      65.245  29.925  11.205  1.00  0.00     0.125 A 
HETATM    9  C4  UNL     1      66.064  29.856  10.083  1.00  0.00     0.068 A 
HETATM   10  C5  UNL     1      66.735  28.662  10.159  1.00  0.00     0.044 A 
HETATM   11 BR1  UNL     1      68.002  28.022   8.888  1.00  0.00    -0.049 Br
HETATM   12  C6  UNL     1      66.293  28.059  11.325  1.00  0.00     0.115 A 
HETATM   13  N4  UNL     1      65.403  28.815  11.949  1.00  0.00    -0.311 N 
ENDROOT
BRANCH  13  14
HETATM   14  C7  UNL     1      64.725  28.539  13.169  1.00  0.00     0.261 C 
HETATM   15  O1  UNL     1      64.104  29.676  13.725  1.00  0.00    -0.353 OA
HETATM   16  C8  UNL     1      63.580  29.114  14.889  1.00  0.00     0.179 C 
HETATM   17  C10 UNL     1      64.777  28.460  15.511  1.00  0.00     0.182 C 
HETATM   18  C11 UNL     1      65.634  28.128  14.301  1.00  0.00     0.198 C 
BRANCH  16  19
HETATM   19  C9  UNL     1      62.998  30.148  15.816  1.00  0.00     0.198 C 
BRANCH  19  20
HETATM   20  O2  UNL     1      63.887  30.295  16.881  1.00  0.00    -0.398 OA
ATOM     21  H2  UNL     1      63.975  31.226  17.048  1.00  0.00     0.209 HD
ENDBRANCH  19  20
ENDBRANCH  16  19
BRANCH  17  22
HETATM   22  O3  UNL     1      64.351  27.298  16.157  1.00  0.00    -0.390 OA
ATOM     23  H3  UNL     1      63.802  27.553  16.890  1.00  0.00     0.210 HD
ENDBRANCH  17  22
BRANCH  18  24
HETATM   24  O4  UNL     1      66.014  26.810  14.257  1.00  0.00    -0.388 OA
ATOM     25  H4  UNL     1      66.950  26.676  14.356  1.00  0.00     0.210 HD
ENDBRANCH  18  24
ENDBRANCH  13  14
TORSDOF 5
ENDMDL
