MODEL 4
REMARK VINA RESULT: -7.447350755      3.425      5.587
REMARK  5 active torsions:
REMARK  status: ('A' for Active; 'I' for Inactive)
REMARK    1  A    between atoms: N4_13  and  C7_14 
REMARK    2  A    between atoms: C8_16  and  C9_17 
REMARK    3  A    between atoms: C9_17  and  O2_18 
REMARK    4  A    between atoms: C10_20  and  O3_21 
REMARK    5  A    between atoms: C11_23  and  O4_24 
ROOT
HETATM    1  N1  UNL     1      66.819  31.109   7.939  1.00  0.00    -0.082 NA
HETATM    2  C1  UNL     1      66.592  30.103   8.913  1.00  0.00     0.132 A 
HETATM    3  N2  UNL     1      67.061  28.850   8.790  1.00  0.00    -0.340 N 
ATOM      4  H2  UNL     1      67.605  28.595   7.966  1.00  0.00     0.167 HD
HETATM    5  C2  UNL     1      66.821  27.926   9.742  1.00  0.00     0.183 A 
HETATM    6  N3  UNL     1      66.105  28.260  10.830  1.00  0.00    -0.338 N 
ATOM      7  H3  UNL     1      65.931  27.551  11.542  1.00  0.00     0.168 HD
HETATM    8  C3  UNL     1      65.610  29.498  11.008  1.00  0.00     0.125 A 
HETATM    9  C4  UNL     1      65.852  30.458  10.032  1.00  0.00     0.068 A 
HETATM   10  C5  UNL     1      65.246  31.612  10.456  1.00  0.00     0.044 A 
HETATM   11 BR1  UNL     1      65.245  33.272   9.518  1.00  0.00    -0.049 Br
HETATM   12  C6  UNL     1      64.662  31.302  11.673  1.00  0.00     0.115 A 
HETATM   13  N4  UNL     1      64.881  30.038  12.001  1.00  0.00    -0.311 N 
ENDROOT
BRANCH  13  14
HETATM   14  C7  UNL     1      64.444  29.352  13.169  1.00  0.00     0.261 C 
HETATM   15  O1  UNL     1      63.588  30.127  13.978  1.00  0.00    -0.353 OA
HETATM   16  C8  UNL     1      63.373  29.230  15.024  1.00  0.00     0.179 C 
HETATM   17  C10 UNL     1      64.767  28.863  15.439  1.00  0.00     0.182 C 
HETATM   18  C11 UNL     1      65.548  29.032  14.147  1.00  0.00     0.198 C 
BRANCH  16  19
HETATM   19  C9  UNL     1      62.624  29.853  16.171  1.00  0.00     0.198 C 
BRANCH  19  20
HETATM   20  O2  UNL     1      63.574  30.356  17.060  1.00  0.00    -0.398 OA
ATOM     21  H2  UNL     1      63.895  31.173  16.695  1.00  0.00     0.209 HD
ENDBRANCH  19  20
ENDBRANCH  16  19
BRANCH  17  22
HETATM   22  O3  UNL     1      64.760  27.529  15.850  1.00  0.00    -0.390 OA
ATOM     23  H3  UNL     1      65.477  27.406  16.461  1.00  0.00     0.210 HD
ENDBRANCH  17  22
BRANCH  18  24
HETATM   24  O4  UNL     1      66.281  27.921  13.812  1.00  0.00    -0.388 OA
ATOM     25  H4  UNL     1      66.187  27.200  14.425  1.00  0.00     0.210 HD
ENDBRANCH  18  24
ENDBRANCH  13  14
TORSDOF 5
ENDMDL
