MODEL 6
REMARK VINA RESULT: -7.366475759      1.771      2.643
REMARK  5 active torsions:
REMARK  status: ('A' for Active; 'I' for Inactive)
REMARK    1  A    between atoms: N4_13  and  C7_14 
REMARK    2  A    between atoms: C8_16  and  C9_17 
REMARK    3  A    between atoms: C9_17  and  O2_18 
REMARK    4  A    between atoms: C10_20  and  O3_21 
REMARK    5  A    between atoms: C11_23  and  O4_24 
ROOT
HETATM    1  N1  UNL     1      67.220  25.406  14.315  1.00  0.00    -0.082 NA
HETATM    2  C1  UNL     1      66.339  26.509  14.455  1.00  0.00     0.132 A 
HETATM    3  N2  UNL     1      65.634  26.741  15.576  1.00  0.00    -0.340 N 
ATOM      4  H2  UNL     1      65.725  26.105  16.368  1.00  0.00     0.167 HD
HETATM    5  C2  UNL     1      64.808  27.803  15.665  1.00  0.00     0.183 A 
HETATM    6  N3  UNL     1      64.687  28.643  14.623  1.00  0.00    -0.338 N 
ATOM      7  H3  UNL     1      64.060  29.443  14.704  1.00  0.00     0.168 HD
HETATM    8  C3  UNL     1      65.368  28.463  13.476  1.00  0.00     0.125 A 
HETATM    9  C4  UNL     1      66.221  27.370  13.374  1.00  0.00     0.068 A 
HETATM   10  C5  UNL     1      66.780  27.423  12.123  1.00  0.00     0.044 A 
HETATM   11 BR1  UNL     1      68.037  26.175  11.418  1.00  0.00    -0.049 Br
HETATM   12  C6  UNL     1      66.240  28.547  11.520  1.00  0.00     0.115 A 
HETATM   13  N4  UNL     1      65.396  29.167  12.330  1.00  0.00    -0.311 N 
ENDROOT
BRANCH  13  14
HETATM   14  C7  UNL     1      64.648  30.350  12.071  1.00  0.00     0.261 C 
HETATM   15  O1  UNL     1      64.869  30.872  10.781  1.00  0.00    -0.353 OA
HETATM   16  C8  UNL     1      64.060  32.006  10.842  1.00  0.00     0.179 C 
HETATM   17  C10 UNL     1      64.542  32.691  12.086  1.00  0.00     0.182 C 
HETATM   18  C11 UNL     1      65.041  31.528  12.927  1.00  0.00     0.198 C 
BRANCH  16  19
HETATM   19  C9  UNL     1      64.231  32.900   9.643  1.00  0.00     0.198 C 
BRANCH  19  20
HETATM   20  O2  UNL     1      63.714  34.151   9.984  1.00  0.00    -0.398 OA
ATOM     21  H2  UNL     1      63.091  34.391   9.308  1.00  0.00     0.209 HD
ENDBRANCH  19  20
ENDBRANCH  16  19
BRANCH  17  22
HETATM   22  O3  UNL     1      63.448  33.314  12.690  1.00  0.00    -0.390 OA
ATOM     23  H3  UNL     1      63.754  33.747  13.479  1.00  0.00     0.210 HD
ENDBRANCH  17  22
BRANCH  18  24
HETATM   24  O4  UNL     1      64.498  31.505  14.188  1.00  0.00    -0.388 OA
ATOM     25  H4  UNL     1      64.880  30.849  14.759  1.00  0.00     0.210 HD
ENDBRANCH  18  24
ENDBRANCH  13  14
TORSDOF 5
ENDMDL
