MODEL 16
REMARK VINA RESULT: -7.174979757      2.122      3.281
REMARK  5 active torsions:
REMARK  status: ('A' for Active; 'I' for Inactive)
REMARK    1  A    between atoms: N4_13  and  C7_14 
REMARK    2  A    between atoms: C8_16  and  C9_17 
REMARK    3  A    between atoms: C9_17  and  O2_18 
REMARK    4  A    between atoms: C10_20  and  O3_21 
REMARK    5  A    between atoms: C11_23  and  O4_24 
ROOT
HETATM    1  N1  UNL     1      68.661  25.445  12.453  1.00  0.00    -0.082 NA
HETATM    2  C1  UNL     1      67.581  26.136  13.061  1.00  0.00     0.132 A 
HETATM    3  N2  UNL     1      67.061  25.775  14.246  1.00  0.00    -0.340 N 
ATOM      4  H2  UNL     1      67.447  24.973  14.742  1.00  0.00     0.167 HD
HETATM    5  C2  UNL     1      66.034  26.462  14.788  1.00  0.00     0.183 A 
HETATM    6  N3  UNL     1      65.523  27.522  14.136  1.00  0.00    -0.338 N 
ATOM      7  H3  UNL     1      64.747  28.033  14.557  1.00  0.00     0.168 HD
HETATM    8  C3  UNL     1      66.003  27.930  12.947  1.00  0.00     0.125 A 
HETATM    9  C4  UNL     1      67.061  27.228  12.381  1.00  0.00     0.068 A 
HETATM   10  C5  UNL     1      67.350  27.844  11.190  1.00  0.00     0.044 A 
HETATM   11 BR1  UNL     1      68.718  27.315   9.973  1.00  0.00    -0.049 Br
HETATM   12  C6  UNL     1      66.453  28.894  11.086  1.00  0.00     0.115 A 
HETATM   13  N4  UNL     1      65.649  28.944  12.137  1.00  0.00    -0.311 N 
ENDROOT
BRANCH  13  14
HETATM   14  C7  UNL     1      64.603  29.874  12.392  1.00  0.00     0.261 C 
HETATM   15  O1  UNL     1      64.392  30.773  11.327  1.00  0.00    -0.353 OA
HETATM   16  C8  UNL     1      63.373  31.554  11.874  1.00  0.00     0.179 C 
HETATM   17  C10 UNL     1      63.951  31.979  13.190  1.00  0.00     0.182 C 
HETATM   18  C11 UNL     1      64.891  30.832  13.522  1.00  0.00     0.198 C 
BRANCH  16  19
HETATM   19  C9  UNL     1      63.048  32.753  11.024  1.00  0.00     0.198 C 
BRANCH  19  20
HETATM   20  O2  UNL     1      61.843  33.277  11.494  1.00  0.00    -0.398 OA
ATOM     21  H2  UNL     1      61.787  34.174  11.184  1.00  0.00     0.209 HD
ENDBRANCH  19  20
ENDBRANCH  16  19
BRANCH  17  22
HETATM   22  O3  UNL     1      62.910  32.058  14.117  1.00  0.00    -0.390 OA
ATOM     23  H3  UNL     1      63.210  32.574  14.856  1.00  0.00     0.210 HD
ENDBRANCH  17  22
BRANCH  18  24
HETATM   24  O4  UNL     1      64.673  30.302  14.769  1.00  0.00    -0.388 OA
ATOM     25  H4  UNL     1      64.786  29.359  14.811  1.00  0.00     0.210 HD
ENDBRANCH  18  24
ENDBRANCH  13  14
TORSDOF 5
ENDMDL
