MODEL 13
REMARK VINA RESULT: -7.247907954      2.682      4.348
REMARK  5 active torsions:
REMARK  status: ('A' for Active; 'I' for Inactive)
REMARK    1  A    between atoms: N4_13  and  C7_14 
REMARK    2  A    between atoms: C8_16  and  C9_17 
REMARK    3  A    between atoms: C9_17  and  O2_18 
REMARK    4  A    between atoms: C10_20  and  O3_21 
REMARK    5  A    between atoms: C11_23  and  O4_24 
ROOT
HETATM    1  N1  UNL     1      67.766  29.940   8.375  1.00  0.00    -0.082 NA
HETATM    2  C1  UNL     1      66.838  30.908   8.837  1.00  0.00     0.132 A 
HETATM    3  N2  UNL     1      66.762  32.148   8.325  1.00  0.00    -0.340 N 
ATOM      4  H2  UNL     1      67.393  32.420   7.571  1.00  0.00     0.167 HD
HETATM    5  C2  UNL     1      65.864  33.037   8.795  1.00  0.00     0.183 A 
HETATM    6  N3  UNL     1      65.030  32.680   9.787  1.00  0.00    -0.338 N 
ATOM      7  H3  UNL     1      64.354  33.361  10.133  1.00  0.00     0.168 HD
HETATM    8  C3  UNL     1      65.058  31.453  10.339  1.00  0.00     0.125 A 
HETATM    9  C4  UNL     1      65.982  30.530   9.862  1.00  0.00     0.068 A 
HETATM   10  C5  UNL     1      65.800  29.380  10.586  1.00  0.00     0.044 A 
HETATM   11 BR1  UNL     1      66.790  27.766  10.368  1.00  0.00    -0.049 Br
HETATM   12  C6  UNL     1      64.773  29.656  11.472  1.00  0.00     0.115 A 
HETATM   13  N4  UNL     1      64.330  30.895  11.324  1.00  0.00    -0.311 N 
ENDROOT
BRANCH  13  14
HETATM   14  C7  UNL     1      63.290  31.543  12.047  1.00  0.00     0.261 C 
HETATM   15  O1  UNL     1      62.722  32.627  11.346  1.00  0.00    -0.353 OA
HETATM   16  C8  UNL     1      61.798  33.064  12.294  1.00  0.00     0.179 C 
HETATM   17  C10 UNL     1      62.641  33.246  13.520  1.00  0.00     0.182 C 
HETATM   18  C11 UNL     1      63.750  32.230  13.309  1.00  0.00     0.198 C 
BRANCH  16  19
HETATM   19  C9  UNL     1      61.142  34.362  11.902  1.00  0.00     0.198 C 
BRANCH  19  20
HETATM   20  O2  UNL     1      59.955  34.041  11.242  1.00  0.00    -0.398 OA
ATOM     21  H2  UNL     1      60.184  33.478  10.511  1.00  0.00     0.209 HD
ENDBRANCH  19  20
ENDBRANCH  16  19
BRANCH  17  22
HETATM   22  O3  UNL     1      61.865  32.917  14.633  1.00  0.00    -0.390 OA
ATOM     23  H3  UNL     1      61.962  33.610  15.276  1.00  0.00     0.210 HD
ENDBRANCH  17  22
BRANCH  18  24
HETATM   24  O4  UNL     1      63.912  31.381  14.376  1.00  0.00    -0.388 OA
ATOM     25  H4  UNL     1      64.522  31.700  15.032  1.00  0.00     0.210 HD
ENDBRANCH  18  24
ENDBRANCH  13  14
TORSDOF 5
ENDMDL
