MODEL 13
REMARK VINA RESULT: -7.335011622      1.822      2.716
REMARK  5 active torsions:
REMARK  status: ('A' for Active; 'I' for Inactive)
REMARK    1  A    between atoms: N4_13  and  C7_14 
REMARK    2  A    between atoms: C8_16  and  C9_17 
REMARK    3  A    between atoms: C9_17  and  O2_18 
REMARK    4  A    between atoms: C10_20  and  O3_21 
REMARK    5  A    between atoms: C11_23  and  O4_24 
ROOT
HETATM    1  N1  UNL     1      11.057  14.094  14.400  1.00  0.00    -0.082 NA
HETATM    2  C1  UNL     1      11.914  12.976  14.537  1.00  0.00     0.133 A 
HETATM    3  N2  UNL     1      12.570  12.712  15.673  1.00  0.00    -0.340 N 
ATOM      4  H2  UNL     1      12.458  13.329  16.477  1.00  0.00     0.167 HD
HETATM    5  C2  UNL     1      13.371  11.643  15.760  1.00  0.00     0.183 A 
HETATM    6  N3  UNL     1      13.533  10.814  14.711  1.00  0.00    -0.338 N 
ATOM      7  H3  UNL     1      14.150  10.007  14.801  1.00  0.00     0.168 HD
HETATM    8  C3  UNL     1      12.897  11.032  13.546  1.00  0.00     0.126 A 
HETATM    9  C4  UNL     1      12.058  12.147  13.443  1.00  0.00     0.072 A 
HETATM   10  C5  UNL     1      11.537  12.145  12.174  1.00  0.00     0.067 A 
HETATM   11 CL1  UNL     1      10.422  13.321  11.514  1.00  0.00    -0.082 Cl
HETATM   12  C6  UNL     1      12.073  11.040  11.553  1.00  0.00     0.120 A 
HETATM   13  N4  UNL     1      12.886  10.375  12.374  1.00  0.00    -0.311 N 
ENDROOT
BRANCH  13  14
HETATM   14  C7  UNL     1      13.621   9.188  12.095  1.00  0.00     0.261 C 
HETATM   15  O1  UNL     1      13.416   8.708  10.784  1.00  0.00    -0.353 OA
HETATM   16  C8  UNL     1      14.220   7.569  10.833  1.00  0.00     0.179 C 
HETATM   17  C10 UNL     1      13.690   6.846  12.041  1.00  0.00     0.182 C 
HETATM   18  C11 UNL     1      13.193   7.989  12.905  1.00  0.00     0.198 C 
BRANCH  16  19
HETATM   19  C9  UNL     1      14.069   6.696   9.618  1.00  0.00     0.198 C 
BRANCH  19  20
HETATM   20  O2  UNL     1      14.444   5.405   9.999  1.00  0.00    -0.398 OA
ATOM     21  H2  UNL     1      14.423   4.870   9.214  1.00  0.00     0.209 HD
ENDBRANCH  19  20
ENDBRANCH  16  19
BRANCH  17  22
HETATM   22  O3  UNL     1      14.765   6.204  12.653  1.00  0.00    -0.390 OA
ATOM     23  H3  UNL     1      15.456   6.119  12.007  1.00  0.00     0.210 HD
ENDBRANCH  17  22
BRANCH  18  24
HETATM   24  O4  UNL     1      13.713   7.972  14.177  1.00  0.00    -0.388 OA
ATOM     25  H4  UNL     1      14.330   7.264  14.326  1.00  0.00     0.210 HD
ENDBRANCH  18  24
ENDBRANCH  13  14
TORSDOF 5
ENDMDL
