MODEL 9
REMARK VINA RESULT: -7.366678352      3.268      5.374
REMARK  5 active torsions:
REMARK  status: ('A' for Active; 'I' for Inactive)
REMARK    1  A    between atoms: N4_13  and  C7_14 
REMARK    2  A    between atoms: C8_16  and  C9_17 
REMARK    3  A    between atoms: C9_17  and  O2_18 
REMARK    4  A    between atoms: C10_20  and  O3_21 
REMARK    5  A    between atoms: C11_23  and  O4_24 
ROOT
HETATM    1  N1  UNL     1      11.242   8.940   8.121  1.00  0.00    -0.082 NA
HETATM    2  C1  UNL     1      12.066   8.715   9.251  1.00  0.00     0.133 A 
HETATM    3  N2  UNL     1      12.722   7.565   9.440  1.00  0.00    -0.340 N 
ATOM      4  H2  UNL     1      12.636   6.814   8.755  1.00  0.00     0.167 HD
HETATM    5  C2  UNL     1      13.492   7.393  10.521  1.00  0.00     0.183 A 
HETATM    6  N3  UNL     1      13.621   8.372  11.439  1.00  0.00    -0.338 N 
ATOM      7  H3  UNL     1      14.212   8.217  12.255  1.00  0.00     0.168 HD
HETATM    8  C3  UNL     1      12.984   9.547  11.297  1.00  0.00     0.126 A 
HETATM    9  C4  UNL     1      12.176   9.738  10.171  1.00  0.00     0.072 A 
HETATM   10  C5  UNL     1      11.646  11.000  10.260  1.00  0.00     0.067 A 
HETATM   11 CL1  UNL     1      10.564  11.750   9.109  1.00  0.00    -0.082 Cl
HETATM   12  C6  UNL     1      12.144  11.530  11.429  1.00  0.00     0.120 A 
HETATM   13  N4  UNL     1      12.943  10.662  12.048  1.00  0.00    -0.311 N 
ENDROOT
BRANCH  13  14
HETATM   14  C7  UNL     1      13.641  10.845  13.277  1.00  0.00     0.261 C 
HETATM   15  O1  UNL     1      14.306   9.680  13.712  1.00  0.00    -0.353 OA
HETATM   16  C8  UNL     1      14.847  10.161  14.904  1.00  0.00     0.179 C 
HETATM   17  C10 UNL     1      13.638  10.704  15.616  1.00  0.00     0.182 C 
HETATM   18  C11 UNL     1      12.747  11.119  14.462  1.00  0.00     0.198 C 
BRANCH  16  19
HETATM   19  C9  UNL     1      15.478   9.080  15.737  1.00  0.00     0.198 C 
BRANCH  19  20
HETATM   20  O2  UNL     1      14.790   9.052  16.952  1.00  0.00    -0.398 OA
ATOM     21  H2  UNL     1      14.421   8.181  17.039  1.00  0.00     0.209 HD
ENDBRANCH  19  20
ENDBRANCH  16  19
BRANCH  17  22
HETATM   22  O3  UNL     1      14.044  11.821  16.344  1.00  0.00    -0.390 OA
ATOM     23  H3  UNL     1      14.182  11.544  17.243  1.00  0.00     0.210 HD
ENDBRANCH  17  22
BRANCH  18  24
HETATM   24  O4  UNL     1      12.328  12.426  14.543  1.00  0.00    -0.388 OA
ATOM     25  H4  UNL     1      12.859  12.959  15.124  1.00  0.00     0.210 HD
ENDBRANCH  18  24
ENDBRANCH  13  14
TORSDOF 5
ENDMDL
