MODEL 17
REMARK VINA RESULT: -7.267843299      4.684      7.122
REMARK  5 active torsions:
REMARK  status: ('A' for Active; 'I' for Inactive)
REMARK    1  A    between atoms: N4_13  and  C7_14 
REMARK    2  A    between atoms: C8_16  and  C9_17 
REMARK    3  A    between atoms: C9_17  and  O2_18 
REMARK    4  A    between atoms: C10_20  and  O3_21 
REMARK    5  A    between atoms: C11_23  and  O4_24 
ROOT
HETATM    1  N1  UNL     1      11.121   8.498   7.800  1.00  0.00    -0.082 NA
HETATM    2  C1  UNL     1      11.744   9.030   8.955  1.00  0.00     0.133 A 
HETATM    3  N2  UNL     1      12.830   8.473   9.503  1.00  0.00    -0.340 N 
ATOM      4  H2  UNL     1      13.234   7.635   9.085  1.00  0.00     0.167 HD
HETATM    5  C2  UNL     1      13.388   9.008  10.596  1.00  0.00     0.183 A 
HETATM    6  N3  UNL     1      12.871  10.115  11.164  1.00  0.00    -0.338 N 
ATOM      7  H3  UNL     1      13.313  10.503  11.997  1.00  0.00     0.168 HD
HETATM    8  C3  UNL     1      11.781  10.715  10.653  1.00  0.00     0.126 A 
HETATM    9  C4  UNL     1      11.189  10.164   9.512  1.00  0.00     0.072 A 
HETATM   10  C5  UNL     1      10.110  10.951   9.196  1.00  0.00     0.067 A 
HETATM   11 CL1  UNL     1       9.017  10.712   7.852  1.00  0.00    -0.082 Cl
HETATM   12  C6  UNL     1      10.082  11.945  10.148  1.00  0.00     0.120 A 
HETATM   13  N4  UNL     1      11.082  11.803  11.019  1.00  0.00    -0.311 N 
ENDROOT
BRANCH  13  14
HETATM   14  C7  UNL     1      11.382  12.630  12.139  1.00  0.00     0.261 C 
HETATM   15  O1  UNL     1      12.064  11.943  13.164  1.00  0.00    -0.353 OA
HETATM   16  C8  UNL     1      12.183  12.979  14.090  1.00  0.00     0.179 C 
HETATM   17  C10 UNL     1      10.760  13.441  14.247  1.00  0.00     0.182 C 
HETATM   18  C11 UNL     1      10.169  13.124  12.888  1.00  0.00     0.198 C 
BRANCH  16  19
HETATM   19  C9  UNL     1      12.711  12.517  15.419  1.00  0.00     0.198 C 
BRANCH  19  20
HETATM   20  O2  UNL     1      11.868  13.049  16.398  1.00  0.00    -0.398 OA
ATOM     21  H2  UNL     1      11.222  12.382  16.597  1.00  0.00     0.209 HD
ENDBRANCH  19  20
ENDBRANCH  16  19
BRANCH  17  22
HETATM   22  O3  UNL     1      10.785  14.819  14.457  1.00  0.00    -0.390 OA
ATOM     23  H3  UNL     1      10.834  14.967  15.395  1.00  0.00     0.210 HD
ENDBRANCH  17  22
BRANCH  18  24
HETATM   24  O4  UNL     1       9.559  14.204  12.296  1.00  0.00    -0.388 OA
ATOM     25  H4  UNL     1      10.024  15.022  12.430  1.00  0.00     0.210 HD
ENDBRANCH  18  24
ENDBRANCH  13  14
TORSDOF 5
ENDMDL
