MODEL 8
REMARK VINA RESULT: -7.422006229      3.468      5.600
REMARK  5 active torsions:
REMARK  status: ('A' for Active; 'I' for Inactive)
REMARK    1  A    between atoms: N4_13  and  C7_14 
REMARK    2  A    between atoms: C8_16  and  C9_17 
REMARK    3  A    between atoms: C9_17  and  O2_18 
REMARK    4  A    between atoms: C10_20  and  O3_21 
REMARK    5  A    between atoms: C11_23  and  O4_24 
ROOT
HETATM    1  N1  UNL     1      11.462   8.580   8.032  1.00  0.00    -0.082 NA
HETATM    2  C1  UNL     1      11.655   9.558   9.038  1.00  0.00     0.133 A 
HETATM    3  N2  UNL     1      11.113  10.779   8.962  1.00  0.00    -0.340 N 
ATOM      4  H2  UNL     1      10.538  11.028   8.157  1.00  0.00     0.167 HD
HETATM    5  C2  UNL     1      11.319  11.675   9.935  1.00  0.00     0.183 A 
HETATM    6  N3  UNL     1      12.075  11.366  11.008  1.00  0.00    -0.338 N 
ATOM      7  H3  UNL     1      12.219  12.066  11.736  1.00  0.00     0.168 HD
HETATM    8  C3  UNL     1      12.642  10.154  11.134  1.00  0.00     0.126 A 
HETATM    9  C4  UNL     1      12.433   9.210  10.123  1.00  0.00     0.072 A 
HETATM   10  C5  UNL     1      13.109   8.072  10.484  1.00  0.00     0.067 A 
HETATM   11 CL1  UNL     1      13.181   6.580   9.574  1.00  0.00    -0.082 Cl
HETATM   12  C6  UNL     1      13.701   8.360  11.694  1.00  0.00     0.120 A 
HETATM   13  N4  UNL     1      13.422   9.604  12.081  1.00  0.00    -0.311 N 
ENDROOT
BRANCH  13  14
HETATM   14  C7  UNL     1      13.852  10.261  13.269  1.00  0.00     0.261 C 
HETATM   15  O1  UNL     1      14.697   9.461  14.066  1.00  0.00    -0.353 OA
HETATM   16  C8  UNL     1      14.913  10.345  15.124  1.00  0.00     0.179 C 
HETATM   17  C10 UNL     1      13.513  10.696  15.547  1.00  0.00     0.182 C 
HETATM   18  C11 UNL     1      12.743  10.562  14.247  1.00  0.00     0.198 C 
BRANCH  16  19
HETATM   19  C9  UNL     1      15.642   9.711  16.275  1.00  0.00     0.198 C 
BRANCH  19  20
HETATM   20  O2  UNL     1      14.730   8.870  16.918  1.00  0.00    -0.398 OA
ATOM     21  H2  UNL     1      14.841   8.005  16.541  1.00  0.00     0.209 HD
ENDBRANCH  19  20
ENDBRANCH  16  19
BRANCH  17  22
HETATM   22  O3  UNL     1      13.521  12.023  15.973  1.00  0.00    -0.390 OA
ATOM     23  H3  UNL     1      13.745  12.027  16.897  1.00  0.00     0.210 HD
ENDBRANCH  17  22
BRANCH  18  24
HETATM   24  O4  UNL     1      12.018  11.685  13.928  1.00  0.00    -0.388 OA
ATOM     25  H4  UNL     1      12.239  12.442  14.459  1.00  0.00     0.210 HD
ENDBRANCH  18  24
ENDBRANCH  13  14
TORSDOF 5
ENDMDL
