MODEL 17
REMARK VINA RESULT: -7.218989833      2.787      4.704
REMARK  5 active torsions:
REMARK  status: ('A' for Active; 'I' for Inactive)
REMARK    1  A    between atoms: N4_13  and  C7_14 
REMARK    2  A    between atoms: C8_16  and  C9_17 
REMARK    3  A    between atoms: C9_17  and  O2_18 
REMARK    4  A    between atoms: C10_20  and  O3_21 
REMARK    5  A    between atoms: C11_23  and  O4_24 
ROOT
HETATM    1  N1  UNL     1      11.281  14.319  14.349  1.00  0.00    -0.082 NA
HETATM    2  C1  UNL     1      12.091  13.174  14.534  1.00  0.00     0.134 A 
HETATM    3  N2  UNL     1      12.687  12.906  15.716  1.00  0.00    -0.340 N 
ATOM      4  H2  UNL     1      12.564  13.531  16.512  1.00  0.00     0.167 HD
HETATM    5  C2  UNL     1      13.445  11.799  15.824  1.00  0.00     0.183 A 
HETATM    6  N3  UNL     1      13.624  10.955  14.792  1.00  0.00    -0.337 N 
ATOM      7  H3  UNL     1      14.207  10.128  14.919  1.00  0.00     0.168 HD
HETATM    8  C3  UNL     1      13.047  11.181  13.586  1.00  0.00     0.127 A 
HETATM    9  C4  UNL     1      12.268  12.313  13.464  1.00  0.00     0.089 A 
HETATM   10  C5  UNL     1      11.795  12.333  12.177  1.00  0.00     0.149 A 
HETATM   11  F1  UNL     1      10.988  13.270  11.622  1.00  0.00    -0.203 F 
HETATM   12  C6  UNL     1      12.318  11.197  11.577  1.00  0.00     0.138 A 
HETATM   13  N4  UNL     1      13.070  10.506  12.423  1.00  0.00    -0.309 N 
ENDROOT
BRANCH  13  14
HETATM   14  C7  UNL     1      13.784   9.290  12.213  1.00  0.00     0.261 C 
HETATM   15  O1  UNL     1      13.632   8.774  10.914  1.00  0.00    -0.353 OA
HETATM   16  C8  UNL     1      14.386   7.606  11.024  1.00  0.00     0.179 C 
HETATM   17  C10 UNL     1      13.796   6.949  12.240  1.00  0.00     0.182 C 
HETATM   18  C11 UNL     1      13.266   8.129  13.038  1.00  0.00     0.198 C 
BRANCH  16  19
HETATM   19  C9  UNL     1      14.232   6.705   9.827  1.00  0.00     0.198 C 
BRANCH  19  20
HETATM   20  O2  UNL     1      14.570   5.416  10.235  1.00  0.00    -0.398 OA
ATOM     21  H2  UNL     1      15.086   5.027   9.538  1.00  0.00     0.209 HD
ENDBRANCH  19  20
ENDBRANCH  16  19
BRANCH  17  22
HETATM   22  O3  UNL     1      14.826   6.327  12.939  1.00  0.00    -0.390 OA
ATOM     23  H3  UNL     1      14.523   6.157  13.823  1.00  0.00     0.210 HD
ENDBRANCH  17  22
BRANCH  18  24
HETATM   24  O4  UNL     1      13.726   8.150  14.330  1.00  0.00    -0.388 OA
ATOM     25  H4  UNL     1      14.105   7.321  14.597  1.00  0.00     0.210 HD
ENDBRANCH  18  24
ENDBRANCH  13  14
TORSDOF 5
ENDMDL
