MODEL 9
REMARK VINA RESULT: -7.526069227      2.439      3.351
REMARK  5 active torsions:
REMARK  status: ('A' for Active; 'I' for Inactive)
REMARK    1  A    between atoms: N4_13  and  C7_14 
REMARK    2  A    between atoms: C8_16  and  C9_17 
REMARK    3  A    between atoms: C9_17  and  O2_18 
REMARK    4  A    between atoms: C10_20  and  O3_21 
REMARK    5  A    between atoms: C11_23  and  O4_24 
ROOT
HETATM    1  N1  UNL     1      11.571   8.406   7.954  1.00  0.00    -0.082 NA
HETATM    2  C1  UNL     1      12.110   8.976   9.131  1.00  0.00     0.134 A 
HETATM    3  N2  UNL     1      13.141   8.406   9.792  1.00  0.00    -0.340 N 
ATOM      4  H2  UNL     1      13.559   7.540   9.453  1.00  0.00     0.167 HD
HETATM    5  C2  UNL     1      13.606   9.001  10.906  1.00  0.00     0.183 A 
HETATM    6  N3  UNL     1      13.074  10.144  11.377  1.00  0.00    -0.337 N 
ATOM      7  H3  UNL     1      13.459  10.560  12.225  1.00  0.00     0.168 HD
HETATM    8  C3  UNL     1      12.040  10.754  10.750  1.00  0.00     0.127 A 
HETATM    9  C4  UNL     1      11.555  10.152   9.607  1.00  0.00     0.089 A 
HETATM   10  C5  UNL     1      10.527  10.936   9.151  1.00  0.00     0.149 A 
HETATM   11  F1  UNL     1       9.765  10.719   8.050  1.00  0.00    -0.203 F 
HETATM   12  C6  UNL     1      10.439  11.986  10.052  1.00  0.00     0.138 A 
HETATM   13  N4  UNL     1      11.347  11.876  11.012  1.00  0.00    -0.309 N 
ENDROOT
BRANCH  13  14
HETATM   14  C7  UNL     1      11.596  12.733  12.124  1.00  0.00     0.261 C 
HETATM   15  O1  UNL     1      12.269  12.092  13.179  1.00  0.00    -0.353 OA
HETATM   16  C8  UNL     1      12.331  13.137  14.102  1.00  0.00     0.179 C 
HETATM   17  C10 UNL     1      10.896  13.577  14.193  1.00  0.00     0.182 C 
HETATM   18  C11 UNL     1      10.337  13.192  12.833  1.00  0.00     0.198 C 
BRANCH  16  19
HETATM   19  C9  UNL     1      12.817  12.685  15.453  1.00  0.00     0.198 C 
BRANCH  19  20
HETATM   20  O2  UNL     1      11.977  13.257  16.407  1.00  0.00    -0.398 OA
ATOM     21  H2  UNL     1      11.499  12.547  16.822  1.00  0.00     0.209 HD
ENDBRANCH  19  20
ENDBRANCH  16  19
BRANCH  17  22
HETATM   22  O3  UNL     1      10.877  14.960  14.342  1.00  0.00    -0.390 OA
ATOM     23  H3  UNL     1       9.970  15.240  14.382  1.00  0.00     0.210 HD
ENDBRANCH  17  22
BRANCH  18  24
HETATM   24  O4  UNL     1       9.720  14.237  12.194  1.00  0.00    -0.388 OA
ATOM     25  H4  UNL     1       8.881  14.459  12.580  1.00  0.00     0.210 HD
ENDBRANCH  18  24
ENDBRANCH  13  14
TORSDOF 5
ENDMDL
