MODEL 6
REMARK VINA RESULT: -7.541464226      2.189      2.878
REMARK  5 active torsions:
REMARK  status: ('A' for Active; 'I' for Inactive)
REMARK    1  A    between atoms: N4_13  and  C7_14 
REMARK    2  A    between atoms: C8_16  and  C9_17 
REMARK    3  A    between atoms: C9_17  and  O2_18 
REMARK    4  A    between atoms: C10_20  and  O3_21 
REMARK    5  A    between atoms: C11_23  and  O4_24 
ROOT
HETATM    1  N1  UNL     1      11.643   8.783   8.094  1.00  0.00    -0.082 NA
HETATM    2  C1  UNL     1      11.810   9.746   9.117  1.00  0.00     0.134 A 
HETATM    3  N2  UNL     1      11.224  10.961   9.054  1.00  0.00    -0.340 N 
ATOM      4  H2  UNL     1      10.640  11.215   8.257  1.00  0.00     0.167 HD
HETATM    5  C2  UNL     1      11.424  11.831  10.061  1.00  0.00     0.183 A 
HETATM    6  N3  UNL     1      12.188  11.525  11.125  1.00  0.00    -0.337 N 
ATOM      7  H3  UNL     1      12.312  12.215  11.866  1.00  0.00     0.168 HD
HETATM    8  C3  UNL     1      12.797  10.318  11.234  1.00  0.00     0.127 A 
HETATM    9  C4  UNL     1      12.599   9.419  10.207  1.00  0.00     0.089 A 
HETATM   10  C5  UNL     1      13.299   8.286  10.531  1.00  0.00     0.149 A 
HETATM   11  F1  UNL     1      13.384   7.146   9.801  1.00  0.00    -0.203 F 
HETATM   12  C6  UNL     1      13.895   8.559  11.753  1.00  0.00     0.138 A 
HETATM   13  N4  UNL     1      13.592   9.780  12.175  1.00  0.00    -0.309 N 
ENDROOT
BRANCH  13  14
HETATM   14  C7  UNL     1      13.992  10.449  13.369  1.00  0.00     0.261 C 
HETATM   15  O1  UNL     1      14.822   9.666  14.193  1.00  0.00    -0.353 OA
HETATM   16  C8  UNL     1      15.006  10.545  15.261  1.00  0.00     0.179 C 
HETATM   17  C10 UNL     1      13.595  10.910  15.630  1.00  0.00     0.182 C 
HETATM   18  C11 UNL     1      12.846  10.735  14.319  1.00  0.00     0.198 C 
BRANCH  16  19
HETATM   19  C9  UNL     1      15.692   9.893  16.432  1.00  0.00     0.198 C 
BRANCH  19  20
HETATM   20  O2  UNL     1      14.746   9.095  17.072  1.00  0.00    -0.398 OA
ATOM     21  H2  UNL     1      14.241   9.662  17.644  1.00  0.00     0.209 HD
ENDBRANCH  19  20
ENDBRANCH  16  19
BRANCH  17  22
HETATM   22  O3  UNL     1      13.580  12.248  16.013  1.00  0.00    -0.390 OA
ATOM     23  H3  UNL     1      13.652  12.285  16.960  1.00  0.00     0.210 HD
ENDBRANCH  17  22
BRANCH  18  24
HETATM   24  O4  UNL     1      12.129  11.849  13.962  1.00  0.00    -0.388 OA
ATOM     25  H4  UNL     1      11.192  11.690  13.941  1.00  0.00     0.210 HD
ENDBRANCH  18  24
ENDBRANCH  13  14
TORSDOF 5
ENDMDL
