MODEL 8
REMARK VINA RESULT: -7.528755422      1.609      2.029
REMARK  5 active torsions:
REMARK  status: ('A' for Active; 'I' for Inactive)
REMARK    1  A    between atoms: N4_13  and  C7_14 
REMARK    2  A    between atoms: C8_16  and  C9_17 
REMARK    3  A    between atoms: C9_17  and  O2_18 
REMARK    4  A    between atoms: C10_20  and  O3_21 
REMARK    5  A    between atoms: C11_23  and  O4_24 
ROOT
HETATM    1  N1  UNL     1      11.514   8.759   8.048  1.00  0.00    -0.082 NA
HETATM    2  C1  UNL     1      12.244   8.623   9.253  1.00  0.00     0.134 A 
HETATM    3  N2  UNL     1      12.843   7.462   9.596  1.00  0.00    -0.340 N 
ATOM      4  H2  UNL     1      12.782   6.647   8.987  1.00  0.00     0.167 HD
HETATM    5  C2  UNL     1      13.522   7.401  10.757  1.00  0.00     0.183 A 
HETATM    6  N3  UNL     1      13.620   8.460  11.581  1.00  0.00    -0.337 N 
ATOM      7  H3  UNL     1      14.145   8.369  12.450  1.00  0.00     0.168 HD
HETATM    8  C3  UNL     1      13.037   9.646  11.280  1.00  0.00     0.127 A 
HETATM    9  C4  UNL     1      12.338   9.720  10.093  1.00  0.00     0.089 A 
HETATM   10  C5  UNL     1      11.844  10.995  10.002  1.00  0.00     0.149 A 
HETATM   11  F1  UNL     1      11.095  11.507   8.994  1.00  0.00    -0.203 F 
HETATM   12  C6  UNL     1      12.273  11.638  11.153  1.00  0.00     0.138 A 
HETATM   13  N4  UNL     1      12.989  10.828  11.920  1.00  0.00    -0.309 N 
ENDROOT
BRANCH  13  14
HETATM   14  C7  UNL     1      13.611  11.087  13.177  1.00  0.00     0.261 C 
HETATM   15  O1  UNL     1      14.258   9.962  13.719  1.00  0.00    -0.353 OA
HETATM   16  C8  UNL     1      14.718  10.499  14.921  1.00  0.00     0.179 C 
HETATM   17  C10 UNL     1      13.469  11.090  15.514  1.00  0.00     0.182 C 
HETATM   18  C11 UNL     1      12.630  11.407  14.287  1.00  0.00     0.198 C 
BRANCH  16  19
HETATM   19  C9  UNL     1      15.279   9.450  15.844  1.00  0.00     0.198 C 
BRANCH  19  20
HETATM   20  O2  UNL     1      14.350   9.260  16.866  1.00  0.00    -0.398 OA
ATOM     21  H2  UNL     1      13.754   8.577  16.581  1.00  0.00     0.209 HD
ENDBRANCH  19  20
ENDBRANCH  16  19
BRANCH  17  22
HETATM   22  O3  UNL     1      13.817  12.267  16.171  1.00  0.00    -0.390 OA
ATOM     23  H3  UNL     1      13.219  12.386  16.899  1.00  0.00     0.210 HD
ENDBRANCH  17  22
BRANCH  18  24
HETATM   24  O4  UNL     1      12.201  12.710  14.256  1.00  0.00    -0.388 OA
ATOM     25  H4  UNL     1      11.455  12.836  13.681  1.00  0.00     0.210 HD
ENDBRANCH  18  24
ENDBRANCH  13  14
TORSDOF 5
ENDMDL
