MODEL 10
REMARK VINA RESULT: -7.291341207      1.080      2.137
REMARK  5 active torsions:
REMARK  status: ('A' for Active; 'I' for Inactive)
REMARK    1  A    between atoms: N4_12  and  C7_13 
REMARK    2  A    between atoms: C8_15  and  C9_16 
REMARK    3  A    between atoms: C9_16  and  O2_17 
REMARK    4  A    between atoms: C10_19  and  O3_20 
REMARK    5  A    between atoms: C11_22  and  O4_23 
ROOT
HETATM    1  N1  UNL     1      45.242  49.103   7.781  1.00  0.00    -0.082 NA
HETATM    2  C1  UNL     1      45.777  48.073   6.980  1.00  0.00     0.131 A 
HETATM    3  N2  UNL     1      45.344  47.770   5.759  1.00  0.00    -0.340 N 
ATOM      4  H2  UNL     1      44.573  48.313   5.368  1.00  0.00     0.167 HD
HETATM    5  C2  UNL     1      45.875  46.777   5.010  1.00  0.00     0.183 A 
HETATM    6  N3  UNL     1      46.880  46.083   5.545  1.00  0.00    -0.338 N 
ATOM      7  H3  UNL     1      47.289  45.331   4.991  1.00  0.00     0.168 HD
HETATM    8  C3  UNL     1      47.388  46.312   6.770  1.00  0.00     0.124 A 
HETATM    9  C4  UNL     1      46.825  47.330   7.504  1.00  0.00     0.051 A 
HETATM   10  C5  UNL     1      47.516  47.358   8.702  1.00  0.00     0.036 A 
HETATM   11  C6  UNL     1      48.467  46.369   8.662  1.00  0.00     0.096 A 
HETATM   12  N4  UNL     1      48.390  45.733   7.486  1.00  0.00    -0.312 N 
ENDROOT
BRANCH  12  13
HETATM   13  C7  UNL     1      49.174  44.626   6.974  1.00  0.00     0.261 C 
HETATM   14  O1  UNL     1      49.732  43.907   7.993  1.00  0.00    -0.353 OA
HETATM   15  C8  UNL     1      50.975  43.470   7.630  1.00  0.00     0.179 C 
HETATM   16  C10 UNL     1      51.290  43.974   6.256  1.00  0.00     0.182 C 
HETATM   17  C11 UNL     1      50.326  45.161   6.156  1.00  0.00     0.198 C 
BRANCH  15  18
HETATM   18  C9  UNL     1      51.994  44.065   8.601  1.00  0.00     0.198 C 
BRANCH  18  19
HETATM   19  O2  UNL     1      51.622  43.768   9.911  1.00  0.00    -0.398 OA
ATOM     20  H2  UNL     1      52.396  43.715  10.459  1.00  0.00     0.209 HD
ENDBRANCH  18  19
ENDBRANCH  15  18
BRANCH  16  21
HETATM   21  O3  UNL     1      50.960  43.015   5.285  1.00  0.00    -0.390 OA
ATOM     22  H3  UNL     1      50.868  43.418   4.430  1.00  0.00     0.210 HD
ENDBRANCH  16  21
BRANCH  17  23
HETATM   23  O4  UNL     1      50.015  45.325   4.819  1.00  0.00    -0.388 OA
ATOM     24  H4  UNL     1      49.875  44.502   4.364  1.00  0.00     0.210 HD
ENDBRANCH  17  23
ENDBRANCH  12  13
TORSDOF 5
ENDMDL
