MODEL 4
REMARK VINA RESULT: -7.504323471      2.037      3.338
REMARK  5 active torsions:
REMARK  status: ('A' for Active; 'I' for Inactive)
REMARK    1  A    between atoms: N4_12  and  C7_13 
REMARK    2  A    between atoms: C8_15  and  C9_16 
REMARK    3  A    between atoms: C9_16  and  O2_17 
REMARK    4  A    between atoms: C10_19  and  O3_20 
REMARK    5  A    between atoms: C11_22  and  O4_23 
ROOT
HETATM    1  N1  UNL     1      45.214  47.158   5.127  1.00  0.00    -0.082 NA
HETATM    2  C1  UNL     1      46.399  46.394   5.131  1.00  0.00     0.131 A 
HETATM    3  N2  UNL     1      46.850  45.701   4.089  1.00  0.00    -0.340 N 
ATOM      4  H2  UNL     1      46.307  45.717   3.225  1.00  0.00     0.167 HD
HETATM    5  C2  UNL     1      47.991  44.977   4.118  1.00  0.00     0.183 A 
HETATM    6  N3  UNL     1      48.679  44.973   5.260  1.00  0.00    -0.338 N 
ATOM      7  H3  UNL     1      49.542  44.430   5.296  1.00  0.00     0.168 HD
HETATM    8  C3  UNL     1      48.308  45.641   6.369  1.00  0.00     0.124 A 
HETATM    9  C4  UNL     1      47.143  46.368   6.303  1.00  0.00     0.051 A 
HETATM   10  C5  UNL     1      46.990  46.948   7.549  1.00  0.00     0.036 A 
HETATM   11  C6  UNL     1      48.053  46.561   8.327  1.00  0.00     0.096 A 
HETATM   12  N4  UNL     1      48.856  45.766   7.608  1.00  0.00    -0.312 N 
ENDROOT
BRANCH  12  13
HETATM   13  C7  UNL     1      50.094  45.111   7.981  1.00  0.00     0.261 C 
HETATM   14  O1  UNL     1      50.266  45.124   9.337  1.00  0.00    -0.353 OA
HETATM   15  C8  UNL     1      51.590  45.287   9.638  1.00  0.00     0.179 C 
HETATM   16  C10 UNL     1      52.367  45.432   8.367  1.00  0.00     0.182 C 
HETATM   17  C11 UNL     1      51.263  45.873   7.401  1.00  0.00     0.198 C 
BRANCH  15  18
HETATM   18  C9  UNL     1      51.742  46.579  10.440  1.00  0.00     0.198 C 
BRANCH  18  19
HETATM   19  O2  UNL     1      53.066  47.011  10.386  1.00  0.00    -0.398 OA
ATOM     20  H2  UNL     1      53.643  46.308  10.661  1.00  0.00     0.209 HD
ENDBRANCH  18  19
ENDBRANCH  15  18
BRANCH  16  21
HETATM   21  O3  UNL     1      52.887  44.193   7.956  1.00  0.00    -0.390 OA
ATOM     22  H3  UNL     1      53.122  43.660   8.706  1.00  0.00     0.210 HD
ENDBRANCH  16  21
BRANCH  17  23
HETATM   23  O4  UNL     1      51.623  45.439   6.140  1.00  0.00    -0.388 OA
ATOM     24  H4  UNL     1      51.719  44.495   6.082  1.00  0.00     0.210 HD
ENDBRANCH  17  23
ENDBRANCH  12  13
TORSDOF 5
ENDMDL
