MODEL 20
REMARK VINA RESULT: -7.072942081      3.154      5.756
REMARK  5 active torsions:
REMARK  status: ('A' for Active; 'I' for Inactive)
REMARK    1  A    between atoms: N4_12  and  C7_13 
REMARK    2  A    between atoms: C8_15  and  C9_16 
REMARK    3  A    between atoms: C9_16  and  O2_17 
REMARK    4  A    between atoms: C10_19  and  O3_20 
REMARK    5  A    between atoms: C11_22  and  O4_23 
ROOT
HETATM    1  N1  UNL     1      48.853  44.632   3.762  1.00  0.00    -0.082 NA
HETATM    2  C1  UNL     1      47.945  45.355   4.563  1.00  0.00     0.131 A 
HETATM    3  N2  UNL     1      46.801  45.872   4.121  1.00  0.00    -0.340 N 
ATOM      4  H2  UNL     1      46.557  45.742   3.140  1.00  0.00     0.167 HD
HETATM    5  C2  UNL     1      45.947  46.562   4.911  1.00  0.00     0.183 A 
HETATM    6  N3  UNL     1      46.292  46.717   6.190  1.00  0.00    -0.338 N 
ATOM      7  H3  UNL     1      45.657  47.236   6.796  1.00  0.00     0.168 HD
HETATM    8  C3  UNL     1      47.426  46.233   6.731  1.00  0.00     0.124 A 
HETATM    9  C4  UNL     1      48.271  45.536   5.899  1.00  0.00     0.051 A 
HETATM   10  C5  UNL     1      49.342  45.153   6.686  1.00  0.00     0.036 A 
HETATM   11  C6  UNL     1      49.120  45.623   7.957  1.00  0.00     0.096 A 
HETATM   12  N4  UNL     1      47.954  46.280   7.984  1.00  0.00    -0.312 N 
ENDROOT
BRANCH  12  13
HETATM   13  C7  UNL     1      47.289  46.949   9.084  1.00  0.00     0.261 C 
HETATM   14  O1  UNL     1      46.069  47.431   8.701  1.00  0.00    -0.353 OA
HETATM   15  C8  UNL     1      45.822  48.624   9.320  1.00  0.00     0.179 C 
HETATM   16  C10 UNL     1      47.001  48.990  10.167  1.00  0.00     0.182 C 
HETATM   17  C11 UNL     1      48.101  48.150   9.509  1.00  0.00     0.198 C 
BRANCH  15  18
HETATM   18  C9  UNL     1      45.658  49.697   8.244  1.00  0.00     0.198 C 
BRANCH  18  19
HETATM   19  O2  UNL     1      44.888  49.195   7.196  1.00  0.00    -0.398 OA
ATOM     20  H2  UNL     1      45.323  49.366   6.369  1.00  0.00     0.209 HD
ENDBRANCH  18  19
ENDBRANCH  15  18
BRANCH  16  21
HETATM   21  O3  UNL     1      46.813  48.566  11.493  1.00  0.00    -0.390 OA
ATOM     22  H3  UNL     1      46.308  49.204  11.983  1.00  0.00     0.210 HD
ENDBRANCH  16  21
BRANCH  17  23
HETATM   23  O4  UNL     1      49.034  47.859  10.486  1.00  0.00    -0.388 OA
ATOM     24  H4  UNL     1      49.033  46.944  10.743  1.00  0.00     0.210 HD
ENDBRANCH  17  23
ENDBRANCH  12  13
TORSDOF 5
ENDMDL
