MODEL 17
REMARK VINA RESULT: -7.171154459      2.686      4.347
REMARK  5 active torsions:
REMARK  status: ('A' for Active; 'I' for Inactive)
REMARK    1  A    between atoms: N4_12  and  C7_13 
REMARK    2  A    between atoms: C8_15  and  C9_16 
REMARK    3  A    between atoms: C9_16  and  O2_17 
REMARK    4  A    between atoms: C10_19  and  O3_20 
REMARK    5  A    between atoms: C11_22  and  O4_23 
ROOT
HETATM    1  N1  UNL     1      48.534  50.430  12.108  1.00  0.00    -0.082 NA
HETATM    2  C1  UNL     1      48.458  49.281  11.295  1.00  0.00     0.131 A 
HETATM    3  N2  UNL     1      49.245  48.216  11.425  1.00  0.00    -0.340 N 
ATOM      4  H2  UNL     1      49.953  48.222  12.158  1.00  0.00     0.167 HD
HETATM    5  C2  UNL     1      49.151  47.124  10.631  1.00  0.00     0.183 A 
HETATM    6  N3  UNL     1      48.217  47.143   9.680  1.00  0.00    -0.338 N 
ATOM      7  H3  UNL     1      48.136  46.327   9.074  1.00  0.00     0.168 HD
HETATM    8  C3  UNL     1      47.374  48.171   9.468  1.00  0.00     0.124 A 
HETATM    9  C4  UNL     1      47.496  49.264  10.294  1.00  0.00     0.051 A 
HETATM   10  C5  UNL     1      46.532  50.163   9.876  1.00  0.00     0.036 A 
HETATM   11  C6  UNL     1      45.860  49.598   8.821  1.00  0.00     0.096 A 
HETATM   12  N4  UNL     1      46.372  48.385   8.573  1.00  0.00    -0.312 N 
ENDROOT
BRANCH  12  13
HETATM   13  C7  UNL     1      46.004  47.407   7.568  1.00  0.00     0.261 C 
HETATM   14  O1  UNL     1      46.913  46.389   7.518  1.00  0.00    -0.353 OA
HETATM   15  C8  UNL     1      47.078  45.973   6.226  1.00  0.00     0.179 C 
HETATM   16  C10 UNL     1      46.226  46.814   5.328  1.00  0.00     0.182 C 
HETATM   17  C11 UNL     1      46.021  48.055   6.203  1.00  0.00     0.198 C 
BRANCH  15  18
HETATM   18  C9  UNL     1      48.540  46.188   5.836  1.00  0.00     0.198 C 
BRANCH  18  19
HETATM   19  O2  UNL     1      49.353  46.017   6.955  1.00  0.00    -0.398 OA
ATOM     20  H2  UNL     1      50.264  46.123   6.707  1.00  0.00     0.209 HD
ENDBRANCH  18  19
ENDBRANCH  15  18
BRANCH  16  21
HETATM   21  O3  UNL     1      44.988  46.195   5.090  1.00  0.00    -0.390 OA
ATOM     22  H3  UNL     1      44.351  46.449   5.748  1.00  0.00     0.210 HD
ENDBRANCH  16  21
BRANCH  17  23
HETATM   23  O4  UNL     1      44.807  48.611   5.849  1.00  0.00    -0.388 OA
ATOM     24  H4  UNL     1      44.495  48.319   5.001  1.00  0.00     0.210 HD
ENDBRANCH  17  23
ENDBRANCH  12  13
TORSDOF 5
ENDMDL
