MODEL 6
REMARK VINA RESULT: -7.225070109      1.775      2.544
REMARK  5 active torsions:
REMARK  status: ('A' for Active; 'I' for Inactive)
REMARK    1  A    between atoms: N4_13  and  C7_14 
REMARK    2  A    between atoms: C8_16  and  C9_17 
REMARK    3  A    between atoms: C9_17  and  O2_18 
REMARK    4  A    between atoms: C10_20  and  O3_21 
REMARK    5  A    between atoms: C11_23  and  O4_24 
ROOT
HETATM    1  N1  UNL     1      67.267  25.587  14.707  1.00  0.00    -0.082 NA
HETATM    2  C1  UNL     1      66.405  26.699  14.744  1.00  0.00     0.132 A 
HETATM    3  N2  UNL     1      65.596  26.965  15.794  1.00  0.00    -0.340 N 
ATOM      4  H2  UNL     1      65.600  26.340  16.601  1.00  0.00     0.167 HD
HETATM    5  C2  UNL     1      64.779  28.046  15.793  1.00  0.00     0.183 A 
HETATM    6  N3  UNL     1      64.777  28.864  14.733  1.00  0.00    -0.338 N 
ATOM      7  H3  UNL     1      64.160  29.676  14.743  1.00  0.00     0.168 HD
HETATM    8  C3  UNL     1      65.558  28.657  13.657  1.00  0.00     0.125 A 
HETATM    9  C4  UNL     1      66.404  27.546  13.645  1.00  0.00     0.067 A 
HETATM   10  C5  UNL     1      67.083  27.566  12.451  1.00  0.00     0.039 A 
HETATM   11  I1  UNL     1      68.516  26.164  11.806  1.00  0.00    -0.042 I 
HETATM   12  C6  UNL     1      66.630  28.691  11.767  1.00  0.00     0.114 A 
HETATM   13  N4  UNL     1      65.715  29.336  12.506  1.00  0.00    -0.311 N 
ENDROOT
BRANCH  13  14
HETATM   14  C7  UNL     1      65.017  30.528  12.156  1.00  0.00     0.261 C 
HETATM   15  O1  UNL     1      65.364  31.016  10.880  1.00  0.00    -0.353 OA
HETATM   16  C8  UNL     1      64.560  32.150  10.833  1.00  0.00     0.179 C 
HETATM   17  C10 UNL     1      64.922  32.869  12.100  1.00  0.00     0.182 C 
HETATM   18  C11 UNL     1      65.344  31.718  13.019  1.00  0.00     0.198 C 
BRANCH  16  19
HETATM   19  C9  UNL     1      64.828  33.018   9.644  1.00  0.00     0.198 C 
BRANCH  19  20
HETATM   20  O2  UNL     1      64.134  34.214   9.834  1.00  0.00    -0.398 OA
ATOM     21  H2  UNL     1      63.506  34.294   9.126  1.00  0.00     0.209 HD
ENDBRANCH  19  20
ENDBRANCH  16  19
BRANCH  17  22
HETATM   22  O3  UNL     1      63.826  33.543  12.582  1.00  0.00    -0.390 OA
ATOM     23  H3  UNL     1      63.502  33.113  13.364  1.00  0.00     0.210 HD
ENDBRANCH  17  22
BRANCH  18  24
HETATM   24  O4  UNL     1      64.615  31.740  14.202  1.00  0.00    -0.388 OA
ATOM     25  H4  UNL     1      63.727  32.056  14.080  1.00  0.00     0.210 HD
ENDBRANCH  18  24
ENDBRANCH  13  14
TORSDOF 5
ENDMDL
