MODEL 3
REMARK VINA RESULT: -7.368947379      2.739      4.462
REMARK  5 active torsions:
REMARK  status: ('A' for Active; 'I' for Inactive)
REMARK    1  A    between atoms: N4_13  and  C7_14 
REMARK    2  A    between atoms: C8_16  and  C9_17 
REMARK    3  A    between atoms: C9_17  and  O2_18 
REMARK    4  A    between atoms: C10_20  and  O3_21 
REMARK    5  A    between atoms: C11_23  and  O4_24 
ROOT
HETATM    1  N1  UNL     1      68.181  30.183   8.299  1.00  0.00    -0.082 NA
HETATM    2  C1  UNL     1      67.268  31.117   8.824  1.00  0.00     0.132 A 
HETATM    3  N2  UNL     1      67.184  32.391   8.376  1.00  0.00    -0.340 N 
ATOM      4  H2  UNL     1      67.802  32.700   7.626  1.00  0.00     0.167 HD
HETATM    5  C2  UNL     1      66.292  33.261   8.906  1.00  0.00     0.183 A 
HETATM    6  N3  UNL     1      65.480  32.850   9.889  1.00  0.00    -0.338 N 
ATOM      7  H3  UNL     1      64.811  33.513  10.280  1.00  0.00     0.168 HD
HETATM    8  C3  UNL     1      65.513  31.598  10.379  1.00  0.00     0.125 A 
HETATM    9  C4  UNL     1      66.428  30.690   9.842  1.00  0.00     0.067 A 
HETATM   10  C5  UNL     1      66.258  29.500  10.508  1.00  0.00     0.039 A 
HETATM   11  I1  UNL     1      67.333  27.720  10.176  1.00  0.00    -0.042 I 
HETATM   12  C6  UNL     1      65.243  29.717  11.434  1.00  0.00     0.114 A 
HETATM   13  N4  UNL     1      64.805  30.982  11.344  1.00  0.00    -0.311 N 
ENDROOT
BRANCH  13  14
HETATM   14  C7  UNL     1      63.776  31.591  12.120  1.00  0.00     0.261 C 
HETATM   15  O1  UNL     1      63.167  32.683  11.468  1.00  0.00    -0.353 OA
HETATM   16  C8  UNL     1      62.251  33.061  12.443  1.00  0.00     0.179 C 
HETATM   17  C10 UNL     1      63.111  33.224  13.663  1.00  0.00     0.182 C 
HETATM   18  C11 UNL     1      64.256  32.244  13.389  1.00  0.00     0.198 C 
BRANCH  16  19
HETATM   19  C9  UNL     1      61.543  34.341  12.127  1.00  0.00     0.198 C 
BRANCH  19  20
HETATM   20  O2  UNL     1      60.393  34.016  11.405  1.00  0.00    -0.398 OA
ATOM     21  H2  UNL     1      60.653  33.882  10.502  1.00  0.00     0.209 HD
ENDBRANCH  19  20
ENDBRANCH  16  19
BRANCH  17  22
HETATM   22  O3  UNL     1      62.394  32.885  14.785  1.00  0.00    -0.390 OA
ATOM     23  H3  UNL     1      62.930  32.351  15.360  1.00  0.00     0.210 HD
ENDBRANCH  17  22
BRANCH  18  24
HETATM   24  O4  UNL     1      64.394  31.343  14.437  1.00  0.00    -0.388 OA
ATOM     25  H4  UNL     1      64.798  30.526  14.167  1.00  0.00     0.210 HD
ENDBRANCH  18  24
ENDBRANCH  13  14
TORSDOF 5
ENDMDL
