MODEL 2
REMARK VINA RESULT: -7.409188280      3.515      5.668
REMARK  5 active torsions:
REMARK  status: ('A' for Active; 'I' for Inactive)
REMARK    1  A    between atoms: N4_13  and  C7_14 
REMARK    2  A    between atoms: C8_16  and  C9_17 
REMARK    3  A    between atoms: C9_17  and  O2_18 
REMARK    4  A    between atoms: C10_20  and  O3_21 
REMARK    5  A    between atoms: C11_23  and  O4_24 
ROOT
HETATM    1  N1  UNL     1      67.218  30.971   8.003  1.00  0.00    -0.082 NA
HETATM    2  C1  UNL     1      66.978  29.972   8.966  1.00  0.00     0.132 A 
HETATM    3  N2  UNL     1      67.403  28.697   8.820  1.00  0.00    -0.340 N 
ATOM      4  H2  UNL     1      67.920  28.433   7.981  1.00  0.00     0.167 HD
HETATM    5  C2  UNL     1      67.153  27.763   9.769  1.00  0.00     0.183 A 
HETATM    6  N3  UNL     1      66.475  28.113  10.869  1.00  0.00    -0.338 N 
ATOM      7  H3  UNL     1      66.293  27.403  11.579  1.00  0.00     0.168 HD
HETATM    8  C3  UNL     1      66.025  29.364  11.076  1.00  0.00     0.125 A 
HETATM    9  C4  UNL     1      66.275  30.336  10.105  1.00  0.00     0.067 A 
HETATM   10  C5  UNL     1      65.719  31.510  10.554  1.00  0.00     0.039 A 
HETATM   11  I1  UNL     1      65.744  33.364   9.555  1.00  0.00    -0.042 I 
HETATM   12  C6  UNL     1      65.144  31.219  11.787  1.00  0.00     0.114 A 
HETATM   13  N4  UNL     1      65.337  29.926  12.087  1.00  0.00    -0.311 N 
ENDROOT
BRANCH  13  14
HETATM   14  C7  UNL     1      64.901  29.243  13.260  1.00  0.00     0.261 C 
HETATM   15  O1  UNL     1      64.097  30.044  14.096  1.00  0.00    -0.353 OA
HETATM   16  C8  UNL     1      63.849  29.139  15.123  1.00  0.00     0.179 C 
HETATM   17  C10 UNL     1      65.228  28.690  15.513  1.00  0.00     0.182 C 
HETATM   18  C11 UNL     1      66.007  28.857  14.204  1.00  0.00     0.198 C 
BRANCH  16  19
HETATM   19  C9  UNL     1      63.147  29.750  16.295  1.00  0.00     0.198 C 
BRANCH  19  20
HETATM   20  O2  UNL     1      64.125  30.266  17.146  1.00  0.00    -0.398 OA
ATOM     21  H2  UNL     1      64.068  29.790  17.967  1.00  0.00     0.209 HD
ENDBRANCH  19  20
ENDBRANCH  16  19
BRANCH  17  22
HETATM   22  O3  UNL     1      65.190  27.383  15.932  1.00  0.00    -0.390 OA
ATOM     23  H3  UNL     1      66.067  27.019  15.930  1.00  0.00     0.210 HD
ENDBRANCH  17  22
BRANCH  18  24
HETATM   24  O4  UNL     1      66.628  27.668  13.846  1.00  0.00    -0.388 OA
ATOM     25  H4  UNL     1      66.811  27.615  12.915  1.00  0.00     0.210 HD
ENDBRANCH  18  24
ENDBRANCH  13  14
TORSDOF 5
ENDMDL
