MODEL 14
REMARK VINA RESULT: -7.039773174      2.079      3.167
REMARK  5 active torsions:
REMARK  status: ('A' for Active; 'I' for Inactive)
REMARK    1  A    between atoms: N4_13  and  C7_14 
REMARK    2  A    between atoms: C8_16  and  C9_17 
REMARK    3  A    between atoms: C9_17  and  O2_18 
REMARK    4  A    between atoms: C10_20  and  O3_21 
REMARK    5  A    between atoms: C11_23  and  O4_24 
ROOT
HETATM    1  N1  UNL     1      68.805  25.921  11.697  1.00  0.00    -0.082 NA
HETATM    2  C1  UNL     1      67.787  26.550  12.438  1.00  0.00     0.132 A 
HETATM    3  N2  UNL     1      67.386  26.111  13.653  1.00  0.00    -0.340 N 
ATOM      4  H2  UNL     1      67.831  25.289  14.061  1.00  0.00     0.167 HD
HETATM    5  C2  UNL     1      66.402  26.743  14.336  1.00  0.00     0.183 A 
HETATM    6  N3  UNL     1      65.820  27.822  13.798  1.00  0.00    -0.338 N 
ATOM      7  H3  UNL     1      65.081  28.292  14.321  1.00  0.00     0.168 HD
HETATM    8  C3  UNL     1      66.172  28.311  12.595  1.00  0.00     0.125 A 
HETATM    9  C4  UNL     1      67.184  27.668  11.880  1.00  0.00     0.067 A 
HETATM   10  C5  UNL     1      67.349  28.357  10.702  1.00  0.00     0.039 A 
HETATM   11  I1  UNL     1      68.723  27.902   9.172  1.00  0.00    -0.042 I 
HETATM   12  C6  UNL     1      66.430  29.401  10.733  1.00  0.00     0.114 A 
HETATM   13  N4  UNL     1      65.731  29.361  11.877  1.00  0.00    -0.311 N 
ENDROOT
BRANCH  13  14
HETATM   14  C7  UNL     1      64.699  30.255  12.284  1.00  0.00     0.261 C 
HETATM   15  O1  UNL     1      64.483  31.302  11.365  1.00  0.00    -0.353 OA
HETATM   16  C8  UNL     1      63.467  31.988  12.021  1.00  0.00     0.179 C 
HETATM   17  C10 UNL     1      64.048  32.218  13.387  1.00  0.00     0.182 C 
HETATM   18  C11 UNL     1      65.005  31.031  13.538  1.00  0.00     0.198 C 
BRANCH  16  19
HETATM   19  C9  UNL     1      63.119  33.293  11.375  1.00  0.00     0.198 C 
BRANCH  19  20
HETATM   20  O2  UNL     1      61.799  33.590  11.718  1.00  0.00    -0.398 OA
ATOM     21  H2  UNL     1      61.822  34.294  12.355  1.00  0.00     0.209 HD
ENDBRANCH  19  20
ENDBRANCH  16  19
BRANCH  17  22
HETATM   22  O3  UNL     1      63.046  32.201  14.327  1.00  0.00    -0.390 OA
ATOM     23  H3  UNL     1      62.822  31.303  14.541  1.00  0.00     0.210 HD
ENDBRANCH  17  22
BRANCH  18  24
HETATM   24  O4  UNL     1      64.722  30.315  14.694  1.00  0.00    -0.388 OA
ATOM     25  H4  UNL     1      64.498  30.876  15.428  1.00  0.00     0.210 HD
ENDBRANCH  18  24
ENDBRANCH  13  14
TORSDOF 5
ENDMDL
