MODEL 4
REMARK VINA RESULT: -7.367794577      3.350      5.484
REMARK  5 active torsions:
REMARK  status: ('A' for Active; 'I' for Inactive)
REMARK    1  A    between atoms: N4_13  and  C7_14 
REMARK    2  A    between atoms: C8_16  and  C9_17 
REMARK    3  A    between atoms: C9_17  and  O2_18 
REMARK    4  A    between atoms: C10_20  and  O3_21 
REMARK    5  A    between atoms: C11_23  and  O4_24 
ROOT
HETATM    1  N1  UNL     1      67.283  30.828   8.127  1.00  0.00    -0.082 NA
HETATM    2  C1  UNL     1      66.424  30.902   9.240  1.00  0.00     0.132 A 
HETATM    3  N2  UNL     1      65.571  31.932   9.441  1.00  0.00    -0.340 N 
ATOM      4  H2  UNL     1      65.539  32.695   8.766  1.00  0.00     0.167 HD
HETATM    5  C2  UNL     1      64.759  31.967  10.525  1.00  0.00     0.183 A 
HETATM    6  N3  UNL     1      64.803  30.962  11.409  1.00  0.00    -0.338 N 
ATOM      7  H3  UNL     1      64.187  30.997  12.221  1.00  0.00     0.168 HD
HETATM    8  C3  UNL     1      65.628  29.909  11.268  1.00  0.00     0.125 A 
HETATM    9  C4  UNL     1      66.470  29.860  10.156  1.00  0.00     0.067 A 
HETATM   10  C5  UNL     1      67.198  28.698  10.248  1.00  0.00     0.039 A 
HETATM   11  I1  UNL     1      68.653  28.025   8.882  1.00  0.00    -0.042 I 
HETATM   12  C6  UNL     1      66.778  28.071  11.417  1.00  0.00     0.114 A 
HETATM   13  N4  UNL     1      65.834  28.810  12.017  1.00  0.00    -0.311 N 
ENDROOT
BRANCH  13  14
HETATM   14  C7  UNL     1      65.154  28.510  13.235  1.00  0.00     0.261 C 
HETATM   15  O1  UNL     1      64.547  29.640  13.819  1.00  0.00    -0.353 OA
HETATM   16  C8  UNL     1      63.998  29.053  14.954  1.00  0.00     0.179 C 
HETATM   17  C10 UNL     1      65.176  28.356  15.573  1.00  0.00     0.182 C 
HETATM   18  C11 UNL     1      66.052  28.053  14.353  1.00  0.00     0.198 C 
BRANCH  16  19
HETATM   19  C9  UNL     1      63.416  30.045  15.912  1.00  0.00     0.198 C 
BRANCH  19  20
HETATM   20  O2  UNL     1      64.335  30.216  16.948  1.00  0.00    -0.398 OA
ATOM     21  H2  UNL     1      64.082  30.995  17.428  1.00  0.00     0.209 HD
ENDBRANCH  19  20
ENDBRANCH  16  19
BRANCH  17  22
HETATM   22  O3  UNL     1      64.757  27.213  16.209  1.00  0.00    -0.390 OA
ATOM     23  H3  UNL     1      64.476  26.572  15.566  1.00  0.00     0.210 HD
ENDBRANCH  17  22
BRANCH  18  24
HETATM   24  O4  UNL     1      66.348  26.697  14.284  1.00  0.00    -0.388 OA
ATOM     25  H4  UNL     1      67.187  26.485  14.677  1.00  0.00     0.210 HD
ENDBRANCH  18  24
ENDBRANCH  13  14
TORSDOF 5
ENDMDL
