MODEL 9
REMARK VINA RESULT: -7.354906959      4.244      6.574
REMARK  5 active torsions:
REMARK  status: ('A' for Active; 'I' for Inactive)
REMARK    1  A    between atoms: N4_13  and  C7_14 
REMARK    2  A    between atoms: C8_16  and  C9_17 
REMARK    3  A    between atoms: C9_17  and  O2_18 
REMARK    4  A    between atoms: C10_20  and  O3_21 
REMARK    5  A    between atoms: C11_23  and  O4_24 
ROOT
HETATM    1  N1  UNL     1      10.027  13.823  12.109  1.00  0.00    -0.082 NA
HETATM    2  C1  UNL     1      11.043  13.105  12.768  1.00  0.00     0.132 A 
HETATM    3  N2  UNL     1      11.477  13.422  14.009  1.00  0.00    -0.340 N 
ATOM      4  H2  UNL     1      11.059  14.212  14.500  1.00  0.00     0.167 HD
HETATM    5  C2  UNL     1      12.458  12.707  14.610  1.00  0.00     0.183 A 
HETATM    6  N3  UNL     1      13.004  11.670  13.963  1.00  0.00    -0.338 N 
ATOM      7  H3  UNL     1      13.740  11.137  14.426  1.00  0.00     0.168 HD
HETATM    8  C3  UNL     1      12.617  11.302  12.728  1.00  0.00     0.125 A 
HETATM    9  C4  UNL     1      11.608  12.031  12.096  1.00  0.00     0.067 A 
HETATM   10  C5  UNL     1      11.404  11.458  10.864  1.00  0.00     0.039 A 
HETATM   11  I1  UNL     1      10.014  12.083   9.411  1.00  0.00    -0.042 I 
HETATM   12  C6  UNL     1      12.298  10.395  10.779  1.00  0.00     0.114 A 
HETATM   13  N4  UNL     1      13.019  10.314  11.907  1.00  0.00    -0.311 N 
ENDROOT
BRANCH  13  14
HETATM   14  C7  UNL     1      14.037   9.362  12.209  1.00  0.00     0.261 C 
HETATM   15  O1  UNL     1      14.153   8.352  11.233  1.00  0.00    -0.353 OA
HETATM   16  C8  UNL     1      15.178   7.598  11.793  1.00  0.00     0.179 C 
HETATM   17  C10 UNL     1      14.673   7.328  13.182  1.00  0.00     0.182 C 
HETATM   18  C11 UNL     1      13.777   8.542  13.445  1.00  0.00     0.198 C 
BRANCH  16  19
HETATM   19  C9  UNL     1      15.432   6.312  11.070  1.00  0.00     0.198 C 
BRANCH  19  20
HETATM   20  O2  UNL     1      16.716   5.885  11.414  1.00  0.00    -0.398 OA
ATOM     21  H2  UNL     1      17.081   5.445  10.656  1.00  0.00     0.209 HD
ENDBRANCH  19  20
ENDBRANCH  16  19
BRANCH  17  22
HETATM   22  O3  UNL     1      15.731   7.263  14.056  1.00  0.00    -0.390 OA
ATOM     23  H3  UNL     1      15.423   7.402  14.944  1.00  0.00     0.210 HD
ENDBRANCH  17  22
BRANCH  18  24
HETATM   24  O4  UNL     1      14.160   9.193  14.611  1.00  0.00    -0.388 OA
ATOM     25  H4  UNL     1      14.786   8.693  15.121  1.00  0.00     0.210 HD
ENDBRANCH  18  24
ENDBRANCH  13  14
TORSDOF 5
ENDMDL
