MODEL 4
REMARK VINA RESULT: -7.612393453      1.667      2.618
REMARK  5 active torsions:
REMARK  status: ('A' for Active; 'I' for Inactive)
REMARK    1  A    between atoms: N4_13  and  C7_14 
REMARK    2  A    between atoms: C8_16  and  C9_17 
REMARK    3  A    between atoms: C9_17  and  O2_18 
REMARK    4  A    between atoms: C10_20  and  O3_21 
REMARK    5  A    between atoms: C11_23  and  O4_24 
ROOT
HETATM    1  N1  UNL     1      13.680  10.560  13.285  1.00  0.00    -0.082 NA
HETATM    2  C1  UNL     1      13.174  10.278  12.002  1.00  0.00     0.132 A 
HETATM    3  N2  UNL     1      13.568   9.208  11.277  1.00  0.00    -0.340 N 
ATOM      4  H2  UNL     1      14.262   8.568  11.664  1.00  0.00     0.167 HD
HETATM    5  C2  UNL     1      13.057   8.970  10.045  1.00  0.00     0.183 A 
HETATM    6  N3  UNL     1      12.145   9.810   9.541  1.00  0.00    -0.338 N 
ATOM      7  H3  UNL     1      11.766   9.622   8.613  1.00  0.00     0.168 HD
HETATM    8  C3  UNL     1      11.710  10.893  10.210  1.00  0.00     0.125 A 
HETATM    9  C4  UNL     1      12.229  11.150  11.480  1.00  0.00     0.067 A 
HETATM   10  C5  UNL     1      11.627  12.297  11.940  1.00  0.00     0.039 A 
HETATM   11  I1  UNL     1      11.970  13.228  13.798  1.00  0.00    -0.042 I 
HETATM   12  C6  UNL     1      10.758  12.707  10.934  1.00  0.00     0.114 A 
HETATM   13  N4  UNL     1      10.818  11.853   9.902  1.00  0.00    -0.311 N 
ENDROOT
BRANCH  13  14
HETATM   14  C7  UNL     1      10.082  11.926   8.683  1.00  0.00     0.261 C 
HETATM   15  O1  UNL     1       9.266  13.072   8.601  1.00  0.00    -0.353 OA
HETATM   16  C8  UNL     1       8.686  12.862   7.354  1.00  0.00     0.179 C 
HETATM   17  C10 UNL     1       8.124  11.474   7.478  1.00  0.00     0.182 C 
HETATM   18  C11 UNL     1       9.064  10.832   8.503  1.00  0.00     0.198 C 
BRANCH  16  19
HETATM   19  C9  UNL     1       7.600  13.839   7.033  1.00  0.00     0.198 C 
BRANCH  19  20
HETATM   20  O2  UNL     1       6.384  13.159   7.124  1.00  0.00    -0.398 OA
ATOM     21  H2  UNL     1       5.748  13.643   6.612  1.00  0.00     0.209 HD
ENDBRANCH  19  20
ENDBRANCH  16  19
BRANCH  17  22
HETATM   22  O3  UNL     1       8.175  10.843   6.259  1.00  0.00    -0.390 OA
ATOM     23  H3  UNL     1       7.941   9.927   6.361  1.00  0.00     0.210 HD
ENDBRANCH  17  22
BRANCH  18  24
HETATM   24  O4  UNL     1       9.617   9.662   7.999  1.00  0.00    -0.388 OA
ATOM     25  H4  UNL     1       9.013   9.180   7.446  1.00  0.00     0.210 HD
ENDBRANCH  18  24
ENDBRANCH  13  14
TORSDOF 5
ENDMDL
