MODEL 3
REMARK VINA RESULT: -7.643174324      1.618      2.481
REMARK  5 active torsions:
REMARK  status: ('A' for Active; 'I' for Inactive)
REMARK    1  A    between atoms: N4_13  and  C7_14 
REMARK    2  A    between atoms: C8_16  and  C9_17 
REMARK    3  A    between atoms: C9_17  and  O2_18 
REMARK    4  A    between atoms: C10_20  and  O3_21 
REMARK    5  A    between atoms: C11_23  and  O4_24 
ROOT
HETATM    1  N1  UNL     1      14.319  10.369  15.082  1.00  0.00    -0.082 NA
HETATM    2  C1  UNL     1      13.414  11.338  14.609  1.00  0.00     0.132 A 
HETATM    3  N2  UNL     1      12.972  12.362  15.374  1.00  0.00    -0.340 N 
ATOM      4  H2  UNL     1      13.299  12.447  16.336  1.00  0.00     0.167 HD
HETATM    5  C2  UNL     1      12.101  13.276  14.883  1.00  0.00     0.183 A 
HETATM    6  N3  UNL     1      11.675  13.163  13.619  1.00  0.00    -0.338 N 
ATOM      7  H3  UNL     1      11.021  13.857  13.258  1.00  0.00     0.168 HD
HETATM    8  C3  UNL     1      12.077  12.169  12.806  1.00  0.00     0.125 A 
HETATM    9  C4  UNL     1      12.973  11.219  13.299  1.00  0.00     0.067 A 
HETATM   10  C5  UNL     1      13.220  10.327  12.283  1.00  0.00     0.039 A 
HETATM   11  I1  UNL     1      14.489   8.649  12.376  1.00  0.00    -0.042 I 
HETATM   12  C6  UNL     1      12.463  10.759  11.198  1.00  0.00     0.114 A 
HETATM   13  N4  UNL     1      11.783  11.867  11.528  1.00  0.00    -0.311 N 
ENDROOT
BRANCH  13  14
HETATM   14  C7  UNL     1      10.898  12.611  10.693  1.00  0.00     0.261 C 
HETATM   15  O1  UNL     1       9.790  11.857  10.255  1.00  0.00    -0.353 OA
HETATM   16  C8  UNL     1       9.145  12.814   9.479  1.00  0.00     0.179 C 
HETATM   17  C10 UNL     1      10.229  13.276   8.548  1.00  0.00     0.182 C 
HETATM   18  C11 UNL     1      11.495  13.039   9.378  1.00  0.00     0.198 C 
BRANCH  16  19
HETATM   19  C9  UNL     1       7.988  12.267   8.704  1.00  0.00     0.198 C 
BRANCH  19  20
HETATM   20  O2  UNL     1       8.249  12.487   7.351  1.00  0.00    -0.398 OA
ATOM     21  H2  UNL     1       7.446  12.313   6.874  1.00  0.00     0.209 HD
ENDBRANCH  19  20
ENDBRANCH  16  19
BRANCH  17  22
HETATM   22  O3  UNL     1      10.047  14.603   8.245  1.00  0.00    -0.390 OA
ATOM     23  H3  UNL     1      10.810  14.936   7.787  1.00  0.00     0.210 HD
ENDBRANCH  17  22
BRANCH  18  24
HETATM   24  O4  UNL     1      12.240  14.206   9.482  1.00  0.00    -0.388 OA
ATOM     25  H4  UNL     1      11.866  14.827  10.097  1.00  0.00     0.210 HD
ENDBRANCH  18  24
ENDBRANCH  13  14
TORSDOF 5
ENDMDL
