MODEL 1
REMARK VINA RESULT: -7.896986865      0.000      0.000
REMARK  5 active torsions:
REMARK  status: ('A' for Active; 'I' for Inactive)
REMARK    1  A    between atoms: N4_13  and  C7_14 
REMARK    2  A    between atoms: C8_16  and  C9_17 
REMARK    3  A    between atoms: C9_17  and  O2_18 
REMARK    4  A    between atoms: C10_20  and  O3_21 
REMARK    5  A    between atoms: C11_23  and  O4_24 
ROOT
HETATM    1  N1  UNL     1      13.054  11.887  14.337  1.00  0.00    -0.082 NA
HETATM    2  C1  UNL     1      12.047  12.344  13.465  1.00  0.00     0.132 A 
HETATM    3  N2  UNL     1      11.160  13.305  13.810  1.00  0.00    -0.340 N 
ATOM      4  H2  UNL     1      11.212  13.725  14.738  1.00  0.00     0.167 HD
HETATM    5  C2  UNL     1      10.205  13.718  12.943  1.00  0.00     0.183 A 
HETATM    6  N3  UNL     1      10.141  13.166  11.726  1.00  0.00    -0.338 N 
ATOM      7  H3  UNL     1       9.420  13.485  11.080  1.00  0.00     0.168 HD
HETATM    8  C3  UNL     1      10.993  12.206  11.321  1.00  0.00     0.125 A 
HETATM    9  C4  UNL     1      11.982  11.770  12.204  1.00  0.00     0.067 A 
HETATM   10  C5  UNL     1      12.708  10.800  11.554  1.00  0.00     0.039 A 
HETATM   11  I1  UNL     1      14.348   9.735  12.336  1.00  0.00    -0.042 I 
HETATM   12  C6  UNL     1      12.138  10.673  10.291  1.00  0.00     0.114 A 
HETATM   13  N4  UNL     1      11.110  11.524  10.166  1.00  0.00    -0.311 N 
ENDROOT
BRANCH  13  14
HETATM   14  C7  UNL     1      10.272  11.696   9.025  1.00  0.00     0.261 C 
HETATM   15  O1  UNL     1       9.284  12.685   9.211  1.00  0.00    -0.353 OA
HETATM   16  C8  UNL     1       8.642  12.613   7.980  1.00  0.00     0.179 C 
HETATM   17  C10 UNL     1       8.313  11.153   7.859  1.00  0.00     0.182 C 
HETATM   18  C11 UNL     1       9.423  10.499   8.689  1.00  0.00     0.198 C 
BRANCH  16  19
HETATM   19  C9  UNL     1       7.395  13.437   7.913  1.00  0.00     0.198 C 
BRANCH  19  20
HETATM   20  O2  UNL     1       6.681  13.024   6.786  1.00  0.00    -0.398 OA
ATOM     21  H2  UNL     1       5.873  12.629   7.091  1.00  0.00     0.209 HD
ENDBRANCH  19  20
ENDBRANCH  16  19
BRANCH  17  22
HETATM   22  O3  UNL     1       8.359  10.774   6.540  1.00  0.00    -0.390 OA
ATOM     23  H3  UNL     1       8.387   9.826   6.478  1.00  0.00     0.210 HD
ENDBRANCH  17  22
BRANCH  18  24
HETATM   24  O4  UNL     1      10.106   9.551   7.938  1.00  0.00    -0.388 OA
ATOM     25  H4  UNL     1       9.528   9.032   7.390  1.00  0.00     0.210 HD
ENDBRANCH  18  24
ENDBRANCH  13  14
TORSDOF 5
ENDMDL
