MODEL 3
REMARK VINA RESULT: -5.732945664      1.340      1.497
REMARK  8 active torsions:
REMARK  status: ('A' for Active; 'I' for Inactive)
REMARK    1  A    between atoms: C1_4  and  C2_5 
REMARK    2  A    between atoms: C1_4  and  N3_15 
REMARK    3  A    between atoms: C2_5  and  C3_6 
REMARK    4  A    between atoms: C3_6  and  S1_7 
REMARK    5  A    between atoms: S1_7  and  C4_8 
REMARK    6  A    between atoms: C4_8  and  C5_9 
REMARK    7  A    between atoms: N3_15  and  S3_17 
REMARK    8  A    between atoms: S3_17  and  N4_18 
ROOT
HETATM    1  N1  UNL     1      -6.580   3.465  16.477  1.00  0.00    -0.388 N 
ATOM      2  H11 UNL     1      -7.046   2.757  17.045  1.00  0.00     0.157 HD
ATOM      3  H12 UNL     1      -6.711   4.442  16.737  1.00  0.00     0.157 HD
HETATM    4  C1  UNL     1      -5.853   3.191  15.461  1.00  0.00     0.086 C 
ENDROOT
BRANCH   4   5
HETATM    5  C2  UNL     1      -5.179   4.214  14.639  1.00  0.00     0.087 C 
BRANCH   5   6
HETATM    6  C3  UNL     1      -3.681   4.281  14.872  1.00  0.00     0.081 C 
BRANCH   6   7
HETATM    7  S1  UNL     1      -2.946   4.157  13.193  1.00  0.00    -0.163 SA
BRANCH   7   8
HETATM    8  C4  UNL     1      -4.181   3.358  12.137  1.00  0.00     0.131 C 
BRANCH   8   9
HETATM    9  C5  UNL     1      -3.686   1.973  11.762  1.00  0.00     0.025 A 
HETATM   10  C6  UNL     1      -4.580   0.934  11.681  1.00  0.00     0.076 A 
HETATM   11  S2  UNL     1      -3.546  -0.361  11.240  1.00  0.00    -0.095 SA
HETATM   12  C7  UNL     1      -2.071   0.494  11.191  1.00  0.00     0.138 A 
HETATM   13  N2  UNL     1      -2.442   1.724  11.512  1.00  0.00    -0.362 N 
ATOM     14  H2  UNL     1      -1.750   2.472  11.562  1.00  0.00     0.165 HD
ENDBRANCH   8   9
ENDBRANCH   7   8
ENDBRANCH   6   7
ENDBRANCH   5   6
ENDBRANCH   4   5
BRANCH   4  15
HETATM   15  N3  UNL     1      -5.671   1.830  15.100  1.00  0.00    -0.257 N 
ATOM     16  H3  UNL     1      -6.132   1.503  14.250  1.00  0.00     0.181 HD
BRANCH  15  17
HETATM   17  S3  UNL     1      -4.741   0.695  15.975  1.00  0.00     0.318 S 
HETATM   18  O1  UNL     1      -4.578  -0.565  15.126  1.00  0.00    -0.183 OA
HETATM   19  O2  UNL     1      -3.403   1.174  16.366  1.00  0.00    -0.183 OA
BRANCH  17  20
HETATM   20  N4  UNL     1      -5.685   0.192  17.340  1.00  0.00    -0.311 N 
ATOM     21  H42 UNL     1      -6.702   0.115  17.361  1.00  0.00     0.170 HD
ATOM     22  H41 UNL     1      -5.037  -0.009  18.101  1.00  0.00     0.170 HD
ENDBRANCH  17  20
ENDBRANCH  15  17
ENDBRANCH   4  15
TORSDOF 8
ENDMDL
