MODEL 2
REMARK VINA RESULT: -5.736784172      0.927      1.096
REMARK  8 active torsions:
REMARK  status: ('A' for Active; 'I' for Inactive)
REMARK    1  A    between atoms: C1_4  and  C2_5 
REMARK    2  A    between atoms: C1_4  and  N3_15 
REMARK    3  A    between atoms: C2_5  and  C3_6 
REMARK    4  A    between atoms: C3_6  and  S1_7 
REMARK    5  A    between atoms: S1_7  and  C4_8 
REMARK    6  A    between atoms: C4_8  and  C5_9 
REMARK    7  A    between atoms: N3_15  and  S3_17 
REMARK    8  A    between atoms: S3_17  and  N4_18 
ROOT
HETATM    1  N1  UNL     1      -3.418   3.374  15.220  1.00  0.00    -0.388 N 
ATOM      2  H11 UNL     1      -2.959   2.675  15.804  1.00  0.00     0.157 HD
ATOM      3  H12 UNL     1      -2.863   4.171  14.911  1.00  0.00     0.157 HD
HETATM    4  C1  UNL     1      -4.646   3.306  14.868  1.00  0.00     0.086 C 
ENDROOT
BRANCH   4   5
HETATM    5  C2  UNL     1      -5.310   4.317  14.023  1.00  0.00     0.087 C 
BRANCH   5   6
HETATM    6  C3  UNL     1      -4.336   5.242  13.316  1.00  0.00     0.081 C 
BRANCH   6   7
HETATM    7  S1  UNL     1      -4.119   4.497  11.650  1.00  0.00    -0.163 SA
BRANCH   7   8
HETATM    8  C4  UNL     1      -2.667   3.419  11.742  1.00  0.00     0.131 C 
BRANCH   8   9
HETATM    9  C5  UNL     1      -3.100   1.987  11.487  1.00  0.00     0.025 A 
HETATM   10  C6  UNL     1      -2.160   1.047  11.144  1.00  0.00     0.076 A 
HETATM   11  S2  UNL     1      -3.136  -0.352  10.974  1.00  0.00    -0.095 SA
HETATM   12  C7  UNL     1      -4.649   0.343  11.344  1.00  0.00     0.138 A 
HETATM   13  N2  UNL     1      -4.332   1.608  11.580  1.00  0.00    -0.362 N 
ATOM     14  H2  UNL     1      -5.058   2.279  11.833  1.00  0.00     0.165 HD
ENDBRANCH   8   9
ENDBRANCH   7   8
ENDBRANCH   6   7
ENDBRANCH   5   6
ENDBRANCH   4   5
BRANCH   4  15
HETATM   15  N3  UNL     1      -5.418   2.195  15.298  1.00  0.00    -0.257 N 
ATOM     16  H3  UNL     1      -6.433   2.269  15.217  1.00  0.00     0.181 HD
BRANCH  15  17
HETATM   17  S3  UNL     1      -4.785   0.744  15.941  1.00  0.00     0.318 S 
HETATM   18  O1  UNL     1      -4.868  -0.344  14.871  1.00  0.00    -0.183 OA
HETATM   19  O2  UNL     1      -3.390   0.840  16.406  1.00  0.00    -0.183 OA
BRANCH  17  20
HETATM   20  N4  UNL     1      -5.862   0.218  17.194  1.00  0.00    -0.311 N 
ATOM     21  H42 UNL     1      -6.839   0.494  17.290  1.00  0.00     0.170 HD
ATOM     22  H41 UNL     1      -5.338  -0.409  17.804  1.00  0.00     0.170 HD
ENDBRANCH  17  20
ENDBRANCH  15  17
ENDBRANCH   4  15
TORSDOF 8
ENDMDL
