MODEL 1
REMARK VINA RESULT: -5.791860249      0.000      0.000
REMARK  8 active torsions:
REMARK  status: ('A' for Active; 'I' for Inactive)
REMARK    1  A    between atoms: C1_4  and  C2_5 
REMARK    2  A    between atoms: C1_4  and  N3_15 
REMARK    3  A    between atoms: C2_5  and  C3_6 
REMARK    4  A    between atoms: C3_6  and  S1_7 
REMARK    5  A    between atoms: S1_7  and  C4_8 
REMARK    6  A    between atoms: C4_8  and  C5_9 
REMARK    7  A    between atoms: N3_15  and  S3_17 
REMARK    8  A    between atoms: S3_17  and  N4_18 
ROOT
HETATM    1  N1  UNL     1      -3.129   3.399  15.257  1.00  0.00    -0.388 N 
ATOM      2  H11 UNL     1      -2.654   2.558  15.586  1.00  0.00     0.157 HD
ATOM      3  H12 UNL     1      -2.624   4.282  15.320  1.00  0.00     0.157 HD
HETATM    4  C1  UNL     1      -4.317   3.401  14.784  1.00  0.00     0.086 C 
ENDROOT
BRANCH   4   5
HETATM    5  C2  UNL     1      -5.004   4.618  14.309  1.00  0.00     0.087 C 
BRANCH   5   6
HETATM    6  C3  UNL     1      -4.074   5.604  13.625  1.00  0.00     0.081 C 
BRANCH   6   7
HETATM    7  S1  UNL     1      -4.110   5.119  11.853  1.00  0.00    -0.163 SA
BRANCH   7   8
HETATM    8  C4  UNL     1      -2.736   3.968  11.597  1.00  0.00     0.131 C 
BRANCH   8   9
HETATM    9  C5  UNL     1      -3.290   2.559  11.479  1.00  0.00     0.025 A 
HETATM   10  C6  UNL     1      -4.547   2.368  10.960  1.00  0.00     0.076 A 
HETATM   11  S2  UNL     1      -4.686   0.661  11.044  1.00  0.00    -0.095 SA
HETATM   12  C7  UNL     1      -3.160   0.314  11.723  1.00  0.00     0.138 A 
HETATM   13  N2  UNL     1      -2.622   1.517  11.850  1.00  0.00    -0.362 N 
ATOM     14  H2  UNL     1      -1.685   1.621  12.240  1.00  0.00     0.165 HD
ENDBRANCH   8   9
ENDBRANCH   7   8
ENDBRANCH   6   7
ENDBRANCH   5   6
ENDBRANCH   4   5
BRANCH   4  15
HETATM   15  N3  UNL     1      -5.019   2.171  14.698  1.00  0.00    -0.257 N 
ATOM     16  H3  UNL     1      -5.750   2.096  13.990  1.00  0.00     0.181 HD
BRANCH  15  17
HETATM   17  S3  UNL     1      -4.738   0.804  15.684  1.00  0.00     0.318 S 
HETATM   18  O1  UNL     1      -4.800  -0.450  14.814  1.00  0.00    -0.183 OA
HETATM   19  O2  UNL     1      -3.447   0.820  16.395  1.00  0.00    -0.183 OA
BRANCH  17  20
HETATM   20  N4  UNL     1      -6.085   0.660  16.768  1.00  0.00    -0.311 N 
ATOM     21  H42 UNL     1      -6.472  -0.216  17.119  1.00  0.00     0.170 HD
ATOM     22  H41 UNL     1      -6.406   1.604  16.981  1.00  0.00     0.170 HD
ENDBRANCH  17  20
ENDBRANCH  15  17
ENDBRANCH   4  15
TORSDOF 8
ENDMDL
