MODEL 20
REMARK VINA RESULT: -5.465532488      4.036      4.856
REMARK  9 active torsions:
REMARK  status: ('A' for Active; 'I' for Inactive)
REMARK    1  A    between atoms: C1_4  and  C2_5 
REMARK    2  A    between atoms: C1_4  and  N6_22 
REMARK    3  A    between atoms: C2_5  and  C3_6 
REMARK    4  A    between atoms: C3_6  and  S1_7 
REMARK    5  A    between atoms: S1_7  and  C4_8 
REMARK    6  A    between atoms: C4_8  and  C5_9 
REMARK    7  A    between atoms: C7_12  and  N2_13 
REMARK       I    between atoms: N2_13  and  C8_15 
REMARK    8  A    between atoms: N6_22  and  S3_24 
REMARK    9  A    between atoms: S3_24  and  N7_25 
ROOT
HETATM    1  S1  UNL     1     -20.109  37.857  44.774  1.00  0.00    -0.163 SA
ENDROOT
BRANCH   1   2
HETATM    2  C3  UNL     1     -19.913  37.333  43.048  1.00  0.00     0.081 C 
BRANCH   2   3
HETATM    3  C2  UNL     1     -18.513  37.672  42.581  1.00  0.00     0.087 C 
BRANCH   3   4
HETATM    4  C1  UNL     1     -17.678  36.458  42.503  1.00  0.00     0.086 C 
HETATM    5  N1  UNL     1     -17.070  36.023  43.545  1.00  0.00    -0.388 N 
ATOM      6  H12 UNL     1     -17.193  36.545  44.413  1.00  0.00     0.157 HD
ATOM      7  H11 UNL     1     -16.493  35.184  43.491  1.00  0.00     0.157 HD
BRANCH   4   8
HETATM    8  N6  UNL     1     -17.505  35.727  41.289  1.00  0.00    -0.257 N 
ATOM      9  H6  UNL     1     -17.996  36.034  40.449  1.00  0.00     0.181 HD
BRANCH   8  10
HETATM   10  S3  UNL     1     -16.492  34.343  41.209  1.00  0.00     0.318 S 
HETATM   11  O1  UNL     1     -17.139  33.212  41.949  1.00  0.00    -0.183 OA
HETATM   12  O2  UNL     1     -15.154  34.594  41.839  1.00  0.00    -0.183 OA
BRANCH  10  13
HETATM   13  N7  UNL     1     -16.189  33.877  39.555  1.00  0.00    -0.311 N 
ATOM     14  H72 UNL     1     -15.872  34.527  38.835  1.00  0.00     0.170 HD
ATOM     15  H71 UNL     1     -16.370  32.884  39.413  1.00  0.00     0.170 HD
ENDBRANCH  10  13
ENDBRANCH   8  10
ENDBRANCH   4   8
ENDBRANCH   3   4
ENDBRANCH   2   3
ENDBRANCH   1   2
BRANCH   1  16
HETATM   16  C4  UNL     1     -21.800  38.429  45.093  1.00  0.00     0.131 C 
BRANCH  16  17
HETATM   17  C5  UNL     1     -22.593  37.313  45.756  1.00  0.00     0.027 A 
HETATM   18  C6  UNL     1     -22.627  36.054  45.204  1.00  0.00     0.079 A 
HETATM   19  S2  UNL     1     -23.628  35.223  46.306  1.00  0.00    -0.064 SA
HETATM   20  C7  UNL     1     -23.941  36.504  47.389  1.00  0.00     0.151 A 
HETATM   21  N5  UNL     1     -23.260  37.504  46.848  1.00  0.00    -0.339 N 
ATOM     22  H5  UNL     1     -23.262  38.422  47.291  1.00  0.00     0.168 HD
BRANCH  20  23
HETATM   23  N2  UNL     1     -24.741  36.524  48.596  1.00  0.00    -0.311 N 
HETATM   24  C8  UNL     1     -26.068  36.990  48.587  1.00  0.00     0.187 C 
HETATM   25  N3  UNL     1     -26.529  37.725  49.704  1.00  0.00    -0.064 NA
HETATM   26  N4  UNL     1     -26.818  36.740  47.587  1.00  0.00    -0.373 N 
ATOM     27  H42 UNL     1     -26.485  36.210  46.783  1.00  0.00     0.158 HD
ATOM     28  H41 UNL     1     -27.780  37.078  47.580  1.00  0.00     0.158 HD
ATOM     29  H2  UNL     1     -24.333  36.193  49.471  1.00  0.00     0.170 HD
ENDBRANCH  20  23
ENDBRANCH  16  17
ENDBRANCH   1  16
TORSDOF 9
ENDMDL
