MODEL 1
REMARK VINA RESULT: -5.793837842      0.000      0.000
REMARK  9 active torsions:
REMARK  status: ('A' for Active; 'I' for Inactive)
REMARK    1  A    between atoms: C1_4  and  C2_5 
REMARK    2  A    between atoms: C1_4  and  N6_22 
REMARK    3  A    between atoms: C2_5  and  C3_6 
REMARK    4  A    between atoms: C3_6  and  S1_7 
REMARK    5  A    between atoms: S1_7  and  C4_8 
REMARK    6  A    between atoms: C4_8  and  C5_9 
REMARK    7  A    between atoms: C7_12  and  N2_13 
REMARK       I    between atoms: N2_13  and  C8_15 
REMARK    8  A    between atoms: N6_22  and  S3_24 
REMARK    9  A    between atoms: S3_24  and  N7_25 
ROOT
HETATM    1  S1  UNL     1     -20.151  37.422  44.893  1.00  0.00    -0.163 SA
ENDROOT
BRANCH   1   2
HETATM    2  C3  UNL     1     -19.878  37.371  43.100  1.00  0.00     0.081 C 
BRANCH   2   3
HETATM    3  C2  UNL     1     -18.420  37.664  42.811  1.00  0.00     0.087 C 
BRANCH   3   4
HETATM    4  C1  UNL     1     -17.560  36.561  43.279  1.00  0.00     0.086 C 
HETATM    5  N1  UNL     1     -16.536  36.805  44.012  1.00  0.00    -0.388 N 
ATOM      6  H12 UNL     1     -16.353  37.779  44.252  1.00  0.00     0.157 HD
ATOM      7  H11 UNL     1     -15.941  36.042  44.335  1.00  0.00     0.157 HD
BRANCH   4   8
HETATM    8  N6  UNL     1     -17.816  35.197  42.943  1.00  0.00    -0.257 N 
ATOM      9  H6  UNL     1     -18.573  34.702  43.416  1.00  0.00     0.181 HD
BRANCH   8  10
HETATM   10  S3  UNL     1     -16.882  34.370  41.764  1.00  0.00     0.318 S 
HETATM   11  O1  UNL     1     -17.027  32.892  41.963  1.00  0.00    -0.183 OA
HETATM   12  O2  UNL     1     -15.423  34.705  41.873  1.00  0.00    -0.183 OA
BRANCH  10  13
HETATM   13  N7  UNL     1     -17.377  34.805  40.148  1.00  0.00    -0.311 N 
ATOM     14  H72 UNL     1     -17.418  35.766  39.810  1.00  0.00     0.170 HD
ATOM     15  H71 UNL     1     -17.616  33.978  39.601  1.00  0.00     0.170 HD
ENDBRANCH  10  13
ENDBRANCH   8  10
ENDBRANCH   4   8
ENDBRANCH   3   4
ENDBRANCH   2   3
ENDBRANCH   1   2
BRANCH   1  16
HETATM   16  C4  UNL     1     -20.394  35.754  45.562  1.00  0.00     0.131 C 
BRANCH  16  17
HETATM   17  C5  UNL     1     -19.409  35.518  46.697  1.00  0.00     0.027 A 
HETATM   18  C6  UNL     1     -18.566  36.522  47.113  1.00  0.00     0.079 A 
HETATM   19  S2  UNL     1     -17.699  35.746  48.360  1.00  0.00    -0.064 SA
HETATM   20  C7  UNL     1     -18.447  34.214  48.282  1.00  0.00     0.151 A 
HETATM   21  N5  UNL     1     -19.324  34.377  47.302  1.00  0.00    -0.339 N 
ATOM     22  H5  UNL     1     -19.930  33.605  47.024  1.00  0.00     0.168 HD
BRANCH  20  23
HETATM   23  N2  UNL     1     -18.206  33.023  49.069  1.00  0.00    -0.311 N 
HETATM   24  C8  UNL     1     -18.491  32.986  50.447  1.00  0.00     0.187 C 
HETATM   25  N3  UNL     1     -17.613  32.271  51.295  1.00  0.00    -0.064 NA
HETATM   26  N4  UNL     1     -19.521  33.587  50.895  1.00  0.00    -0.373 N 
ATOM     27  H42 UNL     1     -20.153  34.102  50.284  1.00  0.00     0.158 HD
ATOM     28  H41 UNL     1     -19.727  33.560  51.893  1.00  0.00     0.158 HD
ATOM     29  H2  UNL     1     -17.821  32.194  48.616  1.00  0.00     0.170 HD
ENDBRANCH  20  23
ENDBRANCH  16  17
ENDBRANCH   1  16
TORSDOF 9
ENDMDL
