MODEL 15
REMARK VINA RESULT: -5.577297064      3.610      4.239
REMARK  9 active torsions:
REMARK  status: ('A' for Active; 'I' for Inactive)
REMARK    1  A    between atoms: C1_4  and  C2_5 
REMARK    2  A    between atoms: C1_4  and  N6_22 
REMARK    3  A    between atoms: C2_5  and  C3_6 
REMARK    4  A    between atoms: C3_6  and  S1_7 
REMARK    5  A    between atoms: S1_7  and  C4_8 
REMARK    6  A    between atoms: C4_8  and  C5_9 
REMARK    7  A    between atoms: C7_12  and  N2_13 
REMARK       I    between atoms: N2_13  and  C8_15 
REMARK    8  A    between atoms: N6_22  and  S3_24 
REMARK    9  A    between atoms: S3_24  and  N7_25 
ROOT
HETATM    1  S1  UNL     1     -17.804  37.044  45.805  1.00  0.00    -0.163 SA
ENDROOT
BRANCH   1   2
HETATM    2  C3  UNL     1     -17.356  36.665  44.089  1.00  0.00     0.081 C 
BRANCH   2   3
HETATM    3  C2  UNL     1     -18.130  35.447  43.629  1.00  0.00     0.087 C 
BRANCH   3   4
HETATM    4  C1  UNL     1     -17.516  34.857  42.425  1.00  0.00     0.086 C 
HETATM    5  N1  UNL     1     -17.442  33.583  42.294  1.00  0.00    -0.388 N 
ATOM      6  H12 UNL     1     -17.824  33.012  43.048  1.00  0.00     0.157 HD
ATOM      7  H11 UNL     1     -17.017  33.176  41.461  1.00  0.00     0.157 HD
BRANCH   4   8
HETATM    8  N6  UNL     1     -16.981  35.657  41.370  1.00  0.00    -0.257 N 
ATOM      9  H6  UNL     1     -16.752  36.635  41.554  1.00  0.00     0.181 HD
BRANCH   8  10
HETATM   10  S3  UNL     1     -16.714  35.014  39.801  1.00  0.00     0.318 S 
HETATM   11  O1  UNL     1     -15.962  33.724  39.915  1.00  0.00    -0.183 OA
HETATM   12  O2  UNL     1     -15.901  35.943  38.948  1.00  0.00    -0.183 OA
BRANCH  10  13
HETATM   13  N7  UNL     1     -18.222  34.752  38.962  1.00  0.00    -0.311 N 
ATOM     14  H72 UNL     1     -19.061  35.308  39.123  1.00  0.00     0.170 HD
ATOM     15  H71 UNL     1     -18.146  33.979  38.301  1.00  0.00     0.170 HD
ENDBRANCH  10  13
ENDBRANCH   8  10
ENDBRANCH   4   8
ENDBRANCH   3   4
ENDBRANCH   2   3
ENDBRANCH   1   2
BRANCH   1  16
HETATM   16  C4  UNL     1     -19.154  38.254  45.873  1.00  0.00     0.131 C 
BRANCH  16  17
HETATM   17  C5  UNL     1     -20.425  37.620  45.329  1.00  0.00     0.027 A 
HETATM   18  C6  UNL     1     -20.890  37.945  44.076  1.00  0.00     0.079 A 
HETATM   19  S2  UNL     1     -22.298  36.989  43.974  1.00  0.00    -0.064 SA
HETATM   20  C7  UNL     1     -22.216  36.241  45.506  1.00  0.00     0.151 A 
HETATM   21  N5  UNL     1     -21.112  36.765  46.017  1.00  0.00    -0.339 N 
ATOM     22  H5  UNL     1     -20.803  36.496  46.951  1.00  0.00     0.168 HD
BRANCH  20  23
HETATM   23  N2  UNL     1     -23.110  35.280  46.118  1.00  0.00    -0.311 N 
HETATM   24  C8  UNL     1     -23.853  35.601  47.269  1.00  0.00     0.187 C 
HETATM   25  N3  UNL     1     -24.040  34.597  48.248  1.00  0.00    -0.064 NA
HETATM   26  N4  UNL     1     -24.337  36.771  47.402  1.00  0.00    -0.373 N 
ATOM     27  H42 UNL     1     -24.202  37.495  46.696  1.00  0.00     0.158 HD
ATOM     28  H41 UNL     1     -24.876  37.004  48.236  1.00  0.00     0.158 HD
ATOM     29  H2  UNL     1     -23.202  34.351  45.706  1.00  0.00     0.170 HD
ENDBRANCH  20  23
ENDBRANCH  16  17
ENDBRANCH   1  16
TORSDOF 9
ENDMDL
