MODEL 5
REMARK VINA RESULT: -5.670487776      3.164      4.196
REMARK  9 active torsions:
REMARK  status: ('A' for Active; 'I' for Inactive)
REMARK    1  A    between atoms: C1_4  and  C2_5 
REMARK    2  A    between atoms: C1_4  and  N6_22 
REMARK    3  A    between atoms: C2_5  and  C3_6 
REMARK    4  A    between atoms: C3_6  and  S1_7 
REMARK    5  A    between atoms: S1_7  and  C4_8 
REMARK    6  A    between atoms: C4_8  and  C5_9 
REMARK    7  A    between atoms: C7_12  and  N2_13 
REMARK       I    between atoms: N2_13  and  C8_15 
REMARK    8  A    between atoms: N6_22  and  S3_24 
REMARK    9  A    between atoms: S3_24  and  N7_25 
ROOT
HETATM    1  S1  UNL     1     -19.386  37.367  43.317  1.00  0.00    -0.163 SA
ENDROOT
BRANCH   1   2
HETATM    2  C3  UNL     1     -18.393  37.998  41.936  1.00  0.00     0.081 C 
BRANCH   2   3
HETATM    3  C2  UNL     1     -18.839  37.326  40.654  1.00  0.00     0.087 C 
BRANCH   3   4
HETATM    4  C1  UNL     1     -17.890  36.269  40.258  1.00  0.00     0.086 C 
HETATM    5  N1  UNL     1     -18.092  35.586  39.190  1.00  0.00    -0.388 N 
ATOM      6  H12 UNL     1     -18.921  35.808  38.641  1.00  0.00     0.157 HD
ATOM      7  H11 UNL     1     -17.435  34.855  38.916  1.00  0.00     0.157 HD
BRANCH   4   8
HETATM    8  N6  UNL     1     -16.729  35.958  41.027  1.00  0.00    -0.257 N 
ATOM      9  H6  UNL     1     -16.217  36.713  41.483  1.00  0.00     0.181 HD
BRANCH   8  10
HETATM   10  S3  UNL     1     -16.172  34.342  41.202  1.00  0.00     0.318 S 
HETATM   11  O1  UNL     1     -14.818  34.351  41.842  1.00  0.00    -0.183 OA
HETATM   12  O2  UNL     1     -16.047  33.649  39.877  1.00  0.00    -0.183 OA
BRANCH  10  13
HETATM   13  N7  UNL     1     -17.279  33.394  42.162  1.00  0.00    -0.311 N 
ATOM     14  H72 UNL     1     -18.028  33.799  42.724  1.00  0.00     0.170 HD
ATOM     15  H71 UNL     1     -17.075  32.398  42.083  1.00  0.00     0.170 HD
ENDBRANCH  10  13
ENDBRANCH   8  10
ENDBRANCH   4   8
ENDBRANCH   3   4
ENDBRANCH   2   3
ENDBRANCH   1   2
BRANCH   1  16
HETATM   16  C4  UNL     1     -18.407  36.264  44.373  1.00  0.00     0.131 C 
BRANCH  16  17
HETATM   17  C5  UNL     1     -18.656  36.612  45.832  1.00  0.00     0.027 A 
HETATM   18  C6  UNL     1     -19.574  35.907  46.574  1.00  0.00     0.079 A 
HETATM   19  S2  UNL     1     -19.465  36.688  48.086  1.00  0.00    -0.064 SA
HETATM   20  C7  UNL     1     -18.277  37.848  47.694  1.00  0.00     0.151 A 
HETATM   21  N5  UNL     1     -18.025  37.576  46.422  1.00  0.00    -0.339 N 
ATOM     22  H5  UNL     1     -17.336  38.125  45.909  1.00  0.00     0.168 HD
BRANCH  20  23
HETATM   23  N2  UNL     1     -17.679  38.878  48.518  1.00  0.00    -0.311 N 
HETATM   24  C8  UNL     1     -17.928  40.242  48.279  1.00  0.00     0.187 C 
HETATM   25  N3  UNL     1     -16.868  41.160  48.464  1.00  0.00    -0.064 NA
HETATM   26  N4  UNL     1     -19.088  40.617  47.910  1.00  0.00    -0.373 N 
ATOM     27  H42 UNL     1     -19.852  39.956  47.777  1.00  0.00     0.158 HD
ATOM     28  H41 UNL     1     -19.269  41.606  47.737  1.00  0.00     0.158 HD
ATOM     29  H2  UNL     1     -17.065  38.609  49.287  1.00  0.00     0.170 HD
ENDBRANCH  20  23
ENDBRANCH  16  17
ENDBRANCH   1  16
TORSDOF 9
ENDMDL
