MODEL 2
REMARK VINA RESULT: -5.781142295      1.259      1.449
REMARK  9 active torsions:
REMARK  status: ('A' for Active; 'I' for Inactive)
REMARK    1  A    between atoms: C1_4  and  C2_5 
REMARK    2  A    between atoms: C1_4  and  N6_22 
REMARK    3  A    between atoms: C2_5  and  C3_6 
REMARK    4  A    between atoms: C3_6  and  S1_7 
REMARK    5  A    between atoms: S1_7  and  C4_8 
REMARK    6  A    between atoms: C4_8  and  C5_9 
REMARK    7  A    between atoms: C7_12  and  N2_13 
REMARK       I    between atoms: N2_13  and  C8_15 
REMARK    8  A    between atoms: N6_22  and  S3_24 
REMARK    9  A    between atoms: S3_24  and  N7_25 
ROOT
HETATM    1  S1  UNL     1     -20.330  37.773  44.240  1.00  0.00    -0.163 SA
ENDROOT
BRANCH   1   2
HETATM    2  C3  UNL     1     -19.598  37.495  42.604  1.00  0.00     0.081 C 
BRANCH   2   3
HETATM    3  C2  UNL     1     -18.108  37.756  42.674  1.00  0.00     0.087 C 
BRANCH   3   4
HETATM    4  C1  UNL     1     -17.403  36.617  43.292  1.00  0.00     0.086 C 
HETATM    5  N1  UNL     1     -16.461  36.821  44.138  1.00  0.00    -0.388 N 
ATOM      6  H12 UNL     1     -16.231  37.789  44.360  1.00  0.00     0.157 HD
ATOM      7  H11 UNL     1     -15.974  36.032  44.565  1.00  0.00     0.157 HD
BRANCH   4   8
HETATM    8  N6  UNL     1     -17.725  35.261  42.982  1.00  0.00    -0.257 N 
ATOM      9  H6  UNL     1     -18.491  34.805  43.479  1.00  0.00     0.181 HD
BRANCH   8  10
HETATM   10  S3  UNL     1     -16.855  34.379  41.792  1.00  0.00     0.318 S 
HETATM   11  O1  UNL     1     -17.068  32.912  42.009  1.00  0.00    -0.183 OA
HETATM   12  O2  UNL     1     -15.380  34.644  41.870  1.00  0.00    -0.183 OA
BRANCH  10  13
HETATM   13  N7  UNL     1     -17.361  34.824  40.183  1.00  0.00    -0.311 N 
ATOM     14  H72 UNL     1     -16.975  34.407  39.335  1.00  0.00     0.170 HD
ATOM     15  H71 UNL     1     -18.081  35.545  40.209  1.00  0.00     0.170 HD
ENDBRANCH  10  13
ENDBRANCH   8  10
ENDBRANCH   4   8
ENDBRANCH   3   4
ENDBRANCH   2   3
ENDBRANCH   1   2
BRANCH   1  16
HETATM   16  C4  UNL     1     -20.556  36.207  45.127  1.00  0.00     0.131 C 
BRANCH  16  17
HETATM   17  C5  UNL     1     -19.906  36.307  46.499  1.00  0.00     0.027 A 
HETATM   18  C6  UNL     1     -20.510  37.014  47.512  1.00  0.00     0.079 A 
HETATM   19  S2  UNL     1     -19.392  36.815  48.783  1.00  0.00    -0.064 SA
HETATM   20  C7  UNL     1     -18.238  35.858  47.967  1.00  0.00     0.151 A 
HETATM   21  N5  UNL     1     -18.771  35.741  46.760  1.00  0.00    -0.339 N 
ATOM     22  H5  UNL     1     -18.289  35.208  46.037  1.00  0.00     0.168 HD
BRANCH  20  23
HETATM   23  N2  UNL     1     -16.989  35.304  48.444  1.00  0.00    -0.311 N 
HETATM   24  C8  UNL     1     -16.958  34.136  49.229  1.00  0.00     0.187 C 
HETATM   25  N3  UNL     1     -16.007  34.055  50.273  1.00  0.00    -0.064 NA
HETATM   26  N4  UNL     1     -17.774  33.189  48.985  1.00  0.00    -0.373 N 
ATOM     27  H42 UNL     1     -18.459  33.248  48.232  1.00  0.00     0.158 HD
ATOM     28  H41 UNL     1     -17.752  32.344  49.553  1.00  0.00     0.158 HD
ATOM     29  H2  UNL     1     -16.113  35.769  48.206  1.00  0.00     0.170 HD
ENDBRANCH  20  23
ENDBRANCH  16  17
ENDBRANCH   1  16
TORSDOF 9
ENDMDL
