MODEL 10
REMARK VINA RESULT: -4.605284494      1.912      4.137
REMARK  6 active torsions:
REMARK  status: ('A' for Active; 'I' for Inactive)
REMARK    1  A    between atoms: O1_2  and  C2_3 
REMARK    2  A    between atoms: C2_3  and  C3_4 
REMARK    3  A    between atoms: C4_6  and  O3_7 
REMARK    4  A    between atoms: C5_9  and  O4_10 
REMARK    5  A    between atoms: C6_12  and  O5_13 
REMARK    6  A    between atoms: C7_15  and  O6_16 
ROOT
HETATM    1  C3  UNL     1      54.139   7.317 121.992  1.00  0.00     0.179 C 
HETATM    2  O2  UNL     1      55.233   8.198 122.098  1.00  0.00    -0.349 OA
HETATM    3  C4  UNL     1      55.234   8.570 123.463  1.00  0.00     0.288 C 
HETATM    4  C5  UNL     1      54.244   9.674 123.594  1.00  0.00     0.204 C 
HETATM    5  C6  UNL     1      52.937   9.284 123.004  1.00  0.00     0.183 C 
HETATM    6  C7  UNL     1      52.862   7.930 122.425  1.00  0.00     0.180 C 
ENDROOT
BRANCH   1   7
HETATM    7  C2  UNL     1      54.081   6.729 120.596  1.00  0.00     0.201 C 
BRANCH   7   8
HETATM    8  O1  UNL     1      54.528   7.687 119.683  1.00  0.00    -0.393 OA
HETATM    9  C1  UNL     1      55.280   7.031 118.689  1.00  0.00     0.201 C 
ENDBRANCH   7   8
ENDBRANCH   1   7
BRANCH   6  10
HETATM   10  O6  UNL     1      52.008   7.975 121.297  1.00  0.00    -0.390 OA
ATOM     11  H6  UNL     1      51.132   8.171 121.609  1.00  0.00     0.210 HD
ENDBRANCH   6  10
BRANCH   3  12
HETATM   12  O3  UNL     1      56.517   8.914 123.832  1.00  0.00    -0.369 OA
ATOM     13  H3  UNL     1      57.041   8.125 123.900  1.00  0.00     0.212 HD
ENDBRANCH   3  12
BRANCH   5  14
HETATM   14  O5  UNL     1      52.506  10.244 122.058  1.00  0.00    -0.390 OA
ATOM     15  H5  UNL     1      52.043   9.827 121.342  1.00  0.00     0.210 HD
ENDBRANCH   5  14
BRANCH   4  16
HETATM   16  O4  UNL     1      54.133  10.100 124.925  1.00  0.00    -0.388 OA
ATOM     17  H4  UNL     1      54.988  10.209 125.322  1.00  0.00     0.210 HD
ENDBRANCH   4  16
TORSDOF 6
ENDMDL
