MODEL 7
REMARK VINA RESULT: -4.714556306      1.700      5.064
REMARK  6 active torsions:
REMARK  status: ('A' for Active; 'I' for Inactive)
REMARK    1  A    between atoms: O1_2  and  C2_3 
REMARK    2  A    between atoms: C2_3  and  C3_4 
REMARK    3  A    between atoms: C4_6  and  O3_7 
REMARK    4  A    between atoms: C5_9  and  O4_10 
REMARK    5  A    between atoms: C6_12  and  O5_13 
REMARK    6  A    between atoms: C7_15  and  O6_16 
ROOT
HETATM    1  C3  UNL     1      53.856   9.947 123.063  1.00  0.00     0.179 C 
HETATM    2  O2  UNL     1      52.826  10.390 122.210  1.00  0.00    -0.349 OA
HETATM    3  C4  UNL     1      53.394  11.504 121.547  1.00  0.00     0.288 C 
HETATM    4  C5  UNL     1      53.226  12.664 122.466  1.00  0.00     0.204 C 
HETATM    5  C6  UNL     1      53.751  12.346 123.819  1.00  0.00     0.183 C 
HETATM    6  C7  UNL     1      54.322  10.998 123.997  1.00  0.00     0.180 C 
ENDROOT
BRANCH   1   7
HETATM    7  C2  UNL     1      53.437   8.668 123.759  1.00  0.00     0.201 C 
BRANCH   7   8
HETATM    8  O1  UNL     1      54.579   7.997 124.202  1.00  0.00    -0.393 OA
HETATM    9  C1  UNL     1      54.687   6.790 123.485  1.00  0.00     0.201 C 
ENDBRANCH   7   8
ENDBRANCH   1   7
BRANCH   6  10
HETATM   10  O6  UNL     1      54.030  10.561 125.310  1.00  0.00    -0.390 OA
ATOM     11  H6  UNL     1      54.844  10.561 125.799  1.00  0.00     0.210 HD
ENDBRANCH   6  10
BRANCH   3  12
HETATM   12  O3  UNL     1      52.778  11.658 120.323  1.00  0.00    -0.369 OA
ATOM     13  H3  UNL     1      52.875  12.559 120.041  1.00  0.00     0.212 HD
ENDBRANCH   3  12
BRANCH   5  14
HETATM   14  O5  UNL     1      52.772  12.595 124.809  1.00  0.00    -0.390 OA
ATOM     15  H5  UNL     1      53.175  12.712 125.661  1.00  0.00     0.210 HD
ENDBRANCH   5  14
BRANCH   4  16
HETATM   16  O4  UNL     1      53.791  13.825 121.923  1.00  0.00    -0.388 OA
ATOM     17  H4  UNL     1      53.719  14.556 122.526  1.00  0.00     0.210 HD
ENDBRANCH   4  16
TORSDOF 6
ENDMDL
