MODEL 4
REMARK VINA RESULT: -4.907707183      1.223      2.834
REMARK  6 active torsions:
REMARK  status: ('A' for Active; 'I' for Inactive)
REMARK    1  A    between atoms: O1_2  and  C2_3 
REMARK    2  A    between atoms: C2_3  and  C3_4 
REMARK    3  A    between atoms: C4_6  and  O3_7 
REMARK    4  A    between atoms: C5_9  and  O4_10 
REMARK    5  A    between atoms: C6_12  and  O5_13 
REMARK    6  A    between atoms: C7_15  and  O6_16 
ROOT
HETATM    1  C3  UNL     1      53.959   9.123 123.098  1.00  0.00     0.179 C 
HETATM    2  O2  UNL     1      54.700   9.238 121.906  1.00  0.00    -0.349 OA
HETATM    3  C4  UNL     1      54.048   8.352 121.017  1.00  0.00     0.288 C 
HETATM    4  C5  UNL     1      54.594   6.997 121.306  1.00  0.00     0.204 C 
HETATM    5  C6  UNL     1      54.498   6.687 122.757  1.00  0.00     0.183 C 
HETATM    6  C7  UNL     1      53.901   7.734 123.608  1.00  0.00     0.180 C 
ENDROOT
BRANCH   1   7
HETATM    7  C2  UNL     1      54.468  10.118 124.122  1.00  0.00     0.201 C 
BRANCH   7   8
HETATM    8  O1  UNL     1      53.381  10.634 124.831  1.00  0.00    -0.393 OA
HETATM    9  C1  UNL     1      53.500  12.038 124.860  1.00  0.00     0.201 C 
ENDBRANCH   7   8
ENDBRANCH   1   7
BRANCH   6  10
HETATM   10  O6  UNL     1      54.555   7.713 124.862  1.00  0.00    -0.390 OA
ATOM     11  H6  UNL     1      54.427   8.563 125.266  1.00  0.00     0.210 HD
ENDBRANCH   6  10
BRANCH   3  12
HETATM   12  O3  UNL     1      54.256   8.781 119.724  1.00  0.00    -0.369 OA
ATOM     13  H3  UNL     1      53.756   8.232 119.132  1.00  0.00     0.212 HD
ENDBRANCH   3  12
BRANCH   5  14
HETATM   14  O5  UNL     1      55.756   6.299 123.272  1.00  0.00    -0.390 OA
ATOM     15  H5  UNL     1      55.776   6.386 124.217  1.00  0.00     0.210 HD
ENDBRANCH   5  14
BRANCH   4  16
HETATM   16  O4  UNL     1      53.985   6.024 120.503  1.00  0.00    -0.388 OA
ATOM     17  H4  UNL     1      53.920   6.315 119.601  1.00  0.00     0.210 HD
ENDBRANCH   4  16
TORSDOF 6
ENDMDL
