MODEL 14
REMARK VINA RESULT: -4.471527767      5.826      7.595
REMARK  6 active torsions:
REMARK  status: ('A' for Active; 'I' for Inactive)
REMARK    1  A    between atoms: O1_2  and  C2_3 
REMARK    2  A    between atoms: C2_3  and  C3_4 
REMARK    3  A    between atoms: C4_6  and  O3_7 
REMARK    4  A    between atoms: C5_9  and  O4_10 
REMARK    5  A    between atoms: C6_12  and  O5_13 
REMARK    6  A    between atoms: C7_15  and  O6_16 
ROOT
HETATM    1  C3  UNL     1      51.736  10.710 117.954  1.00  0.00     0.179 C 
HETATM    2  O2  UNL     1      52.218  11.289 116.764  1.00  0.00    -0.349 OA
HETATM    3  C4  UNL     1      51.044  11.562 116.023  1.00  0.00     0.288 C 
HETATM    4  C5  UNL     1      50.680  10.291 115.338  1.00  0.00     0.204 C 
HETATM    5  C6  UNL     1      50.618   9.167 116.309  1.00  0.00     0.183 C 
HETATM    6  C7  UNL     1      50.911   9.503 117.714  1.00  0.00     0.180 C 
ENDROOT
BRANCH   1   7
HETATM    7  C2  UNL     1      52.884  10.473 118.915  1.00  0.00     0.201 C 
BRANCH   7   8
HETATM    8  O1  UNL     1      52.396  10.518 120.223  1.00  0.00    -0.393 OA
HETATM    9  C1  UNL     1      53.263  11.320 120.990  1.00  0.00     0.201 C 
ENDBRANCH   7   8
ENDBRANCH   1   7
BRANCH   6  10
HETATM   10  O6  UNL     1      51.582   8.406 118.303  1.00  0.00    -0.390 OA
ATOM     11  H6  UNL     1      50.921   7.818 118.649  1.00  0.00     0.210 HD
ENDBRANCH   6  10
BRANCH   3  12
HETATM   12  O3  UNL     1      51.289  12.615 115.168  1.00  0.00    -0.369 OA
ATOM     13  H3  UNL     1      51.851  13.243 115.605  1.00  0.00     0.212 HD
ENDBRANCH   3  12
BRANCH   5  14
HETATM   14  O5  UNL     1      51.431   8.091 115.884  1.00  0.00    -0.390 OA
ATOM     15  H5  UNL     1      51.759   8.242 115.005  1.00  0.00     0.210 HD
ENDBRANCH   5  14
BRANCH   4  16
HETATM   16  O4  UNL     1      49.499  10.435 114.598  1.00  0.00    -0.388 OA
ATOM     17  H4  UNL     1      49.470   9.820 113.875  1.00  0.00     0.210 HD
ENDBRANCH   4  16
TORSDOF 6
ENDMDL
