MODEL 9
REMARK VINA RESULT: -7.197066662      3.705      8.825
REMARK  9 active torsions:
REMARK  status: ('A' for Active; 'I' for Inactive)
REMARK    1  A    between atoms: N1_1  and  S1_4 
REMARK    2  A    between atoms: S1_4  and  C1_7 
REMARK    3  A    between atoms: C4_12  and  S2_13 
REMARK    4  A    between atoms: S2_13  and  C5_14 
REMARK    5  A    between atoms: C5_14  and  C6_15 
REMARK    6  A    between atoms: C6_15  and  C7_16 
REMARK    7  A    between atoms: C10_19  and  C11_20 
REMARK    8  A    between atoms: C15_27  and  N2_28 
REMARK    9  A    between atoms: N2_28  and  C16_30 
ROOT
HETATM    1  C1  UNL     1      18.819 -22.583 -55.605  1.00  0.00     0.150 A 
HETATM    2  C2  UNL     1      19.949 -22.158 -54.900  1.00  0.00     0.181 A 
HETATM    3  F1  UNL     1      20.784 -21.235 -55.434  1.00  0.00    -0.201 F 
HETATM    4  C3  UNL     1      20.228 -22.672 -53.656  1.00  0.00     0.176 A 
HETATM    5  F2  UNL     1      21.364 -22.235 -53.042  1.00  0.00    -0.201 F 
HETATM    6  C4  UNL     1      19.398 -23.603 -53.101  1.00  0.00     0.083 A 
HETATM    7  C14 UNL     1      18.265 -24.012 -53.837  1.00  0.00     0.164 A 
HETATM    8  F3  UNL     1      17.491 -24.948 -53.227  1.00  0.00    -0.202 F 
HETATM    9  C15 UNL     1      17.963 -23.514 -55.083  1.00  0.00     0.095 A 
ENDROOT
BRANCH   9  10
HETATM   10  N2  UNL     1      16.829 -23.913 -55.800  1.00  0.00    -0.381 N 
ATOM     11  H2  UNL     1      16.158 -23.179 -56.026  1.00  0.00     0.160 HD
BRANCH  10  12
HETATM   12  C16 UNL     1      16.499 -25.237 -56.256  1.00  0.00     0.082 C 
HETATM   13  C17 UNL     1      17.636 -25.958 -56.853  1.00  0.00     0.025 C 
HETATM   14  C18 UNL     1      17.271 -27.024 -57.854  1.00  0.00     0.002 C 
HETATM   15  C19 UNL     1      16.796 -28.255 -57.149  1.00  0.00     0.000 C 
HETATM   16  C20 UNL     1      15.822 -29.059 -58.010  1.00  0.00     0.000 C 
HETATM   17  C21 UNL     1      14.731 -29.628 -57.150  1.00  0.00     0.000 C 
HETATM   18  C22 UNL     1      13.432 -28.852 -57.363  1.00  0.00     0.000 C 
HETATM   19  C23 UNL     1      12.984 -28.197 -56.074  1.00  0.00     0.000 C 
HETATM   20  C24 UNL     1      12.589 -26.759 -56.253  1.00  0.00     0.000 C 
HETATM   21  C25 UNL     1      13.446 -25.812 -55.454  1.00  0.00     0.000 C 
HETATM   22  C26 UNL     1      14.050 -24.726 -56.301  1.00  0.00     0.002 C 
HETATM   23  C27 UNL     1      15.224 -25.291 -57.071  1.00  0.00     0.025 C 
ENDBRANCH  10  12
ENDBRANCH   9  10
BRANCH   1  24
HETATM   24  S1  UNL     1      18.594 -21.931 -57.179  1.00  0.00     0.262 S 
HETATM   25  O1  UNL     1      19.452 -22.730 -58.152  1.00  0.00    -0.201 OA
HETATM   26  O2  UNL     1      17.191 -22.083 -57.688  1.00  0.00    -0.201 OA
BRANCH  24  27
HETATM   27  N1  UNL     1      19.139 -20.314 -57.238  1.00  0.00    -0.324 N 
ATOM     28  H12 UNL     1      20.109 -20.010 -57.143  1.00  0.00     0.169 HD
ATOM     29  H11 UNL     1      18.319 -19.726 -57.383  1.00  0.00     0.169 HD
ENDBRANCH  24  27
ENDBRANCH   1  24
BRANCH   6  30
HETATM   30  S2  UNL     1      19.682 -24.260 -51.487  1.00  0.00    -0.123 SA
BRANCH  30  31
HETATM   31  C5  UNL     1      20.521 -25.808 -51.411  1.00  0.00     0.084 C 
BRANCH  31  32
HETATM   32  C6  UNL     1      19.897 -27.025 -51.962  1.00  0.00     0.049 C 
BRANCH  32  33
HETATM   33  C7  UNL     1      18.966 -27.728 -51.022  1.00  0.00    -0.057 A 
HETATM   34  C8  UNL     1      19.386 -28.454 -49.946  1.00  0.00     0.008 A 
HETATM   35  C9  UNL     1      18.436 -29.092 -49.154  1.00  0.00     0.019 A 
HETATM   36  C10 UNL     1      17.086 -29.032 -49.394  1.00  0.00     0.040 A 
HETATM   37  C12 UNL     1      16.668 -28.297 -50.482  1.00  0.00     0.019 A 
HETATM   38  C13 UNL     1      17.587 -27.665 -51.271  1.00  0.00     0.008 A 
BRANCH  36  39
HETATM   39  C11 UNL     1      16.103 -29.712 -48.544  1.00  0.00     0.209 C 
HETATM   40  O3  UNL     1      16.480 -30.576 -47.728  1.00  0.00    -0.644 OA
HETATM   41  O4  UNL     1      14.767 -29.361 -48.685  1.00  0.00    -0.644 OA
ENDBRANCH  36  39
ENDBRANCH  32  33
ENDBRANCH  31  32
ENDBRANCH  30  31
ENDBRANCH   6  30
TORSDOF 9
ENDMDL
