MODEL 1
REMARK VINA RESULT: -7.679887429      0.000      0.000
REMARK  9 active torsions:
REMARK  status: ('A' for Active; 'I' for Inactive)
REMARK    1  A    between atoms: N1_1  and  S1_4 
REMARK    2  A    between atoms: S1_4  and  C1_7 
REMARK    3  A    between atoms: C4_12  and  S2_13 
REMARK    4  A    between atoms: S2_13  and  C5_14 
REMARK    5  A    between atoms: C5_14  and  C6_15 
REMARK    6  A    between atoms: C6_15  and  C7_16 
REMARK    7  A    between atoms: C10_19  and  C11_20 
REMARK    8  A    between atoms: C15_27  and  N2_28 
REMARK    9  A    between atoms: N2_28  and  C16_30 
ROOT
HETATM    1  C1  UNL     1      13.943 -28.361 -53.704  1.00  0.00     0.150 A 
HETATM    2  C2  UNL     1      13.004 -28.735 -54.671  1.00  0.00     0.181 A 
HETATM    3  F1  UNL     1      11.717 -28.967 -54.323  1.00  0.00    -0.201 F 
HETATM    4  C3  UNL     1      13.378 -28.873 -55.986  1.00  0.00     0.176 A 
HETATM    5  F2  UNL     1      12.418 -29.272 -56.867  1.00  0.00    -0.201 F 
HETATM    6  C4  UNL     1      14.672 -28.643 -56.355  1.00  0.00     0.083 A 
HETATM    7  C14 UNL     1      15.596 -28.268 -55.357  1.00  0.00     0.164 A 
HETATM    8  F3  UNL     1      16.866 -28.066 -55.797  1.00  0.00    -0.202 F 
HETATM    9  C15 UNL     1      15.249 -28.122 -54.034  1.00  0.00     0.095 A 
ENDROOT
BRANCH   9  10
HETATM   10  N2  UNL     1      16.167 -27.733 -53.052  1.00  0.00    -0.381 N 
ATOM     11  H2  UNL     1      16.322 -28.396 -52.292  1.00  0.00     0.160 HD
BRANCH  10  12
HETATM   12  C16 UNL     1      16.919 -26.508 -52.988  1.00  0.00     0.082 C 
HETATM   13  C17 UNL     1      16.200 -25.344 -53.530  1.00  0.00     0.025 C 
HETATM   14  C18 UNL     1      17.074 -24.229 -54.048  1.00  0.00     0.002 C 
HETATM   15  C19 UNL     1      17.617 -23.426 -52.909  1.00  0.00     0.000 C 
HETATM   16  C20 UNL     1      18.955 -22.777 -53.263  1.00  0.00     0.000 C 
HETATM   17  C21 UNL     1      19.870 -22.812 -52.072  1.00  0.00     0.000 C 
HETATM   18  C22 UNL     1      20.950 -23.875 -52.268  1.00  0.00     0.000 C 
HETATM   19  C23 UNL     1      20.853 -24.938 -51.195  1.00  0.00     0.000 C 
HETATM   20  C24 UNL     1      20.923 -26.334 -51.745  1.00  0.00     0.000 C 
HETATM   21  C25 UNL     1      19.676 -27.135 -51.471  1.00  0.00     0.000 C 
HETATM   22  C26 UNL     1      19.087 -27.730 -52.721  1.00  0.00     0.002 C 
HETATM   23  C27 UNL     1      18.343 -26.652 -53.481  1.00  0.00     0.025 C 
ENDBRANCH  10  12
ENDBRANCH   9  10
BRANCH   1  24
HETATM   24  S1  UNL     1      13.394 -28.281 -52.078  1.00  0.00     0.262 S 
HETATM   25  O1  UNL     1      12.574 -29.532 -51.790  1.00  0.00    -0.201 OA
HETATM   26  O2  UNL     1      14.508 -28.310 -51.074  1.00  0.00    -0.201 OA
BRANCH  24  27
HETATM   27  N1  UNL     1      12.358 -26.940 -51.864  1.00  0.00    -0.324 N 
ATOM     28  H12 UNL     1      11.554 -26.710 -52.450  1.00  0.00     0.169 HD
ATOM     29  H11 UNL     1      12.696 -26.425 -51.052  1.00  0.00     0.169 HD
ENDBRANCH  24  27
ENDBRANCH   1  24
BRANCH   6  30
HETATM   30  S2  UNL     1      15.194 -28.759 -58.038  1.00  0.00    -0.123 SA
BRANCH  30  31
HETATM   31  C5  UNL     1      15.275 -27.245 -58.936  1.00  0.00     0.084 C 
BRANCH  31  32
HETATM   32  C6  UNL     1      14.898 -25.973 -58.294  1.00  0.00     0.049 C 
BRANCH  32  33
HETATM   33  C7  UNL     1      16.048 -25.065 -57.984  1.00  0.00    -0.057 A 
HETATM   34  C8  UNL     1      17.329 -25.503 -57.812  1.00  0.00     0.008 A 
HETATM   35  C9  UNL     1      18.319 -24.577 -57.497  1.00  0.00     0.019 A 
HETATM   36  C10 UNL     1      18.080 -23.234 -57.349  1.00  0.00     0.040 A 
HETATM   37  C12 UNL     1      16.785 -22.797 -57.524  1.00  0.00     0.019 A 
HETATM   38  C13 UNL     1      15.800 -23.693 -57.833  1.00  0.00     0.008 A 
BRANCH  36  39
HETATM   39  C11 UNL     1      19.140 -22.275 -57.018  1.00  0.00     0.209 C 
HETATM   40  O3  UNL     1      20.305 -22.480 -57.408  1.00  0.00    -0.644 OA
HETATM   41  O4  UNL     1      18.796 -21.157 -56.270  1.00  0.00    -0.644 OA
ENDBRANCH  36  39
ENDBRANCH  32  33
ENDBRANCH  31  32
ENDBRANCH  30  31
ENDBRANCH   6  30
TORSDOF 9
ENDMDL
