MODEL 3
REMARK VINA RESULT: -7.543914823      4.070      7.802
REMARK  9 active torsions:
REMARK  status: ('A' for Active; 'I' for Inactive)
REMARK    1  A    between atoms: N1_1  and  S1_4 
REMARK    2  A    between atoms: S1_4  and  C1_7 
REMARK    3  A    between atoms: C4_12  and  S2_13 
REMARK    4  A    between atoms: S2_13  and  C5_14 
REMARK    5  A    between atoms: C5_14  and  C6_15 
REMARK    6  A    between atoms: C6_15  and  C7_16 
REMARK    7  A    between atoms: C10_19  and  C11_20 
REMARK    8  A    between atoms: C15_27  and  N2_28 
REMARK    9  A    between atoms: N2_28  and  C16_30 
ROOT
HETATM    1  C1  UNL     1      19.256 -27.299 -53.396  1.00  0.00     0.150 A 
HETATM    2  C2  UNL     1      20.428 -26.767 -52.849  1.00  0.00     0.181 A 
HETATM    3  F1  UNL     1      21.565 -27.502 -52.818  1.00  0.00    -0.201 F 
HETATM    4  C3  UNL     1      20.441 -25.493 -52.335  1.00  0.00     0.176 A 
HETATM    5  F2  UNL     1      21.609 -25.053 -51.789  1.00  0.00    -0.201 F 
HETATM    6  C4  UNL     1      19.304 -24.737 -52.358  1.00  0.00     0.083 A 
HETATM    7  C14 UNL     1      18.137 -25.301 -52.916  1.00  0.00     0.164 A 
HETATM    8  F3  UNL     1      17.043 -24.494 -52.895  1.00  0.00    -0.202 F 
HETATM    9  C15 UNL     1      18.097 -26.573 -53.437  1.00  0.00     0.095 A 
ENDROOT
BRANCH   9  10
HETATM   10  N2  UNL     1      16.939 -27.120 -54.004  1.00  0.00    -0.381 N 
ATOM     11  H2  UNL     1      16.425 -27.784 -53.426  1.00  0.00     0.160 HD
BRANCH  10  12
HETATM   12  C16 UNL     1      16.389 -26.853 -55.306  1.00  0.00     0.082 C 
HETATM   13  C17 UNL     1      17.397 -26.466 -56.307  1.00  0.00     0.025 C 
HETATM   14  C18 UNL     1      16.885 -25.620 -57.445  1.00  0.00     0.002 C 
HETATM   15  C19 UNL     1      16.156 -26.471 -58.435  1.00  0.00     0.000 C 
HETATM   16  C20 UNL     1      15.090 -25.676 -59.188  1.00  0.00     0.000 C 
HETATM   17  C21 UNL     1      13.872 -26.529 -59.401  1.00  0.00     0.000 C 
HETATM   18  C22 UNL     1      12.753 -26.098 -58.455  1.00  0.00     0.000 C 
HETATM   19  C23 UNL     1      12.377 -27.230 -57.523  1.00  0.00     0.000 C 
HETATM   20  C24 UNL     1      12.267 -26.797 -56.089  1.00  0.00     0.000 C 
HETATM   21  C25 UNL     1      13.249 -27.501 -55.188  1.00  0.00     0.000 C 
HETATM   22  C26 UNL     1      14.083 -26.542 -54.384  1.00  0.00     0.002 C 
HETATM   23  C27 UNL     1      15.166 -25.963 -55.270  1.00  0.00     0.025 C 
ENDBRANCH  10  12
ENDBRANCH   9  10
BRANCH   1  24
HETATM   24  S1  UNL     1      19.324 -28.923 -53.951  1.00  0.00     0.262 S 
HETATM   25  O1  UNL     1      20.336 -29.676 -53.097  1.00  0.00    -0.201 OA
HETATM   26  O2  UNL     1      18.034 -29.667 -53.767  1.00  0.00    -0.201 OA
BRANCH  24  27
HETATM   27  N1  UNL     1      19.885 -28.979 -55.563  1.00  0.00    -0.324 N 
ATOM     28  H12 UNL     1      20.473 -29.711 -55.963  1.00  0.00     0.169 HD
ATOM     29  H11 UNL     1      19.523 -28.151 -56.036  1.00  0.00     0.169 HD
ENDBRANCH  24  27
ENDBRANCH   1  24
BRANCH   6  30
HETATM   30  S2  UNL     1      19.278 -23.077 -51.755  1.00  0.00    -0.123 SA
BRANCH  30  31
HETATM   31  C5  UNL     1      20.012 -21.858 -52.795  1.00  0.00     0.084 C 
BRANCH  31  32
HETATM   32  C6  UNL     1      21.094 -22.222 -53.727  1.00  0.00     0.049 C 
BRANCH  32  33
HETATM   33  C7  UNL     1      22.472 -21.882 -53.245  1.00  0.00    -0.057 A 
HETATM   34  C8  UNL     1      22.852 -21.949 -51.936  1.00  0.00     0.008 A 
HETATM   35  C9  UNL     1      24.150 -21.583 -51.594  1.00  0.00     0.019 A 
HETATM   36  C10 UNL     1      25.081 -21.154 -52.506  1.00  0.00     0.040 A 
HETATM   37  C12 UNL     1      24.692 -21.088 -53.826  1.00  0.00     0.019 A 
HETATM   38  C13 UNL     1      23.421 -21.444 -54.180  1.00  0.00     0.008 A 
BRANCH  36  39
HETATM   39  C11 UNL     1      26.445 -20.774 -52.122  1.00  0.00     0.209 C 
HETATM   40  O3  UNL     1      27.234 -20.341 -52.984  1.00  0.00    -0.644 OA
HETATM   41  O4  UNL     1      26.809 -20.913 -50.789  1.00  0.00    -0.644 OA
ENDBRANCH  36  39
ENDBRANCH  32  33
ENDBRANCH  31  32
ENDBRANCH  30  31
ENDBRANCH   6  30
TORSDOF 9
ENDMDL
