MODEL 2
REMARK VINA RESULT: -7.644565296      3.559      5.708
REMARK  9 active torsions:
REMARK  status: ('A' for Active; 'I' for Inactive)
REMARK    1  A    between atoms: N1_1  and  S1_4 
REMARK    2  A    between atoms: S1_4  and  C1_7 
REMARK    3  A    between atoms: C4_12  and  S2_13 
REMARK    4  A    between atoms: S2_13  and  C5_14 
REMARK    5  A    between atoms: C5_14  and  C6_15 
REMARK    6  A    between atoms: C6_15  and  C7_16 
REMARK    7  A    between atoms: C10_19  and  C11_20 
REMARK    8  A    between atoms: C15_27  and  N2_28 
REMARK    9  A    between atoms: N2_28  and  C16_30 
ROOT
HETATM    1  C1  UNL     1      19.108 -24.849 -53.044  1.00  0.00     0.150 A 
HETATM    2  C2  UNL     1      18.170 -23.910 -53.486  1.00  0.00     0.181 A 
HETATM    3  F1  UNL     1      18.409 -22.585 -53.349  1.00  0.00    -0.201 F 
HETATM    4  C3  UNL     1      16.992 -24.322 -54.063  1.00  0.00     0.176 A 
HETATM    5  F2  UNL     1      16.111 -23.353 -54.439  1.00  0.00    -0.201 F 
HETATM    6  C4  UNL     1      16.734 -25.654 -54.209  1.00  0.00     0.083 A 
HETATM    7  C14 UNL     1      17.700 -26.577 -53.753  1.00  0.00     0.164 A 
HETATM    8  F3  UNL     1      17.370 -27.885 -53.923  1.00  0.00    -0.202 F 
HETATM    9  C15 UNL     1      18.886 -26.192 -53.173  1.00  0.00     0.095 A 
ENDROOT
BRANCH   9  10
HETATM   10  N2  UNL     1      19.847 -27.113 -52.738  1.00  0.00    -0.381 N 
ATOM     11  H2  UNL     1      20.778 -27.017 -53.141  1.00  0.00     0.160 HD
BRANCH  10  12
HETATM   12  C16 UNL     1      19.674 -28.180 -51.788  1.00  0.00     0.082 C 
HETATM   13  C17 UNL     1      19.768 -27.744 -50.385  1.00  0.00     0.025 C 
HETATM   14  C18 UNL     1      20.199 -28.807 -49.407  1.00  0.00     0.002 C 
HETATM   15  C19 UNL     1      19.056 -29.720 -49.098  1.00  0.00     0.000 C 
HETATM   16  C20 UNL     1      19.537 -31.117 -48.706  1.00  0.00     0.000 C 
HETATM   17  C21 UNL     1      18.615 -32.154 -49.280  1.00  0.00     0.000 C 
HETATM   18  C22 UNL     1      19.277 -32.849 -50.469  1.00  0.00     0.000 C 
HETATM   19  C23 UNL     1      18.477 -32.620 -51.733  1.00  0.00     0.000 C 
HETATM   20  C24 UNL     1      19.330 -32.211 -52.900  1.00  0.00     0.000 C 
HETATM   21  C25 UNL     1      18.978 -30.846 -53.432  1.00  0.00     0.000 C 
HETATM   22  C26 UNL     1      20.170 -29.931 -53.506  1.00  0.00     0.002 C 
HETATM   23  C27 UNL     1      20.486 -29.414 -52.118  1.00  0.00     0.025 C 
ENDBRANCH  10  12
ENDBRANCH   9  10
BRANCH   1  24
HETATM   24  S1  UNL     1      20.518 -24.236 -52.276  1.00  0.00     0.262 S 
HETATM   25  O1  UNL     1      20.177 -23.942 -50.820  1.00  0.00    -0.201 OA
HETATM   26  O2  UNL     1      21.640 -25.230 -52.217  1.00  0.00    -0.201 OA
BRANCH  24  27
HETATM   27  N1  UNL     1      20.991 -22.758 -52.990  1.00  0.00    -0.324 N 
ATOM     28  H12 UNL     1      20.838 -22.493 -53.963  1.00  0.00     0.169 HD
ATOM     29  H11 UNL     1      21.447 -22.206 -52.264  1.00  0.00     0.169 HD
ENDBRANCH  24  27
ENDBRANCH   1  24
BRANCH   6  30
HETATM   30  S2  UNL     1      15.260 -26.237 -54.987  1.00  0.00    -0.123 SA
BRANCH  30  31
HETATM   31  C5  UNL     1      15.449 -26.935 -56.594  1.00  0.00     0.084 C 
BRANCH  31  32
HETATM   32  C6  UNL     1      15.501 -26.069 -57.785  1.00  0.00     0.049 C 
BRANCH  32  33
HETATM   33  C7  UNL     1      16.472 -24.932 -57.688  1.00  0.00    -0.057 A 
HETATM   34  C8  UNL     1      17.822 -25.100 -57.582  1.00  0.00     0.008 A 
HETATM   35  C9  UNL     1      18.633 -23.974 -57.468  1.00  0.00     0.019 A 
HETATM   36  C10 UNL     1      18.147 -22.690 -57.456  1.00  0.00     0.040 A 
HETATM   37  C12 UNL     1      16.784 -22.527 -57.563  1.00  0.00     0.019 A 
HETATM   38  C13 UNL     1      15.973 -23.621 -57.676  1.00  0.00     0.008 A 
BRANCH  36  39
HETATM   39  C11 UNL     1      19.021 -21.518 -57.336  1.00  0.00     0.209 C 
HETATM   40  O3  UNL     1      19.412 -20.928 -58.361  1.00  0.00    -0.644 OA
HETATM   41  O4  UNL     1      19.384 -21.104 -56.061  1.00  0.00    -0.644 OA
ENDBRANCH  36  39
ENDBRANCH  32  33
ENDBRANCH  31  32
ENDBRANCH  30  31
ENDBRANCH   6  30
TORSDOF 9
ENDMDL
