MODEL 2
REMARK VINA RESULT: -6.724470160      1.017      1.268
REMARK  4 active torsions:
REMARK  status: ('A' for Active; 'I' for Inactive)
REMARK    1  A    between atoms: N1_2  and  C3_4 
REMARK    2  A    between atoms: C3_4  and  C4_5 
REMARK    3  A    between atoms: C4_5  and  C5_6 
REMARK    4  A    between atoms: C5_6  and  N2_7 
ROOT
HETATM    1  N2  UNL     1     -47.157  10.898  -2.627  1.00  0.00    -0.346 N 
HETATM    2  C6  UNL     1     -48.546  11.260  -2.498  1.00  0.00     0.041 A 
HETATM    3  C7  UNL     1     -48.659  12.455  -1.842  1.00  0.00     0.030 A 
HETATM    4  C8  UNL     1     -49.947  12.968  -1.636  1.00  0.00     0.002 A 
HETATM    5  C9  UNL     1     -51.027  12.261  -2.094  1.00  0.00     0.001 A 
HETATM    6  C10 UNL     1     -50.878  11.060  -2.750  1.00  0.00     0.009 A 
HETATM    7  C11 UNL     1     -49.609  10.512  -2.975  1.00  0.00    -0.031 A 
HETATM    8  C12 UNL     1     -49.725   9.210  -3.663  1.00  0.00     0.045 C 
HETATM    9  C13 UNL     1     -48.568   8.781  -4.481  1.00  0.00     0.045 C 
HETATM   10  C14 UNL     1     -47.315   8.619  -3.717  1.00  0.00    -0.031 A 
HETATM   11  C15 UNL     1     -46.700   7.372  -3.855  1.00  0.00     0.011 A 
HETATM   12  C16 UNL     1     -45.529   7.120  -3.206  1.00  0.00     0.024 A 
HETATM   13  C17 UNL     1     -44.936   8.083  -2.407  1.00  0.00     0.036 A 
HETATM   14 CL1  UNL     1     -43.449   7.742  -1.595  1.00  0.00    -0.084 Cl
HETATM   15  C18 UNL     1     -45.499   9.326  -2.235  1.00  0.00     0.054 A 
HETATM   16  C19 UNL     1     -46.682   9.549  -2.905  1.00  0.00     0.042 A 
ENDROOT
BRANCH   1  17
HETATM   17  C5  UNL     1     -46.176  11.918  -2.487  1.00  0.00     0.131 C 
BRANCH  17  18
HETATM   18  C4  UNL     1     -45.784  12.513  -3.860  1.00  0.00     0.050 C 
BRANCH  18  19
HETATM   19  C3  UNL     1     -45.093  13.847  -3.686  1.00  0.00     0.273 C 
BRANCH  19  20
HETATM   20  N1  UNL     1     -44.749  14.470  -4.920  1.00  0.00     0.080 N 
HETATM   21  C1  UNL     1     -43.568  13.911  -5.548  1.00  0.00     0.309 C 
HETATM   22  C2  UNL     1     -45.856  14.310  -5.842  1.00  0.00     0.309 C 
ENDBRANCH  19  20
ENDBRANCH  18  19
ENDBRANCH  17  18
ENDBRANCH   1  17
TORSDOF 4
ENDMDL
