MODEL 4
REMARK VINA RESULT: -6.563492304      2.866      4.894
REMARK  4 active torsions:
REMARK  status: ('A' for Active; 'I' for Inactive)
REMARK    1  A    between atoms: N1_2  and  C3_4 
REMARK    2  A    between atoms: C3_4  and  C4_5 
REMARK    3  A    between atoms: C4_5  and  C5_6 
REMARK    4  A    between atoms: C5_6  and  N2_7 
ROOT
HETATM    1  N2  UNL     1     -47.427  12.326  -4.862  1.00  0.00    -0.346 N 
HETATM    2  C6  UNL     1     -47.158  13.148  -6.013  1.00  0.00     0.041 A 
HETATM    3  C7  UNL     1     -46.654  14.356  -5.618  1.00  0.00     0.030 A 
HETATM    4  C8  UNL     1     -46.324  15.285  -6.614  1.00  0.00     0.002 A 
HETATM    5  C9  UNL     1     -46.517  14.949  -7.928  1.00  0.00     0.001 A 
HETATM    6  C10 UNL     1     -47.028  13.724  -8.293  1.00  0.00     0.009 A 
HETATM    7  C11 UNL     1     -47.371  12.768  -7.328  1.00  0.00    -0.031 A 
HETATM    8  C12 UNL     1     -47.925  11.561  -7.974  1.00  0.00     0.045 C 
HETATM    9  C13 UNL     1     -47.793  10.286  -7.232  1.00  0.00     0.045 C 
HETATM   10  C14 UNL     1     -48.472  10.278  -5.921  1.00  0.00    -0.031 A 
HETATM   11  C15 UNL     1     -49.373   9.226  -5.733  1.00  0.00     0.011 A 
HETATM   12  C16 UNL     1     -50.043   9.112  -4.553  1.00  0.00     0.024 A 
HETATM   13  C17 UNL     1     -49.845  10.026  -3.531  1.00  0.00     0.036 A 
HETATM   14 CL1  UNL     1     -50.704   9.861  -2.040  1.00  0.00    -0.084 Cl
HETATM   15  C18 UNL     1     -48.972  11.079  -3.663  1.00  0.00     0.054 A 
HETATM   16  C19 UNL     1     -48.310  11.166  -4.868  1.00  0.00     0.042 A 
ENDROOT
BRANCH   1  17
HETATM   17  C5  UNL     1     -46.785  12.648  -3.635  1.00  0.00     0.131 C 
BRANCH  17  18
HETATM   18  C4  UNL     1     -45.404  11.963  -3.525  1.00  0.00     0.050 C 
BRANCH  18  19
HETATM   19  C3  UNL     1     -44.489  12.747  -2.610  1.00  0.00     0.273 C 
BRANCH  19  20
HETATM   20  N1  UNL     1     -44.838  14.125  -2.509  1.00  0.00     0.080 N 
HETATM   21  C1  UNL     1     -44.913  14.610  -1.145  1.00  0.00     0.309 C 
HETATM   22  C2  UNL     1     -43.834  14.908  -3.200  1.00  0.00     0.309 C 
ENDBRANCH  19  20
ENDBRANCH  18  19
ENDBRANCH  17  18
ENDBRANCH   1  17
TORSDOF 4
ENDMDL
