MODEL 1
REMARK VINA RESULT: -6.951367920      0.000      0.000
REMARK  4 active torsions:
REMARK  status: ('A' for Active; 'I' for Inactive)
REMARK    1  A    between atoms: N1_2  and  C3_4 
REMARK    2  A    between atoms: C3_4  and  C4_5 
REMARK    3  A    between atoms: C4_5  and  C5_6 
REMARK    4  A    between atoms: C5_6  and  N2_7 
ROOT
HETATM    1  N2  UNL     1     -47.218  10.844  -2.692  1.00  0.00    -0.346 N 
HETATM    2  C6  UNL     1     -48.605  11.197  -2.532  1.00  0.00     0.041 A 
HETATM    3  C7  UNL     1     -48.711  12.389  -1.869  1.00  0.00     0.030 A 
HETATM    4  C8  UNL     1     -49.997  12.893  -1.632  1.00  0.00     0.002 A 
HETATM    5  C9  UNL     1     -51.082  12.181  -2.068  1.00  0.00     0.001 A 
HETATM    6  C10 UNL     1     -50.941  10.984  -2.732  1.00  0.00     0.009 A 
HETATM    7  C11 UNL     1     -49.674  10.444  -2.988  1.00  0.00    -0.031 A 
HETATM    8  C12 UNL     1     -49.798   9.144  -3.677  1.00  0.00     0.045 C 
HETATM    9  C13 UNL     1     -48.657   8.725  -4.522  1.00  0.00     0.045 C 
HETATM   10  C14 UNL     1     -47.386   8.568  -3.787  1.00  0.00    -0.031 A 
HETATM   11  C15 UNL     1     -46.766   7.324  -3.943  1.00  0.00     0.011 A 
HETATM   12  C16 UNL     1     -45.580   7.077  -3.321  1.00  0.00     0.024 A 
HETATM   13  C17 UNL     1     -44.975   8.042  -2.532  1.00  0.00     0.036 A 
HETATM   14 CL1  UNL     1     -43.468   7.707  -1.754  1.00  0.00    -0.084 Cl
HETATM   15  C18 UNL     1     -45.541   9.280  -2.343  1.00  0.00     0.054 A 
HETATM   16  C19 UNL     1     -46.740   9.499  -2.986  1.00  0.00     0.042 A 
ENDROOT
BRANCH   1  17
HETATM   17  C5  UNL     1     -46.240  11.869  -2.571  1.00  0.00     0.131 C 
BRANCH  17  18
HETATM   18  C4  UNL     1     -45.602  12.203  -3.940  1.00  0.00     0.050 C 
BRANCH  18  19
HETATM   19  C3  UNL     1     -46.408  13.260  -4.661  1.00  0.00     0.273 C 
BRANCH  19  20
HETATM   20  N1  UNL     1     -46.725  12.910  -6.005  1.00  0.00     0.080 N 
HETATM   21  C1  UNL     1     -47.748  11.888  -6.117  1.00  0.00     0.309 C 
HETATM   22  C2  UNL     1     -47.208  14.092  -6.689  1.00  0.00     0.309 C 
ENDBRANCH  19  20
ENDBRANCH  18  19
ENDBRANCH  17  18
ENDBRANCH   1  17
TORSDOF 4
ENDMDL
