MODEL 3
REMARK VINA RESULT: -7.346841222      2.303      4.829
REMARK  9 active torsions:
REMARK  status: ('A' for Active; 'I' for Inactive)
REMARK    1  A    between atoms: N1_1  and  S1_4 
REMARK    2  A    between atoms: S1_4  and  C1_7 
REMARK    3  A    between atoms: C4_12  and  S2_13 
REMARK    4  A    between atoms: S2_13  and  C5_14 
REMARK    5  A    between atoms: C5_14  and  C6_15 
REMARK    6  A    between atoms: C6_15  and  C7_16 
REMARK    7  A    between atoms: C10_19  and  C11_20 
REMARK    8  A    between atoms: C15_27  and  N2_28 
REMARK    9  A    between atoms: N2_28  and  C16_30 
ROOT
HETATM    1  C1  UNL     1      15.940 -30.460 -57.947  1.00  0.00     0.150 A 
HETATM    2  C2  UNL     1      15.385 -31.634 -58.448  1.00  0.00     0.181 A 
HETATM    3  F1  UNL     1      15.732 -32.820 -57.874  1.00  0.00    -0.201 F 
HETATM    4  C3  UNL     1      14.502 -31.588 -59.504  1.00  0.00     0.176 A 
HETATM    5  F2  UNL     1      13.952 -32.732 -60.004  1.00  0.00    -0.201 F 
HETATM    6  C4  UNL     1      14.140 -30.401 -60.095  1.00  0.00     0.083 A 
HETATM    7  C14 UNL     1      14.686 -29.236 -59.603  1.00  0.00     0.164 A 
HETATM    8  F3  UNL     1      14.323 -28.051 -60.152  1.00  0.00    -0.202 F 
HETATM    9  C15 UNL     1      15.585 -29.258 -58.532  1.00  0.00     0.095 A 
ENDROOT
BRANCH   6  10
HETATM   10  S2  UNL     1      12.983 -30.335 -61.479  1.00  0.00    -0.123 SA
BRANCH  10  11
HETATM   11  C5  UNL     1      11.291 -30.278 -60.838  1.00  0.00     0.084 C 
BRANCH  11  12
HETATM   12  C6  UNL     1      10.672 -28.904 -60.987  1.00  0.00     0.049 C 
BRANCH  12  13
HETATM   13  C7  UNL     1      10.259 -28.460 -59.635  1.00  0.00    -0.057 A 
HETATM   14  C8  UNL     1      11.120 -27.688 -58.888  1.00  0.00     0.008 A 
HETATM   15  C9  UNL     1      10.710 -27.294 -57.645  1.00  0.00     0.019 A 
HETATM   16  C10 UNL     1       9.480 -27.647 -57.137  1.00  0.00     0.040 A 
HETATM   17  C12 UNL     1       8.628 -28.430 -57.915  1.00  0.00     0.019 A 
HETATM   18  C13 UNL     1       9.026 -28.831 -59.163  1.00  0.00     0.008 A 
BRANCH  16  19
HETATM   19  C11 UNL     1       9.068 -27.215 -55.812  1.00  0.00     0.209 C 
HETATM   20  O3  UNL     1       9.758 -27.577 -54.828  1.00  0.00    -0.644 OA
HETATM   21  O4  UNL     1       7.951 -26.435 -55.675  1.00  0.00    -0.644 OA
ENDBRANCH  16  19
ENDBRANCH  12  13
ENDBRANCH  11  12
ENDBRANCH  10  11
ENDBRANCH   6  10
BRANCH   9  22
HETATM   22  N2  UNL     1      16.155 -28.081 -57.984  1.00  0.00    -0.381 N 
ATOM     23  H2  UNL     1      17.140 -27.874 -58.149  1.00  0.00     0.160 HD
BRANCH  22  24
HETATM   24  C16 UNL     1      15.362 -27.177 -57.199  1.00  0.00     0.082 C 
HETATM   25  C17 UNL     1      14.179 -27.801 -56.572  1.00  0.00     0.025 C 
HETATM   26  C18 UNL     1      13.661 -27.153 -55.325  1.00  0.00     0.002 C 
HETATM   27  C19 UNL     1      13.042 -25.833 -55.407  1.00  0.00     0.000 C 
HETATM   28  C20 UNL     1      13.382 -24.913 -56.503  1.00  0.00     0.000 C 
HETATM   29  C21 UNL     1      14.768 -24.439 -56.639  1.00  0.00     0.000 C 
HETATM   30  C22 UNL     1      15.835 -25.090 -55.853  1.00  0.00     0.002 C 
HETATM   31  C23 UNL     1      16.263 -26.454 -56.232  1.00  0.00     0.025 C 
ENDBRANCH  22  24
ENDBRANCH   9  22
BRANCH   1  32
HETATM   32  S1  UNL     1      17.023 -30.559 -56.585  1.00  0.00     0.262 S 
HETATM   33  O1  UNL     1      16.315 -30.037 -55.338  1.00  0.00    -0.201 OA
HETATM   34  O2  UNL     1      18.208 -29.632 -56.769  1.00  0.00    -0.201 OA
BRANCH  32  35
HETATM   35  N1  UNL     1      17.523 -32.167 -56.235  1.00  0.00    -0.324 N 
ATOM     36  H12 UNL     1      16.949 -33.005 -56.329  1.00  0.00     0.169 HD
ATOM     37  H11 UNL     1      18.492 -32.112 -55.922  1.00  0.00     0.169 HD
ENDBRANCH  32  35
ENDBRANCH   1  32
TORSDOF 9
ENDMDL
