MODEL 4
REMARK VINA RESULT: -7.151375156      3.623      8.005
REMARK  9 active torsions:
REMARK  status: ('A' for Active; 'I' for Inactive)
REMARK    1  A    between atoms: N1_1  and  S1_4 
REMARK    2  A    between atoms: S1_4  and  C1_7 
REMARK    3  A    between atoms: C4_12  and  S2_13 
REMARK    4  A    between atoms: S2_13  and  C5_14 
REMARK    5  A    between atoms: C5_14  and  C6_15 
REMARK    6  A    between atoms: C6_15  and  C7_16 
REMARK    7  A    between atoms: C10_19  and  C11_20 
REMARK    8  A    between atoms: C15_27  and  N2_28 
REMARK    9  A    between atoms: N2_28  and  C16_30 
ROOT
HETATM    1  C1  UNL     1       9.993 -27.353 -57.157  1.00  0.00     0.150 A 
HETATM    2  C2  UNL     1       9.201 -28.197 -57.930  1.00  0.00     0.181 A 
HETATM    3  F1  UNL     1       7.970 -28.549 -57.464  1.00  0.00    -0.201 F 
HETATM    4  C3  UNL     1       9.660 -28.662 -59.142  1.00  0.00     0.176 A 
HETATM    5  F2  UNL     1       8.894 -29.490 -59.908  1.00  0.00    -0.201 F 
HETATM    6  C4  UNL     1      10.898 -28.317 -59.628  1.00  0.00     0.083 A 
HETATM    7  C14 UNL     1      11.687 -27.481 -58.868  1.00  0.00     0.164 A 
HETATM    8  F3  UNL     1      12.901 -27.106 -59.339  1.00  0.00    -0.202 F 
HETATM    9  C15 UNL     1      11.242 -26.997 -57.634  1.00  0.00     0.095 A 
ENDROOT
BRANCH   6  10
HETATM   10  S2  UNL     1      11.506 -28.924 -61.216  1.00  0.00    -0.123 SA
BRANCH  10  11
HETATM   11  C5  UNL     1      12.285 -30.541 -60.977  1.00  0.00     0.084 C 
BRANCH  11  12
HETATM   12  C6  UNL     1      13.587 -30.437 -60.211  1.00  0.00     0.049 C 
BRANCH  12  13
HETATM   13  C7  UNL     1      14.603 -29.895 -61.144  1.00  0.00    -0.057 A 
HETATM   14  C8  UNL     1      14.889 -30.582 -62.302  1.00  0.00     0.008 A 
HETATM   15  C9  UNL     1      15.830 -30.055 -63.142  1.00  0.00     0.019 A 
HETATM   16  C10 UNL     1      16.483 -28.877 -62.857  1.00  0.00     0.040 A 
HETATM   17  C12 UNL     1      16.173 -28.201 -61.677  1.00  0.00     0.019 A 
HETATM   18  C13 UNL     1      15.232 -28.718 -60.827  1.00  0.00     0.008 A 
BRANCH  16  19
HETATM   19  C11 UNL     1      17.479 -28.337 -63.767  1.00  0.00     0.209 C 
HETATM   20  O3  UNL     1      17.790 -29.014 -64.777  1.00  0.00    -0.644 OA
HETATM   21  O4  UNL     1      18.046 -27.119 -63.501  1.00  0.00    -0.644 OA
ENDBRANCH  16  19
ENDBRANCH  12  13
ENDBRANCH  11  12
ENDBRANCH  10  11
ENDBRANCH   6  10
BRANCH   9  22
HETATM   22  N2  UNL     1      12.013 -26.121 -56.829  1.00  0.00    -0.381 N 
ATOM     23  H2  UNL     1      11.676 -25.177 -56.644  1.00  0.00     0.160 HD
BRANCH  22  24
HETATM   24  C16 UNL     1      13.265 -26.549 -56.270  1.00  0.00     0.082 C 
HETATM   25  C17 UNL     1      13.889 -25.565 -55.361  1.00  0.00     0.025 C 
HETATM   26  C18 UNL     1      14.815 -26.109 -54.318  1.00  0.00     0.002 C 
HETATM   27  C19 UNL     1      16.093 -26.687 -54.725  1.00  0.00     0.000 C 
HETATM   28  C20 UNL     1      16.268 -27.239 -56.077  1.00  0.00     0.000 C 
HETATM   29  C21 UNL     1      15.444 -28.383 -56.497  1.00  0.00     0.000 C 
HETATM   30  C22 UNL     1      14.287 -28.783 -55.672  1.00  0.00     0.002 C 
HETATM   31  C23 UNL     1      13.087 -27.918 -55.667  1.00  0.00     0.025 C 
ENDBRANCH  22  24
ENDBRANCH   9  22
BRANCH   1  32
HETATM   32  S1  UNL     1       9.358 -26.756 -55.648  1.00  0.00     0.262 S 
HETATM   33  O1  UNL     1       9.531 -27.821 -54.570  1.00  0.00    -0.201 OA
HETATM   34  O2  UNL     1       7.859 -26.542 -55.739  1.00  0.00    -0.201 OA
BRANCH  32  35
HETATM   35  N1  UNL     1      10.167 -25.345 -55.087  1.00  0.00    -0.324 N 
ATOM     36  H12 UNL     1      11.170 -25.171 -55.141  1.00  0.00     0.169 HD
ATOM     37  H11 UNL     1       9.451 -24.731 -54.697  1.00  0.00     0.169 HD
ENDBRANCH  32  35
ENDBRANCH   1  32
TORSDOF 9
ENDMDL
