MODEL 19
REMARK VINA RESULT: -6.853159086      3.660      8.173
REMARK  9 active torsions:
REMARK  status: ('A' for Active; 'I' for Inactive)
REMARK    1  A    between atoms: N1_1  and  S1_4 
REMARK    2  A    between atoms: S1_4  and  C1_7 
REMARK    3  A    between atoms: C4_12  and  S2_13 
REMARK    4  A    between atoms: S2_13  and  C5_14 
REMARK    5  A    between atoms: C5_14  and  C6_15 
REMARK    6  A    between atoms: C6_15  and  C7_16 
REMARK    7  A    between atoms: C10_19  and  C11_20 
REMARK    8  A    between atoms: C15_27  and  N2_28 
REMARK    9  A    between atoms: N2_28  and  C16_30 
ROOT
HETATM    1  C1  UNL     1      10.253 -26.933 -56.720  1.00  0.00     0.150 A 
HETATM    2  C2  UNL     1       9.524 -27.818 -57.509  1.00  0.00     0.181 A 
HETATM    3  F1  UNL     1       8.273 -28.177 -57.108  1.00  0.00    -0.201 F 
HETATM    4  C3  UNL     1      10.065 -28.316 -58.673  1.00  0.00     0.176 A 
HETATM    5  F2  UNL     1       9.362 -29.185 -59.455  1.00  0.00    -0.201 F 
HETATM    6  C4  UNL     1      11.326 -27.965 -59.095  1.00  0.00     0.083 A 
HETATM    7  C14 UNL     1      12.052 -27.089 -58.318  1.00  0.00     0.164 A 
HETATM    8  F3  UNL     1      13.286 -26.707 -58.727  1.00  0.00    -0.202 F 
HETATM    9  C15 UNL     1      11.523 -26.571 -57.132  1.00  0.00     0.095 A 
ENDROOT
BRANCH   6  10
HETATM   10  S2  UNL     1      12.041 -28.615 -60.620  1.00  0.00    -0.123 SA
BRANCH  10  11
HETATM   11  C5  UNL     1      12.900 -30.168 -60.260  1.00  0.00     0.084 C 
BRANCH  11  12
HETATM   12  C6  UNL     1      14.278 -29.934 -59.679  1.00  0.00     0.049 C 
BRANCH  12  13
HETATM   13  C7  UNL     1      15.149 -29.475 -60.786  1.00  0.00    -0.057 A 
HETATM   14  C8  UNL     1      15.883 -28.320 -60.631  1.00  0.00     0.008 A 
HETATM   15  C9  UNL     1      16.677 -27.923 -61.671  1.00  0.00     0.019 A 
HETATM   16  C10 UNL     1      16.754 -28.640 -62.844  1.00  0.00     0.040 A 
HETATM   17  C12 UNL     1      16.000 -29.806 -62.974  1.00  0.00     0.019 A 
HETATM   18  C13 UNL     1      15.201 -30.215 -61.940  1.00  0.00     0.008 A 
BRANCH  16  19
HETATM   19  C11 UNL     1      17.606 -28.197 -63.934  1.00  0.00     0.209 C 
HETATM   20  O3  UNL     1      17.735 -28.949 -64.931  1.00  0.00    -0.644 OA
HETATM   21  O4  UNL     1      18.239 -26.985 -63.847  1.00  0.00    -0.644 OA
ENDBRANCH  16  19
ENDBRANCH  12  13
ENDBRANCH  11  12
ENDBRANCH  10  11
ENDBRANCH   6  10
BRANCH   9  22
HETATM   22  N2  UNL     1      12.229 -25.653 -56.313  1.00  0.00    -0.381 N 
ATOM     23  H2  UNL     1      11.856 -24.715 -56.171  1.00  0.00     0.160 HD
BRANCH  22  24
HETATM   24  C16 UNL     1      13.461 -26.030 -55.681  1.00  0.00     0.082 C 
HETATM   25  C17 UNL     1      13.685 -27.489 -55.614  1.00  0.00     0.025 C 
HETATM   26  C18 UNL     1      15.108 -27.947 -55.540  1.00  0.00     0.002 C 
HETATM   27  C19 UNL     1      15.887 -27.676 -54.334  1.00  0.00     0.000 C 
HETATM   28  C20 UNL     1      15.538 -26.549 -53.456  1.00  0.00     0.000 C 
HETATM   29  C21 UNL     1      15.600 -25.179 -53.987  1.00  0.00     0.000 C 
HETATM   30  C22 UNL     1      15.746 -24.973 -55.442  1.00  0.00     0.002 C 
HETATM   31  C23 UNL     1      14.590 -25.263 -56.318  1.00  0.00     0.025 C 
ENDBRANCH  22  24
ENDBRANCH   9  22
BRANCH   1  32
HETATM   32  S1  UNL     1       9.516 -26.296 -55.275  1.00  0.00     0.262 S 
HETATM   33  O1  UNL     1       9.234 -27.439 -54.305  1.00  0.00    -0.201 OA
HETATM   34  O2  UNL     1       8.152 -25.706 -55.579  1.00  0.00    -0.201 OA
BRANCH  32  35
HETATM   35  N1  UNL     1      10.521 -25.175 -54.443  1.00  0.00    -0.324 N 
ATOM     36  H12 UNL     1      10.669 -24.199 -54.702  1.00  0.00     0.169 HD
ATOM     37  H11 UNL     1      10.929 -25.675 -53.654  1.00  0.00     0.169 HD
ENDBRANCH  32  35
ENDBRANCH   1  32
TORSDOF 9
ENDMDL
