MODEL 2
REMARK VINA RESULT: -7.358218273      2.737      5.496
REMARK  9 active torsions:
REMARK  status: ('A' for Active; 'I' for Inactive)
REMARK    1  A    between atoms: N1_1  and  S1_4 
REMARK    2  A    between atoms: S1_4  and  C1_7 
REMARK    3  A    between atoms: C4_12  and  S2_13 
REMARK    4  A    between atoms: S2_13  and  C5_14 
REMARK    5  A    between atoms: C5_14  and  C6_15 
REMARK    6  A    between atoms: C6_15  and  C7_16 
REMARK    7  A    between atoms: C10_19  and  C11_20 
REMARK    8  A    between atoms: C15_27  and  N2_28 
REMARK    9  A    between atoms: N2_28  and  C16_30 
ROOT
HETATM    1  C1  UNL     1      16.917 -27.711 -59.806  1.00  0.00     0.150 A 
HETATM    2  C2  UNL     1      16.428 -28.150 -61.033  1.00  0.00     0.181 A 
HETATM    3  F1  UNL     1      17.087 -27.789 -62.169  1.00  0.00    -0.201 F 
HETATM    4  C3  UNL     1      15.298 -28.936 -61.088  1.00  0.00     0.176 A 
HETATM    5  F2  UNL     1      14.808 -29.371 -62.283  1.00  0.00    -0.201 F 
HETATM    6  C4  UNL     1      14.621 -29.311 -59.952  1.00  0.00     0.083 A 
HETATM    7  C14 UNL     1      15.101 -28.879 -58.735  1.00  0.00     0.164 A 
HETATM    8  F3  UNL     1      14.464 -29.260 -57.600  1.00  0.00    -0.202 F 
HETATM    9  C15 UNL     1      16.245 -28.081 -58.655  1.00  0.00     0.095 A 
ENDROOT
BRANCH   6  10
HETATM   10  S2  UNL     1      13.139 -30.340 -60.018  1.00  0.00    -0.123 SA
BRANCH  10  11
HETATM   11  C5  UNL     1      11.829 -29.443 -60.888  1.00  0.00     0.084 C 
BRANCH  11  12
HETATM   12  C6  UNL     1      11.843 -27.963 -60.568  1.00  0.00     0.049 C 
BRANCH  12  13
HETATM   13  C7  UNL     1      11.108 -27.783 -59.294  1.00  0.00    -0.057 A 
HETATM   14  C8  UNL     1      11.739 -27.174 -58.232  1.00  0.00     0.008 A 
HETATM   15  C9  UNL     1      11.033 -27.022 -57.071  1.00  0.00     0.019 A 
HETATM   16  C10 UNL     1       9.733 -27.456 -56.947  1.00  0.00     0.040 A 
HETATM   17  C12 UNL     1       9.118 -28.070 -58.038  1.00  0.00     0.019 A 
HETATM   18  C13 UNL     1       9.813 -28.228 -59.207  1.00  0.00     0.008 A 
BRANCH  16  19
HETATM   19  C11 UNL     1       9.004 -27.283 -55.701  1.00  0.00     0.209 C 
HETATM   20  O3  UNL     1       9.508 -27.745 -54.649  1.00  0.00    -0.644 OA
HETATM   21  O4  UNL     1       7.801 -26.627 -55.709  1.00  0.00    -0.644 OA
ENDBRANCH  16  19
ENDBRANCH  12  13
ENDBRANCH  11  12
ENDBRANCH  10  11
ENDBRANCH   6  10
BRANCH   9  22
HETATM   22  N2  UNL     1      16.783 -27.631 -57.422  1.00  0.00    -0.381 N 
ATOM     23  H2  UNL     1      17.730 -27.901 -57.157  1.00  0.00     0.160 HD
BRANCH  22  24
HETATM   24  C16 UNL     1      16.010 -26.799 -56.544  1.00  0.00     0.082 C 
HETATM   25  C17 UNL     1      16.020 -27.237 -55.132  1.00  0.00     0.025 C 
HETATM   26  C18 UNL     1      15.775 -26.180 -54.101  1.00  0.00     0.002 C 
HETATM   27  C19 UNL     1      14.454 -25.566 -54.002  1.00  0.00     0.000 C 
HETATM   28  C20 UNL     1      13.555 -25.534 -55.165  1.00  0.00     0.000 C 
HETATM   29  C21 UNL     1      13.969 -24.806 -56.374  1.00  0.00     0.000 C 
HETATM   30  C22 UNL     1      15.368 -24.354 -56.501  1.00  0.00     0.002 C 
HETATM   31  C23 UNL     1      16.421 -25.363 -56.746  1.00  0.00     0.025 C 
ENDBRANCH  22  24
ENDBRANCH   9  22
BRANCH   1  32
HETATM   32  S1  UNL     1      18.372 -26.752 -59.778  1.00  0.00     0.262 S 
HETATM   33  O1  UNL     1      19.272 -27.163 -60.940  1.00  0.00    -0.201 OA
HETATM   34  O2  UNL     1      19.191 -27.047 -58.537  1.00  0.00    -0.201 OA
BRANCH  32  35
HETATM   35  N1  UNL     1      18.073 -25.067 -59.955  1.00  0.00    -0.324 N 
ATOM     36  H12 UNL     1      18.093 -24.546 -60.831  1.00  0.00     0.169 HD
ATOM     37  H11 UNL     1      17.875 -24.705 -59.022  1.00  0.00     0.169 HD
ENDBRANCH  32  35
ENDBRANCH   1  32
TORSDOF 9
ENDMDL
