MODEL 1
REMARK VINA RESULT: -7.468369112      0.000      0.000
REMARK  9 active torsions:
REMARK  status: ('A' for Active; 'I' for Inactive)
REMARK    1  A    between atoms: N1_1  and  S1_4 
REMARK    2  A    between atoms: S1_4  and  C1_7 
REMARK    3  A    between atoms: C4_12  and  S2_13 
REMARK    4  A    between atoms: S2_13  and  C5_14 
REMARK    5  A    between atoms: C5_14  and  C6_15 
REMARK    6  A    between atoms: C6_15  and  C7_16 
REMARK    7  A    between atoms: C10_19  and  C11_20 
REMARK    8  A    between atoms: C15_27  and  N2_28 
REMARK    9  A    between atoms: N2_28  and  C16_30 
ROOT
HETATM    1  C1  UNL     1      15.508 -30.529 -58.086  1.00  0.00     0.150 A 
HETATM    2  C2  UNL     1      15.987 -30.794 -56.807  1.00  0.00     0.181 A 
HETATM    3  F1  UNL     1      16.173 -32.090 -56.432  1.00  0.00    -0.201 F 
HETATM    4  C3  UNL     1      16.265 -29.759 -55.942  1.00  0.00     0.176 A 
HETATM    5  F2  UNL     1      16.733 -30.006 -54.685  1.00  0.00    -0.201 F 
HETATM    6  C4  UNL     1      16.083 -28.445 -56.302  1.00  0.00     0.083 A 
HETATM    7  C14 UNL     1      15.610 -28.176 -57.568  1.00  0.00     0.164 A 
HETATM    8  F3  UNL     1      15.449 -26.887 -57.955  1.00  0.00    -0.202 F 
HETATM    9  C15 UNL     1      15.321 -29.211 -58.463  1.00  0.00     0.095 A 
ENDROOT
BRANCH   6  10
HETATM   10  S2  UNL     1      16.446 -27.084 -55.173  1.00  0.00    -0.123 SA
BRANCH  10  11
HETATM   11  C5  UNL     1      14.902 -26.498 -54.431  1.00  0.00     0.084 C 
BRANCH  11  12
HETATM   12  C6  UNL     1      14.205 -25.473 -55.301  1.00  0.00     0.049 C 
BRANCH  12  13
HETATM   13  C7  UNL     1      12.792 -25.900 -55.435  1.00  0.00    -0.057 A 
HETATM   14  C8  UNL     1      12.488 -26.985 -56.227  1.00  0.00     0.008 A 
HETATM   15  C9  UNL     1      11.176 -27.354 -56.330  1.00  0.00     0.019 A 
HETATM   16  C10 UNL     1      10.175 -26.676 -55.671  1.00  0.00     0.040 A 
HETATM   17  C12 UNL     1      10.511 -25.581 -54.875  1.00  0.00     0.019 A 
HETATM   18  C13 UNL     1      11.821 -25.201 -54.763  1.00  0.00     0.008 A 
BRANCH  16  19
HETATM   19  C11 UNL     1       8.787 -27.089 -55.797  1.00  0.00     0.209 C 
HETATM   20  O3  UNL     1       8.088 -27.147 -54.756  1.00  0.00    -0.644 OA
HETATM   21  O4  UNL     1       8.285 -27.399 -57.033  1.00  0.00    -0.644 OA
ENDBRANCH  16  19
ENDBRANCH  12  13
ENDBRANCH  11  12
ENDBRANCH  10  11
ENDBRANCH   6  10
BRANCH   9  22
HETATM   22  N2  UNL     1      14.850 -28.978 -59.780  1.00  0.00    -0.381 N 
ATOM     23  H2  UNL     1      15.510 -28.964 -60.556  1.00  0.00     0.160 HD
BRANCH  22  24
HETATM   24  C16 UNL     1      13.453 -28.762 -60.033  1.00  0.00     0.082 C 
HETATM   25  C17 UNL     1      13.022 -27.357 -59.884  1.00  0.00     0.025 C 
HETATM   26  C18 UNL     1      11.814 -26.939 -60.663  1.00  0.00     0.002 C 
HETATM   27  C19 UNL     1      10.506 -27.480 -60.303  1.00  0.00     0.000 C 
HETATM   28  C20 UNL     1      10.395 -28.771 -59.608  1.00  0.00     0.000 C 
HETATM   29  C21 UNL     1      10.883 -29.988 -60.274  1.00  0.00     0.000 C 
HETATM   30  C22 UNL     1      11.708 -29.865 -61.492  1.00  0.00     0.002 C 
HETATM   31  C23 UNL     1      13.098 -29.377 -61.362  1.00  0.00     0.025 C 
ENDBRANCH  22  24
ENDBRANCH   9  22
BRANCH   1  32
HETATM   32  S1  UNL     1      15.206 -31.866 -59.162  1.00  0.00     0.262 S 
HETATM   33  O1  UNL     1      16.049 -33.063 -58.732  1.00  0.00    -0.201 OA
HETATM   34  O2  UNL     1      15.682 -31.548 -60.566  1.00  0.00    -0.201 OA
BRANCH  32  35
HETATM   35  N1  UNL     1      13.567 -32.385 -59.150  1.00  0.00    -0.324 N 
ATOM     36  H12 UNL     1      13.224 -33.274 -58.787  1.00  0.00     0.169 HD
ATOM     37  H11 UNL     1      13.018 -31.636 -59.573  1.00  0.00     0.169 HD
ENDBRANCH  32  35
ENDBRANCH   1  32
TORSDOF 9
ENDMDL
