MODEL 4
REMARK VINA RESULT: -6.707543582      2.466      2.984
REMARK  17 active torsions:
REMARK  status: ('A' for Active; 'I' for Inactive)
REMARK    1  A    between atoms: C2_2  and  C3_3 
REMARK    2  A    between atoms: C3_3  and  C4_4 
REMARK    3  A    between atoms: C4_4  and  C5_5 
REMARK    4  A    between atoms: C5_5  and  C6_6 
REMARK    5  A    between atoms: C6_6  and  C7_7 
REMARK    6  A    between atoms: C7_7  and  C8_8 
REMARK    7  A    between atoms: C8_8  and  C9_9 
REMARK    8  A    between atoms: C9_9  and  C10_10 
REMARK    9  A    between atoms: C10_10  and  C11_11 
REMARK   10  A    between atoms: C11_11  and  C12_12 
REMARK   11  A    between atoms: C12_12  and  C13_13 
REMARK   12  A    between atoms: C13_13  and  C14_14 
REMARK   13  A    between atoms: C14_14  and  C15_15 
REMARK   14  A    between atoms: C15_15  and  C16_16 
REMARK   15  A    between atoms: C16_16  and  C17_17 
REMARK   16  A    between atoms: C17_17  and  C18_18 
REMARK   17  A    between atoms: C18_18  and  C19_19 
ROOT
HETATM    1  C11 UNL     1      13.806  49.701  55.885  1.00  0.00     0.000 C 
ENDROOT
BRANCH   1   2
HETATM    2  C10 UNL     1      14.078  51.113  56.283  1.00  0.00     0.000 C 
BRANCH   2   3
HETATM    3  C9  UNL     1      12.979  52.086  55.938  1.00  0.00     0.000 C 
BRANCH   3   4
HETATM    4  C8  UNL     1      11.841  51.341  55.333  1.00  0.00     0.000 C 
BRANCH   4   5
HETATM    5  C7  UNL     1      10.839  52.233  54.633  1.00  0.00     0.000 C 
BRANCH   5   6
HETATM    6  C6  UNL     1       9.469  52.142  55.202  1.00  0.00     0.000 C 
BRANCH   6   7
HETATM    7  C5  UNL     1       8.419  51.628  54.279  1.00  0.00     0.000 C 
BRANCH   7   8
HETATM    8  C4  UNL     1       8.427  52.212  52.908  1.00  0.00     0.000 C 
BRANCH   8   9
HETATM    9  C3  UNL     1       8.417  51.188  51.811  1.00  0.00    -0.000 C 
BRANCH   9  10
HETATM   10  C2  UNL     1       9.098  49.917  52.191  1.00  0.00    -0.005 C 
HETATM   11  C1  UNL     1      10.546  49.855  51.741  1.00  0.00     0.005 C 
ENDBRANCH   9  10
ENDBRANCH   8   9
ENDBRANCH   7   8
ENDBRANCH   6   7
ENDBRANCH   5   6
ENDBRANCH   4   5
ENDBRANCH   3   4
ENDBRANCH   2   3
ENDBRANCH   1   2
BRANCH   1  12
HETATM   12  C12 UNL     1      14.751  48.706  56.462  1.00  0.00     0.000 C 
BRANCH  12  13
HETATM   13  C13 UNL     1      15.776  48.189  55.473  1.00  0.00     0.000 C 
BRANCH  13  14
HETATM   14  C14 UNL     1      17.083  48.904  55.534  1.00  0.00     0.000 C 
BRANCH  14  15
HETATM   15  C15 UNL     1      18.101  48.178  54.698  1.00  0.00     0.000 C 
BRANCH  15  16
HETATM   16  C16 UNL     1      19.329  47.865  55.506  1.00  0.00     0.001 C 
BRANCH  16  17
HETATM   17  C17 UNL     1      19.734  46.401  55.364  1.00  0.00     0.010 C 
BRANCH  17  18
HETATM   18  C18 UNL     1      18.532  45.493  55.465  1.00  0.00     0.113 C 
BRANCH  18  19
HETATM   19  C19 UNL     1      18.981  44.094  55.589  1.00  0.00     0.172 C 
HETATM   20  O1  UNL     1      19.366  43.475  54.572  1.00  0.00    -0.648 OA
HETATM   21  O2  UNL     1      18.972  43.478  56.822  1.00  0.00    -0.648 OA
ENDBRANCH  18  19
ENDBRANCH  17  18
ENDBRANCH  16  17
ENDBRANCH  15  16
ENDBRANCH  14  15
ENDBRANCH  13  14
ENDBRANCH  12  13
ENDBRANCH   1  12
TORSDOF 17
ENDMDL
