MODEL 1
REMARK VINA RESULT: -4.488437380      0.000      0.000
REMARK  7 active torsions:
REMARK  status: ('A' for Active; 'I' for Inactive)
REMARK    1  A    between atoms: P1_2  and  O4_5 
REMARK    2  A    between atoms: O4_5  and  C1_6 
REMARK    3  A    between atoms: C2_8  and  C3_9 
REMARK    4  A    between atoms: C3_9  and  O6_10 
REMARK    5  A    between atoms: C4_12  and  O7_13 
REMARK    6  A    between atoms: C5_15  and  O8_16 
REMARK    7  A    between atoms: C6_18  and  O9_19 
ROOT
HETATM    1  C1  UNL     1      61.071 -43.910 -12.016  1.00  0.00     0.305 C 
HETATM    2  O5  UNL     1      61.022 -44.594 -13.197  1.00  0.00    -0.348 OA
HETATM    3  C2  UNL     1      60.052 -44.148 -14.065  1.00  0.00     0.179 C 
HETATM    4  C4  UNL     1      60.465 -42.770 -14.526  1.00  0.00     0.180 C 
HETATM    5  C5  UNL     1      60.409 -41.869 -13.329  1.00  0.00     0.183 C 
HETATM    6  C6  UNL     1      60.423 -42.570 -12.022  1.00  0.00     0.205 C 
ENDROOT
BRANCH   1   7
HETATM    7  O4  UNL     1      60.382 -44.689 -11.056  1.00  0.00    -0.249 OA
BRANCH   7   8
HETATM    8  P1  UNL     1      61.376 -45.207  -9.825  1.00  0.00     0.424 P 
HETATM    9  O1  UNL     1      62.718 -45.575 -10.406  1.00  0.00    -0.617 OA
HETATM   10  O2  UNL     1      60.719 -46.497  -8.957  1.00  0.00    -0.617 OA
HETATM   11  O3  UNL     1      61.650 -43.879  -8.783  1.00  0.00    -0.617 OA
ENDBRANCH   7   8
ENDBRANCH   1   7
BRANCH   6  12
HETATM   12  O9  UNL     1      59.115 -42.624 -11.494  1.00  0.00    -0.388 OA
ATOM     13  H9  UNL     1      58.589 -41.888 -11.787  1.00  0.00     0.210 HD
ENDBRANCH   6  12
BRANCH   3  14
HETATM   14  C3  UNL     1      59.849 -45.102 -15.210  1.00  0.00     0.198 C 
BRANCH  14  15
HETATM   15  O6  UNL     1      58.522 -45.349 -15.491  1.00  0.00    -0.398 OA
ATOM     16  H6  UNL     1      58.298 -45.219 -16.404  1.00  0.00     0.209 HD
ENDBRANCH  14  15
ENDBRANCH   3  14
BRANCH   5  17
HETATM   17  O8  UNL     1      61.423 -40.916 -13.428  1.00  0.00    -0.390 OA
ATOM     18  H8  UNL     1      61.250 -40.213 -12.812  1.00  0.00     0.210 HD
ENDBRANCH   5  17
BRANCH   4  19
HETATM   19  O7  UNL     1      59.648 -42.294 -15.548  1.00  0.00    -0.390 OA
ATOM     20  H7  UNL     1      58.752 -42.593 -15.457  1.00  0.00     0.210 HD
ENDBRANCH   4  19
TORSDOF 7
ENDMDL
