MODEL 3
REMARK VINA RESULT: -4.433963875      2.226      4.967
REMARK  7 active torsions:
REMARK  status: ('A' for Active; 'I' for Inactive)
REMARK    1  A    between atoms: P1_2  and  O4_5 
REMARK    2  A    between atoms: O4_5  and  C1_6 
REMARK    3  A    between atoms: C2_8  and  C3_9 
REMARK    4  A    between atoms: C3_9  and  O6_10 
REMARK    5  A    between atoms: C4_12  and  O7_13 
REMARK    6  A    between atoms: C5_15  and  O8_16 
REMARK    7  A    between atoms: C6_18  and  O9_19 
ROOT
HETATM    1  C1  UNL     1      60.376 -43.384 -13.687  1.00  0.00     0.305 C 
HETATM    2  O5  UNL     1      60.747 -44.561 -13.103  1.00  0.00    -0.348 OA
HETATM    3  C2  UNL     1      61.401 -44.411 -11.902  1.00  0.00     0.179 C 
HETATM    4  C4  UNL     1      60.394 -43.878 -10.908  1.00  0.00     0.180 C 
HETATM    5  C5  UNL     1      60.015 -42.501 -11.360  1.00  0.00     0.183 C 
HETATM    6  C6  UNL     1      60.322 -42.204 -12.781  1.00  0.00     0.205 C 
ENDROOT
BRANCH   1   7
HETATM    7  O4  UNL     1      61.343 -43.090 -14.678  1.00  0.00    -0.249 OA
BRANCH   7   8
HETATM    8  P1  UNL     1      60.752 -43.283 -16.222  1.00  0.00     0.424 P 
HETATM    9  O1  UNL     1      61.729 -44.112 -17.017  1.00  0.00    -0.617 OA
HETATM   10  O2  UNL     1      60.444 -41.811 -16.990  1.00  0.00    -0.617 OA
HETATM   11  O3  UNL     1      59.313 -44.202 -16.118  1.00  0.00    -0.617 OA
ENDBRANCH   7   8
ENDBRANCH   1   7
BRANCH   6  12
HETATM   12  O9  UNL     1      61.500 -41.431 -12.865  1.00  0.00    -0.388 OA
ATOM     13  H9  UNL     1      61.698 -41.190 -13.762  1.00  0.00     0.210 HD
ENDBRANCH   6  12
BRANCH   3  14
HETATM   14  C3  UNL     1      62.034 -45.697 -11.447  1.00  0.00     0.198 C 
BRANCH  14  15
HETATM   15  O6  UNL     1      61.120 -46.651 -11.056  1.00  0.00    -0.398 OA
ATOM     16  H6  UNL     1      61.521 -47.452 -10.740  1.00  0.00     0.209 HD
ENDBRANCH  14  15
ENDBRANCH   3  14
BRANCH   5  17
HETATM   17  O8  UNL     1      58.673 -42.273 -11.052  1.00  0.00    -0.390 OA
ATOM     18  H8  UNL     1      58.131 -42.613 -11.753  1.00  0.00     0.210 HD
ENDBRANCH   5  17
BRANCH   4  19
HETATM   19  O7  UNL     1      60.900 -43.857  -9.612  1.00  0.00    -0.390 OA
ATOM     20  H7  UNL     1      60.272 -43.511  -8.989  1.00  0.00     0.210 HD
ENDBRANCH   4  19
TORSDOF 7
ENDMDL
