MODEL 2
REMARK VINA RESULT: -4.471140280      0.084      1.145
REMARK  7 active torsions:
REMARK  status: ('A' for Active; 'I' for Inactive)
REMARK    1  A    between atoms: P1_2  and  O4_5 
REMARK    2  A    between atoms: O4_5  and  C1_6 
REMARK    3  A    between atoms: C2_8  and  C3_9 
REMARK    4  A    between atoms: C3_9  and  O6_10 
REMARK    5  A    between atoms: C4_12  and  O7_13 
REMARK    6  A    between atoms: C5_15  and  O8_16 
REMARK    7  A    between atoms: C6_18  and  O9_19 
ROOT
HETATM    1  C1  UNL     1      61.075 -43.922 -12.033  1.00  0.00     0.305 C 
HETATM    2  O5  UNL     1      61.028 -44.602 -13.216  1.00  0.00    -0.348 OA
HETATM    3  C2  UNL     1      60.054 -44.158 -14.080  1.00  0.00     0.179 C 
HETATM    4  C4  UNL     1      60.457 -42.775 -14.536  1.00  0.00     0.180 C 
HETATM    5  C5  UNL     1      60.399 -41.880 -13.336  1.00  0.00     0.183 C 
HETATM    6  C6  UNL     1      60.419 -42.586 -12.031  1.00  0.00     0.205 C 
ENDROOT
BRANCH   1   7
HETATM    7  O4  UNL     1      60.393 -44.709 -11.074  1.00  0.00    -0.249 OA
BRANCH   7   8
HETATM    8  P1  UNL     1      61.378 -45.174  -9.814  1.00  0.00     0.424 P 
HETATM    9  O1  UNL     1      60.783 -46.394  -9.158  1.00  0.00    -0.617 OA
HETATM   10  O2  UNL     1      61.622 -43.939  -8.689  1.00  0.00    -0.617 OA
HETATM   11  O3  UNL     1      62.876 -45.666 -10.479  1.00  0.00    -0.617 OA
ENDBRANCH   7   8
ENDBRANCH   1   7
BRANCH   6  12
HETATM   12  O9  UNL     1      59.113 -42.650 -11.501  1.00  0.00    -0.388 OA
ATOM     13  H9  UNL     1      58.881 -41.850 -11.043  1.00  0.00     0.210 HD
ENDBRANCH   6  12
BRANCH   3  14
HETATM   14  C3  UNL     1      59.854 -45.108 -15.229  1.00  0.00     0.198 C 
BRANCH  14  15
HETATM   15  O6  UNL     1      58.528 -45.374 -15.498  1.00  0.00    -0.398 OA
ATOM     16  H6  UNL     1      57.981 -44.597 -15.511  1.00  0.00     0.209 HD
ENDBRANCH  14  15
ENDBRANCH   3  14
BRANCH   5  17
HETATM   17  O8  UNL     1      61.407 -40.920 -13.433  1.00  0.00    -0.390 OA
ATOM     18  H8  UNL     1      62.114 -41.151 -12.842  1.00  0.00     0.210 HD
ENDBRANCH   5  17
BRANCH   4  19
HETATM   19  O7  UNL     1      59.636 -42.300 -15.555  1.00  0.00    -0.390 OA
ATOM     20  H7  UNL     1      60.046 -42.373 -16.408  1.00  0.00     0.210 HD
ENDBRANCH   4  19
TORSDOF 7
ENDMDL
