MODEL 16
REMARK VINA RESULT: -6.421332172      5.217     10.387
REMARK  15 active torsions:
REMARK  status: ('A' for Active; 'I' for Inactive)
REMARK    1  A    between atoms: C2_2  and  C3_3 
REMARK    2  A    between atoms: C3_3  and  C4_4 
REMARK    3  A    between atoms: C4_4  and  C5_5 
REMARK    4  A    between atoms: C5_5  and  C6_6 
REMARK    5  A    between atoms: C6_6  and  C7_7 
REMARK    6  A    between atoms: C7_7  and  C8_8 
REMARK    7  A    between atoms: C8_8  and  C9_9 
REMARK    8  A    between atoms: C9_9  and  C10_10 
REMARK    9  A    between atoms: C10_10  and  C11_11 
REMARK   10  A    between atoms: C11_11  and  C12_12 
REMARK   11  A    between atoms: C12_12  and  C13_13 
REMARK   12  A    between atoms: C13_13  and  C14_14 
REMARK   13  A    between atoms: C14_14  and  C15_15 
REMARK   14  A    between atoms: C15_15  and  C16_16 
REMARK   15  A    between atoms: C16_16  and  C17_17 
ROOT
HETATM    1  C10 UNL     1       9.123  -2.060  55.138  1.00  0.00     0.000 C 
ENDROOT
BRANCH   1   2
HETATM    2  C9  UNL     1       9.986  -3.184  54.655  1.00  0.00     0.000 C 
BRANCH   2   3
HETATM    3  C8  UNL     1      11.113  -3.414  55.612  1.00  0.00     0.000 C 
BRANCH   3   4
HETATM    4  C7  UNL     1      12.228  -2.455  55.334  1.00  0.00     0.000 C 
BRANCH   4   5
HETATM    5  C6  UNL     1      13.590  -3.134  55.413  1.00  0.00     0.000 C 
BRANCH   5   6
HETATM    6  C5  UNL     1      13.286  -4.559  55.926  1.00  0.00     0.000 C 
BRANCH   6   7
HETATM    7  C4  UNL     1      14.423  -5.471  55.669  1.00  0.00     0.000 C 
BRANCH   7   8
HETATM    8  C3  UNL     1      15.603  -4.948  54.961  1.00  0.00    -0.000 C 
BRANCH   8   9
HETATM    9  C2  UNL     1      16.853  -5.738  54.956  1.00  0.00    -0.005 C 
HETATM   10  C1  UNL     1      18.063  -5.092  54.361  1.00  0.00     0.005 C 
ENDBRANCH   8   9
ENDBRANCH   7   8
ENDBRANCH   6   7
ENDBRANCH   5   6
ENDBRANCH   4   5
ENDBRANCH   3   4
ENDBRANCH   2   3
ENDBRANCH   1   2
BRANCH   1  11
HETATM   11  C11 UNL     1       8.672  -2.433  56.551  1.00  0.00     0.000 C 
BRANCH  11  12
HETATM   12  C12 UNL     1       8.031  -1.231  57.163  1.00  0.00     0.000 C 
BRANCH  12  13
HETATM   13  C13 UNL     1       6.550  -1.431  57.251  1.00  0.00     0.000 C 
BRANCH  13  14
HETATM   14  C14 UNL     1       6.122  -2.868  57.065  1.00  0.00     0.001 C 
BRANCH  14  15
HETATM   15  C15 UNL     1       4.672  -3.082  57.307  1.00  0.00     0.010 C 
BRANCH  15  16
HETATM   16  C16 UNL     1       3.903  -1.839  57.638  1.00  0.00     0.113 C 
BRANCH  16  17
HETATM   17  C17 UNL     1       2.839  -1.628  56.638  1.00  0.00     0.172 C 
HETATM   18  O1  UNL     1       1.611  -1.567  56.885  1.00  0.00    -0.648 OA
HETATM   19  O2  UNL     1       3.262  -1.489  55.309  1.00  0.00    -0.648 OA
ENDBRANCH  16  17
ENDBRANCH  15  16
ENDBRANCH  14  15
ENDBRANCH  13  14
ENDBRANCH  12  13
ENDBRANCH  11  12
ENDBRANCH   1  11
TORSDOF 15
ENDMDL
