MODEL 11
REMARK VINA RESULT: -6.475770452      5.140     10.117
REMARK  15 active torsions:
REMARK  status: ('A' for Active; 'I' for Inactive)
REMARK    1  A    between atoms: C2_2  and  C3_3 
REMARK    2  A    between atoms: C3_3  and  C4_4 
REMARK    3  A    between atoms: C4_4  and  C5_5 
REMARK    4  A    between atoms: C5_5  and  C6_6 
REMARK    5  A    between atoms: C6_6  and  C7_7 
REMARK    6  A    between atoms: C7_7  and  C8_8 
REMARK    7  A    between atoms: C8_8  and  C9_9 
REMARK    8  A    between atoms: C9_9  and  C10_10 
REMARK    9  A    between atoms: C10_10  and  C11_11 
REMARK   10  A    between atoms: C11_11  and  C12_12 
REMARK   11  A    between atoms: C12_12  and  C13_13 
REMARK   12  A    between atoms: C13_13  and  C14_14 
REMARK   13  A    between atoms: C14_14  and  C15_15 
REMARK   14  A    between atoms: C15_15  and  C16_16 
REMARK   15  A    between atoms: C16_16  and  C17_17 
ROOT
HETATM    1  C10 UNL     1      10.354  -2.801  54.929  1.00  0.00     0.000 C 
ENDROOT
BRANCH   1   2
HETATM    2  C9  UNL     1      11.492  -1.919  55.340  1.00  0.00     0.000 C 
BRANCH   2   3
HETATM    3  C8  UNL     1      12.642  -2.751  55.813  1.00  0.00     0.000 C 
BRANCH   3   4
HETATM    4  C7  UNL     1      12.185  -3.709  56.868  1.00  0.00     0.000 C 
BRANCH   4   5
HETATM    5  C6  UNL     1      12.633  -5.135  56.568  1.00  0.00     0.000 C 
BRANCH   5   6
HETATM    6  C5  UNL     1      13.879  -4.971  55.671  1.00  0.00     0.000 C 
BRANCH   6   7
HETATM    7  C4  UNL     1      14.845  -6.071  55.896  1.00  0.00     0.000 C 
BRANCH   7   8
HETATM    8  C3  UNL     1      16.213  -5.930  55.369  1.00  0.00    -0.000 C 
BRANCH   8   9
HETATM    9  C2  UNL     1      16.620  -4.652  54.748  1.00  0.00    -0.005 C 
HETATM   10  C1  UNL     1      17.996  -4.588  54.165  1.00  0.00     0.005 C 
ENDBRANCH   8   9
ENDBRANCH   7   8
ENDBRANCH   6   7
ENDBRANCH   5   6
ENDBRANCH   4   5
ENDBRANCH   3   4
ENDBRANCH   2   3
ENDBRANCH   1   2
BRANCH   1  11
HETATM   11  C11 UNL     1       9.074  -2.000  55.166  1.00  0.00     0.000 C 
BRANCH  11  12
HETATM   12  C12 UNL     1       9.125  -1.447  56.552  1.00  0.00     0.000 C 
BRANCH  12  13
HETATM   13  C13 UNL     1       7.999  -2.005  57.366  1.00  0.00     0.000 C 
BRANCH  13  14
HETATM   14  C14 UNL     1       6.827  -2.473  56.537  1.00  0.00     0.001 C 
BRANCH  14  15
HETATM   15  C15 UNL     1       5.706  -3.005  57.355  1.00  0.00     0.010 C 
BRANCH  15  16
HETATM   16  C16 UNL     1       4.346  -2.549  56.923  1.00  0.00     0.113 C 
BRANCH  16  17
HETATM   17  C17 UNL     1       3.856  -1.502  57.841  1.00  0.00     0.172 C 
HETATM   18  O1  UNL     1       4.578  -0.756  58.544  1.00  0.00    -0.648 OA
HETATM   19  O2  UNL     1       2.465  -1.348  57.913  1.00  0.00    -0.648 OA
ENDBRANCH  16  17
ENDBRANCH  15  16
ENDBRANCH  14  15
ENDBRANCH  13  14
ENDBRANCH  12  13
ENDBRANCH  11  12
ENDBRANCH   1  11
TORSDOF 15
ENDMDL
