MODEL 4
REMARK VINA RESULT: -6.705447797      0.953      1.346
REMARK  15 active torsions:
REMARK  status: ('A' for Active; 'I' for Inactive)
REMARK    1  A    between atoms: C2_2  and  C3_3 
REMARK    2  A    between atoms: C3_3  and  C4_4 
REMARK    3  A    between atoms: C4_4  and  C5_5 
REMARK    4  A    between atoms: C5_5  and  C6_6 
REMARK    5  A    between atoms: C6_6  and  C7_7 
REMARK    6  A    between atoms: C7_7  and  C8_8 
REMARK    7  A    between atoms: C8_8  and  C9_9 
REMARK    8  A    between atoms: C9_9  and  C10_10 
REMARK    9  A    between atoms: C10_10  and  C11_11 
REMARK   10  A    between atoms: C11_11  and  C12_12 
REMARK   11  A    between atoms: C12_12  and  C13_13 
REMARK   12  A    between atoms: C13_13  and  C14_14 
REMARK   13  A    between atoms: C14_14  and  C15_15 
REMARK   14  A    between atoms: C15_15  and  C16_16 
REMARK   15  A    between atoms: C16_16  and  C17_17 
ROOT
HETATM    1  C10 UNL     1      11.516  -3.281  56.846  1.00  0.00     0.000 C 
ENDROOT
BRANCH   1   2
HETATM    2  C9  UNL     1      10.140  -2.704  56.713  1.00  0.00     0.000 C 
BRANCH   2   3
HETATM    3  C8  UNL     1       9.709  -2.730  55.282  1.00  0.00     0.000 C 
BRANCH   3   4
HETATM    4  C7  UNL     1       8.854  -1.539  54.980  1.00  0.00     0.000 C 
BRANCH   4   5
HETATM    5  C6  UNL     1       8.619  -0.683  56.218  1.00  0.00     0.000 C 
BRANCH   5   6
HETATM    6  C5  UNL     1       7.082  -0.618  56.362  1.00  0.00     0.000 C 
BRANCH   6   7
HETATM    7  C4  UNL     1       6.610  -1.528  57.431  1.00  0.00     0.000 C 
BRANCH   7   8
HETATM    8  C3  UNL     1       6.015  -2.819  57.049  1.00  0.00    -0.000 C 
BRANCH   8   9
HETATM    9  C2  UNL     1       4.676  -3.179  57.562  1.00  0.00    -0.005 C 
HETATM   10  C1  UNL     1       3.595  -2.157  57.417  1.00  0.00     0.005 C 
ENDBRANCH   8   9
ENDBRANCH   7   8
ENDBRANCH   6   7
ENDBRANCH   5   6
ENDBRANCH   4   5
ENDBRANCH   3   4
ENDBRANCH   2   3
ENDBRANCH   1   2
BRANCH   1  11
HETATM   11  C11 UNL     1      12.409  -2.506  55.876  1.00  0.00     0.000 C 
BRANCH  11  12
HETATM   12  C12 UNL     1      13.554  -3.386  55.499  1.00  0.00     0.000 C 
BRANCH  12  13
HETATM   13  C13 UNL     1      13.282  -4.793  55.935  1.00  0.00     0.000 C 
BRANCH  13  14
HETATM   14  C14 UNL     1      14.455  -5.724  55.737  1.00  0.00     0.001 C 
BRANCH  14  15
HETATM   15  C15 UNL     1      15.637  -5.056  55.132  1.00  0.00     0.010 C 
BRANCH  15  16
HETATM   16  C16 UNL     1      16.884  -5.886  55.120  1.00  0.00     0.113 C 
BRANCH  16  17
HETATM   17  C17 UNL     1      17.893  -5.258  54.244  1.00  0.00     0.172 C 
HETATM   18  O1  UNL     1      18.206  -4.043  54.251  1.00  0.00    -0.648 OA
HETATM   19  O2  UNL     1      18.539  -6.110  53.338  1.00  0.00    -0.648 OA
ENDBRANCH  16  17
ENDBRANCH  15  16
ENDBRANCH  14  15
ENDBRANCH  13  14
ENDBRANCH  12  13
ENDBRANCH  11  12
ENDBRANCH   1  11
TORSDOF 15
ENDMDL
