MODEL 1
REMARK VINA RESULT: -6.777743161      0.000      0.000
REMARK  15 active torsions:
REMARK  status: ('A' for Active; 'I' for Inactive)
REMARK    1  A    between atoms: C2_2  and  C3_3 
REMARK    2  A    between atoms: C3_3  and  C4_4 
REMARK    3  A    between atoms: C4_4  and  C5_5 
REMARK    4  A    between atoms: C5_5  and  C6_6 
REMARK    5  A    between atoms: C6_6  and  C7_7 
REMARK    6  A    between atoms: C7_7  and  C8_8 
REMARK    7  A    between atoms: C8_8  and  C9_9 
REMARK    8  A    between atoms: C9_9  and  C10_10 
REMARK    9  A    between atoms: C10_10  and  C11_11 
REMARK   10  A    between atoms: C11_11  and  C12_12 
REMARK   11  A    between atoms: C12_12  and  C13_13 
REMARK   12  A    between atoms: C13_13  and  C14_14 
REMARK   13  A    between atoms: C14_14  and  C15_15 
REMARK   14  A    between atoms: C15_15  and  C16_16 
REMARK   15  A    between atoms: C16_16  and  C17_17 
ROOT
HETATM    1  C10 UNL     1      12.218  -2.602  55.656  1.00  0.00     0.000 C 
ENDROOT
BRANCH   1   2
HETATM    2  C9  UNL     1      11.161  -3.658  55.567  1.00  0.00     0.000 C 
BRANCH   2   3
HETATM    3  C8  UNL     1       9.990  -3.148  54.788  1.00  0.00     0.000 C 
BRANCH   3   4
HETATM    4  C7  UNL     1       9.728  -1.715  55.131  1.00  0.00     0.000 C 
BRANCH   4   5
HETATM    5  C6  UNL     1       8.259  -1.471  55.455  1.00  0.00     0.000 C 
BRANCH   5   6
HETATM    6  C5  UNL     1       8.110  -1.897  56.933  1.00  0.00     0.000 C 
BRANCH   6   7
HETATM    7  C4  UNL     1       6.689  -1.888  57.348  1.00  0.00     0.000 C 
BRANCH   7   8
HETATM    8  C3  UNL     1       5.854  -3.060  57.038  1.00  0.00    -0.000 C 
BRANCH   8   9
HETATM    9  C2  UNL     1       4.494  -3.151  57.612  1.00  0.00    -0.005 C 
HETATM   10  C1  UNL     1       3.596  -1.970  57.425  1.00  0.00     0.005 C 
ENDBRANCH   8   9
ENDBRANCH   7   8
ENDBRANCH   6   7
ENDBRANCH   5   6
ENDBRANCH   4   5
ENDBRANCH   3   4
ENDBRANCH   2   3
ENDBRANCH   1   2
BRANCH   1  11
HETATM   11  C11 UNL     1      13.560  -3.313  55.481  1.00  0.00     0.000 C 
BRANCH  11  12
HETATM   12  C12 UNL     1      13.404  -4.718  55.961  1.00  0.00     0.000 C 
BRANCH  12  13
HETATM   13  C13 UNL     1      14.296  -5.629  55.174  1.00  0.00     0.000 C 
BRANCH  13  14
HETATM   14  C14 UNL     1      15.433  -6.207  55.982  1.00  0.00     0.001 C 
BRANCH  14  15
HETATM   15  C15 UNL     1      16.753  -6.080  55.309  1.00  0.00     0.010 C 
BRANCH  15  16
HETATM   16  C16 UNL     1      17.004  -4.745  54.675  1.00  0.00     0.113 C 
BRANCH  16  17
HETATM   17  C17 UNL     1      17.861  -4.911  53.486  1.00  0.00     0.172 C 
HETATM   18  O1  UNL     1      18.649  -5.866  53.285  1.00  0.00    -0.648 OA
HETATM   19  O2  UNL     1      17.769  -3.904  52.515  1.00  0.00    -0.648 OA
ENDBRANCH  16  17
ENDBRANCH  15  16
ENDBRANCH  14  15
ENDBRANCH  13  14
ENDBRANCH  12  13
ENDBRANCH  11  12
ENDBRANCH   1  11
TORSDOF 15
ENDMDL
