MODEL 14
REMARK VINA RESULT: -6.563966319      4.252      8.881
REMARK  13 active torsions:
REMARK  status: ('A' for Active; 'I' for Inactive)
REMARK    1  A    between atoms: C2_2  and  C3_3 
REMARK    2  A    between atoms: C3_3  and  C4_4 
REMARK    3  A    between atoms: C4_4  and  C5_5 
REMARK    4  A    between atoms: C5_5  and  C6_6 
REMARK    5  A    between atoms: C6_6  and  C7_7 
REMARK    6  A    between atoms: C7_7  and  C8_8 
REMARK    7  A    between atoms: C8_8  and  C9_9 
REMARK    8  A    between atoms: C9_9  and  C10_10 
REMARK    9  A    between atoms: C10_10  and  C11_11 
REMARK   10  A    between atoms: C11_11  and  C12_12 
REMARK   11  A    between atoms: C12_12  and  C13_13 
REMARK   12  A    between atoms: C13_13  and  C14_14 
REMARK   13  A    between atoms: C14_14  and  C15_15 
ROOT
HETATM    1  C9  UNL     1      10.820  -3.590  55.512  1.00  0.00     0.000 C 
ENDROOT
BRANCH   1   2
HETATM    2  C8  UNL     1       9.696  -3.040  54.702  1.00  0.00     0.000 C 
BRANCH   2   3
HETATM    3  C7  UNL     1       9.770  -1.630  54.324  1.00  0.00     0.000 C 
BRANCH   3   4
HETATM    4  C6  UNL     1       8.773  -0.648  54.734  1.00  0.00     0.000 C 
BRANCH   4   5
HETATM    5  C5  UNL     1       7.320  -0.966  54.705  1.00  0.00     0.000 C 
BRANCH   5   6
HETATM    6  C4  UNL     1       6.562  -0.985  55.968  1.00  0.00     0.000 C 
BRANCH   6   7
HETATM    7  C3  UNL     1       6.583  -2.406  56.534  1.00  0.00    -0.000 C 
BRANCH   7   8
HETATM    8  C2  UNL     1       5.300  -3.149  56.352  1.00  0.00    -0.005 C 
HETATM    9  C1  UNL     1       4.366  -2.815  57.536  1.00  0.00     0.005 C 
ENDBRANCH   7   8
ENDBRANCH   6   7
ENDBRANCH   5   6
ENDBRANCH   4   5
ENDBRANCH   3   4
ENDBRANCH   2   3
ENDBRANCH   1   2
BRANCH   1  10
HETATM   10  C10 UNL     1      12.060  -2.780  55.519  1.00  0.00     0.000 C 
BRANCH  10  11
HETATM   11  C11 UNL     1      13.304  -3.555  55.154  1.00  0.00     0.000 C 
BRANCH  11  12
HETATM   12  C12 UNL     1      13.228  -5.001  55.591  1.00  0.00     0.001 C 
BRANCH  12  13
HETATM   13  C13 UNL     1      14.461  -5.737  55.202  1.00  0.00     0.010 C 
BRANCH  13  14
HETATM   14  C14 UNL     1      15.210  -5.105  54.062  1.00  0.00     0.113 C 
BRANCH  14  15
HETATM   15  C15 UNL     1      16.668  -5.142  54.343  1.00  0.00     0.172 C 
HETATM   16  O1  UNL     1      17.463  -4.260  53.930  1.00  0.00    -0.648 OA
HETATM   17  O2  UNL     1      17.208  -6.175  55.087  1.00  0.00    -0.648 OA
ENDBRANCH  14  15
ENDBRANCH  13  14
ENDBRANCH  12  13
ENDBRANCH  11  12
ENDBRANCH  10  11
ENDBRANCH   1  10
TORSDOF 13
ENDMDL
