MODEL 7
REMARK VINA RESULT: -6.694619190      4.320      8.820
REMARK  13 active torsions:
REMARK  status: ('A' for Active; 'I' for Inactive)
REMARK    1  A    between atoms: C2_2  and  C3_3 
REMARK    2  A    between atoms: C3_3  and  C4_4 
REMARK    3  A    between atoms: C4_4  and  C5_5 
REMARK    4  A    between atoms: C5_5  and  C6_6 
REMARK    5  A    between atoms: C6_6  and  C7_7 
REMARK    6  A    between atoms: C7_7  and  C8_8 
REMARK    7  A    between atoms: C8_8  and  C9_9 
REMARK    8  A    between atoms: C9_9  and  C10_10 
REMARK    9  A    between atoms: C10_10  and  C11_11 
REMARK   10  A    between atoms: C11_11  and  C12_12 
REMARK   11  A    between atoms: C12_12  and  C13_13 
REMARK   12  A    between atoms: C13_13  and  C14_14 
REMARK   13  A    between atoms: C14_14  and  C15_15 
ROOT
HETATM    1  C9  UNL     1      11.744  -4.097  56.649  1.00  0.00     0.000 C 
ENDROOT
BRANCH   1   2
HETATM    2  C8  UNL     1      10.501  -3.324  56.368  1.00  0.00     0.000 C 
BRANCH   2   3
HETATM    3  C7  UNL     1      10.101  -3.185  54.970  1.00  0.00     0.000 C 
BRANCH   3   4
HETATM    4  C6  UNL     1      10.016  -1.894  54.296  1.00  0.00     0.000 C 
BRANCH   4   5
HETATM    5  C5  UNL     1       9.072  -0.842  54.762  1.00  0.00     0.000 C 
BRANCH   5   6
HETATM    6  C4  UNL     1       7.624  -1.108  54.730  1.00  0.00     0.000 C 
BRANCH   6   7
HETATM    7  C3  UNL     1       7.101  -1.161  56.166  1.00  0.00    -0.000 C 
BRANCH   7   8
HETATM    8  C2  UNL     1       6.841  -2.544  56.664  1.00  0.00    -0.005 C 
HETATM    9  C1  UNL     1       5.343  -2.864  56.471  1.00  0.00     0.005 C 
ENDBRANCH   7   8
ENDBRANCH   6   7
ENDBRANCH   5   6
ENDBRANCH   4   5
ENDBRANCH   3   4
ENDBRANCH   2   3
ENDBRANCH   1   2
BRANCH   1  10
HETATM   10  C10 UNL     1      12.727  -4.153  55.542  1.00  0.00     0.000 C 
BRANCH  10  11
HETATM   11  C11 UNL     1      13.523  -5.436  55.489  1.00  0.00     0.000 C 
BRANCH  11  12
HETATM   12  C12 UNL     1      14.526  -5.442  54.357  1.00  0.00     0.001 C 
BRANCH  12  13
HETATM   13  C13 UNL     1      15.779  -4.744  54.757  1.00  0.00     0.010 C 
BRANCH  13  14
HETATM   14  C14 UNL     1      17.015  -5.587  54.613  1.00  0.00     0.113 C 
BRANCH  14  15
HETATM   15  C15 UNL     1      17.652  -5.313  53.300  1.00  0.00     0.172 C 
HETATM   16  O1  UNL     1      18.412  -6.136  52.728  1.00  0.00    -0.648 OA
HETATM   17  O2  UNL     1      17.423  -4.114  52.650  1.00  0.00    -0.648 OA
ENDBRANCH  14  15
ENDBRANCH  13  14
ENDBRANCH  12  13
ENDBRANCH  11  12
ENDBRANCH  10  11
ENDBRANCH   1  10
TORSDOF 13
ENDMDL
