MODEL 12
REMARK VINA RESULT: -6.575530654      4.333      8.811
REMARK  13 active torsions:
REMARK  status: ('A' for Active; 'I' for Inactive)
REMARK    1  A    between atoms: C2_2  and  C3_3 
REMARK    2  A    between atoms: C3_3  and  C4_4 
REMARK    3  A    between atoms: C4_4  and  C5_5 
REMARK    4  A    between atoms: C5_5  and  C6_6 
REMARK    5  A    between atoms: C6_6  and  C7_7 
REMARK    6  A    between atoms: C7_7  and  C8_8 
REMARK    7  A    between atoms: C8_8  and  C9_9 
REMARK    8  A    between atoms: C9_9  and  C10_10 
REMARK    9  A    between atoms: C10_10  and  C11_11 
REMARK   10  A    between atoms: C11_11  and  C12_12 
REMARK   11  A    between atoms: C12_12  and  C13_13 
REMARK   12  A    between atoms: C13_13  and  C14_14 
REMARK   13  A    between atoms: C14_14  and  C15_15 
ROOT
HETATM    1  C9  UNL     1      11.744  -3.405  56.298  1.00  0.00     0.000 C 
ENDROOT
BRANCH   1   2
HETATM    2  C8  UNL     1      12.116  -2.479  55.190  1.00  0.00     0.000 C 
BRANCH   2   3
HETATM    3  C7  UNL     1      11.027  -1.905  54.402  1.00  0.00     0.000 C 
BRANCH   3   4
HETATM    4  C6  UNL     1       9.663  -2.422  54.442  1.00  0.00     0.000 C 
BRANCH   4   5
HETATM    5  C5  UNL     1       8.532  -1.575  54.909  1.00  0.00     0.000 C 
BRANCH   5   6
HETATM    6  C4  UNL     1       8.316  -1.395  56.354  1.00  0.00     0.000 C 
BRANCH   6   7
HETATM    7  C3  UNL     1       7.310  -2.442  56.835  1.00  0.00    -0.000 C 
BRANCH   7   8
HETATM    8  C2  UNL     1       5.975  -2.347  56.173  1.00  0.00    -0.005 C 
HETATM    9  C1  UNL     1       4.906  -2.908  57.136  1.00  0.00     0.005 C 
ENDBRANCH   7   8
ENDBRANCH   6   7
ENDBRANCH   5   6
ENDBRANCH   4   5
ENDBRANCH   3   4
ENDBRANCH   2   3
ENDBRANCH   1   2
BRANCH   1  10
HETATM   10  C10 UNL     1      12.256  -4.790  56.174  1.00  0.00     0.000 C 
BRANCH  10  11
HETATM   11  C11 UNL     1      13.449  -4.925  55.257  1.00  0.00     0.000 C 
BRANCH  11  12
HETATM   12  C12 UNL     1      14.307  -6.121  55.605  1.00  0.00     0.001 C 
BRANCH  12  13
HETATM   13  C13 UNL     1      15.724  -5.887  55.215  1.00  0.00     0.010 C 
BRANCH  13  14
HETATM   14  C14 UNL     1      15.903  -5.542  53.762  1.00  0.00     0.113 C 
BRANCH  14  15
HETATM   15  C15 UNL     1      17.320  -5.175  53.510  1.00  0.00     0.172 C 
HETATM   16  O1  UNL     1      18.098  -5.893  52.831  1.00  0.00    -0.648 OA
HETATM   17  O2  UNL     1      17.840  -4.004  54.029  1.00  0.00    -0.648 OA
ENDBRANCH  14  15
ENDBRANCH  13  14
ENDBRANCH  12  13
ENDBRANCH  11  12
ENDBRANCH  10  11
ENDBRANCH   1  10
TORSDOF 13
ENDMDL
