MODEL 15
REMARK VINA RESULT: -7.270314174      2.659      5.043
REMARK  10 active torsions:
REMARK  status: ('A' for Active; 'I' for Inactive)
REMARK       I    between atoms: C2_2  and  N1_4 
REMARK    1  A    between atoms: N1_4  and  C3_6 
REMARK    2  A    between atoms: C3_6  and  C4_7 
REMARK    3  A    between atoms: C3_6  and  C21_36 
REMARK    4  A    between atoms: C4_7  and  O2_8 
REMARK    5  A    between atoms: C4_7  and  N2_10 
REMARK    6  A    between atoms: C6_12  and  O3_13 
REMARK    7  A    between atoms: C8_17  and  C9_18 
REMARK       I    between atoms: C9_18  and  N3_20 
REMARK    8  A    between atoms: N3_20  and  C10_22 
REMARK    9  A    between atoms: C10_22  and  C11_23 
REMARK   10  A    between atoms: C14_26  and  C15_27 
ROOT
HETATM    1  N2  UNL     1      12.391  51.846  90.302  1.00  0.00    -0.345 N 
HETATM    2  C5  UNL     1      12.846  52.785  91.282  1.00  0.00     0.160 C 
HETATM    3  C6  UNL     1      11.601  53.675  91.457  1.00  0.00     0.172 C 
HETATM    4  C7  UNL     1      11.196  53.884  90.024  1.00  0.00     0.232 C 
HETATM    5  F1  UNL     1      11.481  55.152  89.572  1.00  0.00    -0.244 F 
HETATM    6  C8  UNL     1      11.867  52.809  89.255  1.00  0.00     0.214 C 
ENDROOT
BRANCH   6   7
HETATM    7  C9  UNL     1      13.032  53.327  88.509  1.00  0.00     0.243 C 
HETATM    8  O4  UNL     1      14.094  53.760  89.050  1.00  0.00    -0.271 OA
HETATM    9  N3  UNL     1      13.039  53.375  87.076  1.00  0.00    -0.355 N 
ATOM     10  H3  UNL     1      12.213  53.041  86.580  1.00  0.00     0.162 HD
BRANCH   9  11
HETATM   11  C10 UNL     1      14.147  53.867  86.298  1.00  0.00     0.161 C 
BRANCH  11  12
HETATM   12  C11 UNL     1      14.309  53.103  85.038  1.00  0.00    -0.040 A 
HETATM   13  C12 UNL     1      13.300  52.278  84.605  1.00  0.00     0.010 A 
HETATM   14  C13 UNL     1      13.379  51.542  83.453  1.00  0.00     0.013 A 
HETATM   15  C14 UNL     1      14.527  51.607  82.647  1.00  0.00    -0.017 A 
HETATM   16  C19 UNL     1      15.516  52.419  83.073  1.00  0.00     0.013 A 
HETATM   17  C20 UNL     1      15.434  53.175  84.260  1.00  0.00     0.010 A 
BRANCH  15  18
HETATM   18  C15 UNL     1      14.560  50.819  81.418  1.00  0.00     0.038 A 
HETATM   19  S1  UNL     1      13.434  49.534  81.028  1.00  0.00    -0.082 SA
HETATM   20  C16 UNL     1      14.067  49.083  79.521  1.00  0.00     0.139 A 
HETATM   21  N4  UNL     1      15.076  49.910  79.393  1.00  0.00    -0.362 N 
HETATM   22  C17 UNL     1      15.353  50.788  80.317  1.00  0.00     0.023 A 
ATOM     23  H4  UNL     1      15.655  49.866  78.555  1.00  0.00     0.165 HD
HETATM   24  C18 UNL     1      16.548  51.714  80.124  1.00  0.00     0.069 C 
ENDBRANCH  15  18
ENDBRANCH  11  12
ENDBRANCH   9  11
ENDBRANCH   6   7
BRANCH   1  25
HETATM   25  C4  UNL     1      12.337  50.465  90.120  1.00  0.00     0.138 C 
BRANCH  25  26
HETATM   26  C3  UNL     1      11.464  49.500  89.496  1.00  0.00     0.166 C 
BRANCH  26  27
HETATM   27  N1  UNL     1      12.210  48.874  88.354  1.00  0.00    -0.349 N 
HETATM   28  C2  UNL     1      12.178  49.379  87.047  1.00  0.00     0.214 C 
HETATM   29  C1  UNL     1      12.925  48.745  85.926  1.00  0.00     0.117 C 
HETATM   30  O1  UNL     1      11.484  50.425  86.805  1.00  0.00    -0.274 OA
ATOM     31  H1  UNL     1      12.767  48.039  88.539  1.00  0.00     0.163 HD
ENDBRANCH  26  27
BRANCH  26  32
HETATM   32  C21 UNL     1      10.696  48.497  90.225  1.00  0.00    -0.023 C 
HETATM   33  C22 UNL     1      10.032  48.941  91.486  1.00  0.00     0.017 C 
HETATM   34  C23 UNL     1       9.562  47.911  89.345  1.00  0.00     0.017 C 
HETATM   35  C24 UNL     1      11.512  47.249  90.579  1.00  0.00     0.017 C 
ENDBRANCH  26  32
ENDBRANCH  25  26
BRANCH  25  36
HETATM   36  O2  UNL     1      13.407  49.877  90.699  1.00  0.00    -0.348 OA
ATOM     37  H2  UNL     1      14.119  50.490  90.835  1.00  0.00     0.219 HD
ENDBRANCH  25  36
ENDBRANCH   1  25
BRANCH   3  38
HETATM   38  O3  UNL     1      10.592  52.959  92.082  1.00  0.00    -0.391 OA
ATOM     39  H3  UNL     1       9.983  53.556  92.501  1.00  0.00     0.210 HD
ENDBRANCH   3  38
TORSDOF 10
ENDMDL
