MODEL 1
REMARK VINA RESULT: -7.842230287      0.000      0.000
REMARK  10 active torsions:
REMARK  status: ('A' for Active; 'I' for Inactive)
REMARK       I    between atoms: C2_2  and  N1_4 
REMARK    1  A    between atoms: N1_4  and  C3_6 
REMARK    2  A    between atoms: C3_6  and  C4_7 
REMARK    3  A    between atoms: C3_6  and  C21_36 
REMARK    4  A    between atoms: C4_7  and  O2_8 
REMARK    5  A    between atoms: C4_7  and  N2_10 
REMARK    6  A    between atoms: C6_12  and  O3_13 
REMARK    7  A    between atoms: C8_17  and  C9_18 
REMARK       I    between atoms: C9_18  and  N3_20 
REMARK    8  A    between atoms: N3_20  and  C10_22 
REMARK    9  A    between atoms: C10_22  and  C11_23 
REMARK   10  A    between atoms: C14_26  and  C15_27 
ROOT
HETATM    1  N2  UNL     1      13.402  53.967  91.139  1.00  0.00    -0.345 N 
HETATM    2  C5  UNL     1      14.762  53.619  90.861  1.00  0.00     0.160 C 
HETATM    3  C6  UNL     1      15.215  54.810  89.997  1.00  0.00     0.172 C 
HETATM    4  C7  UNL     1      14.039  54.954  89.070  1.00  0.00     0.232 C 
HETATM    5  F1  UNL     1      14.311  54.509  87.797  1.00  0.00    -0.244 F 
HETATM    6  C8  UNL     1      12.919  54.240  89.728  1.00  0.00     0.214 C 
ENDROOT
BRANCH   6   7
HETATM    7  C9  UNL     1      12.664  52.933  89.088  1.00  0.00     0.243 C 
HETATM    8  O4  UNL     1      12.990  51.815  89.589  1.00  0.00    -0.271 OA
HETATM    9  N3  UNL     1      12.007  52.840  87.817  1.00  0.00    -0.355 N 
ATOM     10  H3  UNL     1      11.720  53.706  87.360  1.00  0.00     0.162 HD
BRANCH   9  11
HETATM   11  C10 UNL     1      11.731  51.594  87.149  1.00  0.00     0.161 C 
BRANCH  11  12
HETATM   12  C11 UNL     1      12.487  51.478  85.880  1.00  0.00    -0.040 A 
HETATM   13  C12 UNL     1      12.523  50.277  85.214  1.00  0.00     0.010 A 
HETATM   14  C13 UNL     1      13.200  50.094  84.038  1.00  0.00     0.013 A 
HETATM   15  C14 UNL     1      13.903  51.159  83.451  1.00  0.00    -0.017 A 
HETATM   16  C19 UNL     1      13.866  52.337  84.105  1.00  0.00     0.013 A 
HETATM   17  C20 UNL     1      13.169  52.524  85.316  1.00  0.00     0.010 A 
BRANCH  15  18
HETATM   18  C15 UNL     1      14.596  50.922  82.188  1.00  0.00     0.038 A 
HETATM   19  S1  UNL     1      13.901  50.094  80.808  1.00  0.00    -0.082 SA
HETATM   20  C16 UNL     1      15.231  50.175  79.760  1.00  0.00     0.139 A 
HETATM   21  N4  UNL     1      16.114  50.810  80.491  1.00  0.00    -0.362 N 
HETATM   22  C17 UNL     1      15.834  51.197  81.705  1.00  0.00     0.023 A 
ATOM     23  H4  UNL     1      17.037  51.005  80.104  1.00  0.00     0.165 HD
HETATM   24  C18 UNL     1      16.905  51.917  82.517  1.00  0.00     0.069 C 
ENDBRANCH  15  18
ENDBRANCH  11  12
ENDBRANCH   9  11
ENDBRANCH   6   7
BRANCH   1  25
HETATM   25  C4  UNL     1      12.554  54.085  92.240  1.00  0.00     0.138 C 
BRANCH  25  26
HETATM   26  C3  UNL     1      12.668  54.141  93.677  1.00  0.00     0.166 C 
BRANCH  26  27
HETATM   27  N1  UNL     1      11.479  54.890  94.205  1.00  0.00    -0.349 N 
HETATM   28  C2  UNL     1      11.583  56.092  94.918  1.00  0.00     0.214 C 
HETATM   29  C1  UNL     1      10.393  56.822  95.434  1.00  0.00     0.117 C 
HETATM   30  O1  UNL     1      12.743  56.583  95.137  1.00  0.00    -0.274 OA
ATOM     31  H1  UNL     1      10.549  54.506  94.035  1.00  0.00     0.163 HD
ENDBRANCH  26  27
BRANCH  26  32
HETATM   32  C21 UNL     1      12.971  52.991  94.521  1.00  0.00    -0.023 C 
HETATM   33  C22 UNL     1      13.883  53.225  95.678  1.00  0.00     0.017 C 
HETATM   34  C23 UNL     1      11.679  52.385  95.129  1.00  0.00     0.017 C 
HETATM   35  C24 UNL     1      13.552  51.805  93.743  1.00  0.00     0.017 C 
ENDBRANCH  26  32
ENDBRANCH  25  26
BRANCH  25  36
HETATM   36  O2  UNL     1      11.270  54.163  91.831  1.00  0.00    -0.348 OA
ATOM     37  H2  UNL     1      11.035  55.044  91.564  1.00  0.00     0.219 HD
ENDBRANCH  25  36
ENDBRANCH   1  25
BRANCH   3  38
HETATM   38  O3  UNL     1      15.286  55.957  90.772  1.00  0.00    -0.391 OA
ATOM     39  H3  UNL     1      16.191  56.148  90.986  1.00  0.00     0.210 HD
ENDBRANCH   3  38
TORSDOF 10
ENDMDL
