MODEL 12
REMARK VINA RESULT: -7.435396857      2.701      5.264
REMARK  10 active torsions:
REMARK  status: ('A' for Active; 'I' for Inactive)
REMARK       I    between atoms: C2_2  and  N1_4 
REMARK    1  A    between atoms: N1_4  and  C3_6 
REMARK    2  A    between atoms: C3_6  and  C4_7 
REMARK    3  A    between atoms: C3_6  and  C21_36 
REMARK    4  A    between atoms: C4_7  and  O2_8 
REMARK    5  A    between atoms: C4_7  and  N2_10 
REMARK    6  A    between atoms: C6_12  and  O3_13 
REMARK    7  A    between atoms: C8_17  and  C9_18 
REMARK       I    between atoms: C9_18  and  N3_20 
REMARK    8  A    between atoms: N3_20  and  C10_22 
REMARK    9  A    between atoms: C10_22  and  C11_23 
REMARK   10  A    between atoms: C14_26  and  C15_27 
ROOT
HETATM    1  N2  UNL     1      12.195  51.825  90.061  1.00  0.00    -0.345 N 
HETATM    2  C5  UNL     1      12.826  52.575  91.104  1.00  0.00     0.160 C 
HETATM    3  C6  UNL     1      11.753  53.634  91.415  1.00  0.00     0.172 C 
HETATM    4  C7  UNL     1      11.350  54.049  90.026  1.00  0.00     0.232 C 
HETATM    5  F1  UNL     1      11.831  55.292  89.685  1.00  0.00    -0.244 F 
HETATM    6  C8  UNL     1      11.812  52.961  89.132  1.00  0.00     0.214 C 
ENDROOT
BRANCH   6   7
HETATM    7  C9  UNL     1      13.027  53.354  88.389  1.00  0.00     0.243 C 
HETATM    8  O4  UNL     1      14.130  53.662  88.933  1.00  0.00    -0.271 OA
HETATM    9  N3  UNL     1      13.039  53.414  86.957  1.00  0.00    -0.355 N 
ATOM     10  H3  UNL     1      12.181  53.178  86.458  1.00  0.00     0.162 HD
BRANCH   9  11
HETATM   11  C10 UNL     1      14.194  53.788  86.182  1.00  0.00     0.161 C 
BRANCH  11  12
HETATM   12  C11 UNL     1      14.297  52.988  84.938  1.00  0.00    -0.040 A 
HETATM   13  C12 UNL     1      13.246  52.196  84.546  1.00  0.00     0.010 A 
HETATM   14  C13 UNL     1      13.269  51.430  83.411  1.00  0.00     0.013 A 
HETATM   15  C14 UNL     1      14.401  51.428  82.580  1.00  0.00    -0.017 A 
HETATM   16  C19 UNL     1      15.432  52.207  82.966  1.00  0.00     0.013 A 
HETATM   17  C20 UNL     1      15.407  52.994  84.135  1.00  0.00     0.010 A 
BRANCH  15  18
HETATM   18  C15 UNL     1      14.374  50.610  81.371  1.00  0.00     0.038 A 
HETATM   19  S1  UNL     1      13.231  49.317  81.066  1.00  0.00    -0.082 SA
HETATM   20  C16 UNL     1      13.791  48.829  79.543  1.00  0.00     0.139 A 
HETATM   21  N4  UNL     1      14.792  49.651  79.346  1.00  0.00    -0.362 N 
HETATM   22  C17 UNL     1      15.113  50.551  80.234  1.00  0.00     0.023 A 
ATOM     23  H4  UNL     1      15.330  49.587  78.482  1.00  0.00     0.165 HD
HETATM   24  C18 UNL     1      16.298  51.471  79.961  1.00  0.00     0.069 C 
ENDBRANCH  15  18
ENDBRANCH  11  12
ENDBRANCH   9  11
ENDBRANCH   6   7
BRANCH   1  25
HETATM   25  C4  UNL     1      11.908  50.497  89.752  1.00  0.00     0.138 C 
BRANCH  25  26
HETATM   26  C3  UNL     1      12.383  49.482  88.842  1.00  0.00     0.166 C 
BRANCH  26  27
HETATM   27  N1  UNL     1      12.539  48.206  89.616  1.00  0.00    -0.349 N 
HETATM   28  C2  UNL     1      13.775  47.733  90.078  1.00  0.00     0.214 C 
HETATM   29  C1  UNL     1      13.911  46.464  90.845  1.00  0.00     0.117 C 
HETATM   30  O1  UNL     1      14.828  48.416  89.834  1.00  0.00    -0.274 OA
ATOM     31  H1  UNL     1      11.703  47.655  89.815  1.00  0.00     0.163 HD
ENDBRANCH  26  27
BRANCH  26  32
HETATM   32  C21 UNL     1      11.807  49.224  87.528  1.00  0.00    -0.023 C 
HETATM   33  C22 UNL     1      11.074  50.351  86.879  1.00  0.00     0.017 C 
HETATM   34  C23 UNL     1      12.898  48.801  86.510  1.00  0.00     0.017 C 
HETATM   35  C24 UNL     1      10.858  48.020  87.508  1.00  0.00     0.017 C 
ENDBRANCH  26  32
ENDBRANCH  25  26
BRANCH  25  36
HETATM   36  O2  UNL     1      10.896  50.048  90.524  1.00  0.00    -0.348 OA
ATOM     37  H2  UNL     1      11.129  50.038  91.445  1.00  0.00     0.219 HD
ENDBRANCH  25  36
ENDBRANCH   1  25
BRANCH   3  38
HETATM   38  O3  UNL     1      10.655  53.034  92.012  1.00  0.00    -0.391 OA
ATOM     39  H3  UNL     1      10.386  53.535  92.773  1.00  0.00     0.210 HD
ENDBRANCH   3  38
TORSDOF 10
ENDMDL
