MODEL 16
REMARK VINA RESULT: -7.239035330      2.567      4.527
REMARK  10 active torsions:
REMARK  status: ('A' for Active; 'I' for Inactive)
REMARK       I    between atoms: C2_2  and  N1_4 
REMARK    1  A    between atoms: N1_4  and  C3_6 
REMARK    2  A    between atoms: C3_6  and  C4_7 
REMARK    3  A    between atoms: C3_6  and  C21_36 
REMARK    4  A    between atoms: C4_7  and  O2_8 
REMARK    5  A    between atoms: C4_7  and  N2_10 
REMARK    6  A    between atoms: C6_12  and  O3_13 
REMARK    7  A    between atoms: C8_17  and  C9_18 
REMARK       I    between atoms: C9_18  and  N3_20 
REMARK    8  A    between atoms: N3_20  and  C10_22 
REMARK    9  A    between atoms: C10_22  and  C11_23 
REMARK   10  A    between atoms: C14_26  and  C15_27 
ROOT
HETATM    1  N2  UNL     1      12.174  51.890  90.642  1.00  0.00    -0.345 N 
HETATM    2  C5  UNL     1      12.438  52.991  91.519  1.00  0.00     0.160 C 
HETATM    3  C6  UNL     1      11.108  53.764  91.452  1.00  0.00     0.172 C 
HETATM    4  C7  UNL     1      10.839  53.742  89.972  1.00  0.00     0.232 C 
HETATM    5  F1  UNL     1      11.057  54.963  89.376  1.00  0.00    -0.244 F 
HETATM    6  C8  UNL     1      11.681  52.650  89.427  1.00  0.00     0.214 C 
ENDROOT
BRANCH   6   7
HETATM    7  C9  UNL     1      12.867  53.183  88.727  1.00  0.00     0.243 C 
HETATM    8  O4  UNL     1      13.941  53.533  89.302  1.00  0.00    -0.271 OA
HETATM    9  N3  UNL     1      12.883  53.345  87.302  1.00  0.00    -0.355 N 
ATOM     10  H3  UNL     1      12.048  53.083  86.779  1.00  0.00     0.162 HD
BRANCH   9  11
HETATM   11  C10 UNL     1      14.012  53.857  86.568  1.00  0.00     0.161 C 
BRANCH  11  12
HETATM   12  C11 UNL     1      14.200  53.136  85.287  1.00  0.00    -0.040 A 
HETATM   13  C12 UNL     1      13.261  52.224  84.872  1.00  0.00     0.010 A 
HETATM   14  C13 UNL     1      13.368  51.521  83.702  1.00  0.00     0.013 A 
HETATM   15  C14 UNL     1      14.472  51.713  82.856  1.00  0.00    -0.017 A 
HETATM   16  C19 UNL     1      15.393  52.610  83.265  1.00  0.00     0.013 A 
HETATM   17  C20 UNL     1      15.282  53.332  84.470  1.00  0.00     0.010 A 
BRANCH  15  18
HETATM   18  C15 UNL     1      14.535  50.955  81.610  1.00  0.00     0.038 A 
HETATM   19  S1  UNL     1      13.408  49.693  81.153  1.00  0.00    -0.082 SA
HETATM   20  C16 UNL     1      14.084  49.271  79.657  1.00  0.00     0.139 A 
HETATM   21  N4  UNL     1      15.105  50.089  79.581  1.00  0.00    -0.362 N 
HETATM   22  C17 UNL     1      15.362  50.940  80.535  1.00  0.00     0.023 A 
ATOM     23  H4  UNL     1      15.710  50.058  78.760  1.00  0.00     0.165 HD
HETATM   24  C18 UNL     1      16.574  51.857  80.402  1.00  0.00     0.069 C 
ENDBRANCH  15  18
ENDBRANCH  11  12
ENDBRANCH   9  11
ENDBRANCH   6   7
BRANCH   1  25
HETATM   25  C4  UNL     1      12.263  50.499  90.651  1.00  0.00     0.138 C 
BRANCH  25  26
HETATM   26  C3  UNL     1      13.009  49.479  91.347  1.00  0.00     0.166 C 
BRANCH  26  27
HETATM   27  N1  UNL     1      14.094  48.995  90.430  1.00  0.00    -0.349 N 
HETATM   28  C2  UNL     1      13.975  47.844  89.638  1.00  0.00     0.214 C 
HETATM   29  C1  UNL     1      15.062  47.379  88.733  1.00  0.00     0.117 C 
HETATM   30  O1  UNL     1      12.892  47.166  89.692  1.00  0.00    -0.274 OA
ATOM     31  H1  UNL     1      14.962  49.530  90.381  1.00  0.00     0.163 HD
ENDBRANCH  26  27
BRANCH  26  32
HETATM   32  C21 UNL     1      13.506  49.613  92.711  1.00  0.00    -0.023 C 
HETATM   33  C22 UNL     1      14.597  50.606  92.938  1.00  0.00     0.017 C 
HETATM   34  C23 UNL     1      12.369  50.019  93.685  1.00  0.00     0.017 C 
HETATM   35  C24 UNL     1      13.992  48.289  93.312  1.00  0.00     0.017 C 
ENDBRANCH  26  32
ENDBRANCH  25  26
BRANCH  25  36
HETATM   36  O2  UNL     1      11.411  49.973  89.746  1.00  0.00    -0.348 OA
ATOM     37  H2  UNL     1      11.863  49.658  88.972  1.00  0.00     0.219 HD
ENDBRANCH  25  36
ENDBRANCH   1  25
BRANCH   3  38
HETATM   38  O3  UNL     1      10.106  53.036  92.074  1.00  0.00    -0.391 OA
ATOM     39  H3  UNL     1       9.752  52.391  91.473  1.00  0.00     0.210 HD
ENDBRANCH   3  38
TORSDOF 10
ENDMDL
