MODEL 11
REMARK VINA RESULT: -7.459957726      1.150      1.560
REMARK  10 active torsions:
REMARK  status: ('A' for Active; 'I' for Inactive)
REMARK       I    between atoms: C2_2  and  N1_4 
REMARK    1  A    between atoms: N1_4  and  C3_6 
REMARK    2  A    between atoms: C3_6  and  C4_7 
REMARK    3  A    between atoms: C3_6  and  C21_36 
REMARK    4  A    between atoms: C4_7  and  O2_8 
REMARK    5  A    between atoms: C4_7  and  N2_10 
REMARK    6  A    between atoms: C6_12  and  O3_13 
REMARK    7  A    between atoms: C8_17  and  C9_18 
REMARK       I    between atoms: C9_18  and  N3_20 
REMARK    8  A    between atoms: N3_20  and  C10_22 
REMARK    9  A    between atoms: C10_22  and  C11_23 
REMARK   10  A    between atoms: C14_26  and  C15_27 
ROOT
HETATM    1  N2  UNL     1      12.533  53.680  91.429  1.00  0.00    -0.345 N 
HETATM    2  C5  UNL     1      13.911  53.306  91.530  1.00  0.00     0.160 C 
HETATM    3  C6  UNL     1      14.604  54.498  90.844  1.00  0.00     0.172 C 
HETATM    4  C7  UNL     1      13.731  54.677  89.632  1.00  0.00     0.232 C 
HETATM    5  F1  UNL     1      14.336  54.242  88.475  1.00  0.00    -0.244 F 
HETATM    6  C8  UNL     1      12.462  53.979  89.944  1.00  0.00     0.214 C 
ENDROOT
BRANCH   6   7
HETATM    7  C9  UNL     1      12.371  52.685  89.236  1.00  0.00     0.243 C 
HETATM    8  O4  UNL     1      12.965  51.626  89.601  1.00  0.00    -0.271 OA
HETATM    9  N3  UNL     1      11.576  52.537  88.052  1.00  0.00    -0.355 N 
ATOM     10  H3  UNL     1      11.073  53.353  87.705  1.00  0.00     0.162 HD
BRANCH   9  11
HETATM   11  C10 UNL     1      11.449  51.300  87.324  1.00  0.00     0.161 C 
BRANCH  11  12
HETATM   12  C11 UNL     1      12.280  51.304  86.097  1.00  0.00    -0.040 A 
HETATM   13  C12 UNL     1      12.479  50.135  85.403  1.00  0.00     0.010 A 
HETATM   14  C13 UNL     1      13.234  50.061  84.263  1.00  0.00     0.013 A 
HETATM   15  C14 UNL     1      13.849  51.211  83.744  1.00  0.00    -0.017 A 
HETATM   16  C19 UNL     1      13.653  52.358  84.426  1.00  0.00     0.013 A 
HETATM   17  C20 UNL     1      12.876  52.432  85.600  1.00  0.00     0.010 A 
BRANCH  15  18
HETATM   18  C15 UNL     1      14.630  51.088  82.516  1.00  0.00     0.038 A 
HETATM   19  S1  UNL     1      14.112  50.215  81.088  1.00  0.00    -0.082 SA
HETATM   20  C16 UNL     1      15.474  50.478  80.115  1.00  0.00     0.139 A 
HETATM   21  N4  UNL     1      16.235  51.198  80.902  1.00  0.00    -0.362 N 
HETATM   22  C17 UNL     1      15.849  51.521  82.105  1.00  0.00     0.023 A 
ATOM     23  H4  UNL     1      17.146  51.512  80.568  1.00  0.00     0.165 HD
HETATM   24  C18 UNL     1      16.782  52.346  82.986  1.00  0.00     0.069 C 
ENDBRANCH  15  18
ENDBRANCH  11  12
ENDBRANCH   9  11
ENDBRANCH   6   7
BRANCH   1  25
HETATM   25  C4  UNL     1      11.417  53.802  92.255  1.00  0.00     0.138 C 
BRANCH  25  26
HETATM   26  C3  UNL     1      11.109  53.692  93.660  1.00  0.00     0.166 C 
BRANCH  26  27
HETATM   27  N1  UNL     1      11.044  55.080  94.228  1.00  0.00    -0.349 N 
HETATM   28  C2  UNL     1      12.179  55.808  94.609  1.00  0.00     0.214 C 
HETATM   29  C1  UNL     1      12.096  57.185  95.170  1.00  0.00     0.117 C 
HETATM   30  O1  UNL     1      13.332  55.274  94.470  1.00  0.00    -0.274 OA
ATOM     31  H1  UNL     1      10.128  55.515  94.343  1.00  0.00     0.163 HD
ENDBRANCH  26  27
BRANCH  26  32
HETATM   32  C21 UNL     1      10.041  52.860  94.203  1.00  0.00    -0.023 C 
HETATM   33  C22 UNL     1       9.780  51.562  93.514  1.00  0.00     0.017 C 
HETATM   34  C23 UNL     1      10.314  52.494  95.685  1.00  0.00     0.017 C 
HETATM   35  C24 UNL     1       8.693  53.585  94.290  1.00  0.00     0.017 C 
ENDBRANCH  26  32
ENDBRANCH  25  26
BRANCH  25  36
HETATM   36  O2  UNL     1      10.324  54.104  91.521  1.00  0.00    -0.348 OA
ATOM     37  H2  UNL     1      10.519  54.734  90.837  1.00  0.00     0.219 HD
ENDBRANCH  25  36
ENDBRANCH   1  25
BRANCH   3  38
HETATM   38  O3  UNL     1      14.478  55.634  91.628  1.00  0.00    -0.391 OA
ATOM     39  H3  UNL     1      15.312  55.846  92.029  1.00  0.00     0.210 HD
ENDBRANCH   3  38
TORSDOF 10
ENDMDL
