MODEL 10
REMARK VINA RESULT: -7.500496725      0.802      1.081
REMARK  10 active torsions:
REMARK  status: ('A' for Active; 'I' for Inactive)
REMARK       I    between atoms: C2_2  and  N1_4 
REMARK    1  A    between atoms: N1_4  and  C3_6 
REMARK    2  A    between atoms: C3_6  and  C4_7 
REMARK    3  A    between atoms: C3_6  and  C21_36 
REMARK    4  A    between atoms: C4_7  and  O2_8 
REMARK    5  A    between atoms: C4_7  and  N2_10 
REMARK    6  A    between atoms: C6_12  and  O3_13 
REMARK    7  A    between atoms: C8_17  and  C9_18 
REMARK       I    between atoms: C9_18  and  N3_20 
REMARK    8  A    between atoms: N3_20  and  C10_22 
REMARK    9  A    between atoms: C10_22  and  C11_23 
REMARK   10  A    between atoms: C14_26  and  C15_27 
ROOT
HETATM    1  N2  UNL     1      13.379  53.976  91.198  1.00  0.00    -0.345 N 
HETATM    2  C5  UNL     1      14.748  53.641  90.946  1.00  0.00     0.160 C 
HETATM    3  C6  UNL     1      15.213  54.849  90.113  1.00  0.00     0.172 C 
HETATM    4  C7  UNL     1      14.057  55.002  89.162  1.00  0.00     0.232 C 
HETATM    5  F1  UNL     1      14.362  54.581  87.888  1.00  0.00    -0.244 F 
HETATM    6  C8  UNL     1      12.928  54.269  89.781  1.00  0.00     0.214 C 
ENDROOT
BRANCH   6   7
HETATM    7  C9  UNL     1      12.696  52.972  89.113  1.00  0.00     0.243 C 
HETATM    8  O4  UNL     1      12.977  51.845  89.620  1.00  0.00    -0.271 OA
HETATM    9  N3  UNL     1      12.117  52.901  87.803  1.00  0.00    -0.355 N 
ATOM     10  H3  UNL     1      11.868  53.774  87.339  1.00  0.00     0.162 HD
BRANCH   9  11
HETATM   11  C10 UNL     1      11.867  51.665  87.106  1.00  0.00     0.161 C 
BRANCH  11  12
HETATM   12  C11 UNL     1      12.616  51.599  85.829  1.00  0.00    -0.040 A 
HETATM   13  C12 UNL     1      12.600  50.444  85.087  1.00  0.00     0.010 A 
HETATM   14  C13 UNL     1      13.268  50.309  83.899  1.00  0.00     0.013 A 
HETATM   15  C14 UNL     1      14.014  51.379  83.379  1.00  0.00    -0.017 A 
HETATM   16  C19 UNL     1      14.028  52.512  84.108  1.00  0.00     0.013 A 
HETATM   17  C20 UNL     1      13.341  52.650  85.332  1.00  0.00     0.010 A 
BRANCH  15  18
HETATM   18  C15 UNL     1      14.695  51.195  82.100  1.00  0.00     0.038 A 
HETATM   19  S1  UNL     1      16.384  51.563  81.808  1.00  0.00    -0.082 SA
HETATM   20  C16 UNL     1      16.463  51.134  80.171  1.00  0.00     0.139 A 
HETATM   21  N4  UNL     1      15.235  50.743  79.933  1.00  0.00    -0.362 N 
HETATM   22  C17 UNL     1      14.327  50.760  80.869  1.00  0.00     0.023 A 
ATOM     23  H4  UNL     1      14.985  50.419  78.999  1.00  0.00     0.165 HD
HETATM   24  C18 UNL     1      12.909  50.310  80.533  1.00  0.00     0.069 C 
ENDBRANCH  15  18
ENDBRANCH  11  12
ENDBRANCH   9  11
ENDBRANCH   6   7
BRANCH   1  25
HETATM   25  C4  UNL     1      12.505  54.069  92.280  1.00  0.00     0.138 C 
BRANCH  25  26
HETATM   26  C3  UNL     1      12.585  54.104  93.720  1.00  0.00     0.166 C 
BRANCH  26  27
HETATM   27  N1  UNL     1      11.406  54.882  94.229  1.00  0.00    -0.349 N 
HETATM   28  C2  UNL     1      11.527  56.097  94.916  1.00  0.00     0.214 C 
HETATM   29  C1  UNL     1      10.346  56.856  95.413  1.00  0.00     0.117 C 
HETATM   30  O1  UNL     1      12.694  56.576  95.126  1.00  0.00    -0.274 OA
ATOM     31  H1  UNL     1      10.471  54.507  94.066  1.00  0.00     0.163 HD
ENDBRANCH  26  27
BRANCH  26  32
HETATM   32  C21 UNL     1      12.833  52.935  94.556  1.00  0.00    -0.023 C 
HETATM   33  C22 UNL     1      13.961  53.028  95.529  1.00  0.00     0.017 C 
HETATM   34  C23 UNL     1      11.585  52.576  95.404  1.00  0.00     0.017 C 
HETATM   35  C24 UNL     1      13.060  51.651  93.751  1.00  0.00     0.017 C 
ENDBRANCH  26  32
ENDBRANCH  25  26
BRANCH  25  36
HETATM   36  O2  UNL     1      11.229  54.142  91.843  1.00  0.00    -0.348 OA
ATOM     37  H2  UNL     1      11.111  53.693  91.014  1.00  0.00     0.219 HD
ENDBRANCH  25  36
ENDBRANCH   1  25
BRANCH   3  38
HETATM   38  O3  UNL     1      15.257  55.983  90.909  1.00  0.00    -0.391 OA
ATOM     39  H3  UNL     1      14.566  55.951  91.560  1.00  0.00     0.210 HD
ENDBRANCH   3  38
TORSDOF 10
ENDMDL
