MODEL 3
REMARK VINA RESULT: -6.774009140      1.178      2.092
REMARK  9 active torsions:
REMARK  status: ('A' for Active; 'I' for Inactive)
REMARK    1  A    between atoms: C3_3  and  C4_4 
REMARK    2  A    between atoms: C4_4  and  C5_5 
REMARK    3  A    between atoms: C5_5  and  C6_6 
REMARK    4  A    between atoms: C6_6  and  C7_7 
REMARK    5  A    between atoms: C8_8  and  C9_9 
REMARK    6  A    between atoms: C9_9  and  C10_10 
REMARK    7  A    between atoms: C10_10  and  C11_11 
REMARK    8  A    between atoms: C11_11  and  C12_12 
REMARK    9  A    between atoms: C12_12  and  C13_13 
ROOT
HETATM    1  C7  UNL     1      38.915 -49.346 111.255  1.00  0.00    -0.031 C 
HETATM    2  C8  UNL     1      37.734 -49.907 111.234  1.00  0.00    -0.031 C 
ENDROOT
BRANCH   2   3
HETATM    3  C9  UNL     1      36.518 -49.055 111.189  1.00  0.00     0.027 C 
BRANCH   3   4
HETATM    4  C10 UNL     1      36.442 -48.323 112.516  1.00  0.00     0.004 C 
BRANCH   4   5
HETATM    5  C11 UNL     1      35.063 -48.394 113.117  1.00  0.00     0.011 C 
BRANCH   5   6
HETATM    6  C12 UNL     1      33.975 -48.443 112.065  1.00  0.00     0.113 C 
BRANCH   6   7
HETATM    7  C13 UNL     1      32.687 -48.634 112.763  1.00  0.00     0.172 C 
HETATM    8  O1  UNL     1      31.932 -49.592 112.489  1.00  0.00    -0.648 OA
HETATM    9  O2  UNL     1      32.304 -47.739 113.739  1.00  0.00    -0.648 OA
ENDBRANCH   6   7
ENDBRANCH   5   6
ENDBRANCH   4   5
ENDBRANCH   3   4
ENDBRANCH   2   3
BRANCH   1  10
HETATM   10  C6  UNL     1      40.171 -50.069 111.294  1.00  0.00     0.027 C 
BRANCH  10  11
HETATM   11  C5  UNL     1      40.194 -51.446 111.837  1.00  0.00     0.007 C 
BRANCH  11  12
HETATM   12  C4  UNL     1      41.424 -52.248 111.572  1.00  0.00     0.027 C 
BRANCH  12  13
HETATM   13  C3  UNL     1      42.470 -51.454 110.845  1.00  0.00    -0.031 C 
HETATM   14  C2  UNL     1      43.716 -51.843 110.779  1.00  0.00    -0.035 C 
HETATM   15  C1  UNL     1      44.773 -51.045 110.046  1.00  0.00     0.036 C 
ENDBRANCH  12  13
ENDBRANCH  11  12
ENDBRANCH  10  11
ENDBRANCH   1  10
TORSDOF 9
ENDMDL
