MODEL 19
REMARK VINA RESULT: -6.134897724      6.033      8.761
REMARK  8 active torsions:
REMARK  status: ('A' for Active; 'I' for Inactive)
REMARK    1  A    between atoms: C2_2  and  O1_3 
REMARK    2  A    between atoms: O1_3  and  C3_4 
REMARK    3  A    between atoms: C3_4  and  C4_6 
REMARK    4  A    between atoms: C4_6  and  N1_7 
REMARK       I    between atoms: N1_7  and  C5_9 
REMARK       I    between atoms: C5_9  and  N2_11 
REMARK    5  A    between atoms: N2_11  and  C6_12 
REMARK    6  A    between atoms: N2_11  and  C13_20 
REMARK    7  A    between atoms: C6_12  and  C7_13 
REMARK    8  A    between atoms: C13_20  and  C14_21 
ROOT
HETATM    1  N1  UNL     1      -1.430  16.731  -5.258  1.00  0.00    -0.334 N 
ATOM      2  H1  UNL     1      -2.338  17.077  -4.946  1.00  0.00     0.164 HD
HETATM    3  C5  UNL     1      -0.525  17.629  -5.868  1.00  0.00     0.319 C 
HETATM    4  O3  UNL     1       0.583  17.091  -6.223  1.00  0.00    -0.247 OA
HETATM    5  N2  UNL     1      -0.761  19.011  -6.095  1.00  0.00    -0.324 N 
ENDROOT
BRANCH   5   6
HETATM    6  C6  UNL     1      -1.967  19.674  -5.697  1.00  0.00     0.166 C 
BRANCH   6   7
HETATM    7  C7  UNL     1      -2.999  19.769  -6.760  1.00  0.00    -0.040 A 
HETATM    8  C8  UNL     1      -3.512  20.960  -7.212  1.00  0.00     0.011 A 
HETATM    9  C9  UNL     1      -4.486  20.995  -8.216  1.00  0.00     0.027 A 
HETATM   10  C10 UNL     1      -4.975  19.846  -8.796  1.00  0.00     0.046 A 
HETATM   11  N3  UNL     1      -5.965  19.868  -9.817  1.00  0.00    -0.102 NA
HETATM   12  C11 UNL     1      -4.463  18.653  -8.345  1.00  0.00     0.027 A 
HETATM   13  C12 UNL     1      -3.504  18.605  -7.358  1.00  0.00     0.011 A 
ENDBRANCH   6   7
ENDBRANCH   5   6
BRANCH   5  14
HETATM   14  C13 UNL     1       0.259  19.773  -6.762  1.00  0.00     0.187 C 
BRANCH  14  15
HETATM   15  C14 UNL     1       0.476  21.110  -6.215  1.00  0.00     0.058 A 
HETATM   16  C15 UNL     1       1.177  21.317  -5.028  1.00  0.00     0.135 A 
HETATM   17  N4  UNL     1       1.217  22.620  -4.770  1.00  0.00    -0.289 N 
HETATM   18  C16 UNL     1       1.858  23.264  -3.617  1.00  0.00     0.174 C 
HETATM   19  N5  UNL     1       0.568  23.231  -5.755  1.00  0.00    -0.021 NA
HETATM   20  N6  UNL     1       0.123  22.333  -6.621  1.00  0.00    -0.285 N 
ATOM     21  H6  UNL     1      -0.406  22.543  -7.467  1.00  0.00     0.184 HD
ENDBRANCH  14  15
ENDBRANCH   5  14
BRANCH   1  22
HETATM   22  C4  UNL     1      -1.099  15.311  -5.060  1.00  0.00     0.235 C 
BRANCH  22  23
HETATM   23  C3  UNL     1      -0.845  15.012  -3.638  1.00  0.00     0.276 C 
HETATM   24  O2  UNL     1      -1.003  15.882  -2.732  1.00  0.00    -0.263 OA
BRANCH  23  25
HETATM   25  O1  UNL     1      -0.429  13.752  -3.296  1.00  0.00    -0.321 OA
BRANCH  25  26
HETATM   26  C2  UNL     1      -0.854  12.570  -3.944  1.00  0.00     0.174 C 
HETATM   27  C1  UNL     1       0.268  11.846  -4.631  1.00  0.00     0.034 C 
ENDBRANCH  25  26
ENDBRANCH  23  25
ENDBRANCH  22  23
ENDBRANCH   1  22
TORSDOF 8
ENDMDL
