MODEL 1
REMARK VINA RESULT: -6.714975390      0.000      0.000
REMARK  8 active torsions:
REMARK  status: ('A' for Active; 'I' for Inactive)
REMARK    1  A    between atoms: C2_2  and  O1_3 
REMARK    2  A    between atoms: O1_3  and  C3_4 
REMARK    3  A    between atoms: C3_4  and  C4_6 
REMARK    4  A    between atoms: C4_6  and  N1_7 
REMARK       I    between atoms: N1_7  and  C5_9 
REMARK       I    between atoms: C5_9  and  N2_11 
REMARK    5  A    between atoms: N2_11  and  C6_12 
REMARK    6  A    between atoms: N2_11  and  C13_20 
REMARK    7  A    between atoms: C6_12  and  C7_13 
REMARK    8  A    between atoms: C13_20  and  C14_21 
ROOT
HETATM    1  N1  UNL     1      -7.156  20.898  -9.819  1.00  0.00    -0.334 N 
ATOM      2  H1  UNL     1      -8.169  20.860  -9.705  1.00  0.00     0.164 HD
HETATM    3  C5  UNL     1      -6.462  22.067  -9.430  1.00  0.00     0.319 C 
HETATM    4  O3  UNL     1      -5.197  22.008  -9.619  1.00  0.00    -0.247 OA
HETATM    5  N2  UNL     1      -7.056  23.231  -8.874  1.00  0.00    -0.324 N 
ENDROOT
BRANCH   5   6
HETATM    6  C6  UNL     1      -8.461  23.346  -8.615  1.00  0.00     0.166 C 
BRANCH   6   7
HETATM    7  C7  UNL     1      -8.807  24.204  -7.455  1.00  0.00    -0.040 A 
HETATM    8  C8  UNL     1      -8.625  23.820  -6.150  1.00  0.00     0.011 A 
HETATM    9  C9  UNL     1      -8.971  24.667  -5.090  1.00  0.00     0.027 A 
HETATM   10  C10 UNL     1      -9.504  25.918  -5.302  1.00  0.00     0.046 A 
HETATM   11  N3  UNL     1      -9.859  26.789  -4.235  1.00  0.00    -0.102 NA
HETATM   12  C11 UNL     1      -9.687  26.304  -6.609  1.00  0.00     0.027 A 
HETATM   13  C12 UNL     1      -9.351  25.480  -7.660  1.00  0.00     0.011 A 
ENDBRANCH   6   7
ENDBRANCH   5   6
BRANCH   5  14
HETATM   14  C13 UNL     1      -6.203  24.346  -8.565  1.00  0.00     0.187 C 
BRANCH  14  15
HETATM   15  C14 UNL     1      -6.129  25.364  -9.610  1.00  0.00     0.058 A 
HETATM   16  C15 UNL     1      -6.128  26.726  -9.315  1.00  0.00     0.135 A 
HETATM   17  N4  UNL     1      -6.058  27.415 -10.449  1.00  0.00    -0.289 N 
HETATM   18  C16 UNL     1      -6.032  28.877 -10.584  1.00  0.00     0.174 C 
HETATM   19  N5  UNL     1      -6.014  26.530 -11.439  1.00  0.00    -0.021 NA
HETATM   20  N6  UNL     1      -6.056  25.303 -10.943  1.00  0.00    -0.285 N 
ATOM     21  H6  UNL     1      -6.036  24.445 -11.493  1.00  0.00     0.184 HD
ENDBRANCH  14  15
ENDBRANCH   5  14
BRANCH   1  22
HETATM   22  C4  UNL     1      -6.457  19.734 -10.386  1.00  0.00     0.235 C 
BRANCH  22  23
HETATM   23  C3  UNL     1      -6.411  18.615  -9.425  1.00  0.00     0.276 C 
HETATM   24  O2  UNL     1      -6.967  17.503  -9.666  1.00  0.00    -0.263 OA
BRANCH  23  25
HETATM   25  O1  UNL     1      -5.745  18.792  -8.241  1.00  0.00    -0.321 OA
BRANCH  25  26
HETATM   26  C2  UNL     1      -4.341  18.707  -8.097  1.00  0.00     0.174 C 
HETATM   27  C1  UNL     1      -3.772  19.814  -7.258  1.00  0.00     0.034 C 
ENDBRANCH  25  26
ENDBRANCH  23  25
ENDBRANCH  22  23
ENDBRANCH   1  22
TORSDOF 8
ENDMDL
