MODEL 2
REMARK VINA RESULT: -6.672126114      4.461      7.939
REMARK  8 active torsions:
REMARK  status: ('A' for Active; 'I' for Inactive)
REMARK    1  A    between atoms: C2_2  and  O1_3 
REMARK    2  A    between atoms: O1_3  and  C3_4 
REMARK    3  A    between atoms: C3_4  and  C4_6 
REMARK    4  A    between atoms: C4_6  and  N1_7 
REMARK       I    between atoms: N1_7  and  C5_9 
REMARK       I    between atoms: C5_9  and  N2_11 
REMARK    5  A    between atoms: N2_11  and  C6_12 
REMARK    6  A    between atoms: N2_11  and  C13_20 
REMARK    7  A    between atoms: C6_12  and  C7_13 
REMARK    8  A    between atoms: C13_20  and  C14_21 
ROOT
HETATM    1  N1  UNL     1      -4.731  18.826  -8.353  1.00  0.00    -0.334 N 
ATOM      2  H1  UNL     1      -4.075  18.183  -8.798  1.00  0.00     0.164 HD
HETATM    3  C5  UNL     1      -4.253  19.728  -7.375  1.00  0.00     0.319 C 
HETATM    4  O3  UNL     1      -5.159  20.487  -6.879  1.00  0.00    -0.247 OA
HETATM    5  N2  UNL     1      -2.906  19.834  -6.939  1.00  0.00    -0.324 N 
ENDROOT
BRANCH   5   6
HETATM    6  C6  UNL     1      -1.845  19.032  -7.474  1.00  0.00     0.166 C 
BRANCH   6   7
HETATM    7  C7  UNL     1      -1.052  18.298  -6.456  1.00  0.00    -0.040 A 
HETATM    8  C8  UNL     1       0.219  18.660  -6.082  1.00  0.00     0.011 A 
HETATM    9  C9  UNL     1       0.925  17.932  -5.118  1.00  0.00     0.027 A 
HETATM   10  C10 UNL     1       0.386  16.826  -4.500  1.00  0.00     0.046 A 
HETATM   11  N3  UNL     1       1.093  16.078  -3.519  1.00  0.00    -0.102 NA
HETATM   12  C11 UNL     1      -0.886  16.463  -4.873  1.00  0.00     0.027 A 
HETATM   13  C12 UNL     1      -1.592  17.170  -5.820  1.00  0.00     0.011 A 
ENDBRANCH   6   7
ENDBRANCH   5   6
BRANCH   5  14
HETATM   14  C13 UNL     1      -2.598  20.786  -5.906  1.00  0.00     0.187 C 
BRANCH  14  15
HETATM   15  C14 UNL     1      -1.915  21.990  -6.372  1.00  0.00     0.058 A 
HETATM   16  C15 UNL     1      -2.602  23.173  -6.639  1.00  0.00     0.135 A 
HETATM   17  N4  UNL     1      -1.737  24.094  -7.047  1.00  0.00    -0.289 N 
HETATM   18  C16 UNL     1      -2.047  25.477  -7.430  1.00  0.00     0.174 C 
HETATM   19  N5  UNL     1      -0.535  23.527  -7.043  1.00  0.00    -0.021 NA
HETATM   20  N6  UNL     1      -0.636  22.270  -6.641  1.00  0.00    -0.285 N 
ATOM     21  H6  UNL     1       0.142  21.616  -6.550  1.00  0.00     0.184 HD
ENDBRANCH  14  15
ENDBRANCH   5  14
BRANCH   1  22
HETATM   22  C4  UNL     1      -6.148  18.789  -8.746  1.00  0.00     0.235 C 
BRANCH  22  23
HETATM   23  C3  UNL     1      -6.386  19.575  -9.972  1.00  0.00     0.276 C 
HETATM   24  O2  UNL     1      -6.493  19.028 -11.108  1.00  0.00    -0.263 OA
BRANCH  23  25
HETATM   25  O1  UNL     1      -6.496  20.937  -9.868  1.00  0.00    -0.321 OA
BRANCH  25  26
HETATM   26  C2  UNL     1      -7.630  21.678 -10.272  1.00  0.00     0.174 C 
HETATM   27  C1  UNL     1      -8.700  21.727  -9.220  1.00  0.00     0.034 C 
ENDBRANCH  25  26
ENDBRANCH  23  25
ENDBRANCH  22  23
ENDBRANCH   1  22
TORSDOF 8
ENDMDL
