MODEL 5
REMARK VINA RESULT: -6.428976642      1.451      2.103
REMARK  8 active torsions:
REMARK  status: ('A' for Active; 'I' for Inactive)
REMARK    1  A    between atoms: C2_2  and  O1_3 
REMARK    2  A    between atoms: O1_3  and  C3_4 
REMARK    3  A    between atoms: C3_4  and  C4_6 
REMARK    4  A    between atoms: C4_6  and  N1_7 
REMARK       I    between atoms: N1_7  and  C5_9 
REMARK       I    between atoms: C5_9  and  N2_11 
REMARK    5  A    between atoms: N2_11  and  C6_12 
REMARK    6  A    between atoms: N2_11  and  C13_20 
REMARK    7  A    between atoms: C6_12  and  C7_13 
REMARK    8  A    between atoms: C13_20  and  C14_21 
ROOT
HETATM    1  N1  UNL     1      -5.701  21.001  -7.732  1.00  0.00    -0.334 N 
ATOM      2  H1  UNL     1      -6.552  20.812  -7.203  1.00  0.00     0.164 HD
HETATM    3  C5  UNL     1      -5.772  21.826  -8.878  1.00  0.00     0.319 C 
HETATM    4  O3  UNL     1      -4.648  21.995  -9.469  1.00  0.00    -0.247 OA
HETATM    5  N2  UNL     1      -6.950  22.441  -9.380  1.00  0.00    -0.324 N 
ENDROOT
BRANCH   5   6
HETATM    6  C6  UNL     1      -8.230  22.310  -8.749  1.00  0.00     0.166 C 
BRANCH   6   7
HETATM    7  C7  UNL     1      -8.574  23.411  -7.814  1.00  0.00    -0.040 A 
HETATM    8  C8  UNL     1      -9.254  24.541  -8.196  1.00  0.00     0.011 A 
HETATM    9  C9  UNL     1      -9.551  25.553  -7.275  1.00  0.00     0.027 A 
HETATM   10  C10 UNL     1      -9.181  25.466  -5.952  1.00  0.00     0.046 A 
HETATM   11  N3  UNL     1      -9.476  26.486  -5.007  1.00  0.00    -0.102 NA
HETATM   12  C11 UNL     1      -8.500  24.335  -5.569  1.00  0.00     0.027 A 
HETATM   13  C12 UNL     1      -8.201  23.332  -6.465  1.00  0.00     0.011 A 
ENDBRANCH   6   7
ENDBRANCH   5   6
BRANCH   5  14
HETATM   14  C13 UNL     1      -6.849  23.224 -10.581  1.00  0.00     0.187 C 
BRANCH  14  15
HETATM   15  C14 UNL     1      -6.381  24.593 -10.379  1.00  0.00     0.058 A 
HETATM   16  C15 UNL     1      -6.447  25.552 -11.387  1.00  0.00     0.135 A 
HETATM   17  N4  UNL     1      -5.952  26.697 -10.930  1.00  0.00    -0.289 N 
HETATM   18  C16 UNL     1      -5.837  27.959 -11.672  1.00  0.00     0.174 C 
HETATM   19  N5  UNL     1      -5.581  26.485  -9.672  1.00  0.00    -0.021 NA
HETATM   20  N6  UNL     1      -5.835  25.229  -9.338  1.00  0.00    -0.285 N 
ATOM     21  H6  UNL     1      -5.644  24.812  -8.427  1.00  0.00     0.184 HD
ENDBRANCH  14  15
ENDBRANCH   5  14
BRANCH   1  22
HETATM   22  C4  UNL     1      -4.432  20.406  -7.283  1.00  0.00     0.235 C 
BRANCH  22  23
HETATM   23  C3  UNL     1      -4.313  19.002  -7.719  1.00  0.00     0.276 C 
HETATM   24  O2  UNL     1      -5.147  18.473  -8.511  1.00  0.00    -0.263 OA
BRANCH  23  25
HETATM   25  O1  UNL     1      -3.265  18.255  -7.248  1.00  0.00    -0.321 OA
BRANCH  25  26
HETATM   26  C2  UNL     1      -1.928  18.710  -7.186  1.00  0.00     0.174 C 
HETATM   27  C1  UNL     1      -1.189  18.186  -5.989  1.00  0.00     0.034 C 
ENDBRANCH  25  26
ENDBRANCH  23  25
ENDBRANCH  22  23
ENDBRANCH   1  22
TORSDOF 8
ENDMDL
