MODEL 5
REMARK VINA RESULT: -5.667861235      5.546      7.901
REMARK  7 active torsions:
REMARK  status: ('A' for Active; 'I' for Inactive)
REMARK    1  A    between atoms: C2_2  and  O1_3 
REMARK    2  A    between atoms: O1_3  and  C3_4 
REMARK    3  A    between atoms: C3_4  and  C4_6 
REMARK    4  A    between atoms: C4_6  and  N1_7 
REMARK       I    between atoms: N1_7  and  C5_9 
REMARK       I    between atoms: C5_9  and  N2_11 
REMARK    5  A    between atoms: N2_11  and  C6_12 
REMARK    6  A    between atoms: N2_11  and  C8_14 
REMARK    7  A    between atoms: C8_14  and  C9_15 
ROOT
HETATM    1  N1  UNL     1      -7.051  21.291 -10.903  1.00  0.00    -0.334 N 
ATOM      2  H1  UNL     1      -6.195  21.674 -11.303  1.00  0.00     0.164 HD
HETATM    3  C5  UNL     1      -7.860  22.100 -10.094  1.00  0.00     0.319 C 
HETATM    4  O3  UNL     1      -8.930  21.587  -9.601  1.00  0.00    -0.247 OA
HETATM    5  N2  UNL     1      -7.561  23.439  -9.795  1.00  0.00    -0.330 N 
ENDROOT
BRANCH   5   6
HETATM    6  C6  UNL     1      -6.382  24.061 -10.342  1.00  0.00     0.123 C 
HETATM    7  C7  UNL     1      -6.669  25.076 -11.426  1.00  0.00     0.026 C 
ENDBRANCH   5   6
BRANCH   5   8
HETATM    8  C8  UNL     1      -8.384  24.278  -8.952  1.00  0.00     0.166 C 
BRANCH   8   9
HETATM    9  C9  UNL     1      -7.729  24.816  -7.774  1.00  0.00    -0.040 A 
HETATM   10  C10 UNL     1      -7.484  26.165  -7.666  1.00  0.00     0.011 A 
HETATM   11  C11 UNL     1      -6.859  26.701  -6.541  1.00  0.00     0.027 A 
HETATM   12  C12 UNL     1      -6.476  25.875  -5.508  1.00  0.00     0.046 A 
HETATM   13  N3  UNL     1      -5.827  26.415  -4.333  1.00  0.00    -0.102 NA
HETATM   14  C13 UNL     1      -6.724  24.528  -5.621  1.00  0.00     0.027 A 
HETATM   15  C14 UNL     1      -7.339  24.014  -6.737  1.00  0.00     0.011 A 
ENDBRANCH   8   9
ENDBRANCH   5   8
BRANCH   1  16
HETATM   16  C4  UNL     1      -7.415  19.918 -11.176  1.00  0.00     0.235 C 
BRANCH  16  17
HETATM   17  C3  UNL     1      -6.681  19.028 -10.273  1.00  0.00     0.276 C 
HETATM   18  O2  UNL     1      -7.076  17.844 -10.080  1.00  0.00    -0.263 OA
BRANCH  17  19
HETATM   19  O1  UNL     1      -5.536  19.409  -9.583  1.00  0.00    -0.321 OA
BRANCH  19  20
HETATM   20  C2  UNL     1      -5.386  19.107  -8.228  1.00  0.00     0.174 C 
HETATM   21  C1  UNL     1      -6.088  20.151  -7.374  1.00  0.00     0.034 C 
ENDBRANCH  19  20
ENDBRANCH  17  19
ENDBRANCH  16  17
ENDBRANCH   1  16
TORSDOF 7
ENDMDL
