MODEL 2
REMARK VINA RESULT: -5.747392218      3.624      6.879
REMARK  7 active torsions:
REMARK  status: ('A' for Active; 'I' for Inactive)
REMARK    1  A    between atoms: C2_2  and  O1_3 
REMARK    2  A    between atoms: O1_3  and  C3_4 
REMARK    3  A    between atoms: C3_4  and  C4_6 
REMARK    4  A    between atoms: C4_6  and  N1_7 
REMARK       I    between atoms: N1_7  and  C5_9 
REMARK       I    between atoms: C5_9  and  N2_11 
REMARK    5  A    between atoms: N2_11  and  C6_12 
REMARK    6  A    between atoms: N2_11  and  C8_14 
REMARK    7  A    between atoms: C8_14  and  C9_15 
ROOT
HETATM    1  N1  UNL     1      -4.997  18.590  -8.503  1.00  0.00    -0.334 N 
ATOM      2  H1  UNL     1      -4.260  18.048  -8.955  1.00  0.00     0.164 HD
HETATM    3  C5  UNL     1      -4.672  19.469  -7.463  1.00  0.00     0.319 C 
HETATM    4  O3  UNL     1      -5.622  20.134  -6.911  1.00  0.00    -0.247 OA
HETATM    5  N2  UNL     1      -3.362  19.660  -6.993  1.00  0.00    -0.330 N 
ENDROOT
BRANCH   5   6
HETATM    6  C6  UNL     1      -2.262  18.950  -7.596  1.00  0.00     0.123 C 
HETATM    7  C7  UNL     1      -1.207  18.501  -6.609  1.00  0.00     0.026 C 
ENDBRANCH   5   6
BRANCH   5   8
HETATM    8  C8  UNL     1      -3.018  20.558  -5.912  1.00  0.00     0.166 C 
BRANCH   8   9
HETATM    9  C9  UNL     1      -2.611  21.893  -6.312  1.00  0.00    -0.040 A 
HETATM   10  C10 UNL     1      -1.289  22.264  -6.261  1.00  0.00     0.011 A 
HETATM   11  C11 UNL     1      -0.878  23.539  -6.644  1.00  0.00     0.027 A 
HETATM   12  C12 UNL     1      -1.805  24.457  -7.086  1.00  0.00     0.046 A 
HETATM   13  N3  UNL     1      -1.396  25.785  -7.488  1.00  0.00    -0.102 NA
HETATM   14  C13 UNL     1      -3.126  24.080  -7.135  1.00  0.00     0.027 A 
HETATM   15  C14 UNL     1      -3.516  22.819  -6.753  1.00  0.00     0.011 A 
ENDBRANCH   8   9
ENDBRANCH   5   8
BRANCH   1  16
HETATM   16  C4  UNL     1      -6.367  18.439  -8.944  1.00  0.00     0.235 C 
BRANCH  16  17
HETATM   17  C3  UNL     1      -6.608  19.315 -10.094  1.00  0.00     0.276 C 
HETATM   18  O2  UNL     1      -6.786  18.825 -11.246  1.00  0.00    -0.263 OA
BRANCH  17  19
HETATM   19  O1  UNL     1      -6.658  20.701 -10.008  1.00  0.00    -0.321 OA
BRANCH  19  20
HETATM   20  C2  UNL     1      -7.764  21.407 -10.486  1.00  0.00     0.174 C 
HETATM   21  C1  UNL     1      -8.824  21.524  -9.402  1.00  0.00     0.034 C 
ENDBRANCH  19  20
ENDBRANCH  17  19
ENDBRANCH  16  17
ENDBRANCH   1  16
TORSDOF 7
ENDMDL
