MODEL 3
REMARK VINA RESULT: -5.691619944      3.712      4.928
REMARK  7 active torsions:
REMARK  status: ('A' for Active; 'I' for Inactive)
REMARK    1  A    between atoms: C2_2  and  O1_3 
REMARK    2  A    between atoms: O1_3  and  C3_4 
REMARK    3  A    between atoms: C3_4  and  C4_6 
REMARK    4  A    between atoms: C4_6  and  N1_7 
REMARK       I    between atoms: N1_7  and  C5_9 
REMARK       I    between atoms: C5_9  and  N2_11 
REMARK    5  A    between atoms: N2_11  and  C6_12 
REMARK    6  A    between atoms: N2_11  and  C8_14 
REMARK    7  A    between atoms: C8_14  and  C9_15 
ROOT
HETATM    1  N1  UNL     1      -1.243  16.683  -3.814  1.00  0.00    -0.334 N 
ATOM      2  H1  UNL     1      -1.142  17.388  -3.083  1.00  0.00     0.164 HD
HETATM    3  C5  UNL     1      -1.331  17.082  -5.153  1.00  0.00     0.319 C 
HETATM    4  O3  UNL     1      -1.462  16.171  -6.050  1.00  0.00    -0.247 OA
HETATM    5  N2  UNL     1      -1.282  18.424  -5.566  1.00  0.00    -0.330 N 
ENDROOT
BRANCH   5   6
HETATM    6  C6  UNL     1      -1.116  19.477  -4.596  1.00  0.00     0.123 C 
HETATM    7  C7  UNL     1      -0.058  20.492  -4.968  1.00  0.00     0.026 C 
ENDBRANCH   5   6
BRANCH   5   8
HETATM    8  C8  UNL     1      -1.384  18.846  -6.946  1.00  0.00     0.166 C 
BRANCH   8   9
HETATM    9  C9  UNL     1      -2.705  19.262  -7.377  1.00  0.00    -0.040 A 
HETATM   10  C10 UNL     1      -3.034  20.596  -7.429  1.00  0.00     0.011 A 
HETATM   11  C11 UNL     1      -4.296  21.017  -7.844  1.00  0.00     0.027 A 
HETATM   12  C12 UNL     1      -5.243  20.088  -8.216  1.00  0.00     0.046 A 
HETATM   13  N3  UNL     1      -6.558  20.507  -8.650  1.00  0.00    -0.102 NA
HETATM   14  C13 UNL     1      -4.908  18.756  -8.162  1.00  0.00     0.027 A 
HETATM   15  C14 UNL     1      -3.661  18.357  -7.749  1.00  0.00     0.011 A 
ENDBRANCH   8   9
ENDBRANCH   5   8
BRANCH   1  16
HETATM   16  C4  UNL     1      -1.296  15.283  -3.452  1.00  0.00     0.235 C 
BRANCH  16  17
HETATM   17  C3  UNL     1       0.064  14.738  -3.409  1.00  0.00     0.276 C 
HETATM   18  O2  UNL     1       1.030  15.458  -3.028  1.00  0.00    -0.263 OA
BRANCH  17  19
HETATM   19  O1  UNL     1       0.381  13.435  -3.773  1.00  0.00    -0.321 OA
BRANCH  19  20
HETATM   20  C2  UNL     1      -0.568  12.614  -4.384  1.00  0.00     0.174 C 
HETATM   21  C1  UNL     1       0.071  11.309  -4.831  1.00  0.00     0.034 C 
ENDBRANCH  19  20
ENDBRANCH  17  19
ENDBRANCH  16  17
ENDBRANCH   1  16
TORSDOF 7
ENDMDL
