MODEL 9
REMARK VINA RESULT: -5.629611099      2.900      4.228
REMARK  7 active torsions:
REMARK  status: ('A' for Active; 'I' for Inactive)
REMARK    1  A    between atoms: C2_2  and  O1_3 
REMARK    2  A    between atoms: O1_3  and  C3_4 
REMARK    3  A    between atoms: C3_4  and  C4_6 
REMARK    4  A    between atoms: C4_6  and  N1_7 
REMARK       I    between atoms: N1_7  and  C5_9 
REMARK       I    between atoms: C5_9  and  N2_11 
REMARK    5  A    between atoms: N2_11  and  C6_12 
REMARK    6  A    between atoms: N2_11  and  C8_14 
REMARK    7  A    between atoms: C8_14  and  C9_15 
ROOT
HETATM    1  N1  UNL     1      -0.796  17.922  -5.017  1.00  0.00    -0.334 N 
ATOM      2  H1  UNL     1      -1.056  18.232  -4.081  1.00  0.00     0.164 HD
HETATM    3  C5  UNL     1      -1.182  18.681  -6.130  1.00  0.00     0.319 C 
HETATM    4  O3  UNL     1      -0.844  18.263  -7.296  1.00  0.00    -0.247 OA
HETATM    5  N2  UNL     1      -1.919  19.873  -6.035  1.00  0.00    -0.330 N 
ENDROOT
BRANCH   5   6
HETATM    6  C6  UNL     1      -2.304  20.389  -4.745  1.00  0.00     0.123 C 
HETATM    7  C7  UNL     1      -1.821  21.797  -4.480  1.00  0.00     0.026 C 
ENDBRANCH   5   6
BRANCH   5   8
HETATM    8  C8  UNL     1      -2.333  20.656  -7.178  1.00  0.00     0.166 C 
BRANCH   8   9
HETATM    9  C9  UNL     1      -3.638  20.328  -7.723  1.00  0.00    -0.040 A 
HETATM   10  C10 UNL     1      -4.450  21.315  -8.229  1.00  0.00     0.011 A 
HETATM   11  C11 UNL     1      -5.705  21.021  -8.760  1.00  0.00     0.027 A 
HETATM   12  C12 UNL     1      -6.152  19.718  -8.786  1.00  0.00     0.046 A 
HETATM   13  N3  UNL     1      -7.451  19.395  -9.333  1.00  0.00    -0.102 NA
HETATM   14  C13 UNL     1      -5.336  18.736  -8.278  1.00  0.00     0.027 A 
HETATM   15  C14 UNL     1      -4.102  19.042  -7.757  1.00  0.00     0.011 A 
ENDBRANCH   8   9
ENDBRANCH   5   8
BRANCH   1  16
HETATM   16  C4  UNL     1      -0.033  16.704  -5.181  1.00  0.00     0.235 C 
BRANCH  16  17
HETATM   17  C3  UNL     1      -0.906  15.547  -4.958  1.00  0.00     0.276 C 
HETATM   18  O2  UNL     1      -2.161  15.668  -5.040  1.00  0.00    -0.263 OA
BRANCH  17  19
HETATM   19  O1  UNL     1      -0.434  14.276  -4.651  1.00  0.00    -0.321 OA
BRANCH  19  20
HETATM   20  C2  UNL     1      -1.092  13.138  -5.122  1.00  0.00     0.174 C 
HETATM   21  C1  UNL     1      -0.330  11.885  -4.722  1.00  0.00     0.034 C 
ENDBRANCH  19  20
ENDBRANCH  17  19
ENDBRANCH  16  17
ENDBRANCH   1  16
TORSDOF 7
ENDMDL
