MODEL 18
REMARK VINA RESULT: -5.385904705      3.341      4.669
REMARK  7 active torsions:
REMARK  status: ('A' for Active; 'I' for Inactive)
REMARK    1  A    between atoms: C2_2  and  O1_3 
REMARK    2  A    between atoms: O1_3  and  C3_4 
REMARK    3  A    between atoms: C3_4  and  C4_6 
REMARK    4  A    between atoms: C4_6  and  N1_7 
REMARK       I    between atoms: N1_7  and  C5_9 
REMARK       I    between atoms: C5_9  and  N2_11 
REMARK    5  A    between atoms: N2_11  and  C6_12 
REMARK    6  A    between atoms: N2_11  and  C8_14 
REMARK    7  A    between atoms: C8_14  and  C9_15 
ROOT
HETATM    1  N1  UNL     1      -1.753  17.470  -5.320  1.00  0.00    -0.334 N 
ATOM      2  H1  UNL     1      -1.659  17.849  -4.378  1.00  0.00     0.164 HD
HETATM    3  C5  UNL     1      -2.079  18.324  -6.381  1.00  0.00     0.319 C 
HETATM    4  O3  UNL     1      -2.194  17.817  -7.555  1.00  0.00    -0.247 OA
HETATM    5  N2  UNL     1      -2.286  19.705  -6.226  1.00  0.00    -0.330 N 
ENDROOT
BRANCH   5   6
HETATM    6  C6  UNL     1      -2.148  20.321  -4.930  1.00  0.00     0.123 C 
HETATM    7  C7  UNL     1      -1.287  21.564  -4.930  1.00  0.00     0.026 C 
ENDBRANCH   5   6
BRANCH   5   8
HETATM    8  C8  UNL     1      -2.635  20.593  -7.314  1.00  0.00     0.166 C 
BRANCH   8   9
HETATM    9  C9  UNL     1      -4.015  21.042  -7.337  1.00  0.00    -0.040 A 
HETATM   10  C10 UNL     1      -4.311  22.383  -7.398  1.00  0.00     0.011 A 
HETATM   11  C11 UNL     1      -5.630  22.834  -7.426  1.00  0.00     0.027 A 
HETATM   12  C12 UNL     1      -6.668  21.928  -7.393  1.00  0.00     0.046 A 
HETATM   13  N3  UNL     1      -8.042  22.379  -7.422  1.00  0.00    -0.102 NA
HETATM   14  C13 UNL     1      -6.365  20.589  -7.332  1.00  0.00     0.027 A 
HETATM   15  C14 UNL     1      -5.060  20.160  -7.304  1.00  0.00     0.011 A 
ENDBRANCH   8   9
ENDBRANCH   5   8
BRANCH   1  16
HETATM   16  C4  UNL     1      -1.548  16.055  -5.544  1.00  0.00     0.235 C 
BRANCH  16  17
HETATM   17  C3  UNL     1      -0.979  15.447  -4.339  1.00  0.00     0.276 C 
HETATM   18  O2  UNL     1      -1.049  16.042  -3.227  1.00  0.00    -0.263 OA
BRANCH  17  19
HETATM   19  O1  UNL     1      -0.341  14.211  -4.329  1.00  0.00    -0.321 OA
BRANCH  19  20
HETATM   20  C2  UNL     1      -1.012  13.060  -4.746  1.00  0.00     0.174 C 
HETATM   21  C1  UNL     1      -0.014  11.976  -5.125  1.00  0.00     0.034 C 
ENDBRANCH  19  20
ENDBRANCH  17  19
ENDBRANCH  16  17
ENDBRANCH   1  16
TORSDOF 7
ENDMDL
