MODEL 4
REMARK VINA RESULT: -5.680865074      3.706      5.019
REMARK  7 active torsions:
REMARK  status: ('A' for Active; 'I' for Inactive)
REMARK    1  A    between atoms: C2_2  and  O1_3 
REMARK    2  A    between atoms: O1_3  and  C3_4 
REMARK    3  A    between atoms: C3_4  and  C4_6 
REMARK    4  A    between atoms: C4_6  and  N1_7 
REMARK       I    between atoms: N1_7  and  C5_9 
REMARK       I    between atoms: C5_9  and  N2_11 
REMARK    5  A    between atoms: N2_11  and  C6_12 
REMARK    6  A    between atoms: N2_11  and  C8_14 
REMARK    7  A    between atoms: C8_14  and  C9_15 
ROOT
HETATM    1  N1  UNL     1      -1.242  16.693  -3.814  1.00  0.00    -0.334 N 
ATOM      2  H1  UNL     1      -1.139  17.398  -3.084  1.00  0.00     0.164 HD
HETATM    3  C5  UNL     1      -1.328  17.091  -5.154  1.00  0.00     0.319 C 
HETATM    4  O3  UNL     1      -1.461  16.179  -6.050  1.00  0.00    -0.247 OA
HETATM    5  N2  UNL     1      -1.278  18.432  -5.568  1.00  0.00    -0.330 N 
ENDROOT
BRANCH   5   6
HETATM    6  C6  UNL     1      -1.111  19.486  -4.599  1.00  0.00     0.123 C 
HETATM    7  C7  UNL     1      -0.039  20.489  -4.962  1.00  0.00     0.026 C 
ENDBRANCH   5   6
BRANCH   5   8
HETATM    8  C8  UNL     1      -1.378  18.853  -6.948  1.00  0.00     0.166 C 
BRANCH   8   9
HETATM    9  C9  UNL     1      -2.696  19.284  -7.377  1.00  0.00    -0.040 A 
HETATM   10  C10 UNL     1      -3.648  18.362  -7.742  1.00  0.00     0.011 A 
HETATM   11  C11 UNL     1      -4.920  18.756  -8.152  1.00  0.00     0.027 A 
HETATM   12  C12 UNL     1      -5.245  20.094  -8.197  1.00  0.00     0.046 A 
HETATM   13  N3  UNL     1      -6.561  20.520  -8.620  1.00  0.00    -0.102 NA
HETATM   14  C13 UNL     1      -4.290  21.011  -7.830  1.00  0.00     0.027 A 
HETATM   15  C14 UNL     1      -3.039  20.607  -7.429  1.00  0.00     0.011 A 
ENDBRANCH   8   9
ENDBRANCH   5   8
BRANCH   1  16
HETATM   16  C4  UNL     1      -1.296  15.293  -3.452  1.00  0.00     0.235 C 
BRANCH  16  17
HETATM   17  C3  UNL     1       0.062  14.746  -3.411  1.00  0.00     0.276 C 
HETATM   18  O2  UNL     1       1.033  15.467  -3.045  1.00  0.00    -0.263 OA
BRANCH  17  19
HETATM   19  O1  UNL     1       0.374  13.437  -3.761  1.00  0.00    -0.321 OA
BRANCH  19  20
HETATM   20  C2  UNL     1      -0.559  12.633  -4.419  1.00  0.00     0.174 C 
HETATM   21  C1  UNL     1       0.079  11.318  -4.838  1.00  0.00     0.034 C 
ENDBRANCH  19  20
ENDBRANCH  17  19
ENDBRANCH  16  17
ENDBRANCH   1  16
TORSDOF 7
ENDMDL
