MODEL 7
REMARK VINA RESULT: -5.641453890      4.508      7.027
REMARK  7 active torsions:
REMARK  status: ('A' for Active; 'I' for Inactive)
REMARK    1  A    between atoms: C2_2  and  O1_3 
REMARK    2  A    between atoms: O1_3  and  C3_4 
REMARK    3  A    between atoms: C3_4  and  C4_6 
REMARK    4  A    between atoms: C4_6  and  N1_7 
REMARK       I    between atoms: N1_7  and  C5_9 
REMARK       I    between atoms: C5_9  and  N2_11 
REMARK    5  A    between atoms: N2_11  and  C6_12 
REMARK    6  A    between atoms: N2_11  and  C8_14 
REMARK    7  A    between atoms: C8_14  and  C9_15 
ROOT
HETATM    1  N1  UNL     1      -7.107  20.831  -9.510  1.00  0.00    -0.334 N 
ATOM      2  H1  UNL     1      -8.030  20.848  -9.078  1.00  0.00     0.164 HD
HETATM    3  C5  UNL     1      -6.244  21.921  -9.344  1.00  0.00     0.319 C 
HETATM    4  O3  UNL     1      -5.089  21.872  -9.904  1.00  0.00    -0.247 OA
HETATM    5  N2  UNL     1      -6.577  23.064  -8.597  1.00  0.00    -0.330 N 
ENDROOT
BRANCH   5   6
HETATM    6  C6  UNL     1      -7.853  23.154  -7.935  1.00  0.00     0.123 C 
HETATM    7  C7  UNL     1      -7.871  22.546  -6.551  1.00  0.00     0.026 C 
ENDBRANCH   5   6
BRANCH   5   8
HETATM    8  C8  UNL     1      -5.696  24.199  -8.429  1.00  0.00     0.166 C 
BRANCH   8   9
HETATM    9  C9  UNL     1      -4.841  24.161  -7.257  1.00  0.00    -0.040 A 
HETATM   10  C10 UNL     1      -5.111  24.959  -6.171  1.00  0.00     0.011 A 
HETATM   11  C11 UNL     1      -4.304  24.934  -5.034  1.00  0.00     0.027 A 
HETATM   12  C12 UNL     1      -3.213  24.096  -4.984  1.00  0.00     0.046 A 
HETATM   13  N3  UNL     1      -2.365  24.057  -3.812  1.00  0.00    -0.102 NA
HETATM   14  C13 UNL     1      -2.949  23.300  -6.073  1.00  0.00     0.027 A 
HETATM   15  C14 UNL     1      -3.752  23.337  -7.186  1.00  0.00     0.011 A 
ENDBRANCH   8   9
ENDBRANCH   5   8
BRANCH   1  16
HETATM   16  C4  UNL     1      -6.704  19.680 -10.289  1.00  0.00     0.235 C 
BRANCH  16  17
HETATM   17  C3  UNL     1      -6.630  18.503  -9.420  1.00  0.00     0.276 C 
HETATM   18  O2  UNL     1      -7.178  17.418  -9.763  1.00  0.00    -0.263 OA
BRANCH  17  19
HETATM   19  O1  UNL     1      -5.974  18.493  -8.194  1.00  0.00    -0.321 OA
BRANCH  19  20
HETATM   20  C2  UNL     1      -4.580  18.541  -8.131  1.00  0.00     0.174 C 
HETATM   21  C1  UNL     1      -4.131  19.666  -7.211  1.00  0.00     0.034 C 
ENDBRANCH  19  20
ENDBRANCH  17  19
ENDBRANCH  16  17
ENDBRANCH   1  16
TORSDOF 7
ENDMDL
