MODEL 12
REMARK VINA RESULT: -5.507886287      3.620      5.039
REMARK  7 active torsions:
REMARK  status: ('A' for Active; 'I' for Inactive)
REMARK    1  A    between atoms: C2_2  and  O1_3 
REMARK    2  A    between atoms: O1_3  and  C3_4 
REMARK    3  A    between atoms: C3_4  and  C4_6 
REMARK    4  A    between atoms: C4_6  and  N1_7 
REMARK       I    between atoms: N1_7  and  C5_9 
REMARK       I    between atoms: C5_9  and  N2_11 
REMARK    5  A    between atoms: N2_11  and  C6_12 
REMARK    6  A    between atoms: N2_11  and  C8_14 
REMARK    7  A    between atoms: C8_14  and  C9_15 
ROOT
HETATM    1  N1  UNL     1      -0.970  17.227  -4.015  1.00  0.00    -0.334 N 
ATOM      2  H1  UNL     1      -1.199  17.823  -3.220  1.00  0.00     0.164 HD
HETATM    3  C5  UNL     1      -1.086  17.732  -5.315  1.00  0.00     0.319 C 
HETATM    4  O3  UNL     1      -0.794  16.956  -6.297  1.00  0.00    -0.247 OA
HETATM    5  N2  UNL     1      -1.505  19.042  -5.602  1.00  0.00    -0.330 N 
ENDROOT
BRANCH   5   6
HETATM    6  C6  UNL     1      -1.824  19.954  -4.532  1.00  0.00     0.123 C 
HETATM    7  C7  UNL     1      -1.172  21.312  -4.669  1.00  0.00     0.026 C 
ENDBRANCH   5   6
BRANCH   5   8
HETATM    8  C8  UNL     1      -1.639  19.569  -6.942  1.00  0.00     0.166 C 
BRANCH   8   9
HETATM    9  C9  UNL     1      -2.993  19.616  -7.464  1.00  0.00    -0.040 A 
HETATM   10  C10 UNL     1      -3.617  20.822  -7.677  1.00  0.00     0.011 A 
HETATM   11  C11 UNL     1      -4.915  20.888  -8.181  1.00  0.00     0.027 A 
HETATM   12  C12 UNL     1      -5.597  19.729  -8.478  1.00  0.00     0.046 A 
HETATM   13  N3  UNL     1      -6.944  19.780  -9.002  1.00  0.00    -0.102 NA
HETATM   14  C13 UNL     1      -4.968  18.527  -8.263  1.00  0.00     0.027 A 
HETATM   15  C14 UNL     1      -3.689  18.478  -7.764  1.00  0.00     0.011 A 
ENDBRANCH   8   9
ENDBRANCH   5   8
BRANCH   1  16
HETATM   16  C4  UNL     1      -0.529  15.868  -3.785  1.00  0.00     0.235 C 
BRANCH  16  17
HETATM   17  C3  UNL     1      -1.241  15.312  -2.631  1.00  0.00     0.276 C 
HETATM   18  O2  UNL     1      -2.050  16.026  -1.973  1.00  0.00    -0.263 OA
BRANCH  17  19
HETATM   19  O1  UNL     1      -1.084  14.004  -2.188  1.00  0.00    -0.321 OA
BRANCH  19  20
HETATM   20  C2  UNL     1      -0.241  13.119  -2.863  1.00  0.00     0.174 C 
HETATM   21  C1  UNL     1      -1.058  12.094  -3.633  1.00  0.00     0.034 C 
ENDBRANCH  19  20
ENDBRANCH  17  19
ENDBRANCH  16  17
ENDBRANCH   1  16
TORSDOF 7
ENDMDL
