MODEL 2
REMARK VINA RESULT: -7.009086998      0.910      1.793
REMARK  8 active torsions:
REMARK  status: ('A' for Active; 'I' for Inactive)
REMARK    1  A    between atoms: C2_2  and  O1_3 
REMARK    2  A    between atoms: O1_3  and  C3_4 
REMARK    3  A    between atoms: C3_4  and  C4_6 
REMARK    4  A    between atoms: C4_6  and  N1_7 
REMARK       I    between atoms: N1_7  and  C5_9 
REMARK       I    between atoms: C5_9  and  N2_11 
REMARK    5  A    between atoms: N2_11  and  C6_12 
REMARK    6  A    between atoms: N2_11  and  C13_20 
REMARK    7  A    between atoms: C6_12  and  C7_13 
REMARK    8  A    between atoms: C13_20  and  C14_21 
ROOT
HETATM    1  N1  UNL     1      -1.960  19.911  -7.552  1.00  0.00    -0.334 N 
ATOM      2  H1  UNL     1      -1.609  20.800  -7.907  1.00  0.00     0.164 HD
HETATM    3  C5  UNL     1      -3.350  19.707  -7.443  1.00  0.00     0.319 C 
HETATM    4  O3  UNL     1      -3.739  18.600  -7.000  1.00  0.00    -0.247 OA
HETATM    5  N2  UNL     1      -4.297  20.679  -7.805  1.00  0.00    -0.323 N 
ENDROOT
BRANCH   5   6
HETATM    6  C6  UNL     1      -3.916  21.949  -8.322  1.00  0.00     0.166 C 
BRANCH   6   7
HETATM    7  C7  UNL     1      -4.788  23.056  -7.790  1.00  0.00    -0.040 A 
HETATM    8  C8  UNL     1      -5.863  23.513  -8.519  1.00  0.00     0.011 A 
HETATM    9  C9  UNL     1      -6.686  24.534  -8.054  1.00  0.00     0.027 A 
HETATM   10  C10 UNL     1      -6.438  25.117  -6.837  1.00  0.00     0.046 A 
HETATM   11  N3  UNL     1      -7.286  26.162  -6.366  1.00  0.00    -0.102 NA
HETATM   12  C11 UNL     1      -5.368  24.673  -6.094  1.00  0.00     0.027 A 
HETATM   13  C12 UNL     1      -4.553  23.651  -6.571  1.00  0.00     0.011 A 
ENDBRANCH   6   7
ENDBRANCH   5   6
BRANCH   5  14
HETATM   14  C13 UNL     1      -5.705  20.386  -7.646  1.00  0.00     0.206 C 
BRANCH  14  15
HETATM   15  C14 UNL     1      -6.221  19.576  -8.770  1.00  0.00     0.125 A 
HETATM   16  N4  UNL     1      -6.641  18.301  -8.741  1.00  0.00    -0.272 N 
HETATM   17  N5  UNL     1      -7.030  17.922  -9.945  1.00  0.00    -0.007 NA
ATOM     18  H4  UNL     1      -6.657  17.711  -7.909  1.00  0.00     0.185 HD
HETATM   19  N6  UNL     1      -6.860  18.958 -10.757  1.00  0.00    -0.007 NA
HETATM   20  N7  UNL     1      -6.363  19.982 -10.044  1.00  0.00    -0.272 N 
ATOM     21  H7  UNL     1      -6.133  20.907 -10.407  1.00  0.00     0.185 HD
ENDBRANCH  14  15
ENDBRANCH   5  14
BRANCH   1  22
HETATM   22  C4  UNL     1      -1.031  18.888  -7.171  1.00  0.00     0.235 C 
BRANCH  22  23
HETATM   23  C3  UNL     1       0.364  19.214  -7.599  1.00  0.00     0.276 C 
HETATM   24  O2  UNL     1       0.887  18.507  -8.498  1.00  0.00    -0.263 OA
BRANCH  23  25
HETATM   25  O1  UNL     1       1.091  20.241  -7.060  1.00  0.00    -0.321 OA
BRANCH  25  26
HETATM   26  C2  UNL     1       2.405  20.578  -7.418  1.00  0.00     0.174 C 
HETATM   27  C1  UNL     1       2.392  22.071  -7.772  1.00  0.00     0.034 C 
ENDBRANCH  25  26
ENDBRANCH  23  25
ENDBRANCH  22  23
ENDBRANCH   1  22
TORSDOF 8
ENDMDL
