MODEL 1
REMARK VINA RESULT: -7.027911300      0.000      0.000
REMARK  8 active torsions:
REMARK  status: ('A' for Active; 'I' for Inactive)
REMARK    1  A    between atoms: C2_2  and  O1_3 
REMARK    2  A    between atoms: O1_3  and  C3_4 
REMARK    3  A    between atoms: C3_4  and  C4_6 
REMARK    4  A    between atoms: C4_6  and  N1_7 
REMARK       I    between atoms: N1_7  and  C5_9 
REMARK       I    between atoms: C5_9  and  N2_11 
REMARK    5  A    between atoms: N2_11  and  C6_12 
REMARK    6  A    between atoms: N2_11  and  C13_20 
REMARK    7  A    between atoms: C6_12  and  C7_13 
REMARK    8  A    between atoms: C13_20  and  C14_21 
ROOT
HETATM    1  N1  UNL     1      -2.103  19.951  -7.495  1.00  0.00    -0.334 N 
ATOM      2  H1  UNL     1      -1.724  20.838  -7.827  1.00  0.00     0.164 HD
HETATM    3  C5  UNL     1      -3.500  19.769  -7.442  1.00  0.00     0.319 C 
HETATM    4  O3  UNL     1      -3.923  18.665  -7.026  1.00  0.00    -0.247 OA
HETATM    5  N2  UNL     1      -4.415  20.760  -7.830  1.00  0.00    -0.323 N 
ENDROOT
BRANCH   5   6
HETATM    6  C6  UNL     1      -3.994  22.029  -8.319  1.00  0.00     0.166 C 
BRANCH   6   7
HETATM    7  C7  UNL     1      -4.877  23.143  -7.821  1.00  0.00    -0.040 A 
HETATM    8  C8  UNL     1      -4.656  23.712  -6.586  1.00  0.00     0.011 A 
HETATM    9  C9  UNL     1      -5.455  24.742  -6.098  1.00  0.00     0.027 A 
HETATM   10  C10 UNL     1      -6.497  25.221  -6.852  1.00  0.00     0.046 A 
HETATM   11  N3  UNL     1      -7.310  26.277  -6.346  1.00  0.00    -0.102 NA
HETATM   12  C11 UNL     1      -6.732  24.664  -8.089  1.00  0.00     0.027 A 
HETATM   13  C12 UNL     1      -5.926  23.635  -8.564  1.00  0.00     0.011 A 
ENDBRANCH   6   7
ENDBRANCH   5   6
BRANCH   5  14
HETATM   14  C13 UNL     1      -5.833  20.489  -7.729  1.00  0.00     0.206 C 
BRANCH  14  15
HETATM   15  C14 UNL     1      -6.303  19.636  -8.841  1.00  0.00     0.125 A 
HETATM   16  N4  UNL     1      -6.412  19.962 -10.139  1.00  0.00    -0.272 N 
HETATM   17  N5  UNL     1      -6.870  18.933 -10.830  1.00  0.00    -0.007 NA
ATOM     18  H4  UNL     1      -6.176  20.872 -10.534  1.00  0.00     0.185 HD
HETATM   19  N6  UNL     1      -7.057  17.937  -9.973  1.00  0.00    -0.007 NA
HETATM   20  N7  UNL     1      -6.711  18.358  -8.747  1.00  0.00    -0.272 N 
ATOM     21  H7  UNL     1      -6.751  17.805  -7.892  1.00  0.00     0.185 HD
ENDBRANCH  14  15
ENDBRANCH   5  14
BRANCH   1  22
HETATM   22  C4  UNL     1      -1.206  18.910  -7.089  1.00  0.00     0.235 C 
BRANCH  22  23
HETATM   23  C3  UNL     1       0.223  19.278  -7.330  1.00  0.00     0.276 C 
HETATM   24  O2  UNL     1       0.672  20.306  -6.760  1.00  0.00    -0.263 OA
BRANCH  23  25
HETATM   25  O1  UNL     1       1.057  18.553  -8.135  1.00  0.00    -0.321 OA
BRANCH  25  26
HETATM   26  C2  UNL     1       2.333  18.092  -7.775  1.00  0.00     0.174 C 
HETATM   27  C1  UNL     1       2.146  17.226  -6.523  1.00  0.00     0.034 C 
ENDBRANCH  25  26
ENDBRANCH  23  25
ENDBRANCH  22  23
ENDBRANCH   1  22
TORSDOF 8
ENDMDL
