MODEL 17
REMARK VINA RESULT: -6.216343794      3.680      6.702
REMARK  8 active torsions:
REMARK  status: ('A' for Active; 'I' for Inactive)
REMARK    1  A    between atoms: C2_2  and  O1_3 
REMARK    2  A    between atoms: O1_3  and  C3_4 
REMARK    3  A    between atoms: C3_4  and  C4_6 
REMARK    4  A    between atoms: C4_6  and  N1_7 
REMARK       I    between atoms: N1_7  and  C5_9 
REMARK       I    between atoms: C5_9  and  N2_11 
REMARK    5  A    between atoms: N2_11  and  C6_12 
REMARK    6  A    between atoms: N2_11  and  C13_20 
REMARK    7  A    between atoms: C6_12  and  C7_13 
REMARK    8  A    between atoms: C13_20  and  C14_21 
ROOT
HETATM    1  N1  UNL     1      -0.422  16.790  -4.952  1.00  0.00    -0.334 N 
ATOM      2  H1  UNL     1      -1.231  17.185  -4.473  1.00  0.00     0.164 HD
HETATM    3  C5  UNL     1       0.326  17.597  -5.833  1.00  0.00     0.319 C 
HETATM    4  O3  UNL     1       1.312  17.071  -6.401  1.00  0.00    -0.247 OA
HETATM    5  N2  UNL     1       0.013  18.941  -6.091  1.00  0.00    -0.323 N 
ENDROOT
BRANCH   5   6
HETATM    6  C6  UNL     1      -1.087  19.595  -5.467  1.00  0.00     0.166 C 
BRANCH   6   7
HETATM    7  C7  UNL     1      -2.284  19.669  -6.377  1.00  0.00    -0.040 A 
HETATM    8  C8  UNL     1      -2.868  20.882  -6.670  1.00  0.00     0.011 A 
HETATM    9  C9  UNL     1      -3.976  20.982  -7.507  1.00  0.00     0.027 A 
HETATM   10  C10 UNL     1      -4.518  19.853  -8.068  1.00  0.00     0.046 A 
HETATM   11  N3  UNL     1      -5.652  19.963  -8.925  1.00  0.00    -0.102 NA
HETATM   12  C11 UNL     1      -3.948  18.632  -7.787  1.00  0.00     0.027 A 
HETATM   13  C12 UNL     1      -2.841  18.546  -6.949  1.00  0.00     0.011 A 
ENDBRANCH   6   7
ENDBRANCH   5   6
BRANCH   5  14
HETATM   14  C13 UNL     1       0.831  19.690  -7.021  1.00  0.00     0.206 C 
BRANCH  14  15
HETATM   15  C14 UNL     1       1.216  21.006  -6.468  1.00  0.00     0.125 A 
HETATM   16  N4  UNL     1       0.811  22.219  -6.877  1.00  0.00    -0.272 N 
HETATM   17  N5  UNL     1       1.372  23.159  -6.136  1.00  0.00    -0.007 NA
ATOM     18  H4  UNL     1       0.165  22.391  -7.646  1.00  0.00     0.185 HD
HETATM   19  N6  UNL     1       2.143  22.548  -5.245  1.00  0.00    -0.007 NA
HETATM   20  N7  UNL     1       2.054  21.223  -5.440  1.00  0.00    -0.272 N 
ATOM     21  H7  UNL     1       2.538  20.506  -4.901  1.00  0.00     0.185 HD
ENDBRANCH  14  15
ENDBRANCH   5  14
BRANCH   1  22
HETATM   22  C4  UNL     1      -0.065  15.422  -4.718  1.00  0.00     0.235 C 
BRANCH  22  23
HETATM   23  C3  UNL     1      -1.224  14.500  -4.916  1.00  0.00     0.276 C 
HETATM   24  O2  UNL     1      -2.383  14.986  -4.855  1.00  0.00    -0.263 OA
BRANCH  23  25
HETATM   25  O1  UNL     1      -1.083  13.161  -5.159  1.00  0.00    -0.321 OA
BRANCH  25  26
HETATM   26  C2  UNL     1      -0.741  12.195  -4.201  1.00  0.00     0.174 C 
HETATM   27  C1  UNL     1       0.284  11.266  -4.864  1.00  0.00     0.034 C 
ENDBRANCH  25  26
ENDBRANCH  23  25
ENDBRANCH  22  23
ENDBRANCH   1  22
TORSDOF 8
ENDMDL
