MODEL 3
REMARK VINA RESULT: -7.007519151      0.941      1.359
REMARK  8 active torsions:
REMARK  status: ('A' for Active; 'I' for Inactive)
REMARK    1  A    between atoms: C2_2  and  O1_3 
REMARK    2  A    between atoms: O1_3  and  C3_4 
REMARK    3  A    between atoms: C3_4  and  C4_6 
REMARK    4  A    between atoms: C4_6  and  N1_7 
REMARK       I    between atoms: N1_7  and  C5_9 
REMARK       I    between atoms: C5_9  and  N2_11 
REMARK    5  A    between atoms: N2_11  and  C6_12 
REMARK    6  A    between atoms: N2_11  and  C13_20 
REMARK    7  A    between atoms: C6_12  and  C7_13 
REMARK    8  A    between atoms: C13_20  and  C14_21 
ROOT
HETATM    1  N1  UNL     1      -1.919  19.900  -7.556  1.00  0.00    -0.334 N 
ATOM      2  H1  UNL     1      -1.576  20.793  -7.911  1.00  0.00     0.164 HD
HETATM    3  C5  UNL     1      -3.307  19.687  -7.436  1.00  0.00     0.319 C 
HETATM    4  O3  UNL     1      -3.686  18.576  -6.996  1.00  0.00    -0.247 OA
HETATM    5  N2  UNL     1      -4.262  20.656  -7.786  1.00  0.00    -0.323 N 
ENDROOT
BRANCH   5   6
HETATM    6  C6  UNL     1      -3.893  21.930  -8.301  1.00  0.00     0.166 C 
BRANCH   6   7
HETATM    7  C7  UNL     1      -4.787  23.025  -7.781  1.00  0.00    -0.040 A 
HETATM    8  C8  UNL     1      -4.489  23.671  -6.601  1.00  0.00     0.011 A 
HETATM    9  C9  UNL     1      -5.296  24.686  -6.095  1.00  0.00     0.027 A 
HETATM   10  C10 UNL     1      -6.425  25.071  -6.773  1.00  0.00     0.046 A 
HETATM   11  N3  UNL     1      -7.246  26.112  -6.249  1.00  0.00    -0.102 NA
HETATM   12  C11 UNL     1      -6.738  24.436  -7.954  1.00  0.00     0.027 A 
HETATM   13  C12 UNL     1      -5.923  23.424  -8.449  1.00  0.00     0.011 A 
ENDBRANCH   6   7
ENDBRANCH   5   6
BRANCH   5  14
HETATM   14  C13 UNL     1      -5.668  20.353  -7.617  1.00  0.00     0.206 C 
BRANCH  14  15
HETATM   15  C14 UNL     1      -6.196  19.574  -8.757  1.00  0.00     0.125 A 
HETATM   16  N4  UNL     1      -6.377  19.986 -10.022  1.00  0.00    -0.272 N 
HETATM   17  N5  UNL     1      -6.870  19.003 -10.755  1.00  0.00    -0.007 NA
ATOM     18  H4  UNL     1      -6.166  20.922 -10.367  1.00  0.00     0.185 HD
HETATM   19  N6  UNL     1      -7.007  17.951  -9.958  1.00  0.00    -0.007 NA
HETATM   20  N7  UNL     1      -6.595  18.291  -8.726  1.00  0.00    -0.272 N 
ATOM     21  H7  UNL     1      -6.586  17.680  -7.910  1.00  0.00     0.185 HD
ENDBRANCH  14  15
ENDBRANCH   5  14
BRANCH   1  22
HETATM   22  C4  UNL     1      -0.980  18.881  -7.188  1.00  0.00     0.235 C 
BRANCH  22  23
HETATM   23  C3  UNL     1       0.406  19.209  -7.642  1.00  0.00     0.276 C 
HETATM   24  O2  UNL     1       0.937  18.462  -8.503  1.00  0.00    -0.263 OA
BRANCH  23  25
HETATM   25  O1  UNL     1       1.116  20.278  -7.167  1.00  0.00    -0.321 OA
BRANCH  25  26
HETATM   26  C2  UNL     1       2.376  20.684  -7.631  1.00  0.00     0.174 C 
HETATM   27  C1  UNL     1       2.333  22.214  -7.729  1.00  0.00     0.034 C 
ENDBRANCH  25  26
ENDBRANCH  23  25
ENDBRANCH  22  23
ENDBRANCH   1  22
TORSDOF 8
ENDMDL
