MODEL 15
REMARK VINA RESULT: -6.335058584      3.653      6.576
REMARK  8 active torsions:
REMARK  status: ('A' for Active; 'I' for Inactive)
REMARK    1  A    between atoms: C2_2  and  O1_3 
REMARK    2  A    between atoms: O1_3  and  C3_4 
REMARK    3  A    between atoms: C3_4  and  C4_6 
REMARK    4  A    between atoms: C4_6  and  N1_7 
REMARK       I    between atoms: N1_7  and  C5_9 
REMARK       I    between atoms: C5_9  and  N2_11 
REMARK    5  A    between atoms: N2_11  and  C6_12 
REMARK    6  A    between atoms: N2_11  and  C13_20 
REMARK    7  A    between atoms: C6_12  and  C7_13 
REMARK    8  A    between atoms: C13_20  and  C14_21 
ROOT
HETATM    1  N1  UNL     1      -0.988  17.409  -4.426  1.00  0.00    -0.334 N 
ATOM      2  H1  UNL     1      -1.709  18.038  -4.072  1.00  0.00     0.164 HD
HETATM    3  C5  UNL     1      -0.302  17.739  -5.612  1.00  0.00     0.319 C 
HETATM    4  O3  UNL     1       0.576  16.939  -6.014  1.00  0.00    -0.247 OA
HETATM    5  N2  UNL     1      -0.561  18.908  -6.346  1.00  0.00    -0.323 N 
ENDROOT
BRANCH   5   6
HETATM    6  C6  UNL     1      -1.537  19.858  -5.935  1.00  0.00     0.166 C 
BRANCH   6   7
HETATM    7  C7  UNL     1      -2.793  19.764  -6.760  1.00  0.00    -0.040 A 
HETATM    8  C8  UNL     1      -3.523  20.895  -7.055  1.00  0.00     0.011 A 
HETATM    9  C9  UNL     1      -4.688  20.839  -7.815  1.00  0.00     0.027 A 
HETATM   10  C10 UNL     1      -5.141  19.636  -8.294  1.00  0.00     0.046 A 
HETATM   11  N3  UNL     1      -6.334  19.587  -9.072  1.00  0.00    -0.102 NA
HETATM   12  C11 UNL     1      -4.424  18.496  -8.009  1.00  0.00     0.027 A 
HETATM   13  C12 UNL     1      -3.261  18.565  -7.249  1.00  0.00     0.011 A 
ENDBRANCH   6   7
ENDBRANCH   5   6
BRANCH   5  14
HETATM   14  C13 UNL     1       0.186  19.158  -7.561  1.00  0.00     0.206 C 
BRANCH  14  15
HETATM   15  C14 UNL     1       1.422  19.922  -7.291  1.00  0.00     0.125 A 
HETATM   16  N4  UNL     1       1.601  21.251  -7.370  1.00  0.00    -0.272 N 
HETATM   17  N5  UNL     1       2.846  21.562  -7.054  1.00  0.00    -0.007 NA
ATOM     18  H4  UNL     1       0.882  21.922  -7.636  1.00  0.00     0.185 HD
HETATM   19  N6  UNL     1       3.473  20.427  -6.769  1.00  0.00    -0.007 NA
HETATM   20  N7  UNL     1       2.606  19.412  -6.911  1.00  0.00    -0.272 N 
ATOM     21  H7  UNL     1       2.811  18.426  -6.757  1.00  0.00     0.185 HD
ENDBRANCH  14  15
ENDBRANCH   5  14
BRANCH   1  22
HETATM   22  C4  UNL     1      -0.690  16.205  -3.709  1.00  0.00     0.235 C 
BRANCH  22  23
HETATM   23  C3  UNL     1      -1.277  15.000  -4.372  1.00  0.00     0.276 C 
HETATM   24  O2  UNL     1      -2.459  15.076  -4.794  1.00  0.00    -0.263 OA
BRANCH  23  25
HETATM   25  O1  UNL     1      -0.590  13.829  -4.538  1.00  0.00    -0.321 OA
BRANCH  25  26
HETATM   26  C2  UNL     1      -1.074  12.552  -4.213  1.00  0.00     0.174 C 
HETATM   27  C1  UNL     1      -0.016  11.550  -4.692  1.00  0.00     0.034 C 
ENDBRANCH  25  26
ENDBRANCH  23  25
ENDBRANCH  22  23
ENDBRANCH   1  22
TORSDOF 8
ENDMDL
