MODEL 14
REMARK VINA RESULT: -6.360560500      3.447      6.153
REMARK  8 active torsions:
REMARK  status: ('A' for Active; 'I' for Inactive)
REMARK    1  A    between atoms: C2_2  and  O1_3 
REMARK    2  A    between atoms: O1_3  and  C3_4 
REMARK    3  A    between atoms: C3_4  and  C4_6 
REMARK    4  A    between atoms: C4_6  and  N1_7 
REMARK       I    between atoms: N1_7  and  C5_9 
REMARK       I    between atoms: C5_9  and  N2_11 
REMARK    5  A    between atoms: N2_11  and  C6_12 
REMARK    6  A    between atoms: N2_11  and  C13_20 
REMARK    7  A    between atoms: C6_12  and  C7_13 
REMARK    8  A    between atoms: C13_20  and  C14_21 
ROOT
HETATM    1  N1  UNL     1      -1.118  17.756  -3.950  1.00  0.00    -0.334 N 
ATOM      2  H1  UNL     1      -2.062  18.083  -3.740  1.00  0.00     0.164 HD
HETATM    3  C5  UNL     1      -0.261  18.561  -4.726  1.00  0.00     0.319 C 
HETATM    4  O3  UNL     1       0.890  18.121  -4.961  1.00  0.00    -0.247 OA
HETATM    5  N2  UNL     1      -0.641  19.813  -5.236  1.00  0.00    -0.323 N 
ENDROOT
BRANCH   5   6
HETATM    6  C6  UNL     1      -1.928  20.369  -4.994  1.00  0.00     0.166 C 
BRANCH   6   7
HETATM    7  C7  UNL     1      -2.869  20.125  -6.144  1.00  0.00    -0.040 A 
HETATM    8  C8  UNL     1      -3.598  21.161  -6.685  1.00  0.00     0.011 A 
HETATM    9  C9  UNL     1      -4.476  20.966  -7.747  1.00  0.00     0.027 A 
HETATM   10  C10 UNL     1      -4.636  19.715  -8.287  1.00  0.00     0.046 A 
HETATM   11  N3  UNL     1      -5.536  19.523  -9.376  1.00  0.00    -0.102 NA
HETATM   12  C11 UNL     1      -3.915  18.667  -7.760  1.00  0.00     0.027 A 
HETATM   13  C12 UNL     1      -3.041  18.876  -6.699  1.00  0.00     0.011 A 
ENDBRANCH   6   7
ENDBRANCH   5   6
BRANCH   5  14
HETATM   14  C13 UNL     1       0.303  20.565  -6.035  1.00  0.00     0.206 C 
BRANCH  14  15
HETATM   15  C14 UNL     1       0.903  19.729  -7.097  1.00  0.00     0.125 A 
HETATM   16  N4  UNL     1       0.266  19.005  -8.032  1.00  0.00    -0.272 N 
HETATM   17  N5  UNL     1       1.143  18.390  -8.806  1.00  0.00    -0.007 NA
ATOM     18  H4  UNL     1      -0.746  18.939  -8.130  1.00  0.00     0.185 HD
HETATM   19  N6  UNL     1       2.352  18.719  -8.368  1.00  0.00    -0.007 NA
HETATM   20  N7  UNL     1       2.216  19.542  -7.317  1.00  0.00    -0.272 N 
ATOM     21  H7  UNL     1       2.977  19.955  -6.779  1.00  0.00     0.185 HD
ENDBRANCH  14  15
ENDBRANCH   5  14
BRANCH   1  22
HETATM   22  C4  UNL     1      -0.687  16.484  -3.449  1.00  0.00     0.235 C 
BRANCH  22  23
HETATM   23  C3  UNL     1      -1.190  15.354  -4.287  1.00  0.00     0.276 C 
HETATM   24  O2  UNL     1      -2.281  15.508  -4.894  1.00  0.00    -0.263 OA
BRANCH  23  25
HETATM   25  O1  UNL     1      -0.521  14.168  -4.424  1.00  0.00    -0.321 OA
BRANCH  25  26
HETATM   26  C2  UNL     1      -1.123  12.911  -4.582  1.00  0.00     0.174 C 
HETATM   27  C1  UNL     1      -0.011  11.944  -5.007  1.00  0.00     0.034 C 
ENDBRANCH  25  26
ENDBRANCH  23  25
ENDBRANCH  22  23
ENDBRANCH   1  22
TORSDOF 8
ENDMDL
