MODEL 18
REMARK VINA RESULT: -6.184304103      3.826      6.392
REMARK  8 active torsions:
REMARK  status: ('A' for Active; 'I' for Inactive)
REMARK    1  A    between atoms: C2_2  and  O1_3 
REMARK    2  A    between atoms: O1_3  and  C3_4 
REMARK    3  A    between atoms: C3_4  and  C4_6 
REMARK    4  A    between atoms: C4_6  and  N1_7 
REMARK       I    between atoms: N1_7  and  C5_9 
REMARK       I    between atoms: C5_9  and  N2_11 
REMARK    5  A    between atoms: N2_11  and  C6_12 
REMARK    6  A    between atoms: N2_11  and  C13_20 
REMARK    7  A    between atoms: C6_12  and  C7_13 
REMARK    8  A    between atoms: C13_20  and  C14_21 
ROOT
HETATM    1  N1  UNL     1      -1.581  16.598  -5.230  1.00  0.00    -0.334 N 
ATOM      2  H1  UNL     1      -2.004  16.410  -6.140  1.00  0.00     0.164 HD
HETATM    3  C5  UNL     1      -0.924  17.825  -5.010  1.00  0.00     0.319 C 
HETATM    4  O3  UNL     1      -0.418  18.015  -3.879  1.00  0.00    -0.247 OA
HETATM    5  N2  UNL     1      -0.819  18.824  -5.992  1.00  0.00    -0.323 N 
ENDROOT
BRANCH   5   6
HETATM    6  C6  UNL     1      -1.382  18.670  -7.290  1.00  0.00     0.166 C 
BRANCH   6   7
HETATM    7  C7  UNL     1      -2.767  19.257  -7.373  1.00  0.00    -0.040 A 
HETATM    8  C8  UNL     1      -2.983  20.586  -7.084  1.00  0.00     0.011 A 
HETATM    9  C9  UNL     1      -4.250  21.157  -7.152  1.00  0.00     0.027 A 
HETATM   10  C10 UNL     1      -5.331  20.392  -7.514  1.00  0.00     0.046 A 
HETATM   11  N3  UNL     1      -6.626  20.983  -7.583  1.00  0.00    -0.102 NA
HETATM   12  C11 UNL     1      -5.134  19.062  -7.808  1.00  0.00     0.027 A 
HETATM   13  C12 UNL     1      -3.861  18.504  -7.736  1.00  0.00     0.011 A 
ENDBRANCH   6   7
ENDBRANCH   5   6
BRANCH   5  14
HETATM   14  C13 UNL     1      -0.114  20.049  -5.680  1.00  0.00     0.206 C 
BRANCH  14  15
HETATM   15  C14 UNL     1       1.081  20.220  -6.534  1.00  0.00     0.125 A 
HETATM   16  N4  UNL     1       1.404  21.279  -7.293  1.00  0.00    -0.272 N 
HETATM   17  N5  UNL     1       2.551  21.062  -7.913  1.00  0.00    -0.007 NA
ATOM     18  H4  UNL     1       0.846  22.128  -7.378  1.00  0.00     0.185 HD
HETATM   19  N6  UNL     1       2.969  19.855  -7.552  1.00  0.00    -0.007 NA
HETATM   20  N7  UNL     1       2.072  19.329  -6.703  1.00  0.00    -0.272 N 
ATOM     21  H7  UNL     1       2.134  18.411  -6.263  1.00  0.00     0.185 HD
ENDBRANCH  14  15
ENDBRANCH   5  14
BRANCH   1  22
HETATM   22  C4  UNL     1      -1.665  15.608  -4.198  1.00  0.00     0.235 C 
BRANCH  22  23
HETATM   23  C3  UNL     1      -1.248  14.257  -4.683  1.00  0.00     0.276 C 
HETATM   24  O2  UNL     1      -1.510  13.951  -5.874  1.00  0.00    -0.263 OA
BRANCH  23  25
HETATM   25  O1  UNL     1      -0.597  13.347  -3.895  1.00  0.00    -0.321 OA
BRANCH  25  26
HETATM   26  C2  UNL     1      -0.918  11.985  -3.797  1.00  0.00     0.174 C 
HETATM   27  C1  UNL     1       0.131  11.229  -4.623  1.00  0.00     0.034 C 
ENDBRANCH  25  26
ENDBRANCH  23  25
ENDBRANCH  22  23
ENDBRANCH   1  22
TORSDOF 8
ENDMDL
