MODEL 3
REMARK VINA RESULT: -5.689370456      1.251      1.780
REMARK  8 active torsions:
REMARK  status: ('A' for Active; 'I' for Inactive)
REMARK    1  A    between atoms: C2_2  and  C3_3 
REMARK    2  A    between atoms: C3_3  and  N1_4 
REMARK    3  A    between atoms: N1_4  and  C4_5 
REMARK       I    between atoms: N1_4  and  C11_13 
REMARK    4  A    between atoms: C4_5  and  C5_6 
REMARK       I    between atoms: C11_13  and  N3_15 
REMARK    5  A    between atoms: N3_15  and  C12_17 
REMARK    6  A    between atoms: C12_17  and  C13_18 
REMARK    7  A    between atoms: C13_18  and  O3_20 
REMARK    8  A    between atoms: O3_20  and  C14_21 
ROOT
HETATM    1  N1  UNL     1      -1.471  19.540  -5.543  1.00  0.00    -0.330 N 
HETATM    2  C11 UNL     1      -0.880  18.258  -5.472  1.00  0.00     0.319 C 
HETATM    3  O1  UNL     1      -0.505  17.679  -6.530  1.00  0.00    -0.247 OA
HETATM    4  N3  UNL     1      -0.694  17.603  -4.248  1.00  0.00    -0.334 N 
ATOM      5  H3  UNL     1      -1.000  18.076  -3.398  1.00  0.00     0.164 HD
ENDROOT
BRANCH   1   6
HETATM    6  C3  UNL     1      -1.893  20.222  -4.347  1.00  0.00     0.127 C 
BRANCH   6   7
HETATM    7  C2  UNL     1      -1.346  21.656  -4.377  1.00  0.00     0.015 C 
HETATM    8  C1  UNL     1      -1.707  22.342  -3.094  1.00  0.00     0.006 C 
ENDBRANCH   6   7
ENDBRANCH   1   6
BRANCH   1   9
HETATM    9  C4  UNL     1      -1.681  20.230  -6.809  1.00  0.00     0.166 C 
BRANCH   9  10
HETATM   10  C5  UNL     1      -3.010  19.987  -7.369  1.00  0.00    -0.040 A 
HETATM   11  C6  UNL     1      -3.852  21.054  -7.584  1.00  0.00     0.011 A 
HETATM   12  C7  UNL     1      -5.118  20.921  -8.106  1.00  0.00     0.027 A 
HETATM   13  C8  UNL     1      -5.584  19.675  -8.437  1.00  0.00     0.046 A 
HETATM   14  N2  UNL     1      -6.868  19.432  -8.980  1.00  0.00    -0.102 NA
HETATM   15  C9  UNL     1      -4.766  18.561  -8.238  1.00  0.00     0.027 A 
HETATM   16  C10 UNL     1      -3.494  18.735  -7.708  1.00  0.00     0.011 A 
ENDBRANCH   9  10
ENDBRANCH   1   9
BRANCH   4  17
HETATM   17  C12 UNL     1      -0.092  16.291  -4.121  1.00  0.00     0.235 C 
BRANCH  17  18
HETATM   18  C13 UNL     1      -0.942  15.210  -4.594  1.00  0.00     0.276 C 
HETATM   19  O2  UNL     1      -2.181  15.351  -4.683  1.00  0.00    -0.263 OA
BRANCH  18  20
HETATM   20  O3  UNL     1      -0.372  14.007  -4.954  1.00  0.00    -0.321 OA
BRANCH  20  21
HETATM   21  C14 UNL     1      -0.724  12.766  -4.424  1.00  0.00     0.174 C 
HETATM   22  C15 UNL     1       0.276  11.686  -4.832  1.00  0.00     0.034 C 
ENDBRANCH  20  21
ENDBRANCH  18  20
ENDBRANCH  17  18
ENDBRANCH   4  17
TORSDOF 8
ENDMDL
