MODEL 2
REMARK VINA RESULT: -5.743837968      4.399      7.229
REMARK  8 active torsions:
REMARK  status: ('A' for Active; 'I' for Inactive)
REMARK    1  A    between atoms: C2_2  and  C3_3 
REMARK    2  A    between atoms: C3_3  and  N1_4 
REMARK    3  A    between atoms: N1_4  and  C4_5 
REMARK       I    between atoms: N1_4  and  C11_13 
REMARK    4  A    between atoms: C4_5  and  C5_6 
REMARK       I    between atoms: C11_13  and  N3_15 
REMARK    5  A    between atoms: N3_15  and  C12_17 
REMARK    6  A    between atoms: C12_17  and  C13_18 
REMARK    7  A    between atoms: C13_18  and  O3_20 
REMARK    8  A    between atoms: O3_20  and  C14_21 
ROOT
HETATM    1  N1  UNL     1      -3.250  19.794  -7.024  1.00  0.00    -0.330 N 
HETATM    2  C11 UNL     1      -4.573  19.539  -7.451  1.00  0.00     0.319 C 
HETATM    3  O1  UNL     1      -5.540  20.129  -6.892  1.00  0.00    -0.247 OA
HETATM    4  N3  UNL     1      -4.847  18.640  -8.490  1.00  0.00    -0.334 N 
ATOM      5  H3  UNL     1      -4.062  18.166  -8.936  1.00  0.00     0.164 HD
ENDROOT
BRANCH   1   6
HETATM    6  C3  UNL     1      -2.134  19.140  -7.657  1.00  0.00     0.127 C 
BRANCH   6   7
HETATM    7  C2  UNL     1      -1.188  18.613  -6.568  1.00  0.00     0.015 C 
HETATM    8  C1  UNL     1       0.211  19.043  -6.888  1.00  0.00     0.006 C 
ENDBRANCH   6   7
ENDBRANCH   1   6
BRANCH   1   9
HETATM    9  C4  UNL     1      -2.949  20.717  -5.938  1.00  0.00     0.166 C 
BRANCH   9  10
HETATM   10  C5  UNL     1      -2.651  22.069  -6.413  1.00  0.00    -0.040 A 
HETATM   11  C6  UNL     1      -1.348  22.509  -6.405  1.00  0.00     0.011 A 
HETATM   12  C7  UNL     1      -0.974  23.763  -6.832  1.00  0.00     0.027 A 
HETATM   13  C8  UNL     1      -1.930  24.631  -7.294  1.00  0.00     0.046 A 
HETATM   14  N2  UNL     1      -1.649  25.939  -7.755  1.00  0.00    -0.102 NA
HETATM   15  C9  UNL     1      -3.266  24.229  -7.322  1.00  0.00     0.027 A 
HETATM   16  C10 UNL     1      -3.605  22.955  -6.881  1.00  0.00     0.011 A 
ENDBRANCH   9  10
ENDBRANCH   1   9
BRANCH   4  17
HETATM   17  C12 UNL     1      -6.184  18.345  -8.967  1.00  0.00     0.235 C 
BRANCH  17  18
HETATM   18  C13 UNL     1      -6.649  19.256 -10.001  1.00  0.00     0.276 C 
HETATM   19  O2  UNL     1      -6.381  19.059 -11.206  1.00  0.00    -0.263 OA
BRANCH  18  20
HETATM   20  O3  UNL     1      -7.400  20.357  -9.648  1.00  0.00    -0.321 OA
BRANCH  20  21
HETATM   21  C14 UNL     1      -7.261  21.630 -10.201  1.00  0.00     0.174 C 
HETATM   22  C15 UNL     1      -6.061  22.365  -9.605  1.00  0.00     0.034 C 
ENDBRANCH  20  21
ENDBRANCH  18  20
ENDBRANCH  17  18
ENDBRANCH   4  17
TORSDOF 8
ENDMDL
