MODEL 15
REMARK VINA RESULT: -5.494935549      1.214      1.695
REMARK  8 active torsions:
REMARK  status: ('A' for Active; 'I' for Inactive)
REMARK    1  A    between atoms: C2_2  and  C3_3 
REMARK    2  A    between atoms: C3_3  and  N1_4 
REMARK    3  A    between atoms: N1_4  and  C4_5 
REMARK       I    between atoms: N1_4  and  C11_13 
REMARK    4  A    between atoms: C4_5  and  C5_6 
REMARK       I    between atoms: C11_13  and  N3_15 
REMARK    5  A    between atoms: N3_15  and  C12_17 
REMARK    6  A    between atoms: C12_17  and  C13_18 
REMARK    7  A    between atoms: C13_18  and  O3_20 
REMARK    8  A    between atoms: O3_20  and  C14_21 
ROOT
HETATM    1  N1  UNL     1      -1.259  19.163  -5.490  1.00  0.00    -0.330 N 
HETATM    2  C11 UNL     1      -0.863  17.831  -5.228  1.00  0.00     0.319 C 
HETATM    3  O1  UNL     1      -0.548  17.069  -6.184  1.00  0.00    -0.247 OA
HETATM    4  N3  UNL     1      -0.811  17.327  -3.922  1.00  0.00    -0.334 N 
ATOM      5  H3  UNL     1      -1.069  17.948  -3.155  1.00  0.00     0.164 HD
ENDROOT
BRANCH   1   6
HETATM    6  C3  UNL     1      -1.611  20.051  -4.413  1.00  0.00     0.127 C 
BRANCH   6   7
HETATM    7  C2  UNL     1      -0.764  21.327  -4.527  1.00  0.00     0.015 C 
HETATM    8  C1  UNL     1       0.569  21.084  -3.887  1.00  0.00     0.006 C 
ENDBRANCH   6   7
ENDBRANCH   1   6
BRANCH   1   9
HETATM    9  C4  UNL     1      -1.330  19.700  -6.843  1.00  0.00     0.166 C 
BRANCH   9  10
HETATM   10  C5  UNL     1      -2.693  19.716  -7.372  1.00  0.00    -0.040 A 
HETATM   11  C6  UNL     1      -3.315  20.925  -7.584  1.00  0.00     0.011 A 
HETATM   12  C7  UNL     1      -4.595  21.037  -8.078  1.00  0.00     0.027 A 
HETATM   13  C8  UNL     1      -5.302  19.902  -8.382  1.00  0.00     0.046 A 
HETATM   14  N2  UNL     1      -6.621  19.910  -8.896  1.00  0.00    -0.102 NA
HETATM   15  C9  UNL     1      -4.713  18.653  -8.185  1.00  0.00     0.027 A 
HETATM   16  C10 UNL     1      -3.419  18.579  -7.684  1.00  0.00     0.011 A 
ENDBRANCH   9  10
ENDBRANCH   1   9
BRANCH   4  17
HETATM   17  C12 UNL     1      -0.411  15.972  -3.600  1.00  0.00     0.235 C 
BRANCH  17  18
HETATM   18  C13 UNL     1      -1.004  15.464  -2.373  1.00  0.00     0.276 C 
HETATM   19  O2  UNL     1      -1.700  16.198  -1.637  1.00  0.00    -0.263 OA
BRANCH  18  20
HETATM   20  O3  UNL     1      -0.798  14.149  -2.013  1.00  0.00    -0.321 OA
BRANCH  20  21
HETATM   21  C14 UNL     1       0.029  13.255  -2.692  1.00  0.00     0.174 C 
HETATM   22  C15 UNL     1      -0.784  12.310  -3.575  1.00  0.00     0.034 C 
ENDBRANCH  20  21
ENDBRANCH  18  20
ENDBRANCH  17  18
ENDBRANCH   4  17
TORSDOF 8
ENDMDL
