MODEL 1
REMARK VINA RESULT: -5.869498641      0.000      0.000
REMARK  8 active torsions:
REMARK  status: ('A' for Active; 'I' for Inactive)
REMARK    1  A    between atoms: C2_2  and  C3_3 
REMARK    2  A    between atoms: C3_3  and  N1_4 
REMARK    3  A    between atoms: N1_4  and  C4_5 
REMARK       I    between atoms: N1_4  and  C11_13 
REMARK    4  A    between atoms: C4_5  and  C5_6 
REMARK       I    between atoms: C11_13  and  N3_15 
REMARK    5  A    between atoms: N3_15  and  C12_17 
REMARK    6  A    between atoms: C12_17  and  C13_18 
REMARK    7  A    between atoms: C13_18  and  O3_20 
REMARK    8  A    between atoms: O3_20  and  C14_21 
ROOT
HETATM    1  N1  UNL     1      -1.058  18.623  -5.626  1.00  0.00    -0.330 N 
HETATM    2  C11 UNL     1      -1.154  17.291  -5.163  1.00  0.00     0.319 C 
HETATM    3  O1  UNL     1      -1.370  16.354  -5.981  1.00  0.00    -0.247 OA
HETATM    4  N3  UNL     1      -1.014  16.976  -3.805  1.00  0.00    -0.334 N 
ATOM      5  H3  UNL     1      -0.842  17.738  -3.149  1.00  0.00     0.164 HD
ENDROOT
BRANCH   1   6
HETATM    6  C3  UNL     1      -0.800  19.704  -4.709  1.00  0.00     0.127 C 
BRANCH   6   7
HETATM    7  C2  UNL     1       0.346  20.561  -5.266  1.00  0.00     0.015 C 
HETATM    8  C1  UNL     1      -0.046  22.005  -5.193  1.00  0.00     0.006 C 
ENDBRANCH   6   7
ENDBRANCH   1   6
BRANCH   1   9
HETATM    9  C4  UNL     1      -1.212  18.969  -7.033  1.00  0.00     0.166 C 
BRANCH   9  10
HETATM   10  C5  UNL     1      -2.562  19.432  -7.355  1.00  0.00    -0.040 A 
HETATM   11  C6  UNL     1      -3.506  18.514  -7.752  1.00  0.00     0.011 A 
HETATM   12  C7  UNL     1      -4.800  18.856  -8.074  1.00  0.00     0.027 A 
HETATM   13  C8  UNL     1      -5.188  20.169  -8.003  1.00  0.00     0.046 A 
HETATM   14  N2  UNL     1      -6.492  20.623  -8.312  1.00  0.00    -0.102 NA
HETATM   15  C9  UNL     1      -4.265  21.137  -7.604  1.00  0.00     0.027 A 
HETATM   16  C10 UNL     1      -2.967  20.753  -7.287  1.00  0.00     0.011 A 
ENDBRANCH   9  10
ENDBRANCH   1   9
BRANCH   4  17
HETATM   17  C12 UNL     1      -1.102  15.628  -3.279  1.00  0.00     0.235 C 
BRANCH  17  18
HETATM   18  C13 UNL     1       0.082  14.823  -3.537  1.00  0.00     0.276 C 
HETATM   19  O2  UNL     1       1.168  15.065  -2.966  1.00  0.00    -0.263 OA
BRANCH  18  20
HETATM   20  O3  UNL     1       0.007  13.772  -4.427  1.00  0.00    -0.321 OA
BRANCH  20  21
HETATM   21  C14 UNL     1      -0.571  12.533  -4.152  1.00  0.00     0.174 C 
HETATM   22  C15 UNL     1       0.304  11.389  -4.662  1.00  0.00     0.034 C 
ENDBRANCH  20  21
ENDBRANCH  18  20
ENDBRANCH  17  18
ENDBRANCH   4  17
TORSDOF 8
ENDMDL
