MODEL 5
REMARK VINA RESULT: -5.679076931      3.064      7.438
REMARK  8 active torsions:
REMARK  status: ('A' for Active; 'I' for Inactive)
REMARK    1  A    between atoms: C2_2  and  C3_3 
REMARK    2  A    between atoms: C3_3  and  N1_4 
REMARK    3  A    between atoms: N1_4  and  C4_5 
REMARK       I    between atoms: N1_4  and  C11_13 
REMARK    4  A    between atoms: C4_5  and  C5_6 
REMARK       I    between atoms: C11_13  and  N3_15 
REMARK    5  A    between atoms: N3_15  and  C12_17 
REMARK    6  A    between atoms: C12_17  and  C13_18 
REMARK    7  A    between atoms: C13_18  and  O3_20 
REMARK    8  A    between atoms: O3_20  and  C14_21 
ROOT
HETATM    1  N1  UNL     1      -2.761  19.508  -6.990  1.00  0.00    -0.330 N 
HETATM    2  C11 UNL     1      -3.823  18.897  -7.696  1.00  0.00     0.319 C 
HETATM    3  O1  UNL     1      -3.612  17.846  -8.364  1.00  0.00    -0.247 OA
HETATM    4  N3  UNL     1      -5.119  19.429  -7.675  1.00  0.00    -0.334 N 
ATOM      5  H3  UNL     1      -5.281  20.279  -7.134  1.00  0.00     0.164 HD
ENDROOT
BRANCH   1   6
HETATM    6  C3  UNL     1      -2.984  20.701  -6.214  1.00  0.00     0.127 C 
BRANCH   6   7
HETATM    7  C2  UNL     1      -2.285  21.879  -6.906  1.00  0.00     0.015 C 
HETATM    8  C1  UNL     1      -3.294  22.637  -7.715  1.00  0.00     0.006 C 
ENDBRANCH   6   7
ENDBRANCH   1   6
BRANCH   1   9
HETATM    9  C4  UNL     1      -1.406  18.975  -7.011  1.00  0.00     0.166 C 
BRANCH   9  10
HETATM   10  C5  UNL     1      -1.090  18.191  -5.817  1.00  0.00    -0.040 A 
HETATM   11  C6  UNL     1      -1.446  16.863  -5.775  1.00  0.00     0.011 A 
HETATM   12  C7  UNL     1      -1.191  16.049  -4.695  1.00  0.00     0.027 A 
HETATM   13  C8  UNL     1      -0.551  16.565  -3.597  1.00  0.00     0.046 A 
HETATM   14  N2  UNL     1      -0.242  15.812  -2.440  1.00  0.00    -0.102 NA
HETATM   15  C9  UNL     1      -0.170  17.907  -3.594  1.00  0.00     0.027 A 
HETATM   16  C10 UNL     1      -0.445  18.698  -4.702  1.00  0.00     0.011 A 
ENDBRANCH   9  10
ENDBRANCH   1   9
BRANCH   4  17
HETATM   17  C12 UNL     1      -6.241  18.840  -8.377  1.00  0.00     0.235 C 
BRANCH  17  18
HETATM   18  C13 UNL     1      -6.468  19.409  -9.696  1.00  0.00     0.276 C 
HETATM   19  O2  UNL     1      -6.706  18.680 -10.684  1.00  0.00    -0.263 OA
BRANCH  18  20
HETATM   20  O3  UNL     1      -6.421  20.777  -9.862  1.00  0.00    -0.321 OA
BRANCH  20  21
HETATM   21  C14 UNL     1      -7.477  21.562 -10.324  1.00  0.00     0.174 C 
HETATM   22  C15 UNL     1      -8.605  21.635  -9.295  1.00  0.00     0.034 C 
ENDBRANCH  20  21
ENDBRANCH  18  20
ENDBRANCH  17  18
ENDBRANCH   4  17
TORSDOF 8
ENDMDL
