MODEL 6
REMARK VINA RESULT: -5.659661903      1.172      1.220
REMARK  8 active torsions:
REMARK  status: ('A' for Active; 'I' for Inactive)
REMARK    1  A    between atoms: C2_2  and  C3_3 
REMARK    2  A    between atoms: C3_3  and  N1_4 
REMARK    3  A    between atoms: N1_4  and  C4_5 
REMARK       I    between atoms: N1_4  and  C11_13 
REMARK    4  A    between atoms: C4_5  and  C5_6 
REMARK       I    between atoms: C11_13  and  N3_15 
REMARK    5  A    between atoms: N3_15  and  C12_17 
REMARK    6  A    between atoms: C12_17  and  C13_18 
REMARK    7  A    between atoms: C13_18  and  O3_20 
REMARK    8  A    between atoms: O3_20  and  C14_21 
ROOT
HETATM    1  N1  UNL     1      -0.607  18.672  -5.078  1.00  0.00    -0.330 N 
HETATM    2  C11 UNL     1      -0.117  17.367  -4.843  1.00  0.00     0.319 C 
HETATM    3  O1  UNL     1       0.327  16.679  -5.805  1.00  0.00    -0.247 OA
HETATM    4  N3  UNL     1      -0.108  16.808  -3.559  1.00  0.00    -0.334 N 
ATOM      5  H3  UNL     1      -0.469  17.369  -2.787  1.00  0.00     0.164 HD
ENDROOT
BRANCH   1   6
HETATM    6  C3  UNL     1      -1.107  19.477  -3.993  1.00  0.00     0.127 C 
BRANCH   6   7
HETATM    7  C2  UNL     1      -0.244  20.742  -3.879  1.00  0.00     0.015 C 
HETATM    8  C1  UNL     1      -1.141  21.925  -3.678  1.00  0.00     0.006 C 
ENDBRANCH   6   7
ENDBRANCH   1   6
BRANCH   1   9
HETATM    9  C4  UNL     1      -0.634  19.264  -6.409  1.00  0.00     0.166 C 
BRANCH   9  10
HETATM   10  C5  UNL     1      -1.995  19.484  -6.901  1.00  0.00    -0.040 A 
HETATM   11  C6  UNL     1      -2.711  18.415  -7.387  1.00  0.00     0.011 A 
HETATM   12  C7  UNL     1      -3.995  18.526  -7.869  1.00  0.00     0.027 A 
HETATM   13  C8  UNL     1      -4.611  19.751  -7.875  1.00  0.00     0.046 A 
HETATM   14  N2  UNL     1      -5.926  19.970  -8.347  1.00  0.00    -0.102 NA
HETATM   15  C9  UNL     1      -3.924  20.865  -7.391  1.00  0.00     0.027 A 
HETATM   16  C10 UNL     1      -2.628  20.714  -6.912  1.00  0.00     0.011 A 
ENDBRANCH   9  10
ENDBRANCH   1   9
BRANCH   4  17
HETATM   17  C12 UNL     1       0.386  15.478  -3.265  1.00  0.00     0.235 C 
BRANCH  17  18
HETATM   18  C13 UNL     1      -0.578  14.637  -2.573  1.00  0.00     0.276 C 
HETATM   19  O2  UNL     1      -1.252  15.075  -1.615  1.00  0.00    -0.263 OA
BRANCH  18  20
HETATM   20  O3  UNL     1      -0.755  13.332  -2.981  1.00  0.00    -0.321 OA
BRANCH  20  21
HETATM   21  C14 UNL     1      -0.669  12.887  -4.300  1.00  0.00     0.174 C 
HETATM   22  C15 UNL     1       0.105  11.573  -4.392  1.00  0.00     0.034 C 
ENDBRANCH  20  21
ENDBRANCH  18  20
ENDBRANCH  17  18
ENDBRANCH   4  17
TORSDOF 8
ENDMDL
