MODEL 4
REMARK VINA RESULT: -5.680025214      2.858      8.538
REMARK  8 active torsions:
REMARK  status: ('A' for Active; 'I' for Inactive)
REMARK    1  A    between atoms: C2_2  and  C3_3 
REMARK    2  A    between atoms: C3_3  and  N1_4 
REMARK    3  A    between atoms: N1_4  and  C4_5 
REMARK       I    between atoms: N1_4  and  C11_13 
REMARK    4  A    between atoms: C4_5  and  C5_6 
REMARK       I    between atoms: C11_13  and  N3_15 
REMARK    5  A    between atoms: N3_15  and  C12_17 
REMARK    6  A    between atoms: C12_17  and  C13_18 
REMARK    7  A    between atoms: C13_18  and  O3_20 
REMARK    8  A    between atoms: O3_20  and  C14_21 
ROOT
HETATM    1  N1  UNL     1      -0.600  14.598  -3.486  1.00  0.00    -0.330 N 
HETATM    2  C11 UNL     1      -0.722  15.988  -3.711  1.00  0.00     0.319 C 
HETATM    3  O1  UNL     1      -0.686  16.789  -2.735  1.00  0.00    -0.247 OA
HETATM    4  N3  UNL     1      -0.882  16.510  -5.001  1.00  0.00    -0.334 N 
ATOM      5  H3  UNL     1      -0.912  15.857  -5.784  1.00  0.00     0.164 HD
ENDROOT
BRANCH   1   6
HETATM    6  C3  UNL     1      -0.626  13.670  -4.587  1.00  0.00     0.127 C 
BRANCH   6   7
HETATM    7  C2  UNL     1      -0.766  12.246  -4.029  1.00  0.00     0.015 C 
HETATM    8  C1  UNL     1       0.304  11.383  -4.623  1.00  0.00     0.006 C 
ENDBRANCH   6   7
ENDBRANCH   1   6
BRANCH   1   9
HETATM    9  C4  UNL     1      -0.444  14.038  -2.150  1.00  0.00     0.166 C 
BRANCH   9  10
HETATM   10  C5  UNL     1       0.959  13.881  -1.765  1.00  0.00    -0.040 A 
HETATM   11  C6  UNL     1       1.285  12.982  -0.776  1.00  0.00     0.011 A 
HETATM   12  C7  UNL     1       2.575  12.768  -0.349  1.00  0.00     0.027 A 
HETATM   13  C8  UNL     1       3.602  13.472  -0.922  1.00  0.00     0.046 A 
HETATM   14  N2  UNL     1       4.960  13.325  -0.556  1.00  0.00    -0.102 NA
HETATM   15  C9  UNL     1       3.320  14.396  -1.931  1.00  0.00     0.027 A 
HETATM   16  C10 UNL     1       2.005  14.585  -2.335  1.00  0.00     0.011 A 
ENDBRANCH   9  10
ENDBRANCH   1   9
BRANCH   4  17
HETATM   17  C12 UNL     1      -1.009  17.925  -5.286  1.00  0.00     0.235 C 
BRANCH  17  18
HETATM   18  C13 UNL     1      -1.506  18.210  -6.622  1.00  0.00     0.276 C 
HETATM   19  O2  UNL     1      -0.734  18.565  -7.540  1.00  0.00    -0.263 OA
BRANCH  18  20
HETATM   20  O3  UNL     1      -2.854  18.086  -6.886  1.00  0.00    -0.321 OA
BRANCH  20  21
HETATM   21  C14 UNL     1      -3.664  19.097  -7.402  1.00  0.00     0.174 C 
HETATM   22  C15 UNL     1      -4.772  18.522  -8.284  1.00  0.00     0.034 C 
ENDBRANCH  20  21
ENDBRANCH  18  20
ENDBRANCH  17  18
ENDBRANCH   4  17
TORSDOF 8
ENDMDL
