MODEL 10
REMARK VINA RESULT: -5.554202860      1.516      2.180
REMARK  8 active torsions:
REMARK  status: ('A' for Active; 'I' for Inactive)
REMARK    1  A    between atoms: C2_2  and  C3_3 
REMARK    2  A    between atoms: C3_3  and  N1_4 
REMARK    3  A    between atoms: N1_4  and  C4_5 
REMARK       I    between atoms: N1_4  and  C11_13 
REMARK    4  A    between atoms: C4_5  and  C5_6 
REMARK       I    between atoms: C11_13  and  N3_15 
REMARK    5  A    between atoms: N3_15  and  C12_17 
REMARK    6  A    between atoms: C12_17  and  C13_18 
REMARK    7  A    between atoms: C13_18  and  O3_20 
REMARK    8  A    between atoms: O3_20  and  C14_21 
ROOT
HETATM    1  N1  UNL     1      -2.107  19.827  -6.318  1.00  0.00    -0.330 N 
HETATM    2  C11 UNL     1      -1.936  18.430  -6.453  1.00  0.00     0.319 C 
HETATM    3  O1  UNL     1      -2.077  17.885  -7.583  1.00  0.00    -0.247 OA
HETATM    4  N3  UNL     1      -1.610  17.622  -5.355  1.00  0.00    -0.334 N 
ATOM      5  H3  UNL     1      -1.499  18.069  -4.445  1.00  0.00     0.164 HD
ENDROOT
BRANCH   1   6
HETATM    6  C3  UNL     1      -1.939  20.468  -5.039  1.00  0.00     0.127 C 
BRANCH   6   7
HETATM    7  C2  UNL     1      -1.043  21.702  -5.221  1.00  0.00     0.015 C 
HETATM    8  C1  UNL     1      -1.702  22.881  -4.572  1.00  0.00     0.006 C 
ENDBRANCH   6   7
ENDBRANCH   1   6
BRANCH   1   9
HETATM    9  C4  UNL     1      -2.458  20.679  -7.446  1.00  0.00     0.166 C 
BRANCH   9  10
HETATM   10  C5  UNL     1      -3.865  21.077  -7.436  1.00  0.00    -0.040 A 
HETATM   11  C6  UNL     1      -4.182  22.415  -7.478  1.00  0.00     0.011 A 
HETATM   12  C7  UNL     1      -5.476  22.883  -7.472  1.00  0.00     0.027 A 
HETATM   13  C8  UNL     1      -6.516  21.991  -7.423  1.00  0.00     0.046 A 
HETATM   14  N2  UNL     1      -7.879  22.369  -7.413  1.00  0.00    -0.102 NA
HETATM   15  C9  UNL     1      -6.244  20.622  -7.379  1.00  0.00     0.027 A 
HETATM   16  C10 UNL     1      -4.924  20.188  -7.386  1.00  0.00     0.011 A 
ENDBRANCH   9  10
ENDBRANCH   1   9
BRANCH   4  17
HETATM   17  C12 UNL     1      -1.421  16.188  -5.440  1.00  0.00     0.235 C 
BRANCH  17  18
HETATM   18  C13 UNL     1      -0.270  15.705  -4.694  1.00  0.00     0.276 C 
HETATM   19  O2  UNL     1       0.649  16.479  -4.347  1.00  0.00    -0.263 OA
BRANCH  18  20
HETATM   20  O3  UNL     1      -0.190  14.370  -4.359  1.00  0.00    -0.321 OA
BRANCH  20  21
HETATM   21  C14 UNL     1      -0.777  13.329  -5.078  1.00  0.00     0.174 C 
HETATM   22  C15 UNL     1       0.051  12.049  -4.975  1.00  0.00     0.034 C 
ENDBRANCH  20  21
ENDBRANCH  18  20
ENDBRANCH  17  18
ENDBRANCH   4  17
TORSDOF 8
ENDMDL
