MODEL 6
REMARK VINA RESULT: -7.706362832      4.893      7.990
REMARK  7 active torsions:
REMARK  status: ('A' for Active; 'I' for Inactive)
REMARK    1  A    between atoms: C2_7  and  C3_8 
REMARK    2  A    between atoms: C3_8  and  N4_9 
REMARK    3  A    between atoms: N4_9  and  C4_10 
REMARK       I    between atoms: N4_9  and  C11_18 
REMARK    4  A    between atoms: C4_10  and  C5_11 
REMARK       I    between atoms: C11_18  and  N6_20 
REMARK    5  A    between atoms: N6_20  and  C12_22 
REMARK    6  A    between atoms: C12_22  and  C13_23 
REMARK       I    between atoms: C13_23  and  N7_25 
REMARK    7  A    between atoms: C17_29  and  C18_30 
ROOT
HETATM    1  N4  UNL     1      -3.061  20.833  -7.308  1.00  0.00    -0.323 N 
HETATM    2  C11 UNL     1      -2.093  19.842  -6.981  1.00  0.00     0.319 C 
HETATM    3  O1  UNL     1      -2.462  18.697  -6.575  1.00  0.00    -0.247 OA
HETATM    4  N6  UNL     1      -0.696  20.047  -7.081  1.00  0.00    -0.334 N 
ATOM      5  H6  UNL     1      -0.366  20.956  -7.405  1.00  0.00     0.164 HD
ENDROOT
BRANCH   1   6
HETATM    6  C3  UNL     1      -4.449  20.520  -7.175  1.00  0.00     0.207 C 
BRANCH   6   7
HETATM    7  C2  UNL     1      -5.273  20.981  -8.321  1.00  0.00     0.131 A 
HETATM    8  N3  UNL     1      -5.229  20.642  -9.619  1.00  0.00    -0.271 N 
HETATM    9  N2  UNL     1      -6.183  21.346 -10.222  1.00  0.00    -0.225 N 
ATOM     10  H3  UNL     1      -4.590  19.978 -10.056  1.00  0.00     0.190 HD
HETATM   11  N1  UNL     1      -6.817  22.104  -9.355  1.00  0.00    -0.223 N 
ATOM     12  H2  UNL     1      -6.394  21.303 -11.219  1.00  0.00     0.210 HD
HETATM   13  C1  UNL     1      -7.925  23.014  -9.649  1.00  0.00     0.202 C 
HETATM   14  N8  UNL     1      -6.260  21.883  -8.184  1.00  0.00    -0.269 N 
ATOM     15  H8  UNL     1      -6.533  22.328  -7.308  1.00  0.00     0.190 HD
ENDBRANCH   6   7
ENDBRANCH   1   6
BRANCH   1  16
HETATM   16  C4  UNL     1      -2.677  22.144  -7.767  1.00  0.00     0.166 C 
BRANCH  16  17
HETATM   17  C5  UNL     1      -2.580  23.126  -6.675  1.00  0.00    -0.040 A 
HETATM   18  C6  UNL     1      -1.526  23.196  -5.790  1.00  0.00     0.011 A 
HETATM   19  C7  UNL     1      -1.484  24.143  -4.777  1.00  0.00     0.027 A 
HETATM   20  C8  UNL     1      -2.504  25.059  -4.619  1.00  0.00     0.046 A 
HETATM   21  N5  UNL     1      -2.465  26.043  -3.570  1.00  0.00    -0.102 NA
HETATM   22  C9  UNL     1      -3.562  24.994  -5.501  1.00  0.00     0.027 A 
HETATM   23  C10 UNL     1      -3.594  24.038  -6.514  1.00  0.00     0.011 A 
ENDBRANCH  16  17
ENDBRANCH   1  16
BRANCH   4  24
HETATM   24  C12 UNL     1       0.292  19.042  -6.749  1.00  0.00     0.227 C 
BRANCH  24  25
HETATM   25  C13 UNL     1       1.614  19.331  -7.299  1.00  0.00     0.238 C 
HETATM   26  O2  UNL     1       2.053  18.576  -8.246  1.00  0.00    -0.272 OA
HETATM   27  N7  UNL     1       2.424  20.354  -6.889  1.00  0.00    -0.342 N 
HETATM   28  C14 UNL     1       3.691  20.794  -7.450  1.00  0.00     0.127 C 
HETATM   29  C17 UNL     1       2.263  21.328  -5.796  1.00  0.00     0.121 C 
HETATM   30  C15 UNL     1       3.477  22.308  -7.580  1.00  0.00     0.022 C 
HETATM   31  C16 UNL     1       2.325  22.610  -6.658  1.00  0.00     0.032 C 
BRANCH  29  32
HETATM   32  C18 UNL     1       3.368  21.328  -4.836  1.00  0.00    -0.018 A 
HETATM   33  C19 UNL     1       4.323  20.310  -4.822  1.00  0.00     0.011 A 
HETATM   34  C20 UNL     1       5.390  20.301  -3.934  1.00  0.00     0.001 A 
HETATM   35  C21 UNL     1       5.560  21.302  -3.017  1.00  0.00     0.001 A 
HETATM   36  C22 UNL     1       4.644  22.311  -3.004  1.00  0.00     0.019 A 
HETATM   37  C23 UNL     1       3.569  22.316  -3.901  1.00  0.00     0.019 A 
HETATM   38 BR1  UNL     1       2.361  23.774  -3.732  1.00  0.00    -0.050 Br
ENDBRANCH  29  32
ENDBRANCH  24  25
ENDBRANCH   4  24
TORSDOF 7
ENDMDL
