MODEL 7
REMARK VINA RESULT: -7.634009155      1.957      3.107
REMARK  7 active torsions:
REMARK  status: ('A' for Active; 'I' for Inactive)
REMARK    1  A    between atoms: C2_7  and  C3_8 
REMARK    2  A    between atoms: C3_8  and  N4_9 
REMARK    3  A    between atoms: N4_9  and  C4_10 
REMARK       I    between atoms: N4_9  and  C11_18 
REMARK    4  A    between atoms: C4_10  and  C5_11 
REMARK       I    between atoms: C11_18  and  N6_20 
REMARK    5  A    between atoms: N6_20  and  C12_22 
REMARK    6  A    between atoms: C12_22  and  C13_23 
REMARK       I    between atoms: C13_23  and  N7_25 
REMARK    7  A    between atoms: C17_29  and  C18_30 
ROOT
HETATM    1  N4  UNL     1      -0.365  19.388  -6.149  1.00  0.00    -0.323 N 
HETATM    2  C11 UNL     1       0.003  18.461  -5.134  1.00  0.00     0.319 C 
HETATM    3  O1  UNL     1       0.856  17.552  -5.376  1.00  0.00    -0.247 OA
HETATM    4  N6  UNL     1      -0.533  18.478  -3.824  1.00  0.00    -0.334 N 
ATOM      5  H6  UNL     1      -1.221  19.196  -3.596  1.00  0.00     0.164 HD
ENDROOT
BRANCH   1   6
HETATM    6  C3  UNL     1       0.241  19.283  -7.439  1.00  0.00     0.207 C 
BRANCH   6   7
HETATM    7  C2  UNL     1       1.637  19.788  -7.481  1.00  0.00     0.131 A 
HETATM    8  N3  UNL     1       2.171  20.918  -6.992  1.00  0.00    -0.271 N 
HETATM    9  N2  UNL     1       3.465  20.885  -7.301  1.00  0.00    -0.225 N 
ATOM     10  H3  UNL     1       1.682  21.656  -6.485  1.00  0.00     0.190 HD
HETATM   11  N1  UNL     1       3.755  19.783  -7.958  1.00  0.00    -0.223 N 
ATOM     12  H2  UNL     1       4.137  21.613  -7.062  1.00  0.00     0.210 HD
HETATM   13  C1  UNL     1       5.075  19.399  -8.462  1.00  0.00     0.202 C 
HETATM   14  N8  UNL     1       2.633  19.106  -8.071  1.00  0.00    -0.269 N 
ATOM     15  H8  UNL     1       2.535  18.203  -8.536  1.00  0.00     0.190 HD
ENDBRANCH   6   7
ENDBRANCH   1   6
BRANCH   1  16
HETATM   16  C4  UNL     1      -1.334  20.427  -5.910  1.00  0.00     0.166 C 
BRANCH  16  17
HETATM   17  C5  UNL     1      -2.552  20.271  -6.721  1.00  0.00    -0.040 A 
HETATM   18  C6  UNL     1      -2.994  19.068  -7.229  1.00  0.00     0.011 A 
HETATM   19  C7  UNL     1      -4.152  18.978  -7.988  1.00  0.00     0.027 A 
HETATM   20  C8  UNL     1      -4.909  20.097  -8.265  1.00  0.00     0.046 A 
HETATM   21  N5  UNL     1      -6.110  20.008  -9.053  1.00  0.00    -0.102 NA
HETATM   22  C9  UNL     1      -4.472  21.304  -7.761  1.00  0.00     0.027 A 
HETATM   23  C10 UNL     1      -3.307  21.383  -6.999  1.00  0.00     0.011 A 
ENDBRANCH  16  17
ENDBRANCH   1  16
BRANCH   4  24
HETATM   24  C12 UNL     1      -0.162  17.536  -2.789  1.00  0.00     0.227 C 
BRANCH  24  25
HETATM   25  C13 UNL     1      -0.557  16.162  -3.091  1.00  0.00     0.238 C 
HETATM   26  O2  UNL     1      -1.722  15.969  -3.607  1.00  0.00    -0.272 OA
HETATM   27  N7  UNL     1       0.222  15.060  -2.876  1.00  0.00    -0.342 N 
HETATM   28  C14 UNL     1      -0.029  13.679  -3.252  1.00  0.00     0.127 C 
HETATM   29  C17 UNL     1       1.543  14.927  -2.238  1.00  0.00     0.121 C 
HETATM   30  C15 UNL     1       1.293  13.283  -3.924  1.00  0.00     0.022 C 
HETATM   31  C16 UNL     1       2.287  14.305  -3.440  1.00  0.00     0.032 C 
BRANCH  29  32
HETATM   32  C18 UNL     1       1.564  13.994  -1.110  1.00  0.00    -0.018 A 
HETATM   33  C19 UNL     1       2.129  12.722  -1.226  1.00  0.00     0.011 A 
HETATM   34  C20 UNL     1       2.179  11.830  -0.164  1.00  0.00     0.001 A 
HETATM   35  C21 UNL     1       1.671  12.155   1.063  1.00  0.00     0.001 A 
HETATM   36  C22 UNL     1       1.111  13.390   1.209  1.00  0.00     0.019 A 
HETATM   37  C23 UNL     1       1.063  14.287   0.136  1.00  0.00     0.019 A 
HETATM   38 BR1  UNL     1       0.219  15.953   0.492  1.00  0.00    -0.050 Br
ENDBRANCH  29  32
ENDBRANCH  24  25
ENDBRANCH   4  24
TORSDOF 7
ENDMDL
