MODEL 12
REMARK VINA RESULT: -7.493199173      2.274      3.231
REMARK  7 active torsions:
REMARK  status: ('A' for Active; 'I' for Inactive)
REMARK    1  A    between atoms: C2_7  and  C3_8 
REMARK    2  A    between atoms: C3_8  and  N4_9 
REMARK    3  A    between atoms: N4_9  and  C4_10 
REMARK       I    between atoms: N4_9  and  C11_18 
REMARK    4  A    between atoms: C4_10  and  C5_11 
REMARK       I    between atoms: C11_18  and  N6_20 
REMARK    5  A    between atoms: N6_20  and  C12_22 
REMARK    6  A    between atoms: C12_22  and  C13_23 
REMARK       I    between atoms: C13_23  and  N7_25 
REMARK    7  A    between atoms: C17_29  and  C18_30 
ROOT
HETATM    1  N4  UNL     1      -0.439  18.843  -5.960  1.00  0.00    -0.323 N 
HETATM    2  C11 UNL     1      -0.209  18.011  -4.829  1.00  0.00     0.319 C 
HETATM    3  O1  UNL     1       0.651  18.343  -3.954  1.00  0.00    -0.247 OA
HETATM    4  N6  UNL     1      -0.895  16.795  -4.597  1.00  0.00    -0.334 N 
ATOM      5  H6  UNL     1      -1.593  16.500  -5.279  1.00  0.00     0.164 HD
ENDROOT
BRANCH   1   6
HETATM    6  C3  UNL     1       0.307  20.054  -6.096  1.00  0.00     0.207 C 
BRANCH   6   7
HETATM    7  C2  UNL     1       1.611  19.872  -6.784  1.00  0.00     0.131 A 
HETATM    8  N3  UNL     1       1.899  19.328  -7.976  1.00  0.00    -0.271 N 
HETATM    9  N2  UNL     1       3.219  19.412  -8.117  1.00  0.00    -0.225 N 
ATOM     10  H3  UNL     1       1.238  18.930  -8.642  1.00  0.00     0.190 HD
HETATM   11  N1  UNL     1       3.761  19.985  -7.064  1.00  0.00    -0.223 N 
ATOM     12  H2  UNL     1       3.739  19.078  -8.927  1.00  0.00     0.210 HD
HETATM   13  C1  UNL     1       5.187  20.248  -6.859  1.00  0.00     0.202 C 
HETATM   14  N8  UNL     1       2.775  20.269  -6.242  1.00  0.00    -0.269 N 
ATOM     15  H8  UNL     1       2.877  20.720  -5.332  1.00  0.00     0.190 HD
ENDBRANCH   6   7
ENDBRANCH   1   6
BRANCH   1  16
HETATM   16  C4  UNL     1      -1.402  18.494  -6.973  1.00  0.00     0.166 C 
BRANCH  16  17
HETATM   17  C5  UNL     1      -2.510  19.459  -7.067  1.00  0.00    -0.040 A 
HETATM   18  C6  UNL     1      -2.450  20.753  -6.595  1.00  0.00     0.011 A 
HETATM   19  C7  UNL     1      -3.525  21.622  -6.710  1.00  0.00     0.027 A 
HETATM   20  C8  UNL     1      -4.703  21.221  -7.305  1.00  0.00     0.046 A 
HETATM   21  N5  UNL     1      -5.821  22.119  -7.426  1.00  0.00    -0.102 NA
HETATM   22  C9  UNL     1      -4.770  19.927  -7.778  1.00  0.00     0.027 A 
HETATM   23  C10 UNL     1      -3.684  19.062  -7.658  1.00  0.00     0.011 A 
ENDBRANCH  16  17
ENDBRANCH   1  16
BRANCH   4  24
HETATM   24  C12 UNL     1      -0.664  15.945  -3.448  1.00  0.00     0.227 C 
BRANCH  24  25
HETATM   25  C13 UNL     1      -0.454  14.543  -3.801  1.00  0.00     0.238 C 
HETATM   26  O2  UNL     1      -1.439  13.899  -4.325  1.00  0.00    -0.272 OA
HETATM   27  N7  UNL     1       0.716  13.860  -3.624  1.00  0.00    -0.342 N 
HETATM   28  C14 UNL     1       1.058  12.513  -4.051  1.00  0.00     0.127 C 
HETATM   29  C17 UNL     1       1.981  14.268  -2.989  1.00  0.00     0.121 C 
HETATM   30  C15 UNL     1       2.415  12.727  -4.736  1.00  0.00     0.022 C 
HETATM   31  C16 UNL     1       2.900  14.053  -4.213  1.00  0.00     0.032 C 
BRANCH  29  32
HETATM   32  C18 UNL     1       2.405  13.390  -1.897  1.00  0.00    -0.018 A 
HETATM   33  C19 UNL     1       1.503  12.544  -1.249  1.00  0.00     0.011 A 
HETATM   34  C20 UNL     1       1.888  11.689  -0.226  1.00  0.00     0.001 A 
HETATM   35  C21 UNL     1       3.185  11.633   0.205  1.00  0.00     0.001 A 
HETATM   36  C22 UNL     1       4.091  12.449  -0.406  1.00  0.00     0.019 A 
HETATM   37  C23 UNL     1       3.699  13.310  -1.438  1.00  0.00     0.019 A 
HETATM   38 BR1  UNL     1       5.072  14.406  -2.163  1.00  0.00    -0.050 Br
ENDBRANCH  29  32
ENDBRANCH  24  25
ENDBRANCH   4  24
TORSDOF 7
ENDMDL
