MODEL 4
REMARK VINA RESULT: -7.766239898      1.310      4.619
REMARK  7 active torsions:
REMARK  status: ('A' for Active; 'I' for Inactive)
REMARK    1  A    between atoms: C2_7  and  C3_8 
REMARK    2  A    between atoms: C3_8  and  N4_9 
REMARK    3  A    between atoms: N4_9  and  C4_10 
REMARK       I    between atoms: N4_9  and  C11_18 
REMARK    4  A    between atoms: C4_10  and  C5_11 
REMARK       I    between atoms: C11_18  and  N6_20 
REMARK    5  A    between atoms: N6_20  and  C12_22 
REMARK    6  A    between atoms: C12_22  and  C13_23 
REMARK       I    between atoms: C13_23  and  N7_25 
REMARK    7  A    between atoms: C17_29  and  C18_30 
ROOT
HETATM    1  N4  UNL     1      -0.064  19.734  -5.837  1.00  0.00    -0.323 N 
HETATM    2  C11 UNL     1       0.086  19.365  -4.471  1.00  0.00     0.319 C 
HETATM    3  O1  UNL     1      -0.619  19.926  -3.575  1.00  0.00    -0.247 OA
HETATM    4  N6  UNL     1       0.997  18.381  -4.019  1.00  0.00    -0.334 N 
ATOM      5  H6  UNL     1       1.578  17.910  -4.712  1.00  0.00     0.164 HD
ENDROOT
BRANCH   1   6
HETATM    6  C3  UNL     1      -1.017  20.740  -6.185  1.00  0.00     0.207 C 
BRANCH   6   7
HETATM    7  C2  UNL     1      -2.232  20.200  -6.848  1.00  0.00     0.131 A 
HETATM    8  N3  UNL     1      -2.600  18.934  -7.096  1.00  0.00    -0.271 N 
HETATM    9  N2  UNL     1      -3.776  19.001  -7.715  1.00  0.00    -0.225 N 
ATOM     10  H3  UNL     1      -2.081  18.089  -6.858  1.00  0.00     0.190 HD
HETATM   11  N1  UNL     1      -4.152  20.253  -7.859  1.00  0.00    -0.223 N 
ATOM     12  H2  UNL     1      -4.311  18.193  -8.033  1.00  0.00     0.210 HD
HETATM   13  C1  UNL     1      -5.388  20.717  -8.492  1.00  0.00     0.202 C 
HETATM   14  N8  UNL     1      -3.205  20.994  -7.328  1.00  0.00    -0.269 N 
ATOM     15  H8  UNL     1      -3.207  22.013  -7.287  1.00  0.00     0.190 HD
ENDBRANCH   6   7
ENDBRANCH   1   6
BRANCH   1  16
HETATM   16  C4  UNL     1       0.724  19.123  -6.877  1.00  0.00     0.166 C 
BRANCH  16  17
HETATM   17  C5  UNL     1       1.989  19.832  -7.128  1.00  0.00    -0.040 A 
HETATM   18  C6  UNL     1       2.353  21.007  -6.508  1.00  0.00     0.011 A 
HETATM   19  C7  UNL     1       3.560  21.634  -6.783  1.00  0.00     0.027 A 
HETATM   20  C8  UNL     1       4.447  21.100  -7.694  1.00  0.00     0.046 A 
HETATM   21  N5  UNL     1       5.699  21.747  -7.983  1.00  0.00    -0.102 NA
HETATM   22  C9  UNL     1       4.088  19.925  -8.320  1.00  0.00     0.027 A 
HETATM   23  C10 UNL     1       2.873  19.303  -8.036  1.00  0.00     0.011 A 
ENDBRANCH  16  17
ENDBRANCH   1  16
BRANCH   4  24
HETATM   24  C12 UNL     1       1.152  18.002  -2.630  1.00  0.00     0.227 C 
BRANCH  24  25
HETATM   25  C13 UNL     1       2.118  16.924  -2.432  1.00  0.00     0.238 C 
HETATM   26  O2  UNL     1       3.371  17.216  -2.504  1.00  0.00    -0.272 OA
HETATM   27  N7  UNL     1       1.793  15.624  -2.165  1.00  0.00    -0.342 N 
HETATM   28  C14 UNL     1       2.673  14.514  -1.834  1.00  0.00     0.127 C 
HETATM   29  C17 UNL     1       0.483  14.954  -2.100  1.00  0.00     0.121 C 
HETATM   30  C15 UNL     1       1.991  13.923  -0.592  1.00  0.00     0.022 C 
HETATM   31  C16 UNL     1       0.583  14.454  -0.641  1.00  0.00     0.032 C 
BRANCH  29  32
HETATM   32  C18 UNL     1       0.357  13.809  -3.004  1.00  0.00    -0.018 A 
HETATM   33  C19 UNL     1       0.642  12.510  -2.580  1.00  0.00     0.011 A 
HETATM   34  C20 UNL     1       0.509  11.409  -3.414  1.00  0.00     0.001 A 
HETATM   35  C21 UNL     1       0.089  11.543  -4.709  1.00  0.00     0.001 A 
HETATM   36  C22 UNL     1      -0.196  12.800  -5.155  1.00  0.00     0.019 A 
HETATM   37  C23 UNL     1      -0.061  13.908  -4.310  1.00  0.00     0.019 A 
HETATM   38 BR1  UNL     1      -0.463  15.594  -5.092  1.00  0.00    -0.050 Br
ENDBRANCH  29  32
ENDBRANCH  24  25
ENDBRANCH   4  24
TORSDOF 7
ENDMDL
