MODEL 3
REMARK VINA RESULT: -7.858496900      1.727      4.169
REMARK  7 active torsions:
REMARK  status: ('A' for Active; 'I' for Inactive)
REMARK    1  A    between atoms: C2_7  and  C3_8 
REMARK    2  A    between atoms: C3_8  and  N4_9 
REMARK    3  A    between atoms: N4_9  and  C4_10 
REMARK       I    between atoms: N4_9  and  C11_18 
REMARK    4  A    between atoms: C4_10  and  C5_11 
REMARK       I    between atoms: C11_18  and  N6_20 
REMARK    5  A    between atoms: N6_20  and  C12_22 
REMARK    6  A    between atoms: C12_22  and  C13_23 
REMARK       I    between atoms: C13_23  and  N7_25 
REMARK    7  A    between atoms: C17_29  and  C18_30 
ROOT
HETATM    1  N4  UNL     1       0.715  21.098  -3.715  1.00  0.00    -0.323 N 
HETATM    2  C11 UNL     1       0.678  19.869  -2.998  1.00  0.00     0.319 C 
HETATM    3  O1  UNL     1      -0.430  19.391  -2.604  1.00  0.00    -0.247 OA
HETATM    4  N6  UNL     1       1.830  19.111  -2.681  1.00  0.00    -0.334 N 
ATOM      5  H6  UNL     1       2.737  19.466  -2.984  1.00  0.00     0.164 HD
ENDROOT
BRANCH   1   6
HETATM    6  C3  UNL     1      -0.511  21.782  -3.986  1.00  0.00     0.207 C 
BRANCH   6   7
HETATM    7  C2  UNL     1      -1.136  21.388  -5.274  1.00  0.00     0.131 A 
HETATM    8  N3  UNL     1      -1.239  22.056  -6.434  1.00  0.00    -0.271 N 
HETATM    9  N2  UNL     1      -1.893  21.254  -7.270  1.00  0.00    -0.225 N 
ATOM     10  H3  UNL     1      -0.887  22.992  -6.633  1.00  0.00     0.190 HD
HETATM   11  N1  UNL     1      -2.198  20.119  -6.680  1.00  0.00    -0.223 N 
ATOM     12  H2  UNL     1      -2.126  21.488  -8.235  1.00  0.00     0.210 HD
HETATM   13  C1  UNL     1      -2.916  18.995  -7.284  1.00  0.00     0.202 C 
HETATM   14  N8  UNL     1      -1.735  20.198  -5.452  1.00  0.00    -0.269 N 
ATOM     15  H8  UNL     1      -1.818  19.469  -4.743  1.00  0.00     0.190 HD
ENDBRANCH   6   7
ENDBRANCH   1   6
BRANCH   1  16
HETATM   16  C4  UNL     1       1.955  21.671  -4.172  1.00  0.00     0.166 C 
BRANCH  16  17
HETATM   17  C5  UNL     1       2.519  20.963  -5.333  1.00  0.00    -0.040 A 
HETATM   18  C6  UNL     1       1.762  20.340  -6.301  1.00  0.00     0.011 A 
HETATM   19  C7  UNL     1       2.346  19.687  -7.377  1.00  0.00     0.027 A 
HETATM   20  C8  UNL     1       3.717  19.637  -7.518  1.00  0.00     0.046 A 
HETATM   21  N5  UNL     1       4.328  18.961  -8.632  1.00  0.00    -0.102 NA
HETATM   22  C9  UNL     1       4.481  20.258  -6.552  1.00  0.00     0.027 A 
HETATM   23  C10 UNL     1       3.884  20.911  -5.476  1.00  0.00     0.011 A 
ENDBRANCH  16  17
ENDBRANCH   1  16
BRANCH   4  24
HETATM   24  C12 UNL     1       1.798  17.861  -1.951  1.00  0.00     0.227 C 
BRANCH  24  25
HETATM   25  C13 UNL     1       2.780  16.890  -2.429  1.00  0.00     0.238 C 
HETATM   26  O2  UNL     1       3.946  17.325  -2.762  1.00  0.00    -0.272 OA
HETATM   27  N7  UNL     1       2.558  15.546  -2.542  1.00  0.00    -0.342 N 
HETATM   28  C14 UNL     1       3.499  14.493  -2.886  1.00  0.00     0.127 C 
HETATM   29  C17 UNL     1       1.335  14.752  -2.328  1.00  0.00     0.121 C 
HETATM   30  C15 UNL     1       3.243  13.458  -1.782  1.00  0.00     0.022 C 
HETATM   31  C16 UNL     1       1.890  13.819  -1.228  1.00  0.00     0.032 C 
BRANCH  29  32
HETATM   32  C18 UNL     1       0.935  13.958  -3.491  1.00  0.00    -0.018 A 
HETATM   33  C19 UNL     1       1.152  12.579  -3.543  1.00  0.00     0.011 A 
HETATM   34  C20 UNL     1       0.761  11.804  -4.626  1.00  0.00     0.001 A 
HETATM   35  C21 UNL     1       0.137  12.359  -5.709  1.00  0.00     0.001 A 
HETATM   36  C22 UNL     1      -0.089  13.703  -5.690  1.00  0.00     0.019 A 
HETATM   37  C23 UNL     1       0.307  14.482  -4.596  1.00  0.00     0.019 A 
HETATM   38 BR1  UNL     1      -0.048  16.343  -4.738  1.00  0.00    -0.050 Br
ENDBRANCH  29  32
ENDBRANCH  24  25
ENDBRANCH   4  24
TORSDOF 7
ENDMDL
