MODEL 3
REMARK VINA RESULT: -6.316833689      3.483      6.712
REMARK  8 active torsions:
REMARK  status: ('A' for Active; 'I' for Inactive)
REMARK    1  A    between atoms: C2_2  and  O1_3 
REMARK    2  A    between atoms: O1_3  and  C3_4 
REMARK    3  A    between atoms: C3_4  and  C4_6 
REMARK    4  A    between atoms: C4_6  and  N1_7 
REMARK       I    between atoms: N1_7  and  C5_9 
REMARK       I    between atoms: C5_9  and  N2_11 
REMARK    5  A    between atoms: N2_11  and  C6_12 
REMARK    6  A    between atoms: N2_11  and  C13_20 
REMARK    7  A    between atoms: C6_12  and  C7_13 
REMARK    8  A    between atoms: C13_20  and  C14_21 
ROOT
HETATM    1  N1  UNL     1      -4.949  18.632  -8.344  1.00  0.00    -0.334 N 
ATOM      2  H1  UNL     1      -4.196  18.202  -8.880  1.00  0.00     0.164 HD
HETATM    3  C5  UNL     1      -4.654  19.503  -7.260  1.00  0.00     0.319 C 
HETATM    4  O3  UNL     1      -5.630  19.995  -6.640  1.00  0.00    -0.247 OA
HETATM    5  N2  UNL     1      -3.329  19.821  -6.866  1.00  0.00    -0.323 N 
ENDROOT
BRANCH   5   6
HETATM    6  C6  UNL     1      -3.114  20.716  -5.752  1.00  0.00     0.166 C 
BRANCH   6   7
HETATM    7  C7  UNL     1      -2.847  22.096  -6.249  1.00  0.00    -0.040 A 
HETATM    8  C8  UNL     1      -1.608  22.658  -6.136  1.00  0.00     0.011 A 
HETATM    9  C9  UNL     1      -1.316  23.936  -6.585  1.00  0.00     0.027 A 
HETATM   10  C10 UNL     1      -2.347  24.648  -7.167  1.00  0.00     0.046 A 
HETATM   11  N3  UNL     1      -2.063  25.960  -7.631  1.00  0.00    -0.102 NA
HETATM   12  C11 UNL     1      -3.606  24.113  -7.296  1.00  0.00     0.027 A 
HETATM   13  C12 UNL     1      -3.858  22.832  -6.836  1.00  0.00     0.011 A 
ENDBRANCH   6   7
ENDBRANCH   5   6
BRANCH   5  14
HETATM   14  C13 UNL     1      -2.158  19.289  -7.535  1.00  0.00     0.207 C 
BRANCH  14  15
HETATM   15  C14 UNL     1      -1.566  18.217  -6.678  1.00  0.00     0.131 A 
HETATM   16  N4  UNL     1      -0.274  18.089  -6.334  1.00  0.00    -0.271 N 
HETATM   17  N5  UNL     1      -0.114  17.018  -5.564  1.00  0.00    -0.225 N 
ATOM     18  H4  UNL     1       0.474  18.721  -6.621  1.00  0.00     0.190 HD
HETATM   19  N6  UNL     1      -1.300  16.474  -5.423  1.00  0.00    -0.223 N 
ATOM     20  H5  UNL     1       0.761  16.683  -5.160  1.00  0.00     0.210 HD
HETATM   21  C15 UNL     1      -1.556  15.286  -4.655  1.00  0.00     0.202 C 
HETATM   22  N7  UNL     1      -2.193  17.183  -6.089  1.00  0.00    -0.269 N 
ATOM     23  H7  UNL     1      -3.191  16.980  -6.147  1.00  0.00     0.190 HD
ENDBRANCH  14  15
ENDBRANCH   5  14
BRANCH   1  24
HETATM   24  C4  UNL     1      -6.332  18.364  -8.674  1.00  0.00     0.235 C 
BRANCH  24  25
HETATM   25  C3  UNL     1      -6.823  19.224  -9.774  1.00  0.00     0.276 C 
HETATM   26  O2  UNL     1      -6.520  18.953 -10.952  1.00  0.00    -0.263 OA
BRANCH  25  27
HETATM   27  O1  UNL     1      -7.611  20.316  -9.499  1.00  0.00    -0.321 OA
BRANCH  27  28
HETATM   28  C2  UNL     1      -7.170  21.654  -9.627  1.00  0.00     0.174 C 
HETATM   29  C1  UNL     1      -8.363  22.576  -9.512  1.00  0.00     0.034 C 
ENDBRANCH  27  28
ENDBRANCH  25  27
ENDBRANCH  24  25
ENDBRANCH   1  24
TORSDOF 8
ENDMDL
