MODEL 14
REMARK VINA RESULT: -5.960074180      3.296      7.520
REMARK  8 active torsions:
REMARK  status: ('A' for Active; 'I' for Inactive)
REMARK    1  A    between atoms: C2_2  and  O1_3 
REMARK    2  A    between atoms: O1_3  and  C3_4 
REMARK    3  A    between atoms: C3_4  and  C4_6 
REMARK    4  A    between atoms: C4_6  and  N1_7 
REMARK       I    between atoms: N1_7  and  C5_9 
REMARK       I    between atoms: C5_9  and  N2_11 
REMARK    5  A    between atoms: N2_11  and  C6_12 
REMARK    6  A    between atoms: N2_11  and  C13_20 
REMARK    7  A    between atoms: C6_12  and  C7_13 
REMARK    8  A    between atoms: C13_20  and  C14_21 
ROOT
HETATM    1  N1  UNL     1       0.092  16.928  -4.990  1.00  0.00    -0.334 N 
ATOM      2  H1  UNL     1       0.493  16.580  -5.861  1.00  0.00     0.164 HD
HETATM    3  C5  UNL     1      -0.700  18.108  -4.982  1.00  0.00     0.319 C 
HETATM    4  O3  UNL     1      -1.159  18.481  -3.874  1.00  0.00    -0.247 OA
HETATM    5  N2  UNL     1      -0.978  18.857  -6.155  1.00  0.00    -0.323 N 
ENDROOT
BRANCH   5   6
HETATM    6  C6  UNL     1      -1.793  20.047  -6.061  1.00  0.00     0.166 C 
BRANCH   6   7
HETATM    7  C7  UNL     1      -3.048  19.869  -6.846  1.00  0.00    -0.040 A 
HETATM    8  C8  UNL     1      -3.786  20.945  -7.247  1.00  0.00     0.011 A 
HETATM    9  C9  UNL     1      -4.958  20.826  -7.978  1.00  0.00     0.027 A 
HETATM   10  C10 UNL     1      -5.370  19.548  -8.300  1.00  0.00     0.046 A 
HETATM   11  N3  UNL     1      -6.569  19.410  -9.050  1.00  0.00    -0.102 NA
HETATM   12  C11 UNL     1      -4.650  18.442  -7.913  1.00  0.00     0.027 A 
HETATM   13  C12 UNL     1      -3.485  18.603  -7.184  1.00  0.00     0.011 A 
ENDBRANCH   6   7
ENDBRANCH   5   6
BRANCH   5  14
HETATM   14  C13 UNL     1      -0.481  18.485  -7.464  1.00  0.00     0.207 C 
BRANCH  14  15
HETATM   15  C14 UNL     1       0.939  18.936  -7.580  1.00  0.00     0.131 A 
HETATM   16  N4  UNL     1       2.002  18.167  -7.873  1.00  0.00    -0.271 N 
HETATM   17  N5  UNL     1       3.106  18.908  -7.891  1.00  0.00    -0.225 N 
ATOM     18  H4  UNL     1       1.967  17.165  -8.055  1.00  0.00     0.190 HD
HETATM   19  N6  UNL     1       2.739  20.136  -7.611  1.00  0.00    -0.223 N 
ATOM     20  H5  UNL     1       4.054  18.584  -8.084  1.00  0.00     0.210 HD
HETATM   21  C15 UNL     1       3.646  21.250  -7.531  1.00  0.00     0.202 C 
HETATM   22  N7  UNL     1       1.433  20.176  -7.419  1.00  0.00    -0.269 N 
ATOM     23  H7  UNL     1       0.891  21.008  -7.187  1.00  0.00     0.190 HD
ENDBRANCH  14  15
ENDBRANCH   5  14
BRANCH   1  24
HETATM   24  C4  UNL     1       0.323  16.229  -3.745  1.00  0.00     0.235 C 
BRANCH  24  25
HETATM   25  C3  UNL     1      -0.438  14.961  -3.662  1.00  0.00     0.276 C 
HETATM   26  O2  UNL     1      -1.044  14.672  -2.612  1.00  0.00    -0.263 OA
BRANCH  25  27
HETATM   27  O1  UNL     1      -0.477  14.108  -4.739  1.00  0.00    -0.321 OA
BRANCH  27  28
HETATM   28  C2  UNL     1      -1.122  12.848  -4.718  1.00  0.00     0.174 C 
HETATM   29  C1  UNL     1      -0.078  11.761  -4.838  1.00  0.00     0.034 C 
ENDBRANCH  27  28
ENDBRANCH  25  27
ENDBRANCH  24  25
ENDBRANCH   1  24
TORSDOF 8
ENDMDL
