MODEL 4
REMARK VINA RESULT: -6.238804845      3.144      6.258
REMARK  8 active torsions:
REMARK  status: ('A' for Active; 'I' for Inactive)
REMARK    1  A    between atoms: C2_2  and  O1_3 
REMARK    2  A    between atoms: O1_3  and  C3_4 
REMARK    3  A    between atoms: C3_4  and  C4_6 
REMARK    4  A    between atoms: C4_6  and  N1_7 
REMARK       I    between atoms: N1_7  and  C5_9 
REMARK       I    between atoms: C5_9  and  N2_11 
REMARK    5  A    between atoms: N2_11  and  C6_12 
REMARK    6  A    between atoms: N2_11  and  C13_20 
REMARK    7  A    between atoms: C6_12  and  C7_13 
REMARK    8  A    between atoms: C13_20  and  C14_21 
ROOT
HETATM    1  N1  UNL     1      -4.548  19.748  -6.883  1.00  0.00    -0.334 N 
ATOM      2  H1  UNL     1      -4.587  20.486  -6.180  1.00  0.00     0.164 HD
HETATM    3  C5  UNL     1      -3.357  18.994  -7.070  1.00  0.00     0.319 C 
HETATM    4  O3  UNL     1      -3.378  18.103  -7.955  1.00  0.00    -0.247 OA
HETATM    5  N2  UNL     1      -2.180  19.213  -6.309  1.00  0.00    -0.323 N 
ENDROOT
BRANCH   5   6
HETATM    6  C6  UNL     1      -1.010  18.403  -6.561  1.00  0.00     0.166 C 
BRANCH   6   7
HETATM    7  C7  UNL     1      -0.877  17.356  -5.507  1.00  0.00    -0.040 A 
HETATM    8  C8  UNL     1      -1.640  16.224  -5.538  1.00  0.00     0.011 A 
HETATM    9  C9  UNL     1      -1.549  15.227  -4.579  1.00  0.00     0.027 A 
HETATM   10  C10 UNL     1      -0.636  15.417  -3.561  1.00  0.00     0.046 A 
HETATM   11  N3  UNL     1      -0.530  14.404  -2.571  1.00  0.00    -0.102 NA
HETATM   12  C11 UNL     1       0.149  16.545  -3.500  1.00  0.00     0.027 A 
HETATM   13  C12 UNL     1       0.028  17.518  -4.476  1.00  0.00     0.011 A 
ENDBRANCH   6   7
ENDBRANCH   5   6
BRANCH   5  14
HETATM   14  C13 UNL     1      -2.086  20.223  -5.274  1.00  0.00     0.207 C 
BRANCH  14  15
HETATM   15  C14 UNL     1      -1.732  21.528  -5.912  1.00  0.00     0.131 A 
HETATM   16  N4  UNL     1      -0.521  21.894  -6.366  1.00  0.00    -0.271 N 
HETATM   17  N5  UNL     1      -0.580  23.123  -6.870  1.00  0.00    -0.225 N 
ATOM     18  H4  UNL     1       0.318  21.316  -6.330  1.00  0.00     0.190 HD
HETATM   19  N6  UNL     1      -1.820  23.527  -6.734  1.00  0.00    -0.223 N 
ATOM     20  H5  UNL     1       0.191  23.650  -7.281  1.00  0.00     0.210 HD
HETATM   21  C15 UNL     1      -2.299  24.815  -7.158  1.00  0.00     0.202 C 
HETATM   22  N7  UNL     1      -2.534  22.578  -6.157  1.00  0.00    -0.269 N 
ATOM     23  H7  UNL     1      -3.528  22.633  -5.934  1.00  0.00     0.190 HD
ENDBRANCH  14  15
ENDBRANCH   5  14
BRANCH   1  24
HETATM   24  C4  UNL     1      -5.701  19.455  -7.706  1.00  0.00     0.235 C 
BRANCH  24  25
HETATM   25  C3  UNL     1      -5.803  20.358  -8.874  1.00  0.00     0.276 C 
HETATM   26  O2  UNL     1      -4.968  21.272  -9.022  1.00  0.00    -0.263 OA
BRANCH  25  27
HETATM   27  O1  UNL     1      -6.812  20.191  -9.791  1.00  0.00    -0.321 OA
BRANCH  27  28
HETATM   28  C2  UNL     1      -7.682  21.230 -10.199  1.00  0.00     0.174 C 
HETATM   29  C1  UNL     1      -8.688  21.487  -9.099  1.00  0.00     0.034 C 
ENDBRANCH  27  28
ENDBRANCH  25  27
ENDBRANCH  24  25
ENDBRANCH   1  24
TORSDOF 8
ENDMDL
