MODEL 1
REMARK VINA RESULT: -6.366308745      0.000      0.000
REMARK  8 active torsions:
REMARK  status: ('A' for Active; 'I' for Inactive)
REMARK    1  A    between atoms: C2_2  and  O1_3 
REMARK    2  A    between atoms: O1_3  and  C3_4 
REMARK    3  A    between atoms: C3_4  and  C4_6 
REMARK    4  A    between atoms: C4_6  and  N1_7 
REMARK       I    between atoms: N1_7  and  C5_9 
REMARK       I    between atoms: C5_9  and  N2_11 
REMARK    5  A    between atoms: N2_11  and  C6_12 
REMARK    6  A    between atoms: N2_11  and  C13_20 
REMARK    7  A    between atoms: C6_12  and  C7_13 
REMARK    8  A    between atoms: C13_20  and  C14_21 
ROOT
HETATM    1  N1  UNL     1      -2.286  17.406  -6.290  1.00  0.00    -0.334 N 
ATOM      2  H1  UNL     1      -3.001  16.679  -6.305  1.00  0.00     0.164 HD
HETATM    3  C5  UNL     1      -1.194  17.325  -5.384  1.00  0.00     0.319 C 
HETATM    4  O3  UNL     1      -0.352  18.256  -5.419  1.00  0.00    -0.247 OA
HETATM    5  N2  UNL     1      -1.033  16.254  -4.467  1.00  0.00    -0.323 N 
ENDROOT
BRANCH   5   6
HETATM    6  C6  UNL     1       0.107  16.247  -3.578  1.00  0.00     0.166 C 
BRANCH   6   7
HETATM    7  C7  UNL     1      -0.353  16.285  -2.160  1.00  0.00    -0.040 A 
HETATM    8  C8  UNL     1      -0.994  17.379  -1.656  1.00  0.00     0.011 A 
HETATM    9  C9  UNL     1      -1.438  17.457  -0.345  1.00  0.00     0.027 A 
HETATM   10  C10 UNL     1      -1.204  16.361   0.462  1.00  0.00     0.046 A 
HETATM   11  N3  UNL     1      -1.653  16.425   1.809  1.00  0.00    -0.102 NA
HETATM   12  C11 UNL     1      -0.562  15.242  -0.013  1.00  0.00     0.027 A 
HETATM   13  C12 UNL     1      -0.134  15.203  -1.328  1.00  0.00     0.011 A 
ENDBRANCH   6   7
ENDBRANCH   5   6
BRANCH   5  14
HETATM   14  C13 UNL     1      -1.965  15.149  -4.373  1.00  0.00     0.207 C 
BRANCH  14  15
HETATM   15  C14 UNL     1      -1.269  13.899  -4.807  1.00  0.00     0.131 A 
HETATM   16  N4  UNL     1      -0.887  13.588  -6.057  1.00  0.00    -0.271 N 
HETATM   17  N5  UNL     1      -0.298  12.397  -6.067  1.00  0.00    -0.225 N 
ATOM     18  H4  UNL     1      -1.029  14.179  -6.876  1.00  0.00     0.190 HD
HETATM   19  N6  UNL     1      -0.308  11.961  -4.830  1.00  0.00    -0.223 N 
ATOM     20  H5  UNL     1       0.087  11.915  -6.879  1.00  0.00     0.210 HD
HETATM   21  C15 UNL     1       0.239  10.697  -4.416  1.00  0.00     0.202 C 
HETATM   22  N7  UNL     1      -0.891  12.854  -4.051  1.00  0.00    -0.269 N 
ATOM     23  H7  UNL     1      -1.031  12.765  -3.044  1.00  0.00     0.190 HD
ENDBRANCH  14  15
ENDBRANCH   5  14
BRANCH   1  24
HETATM   24  C4  UNL     1      -2.369  18.535  -7.191  1.00  0.00     0.235 C 
BRANCH  24  25
HETATM   25  C3  UNL     1      -3.758  19.017  -7.362  1.00  0.00     0.276 C 
HETATM   26  O2  UNL     1      -4.181  19.948  -6.649  1.00  0.00    -0.263 OA
BRANCH  25  27
HETATM   27  O1  UNL     1      -4.578  18.441  -8.302  1.00  0.00    -0.321 OA
BRANCH  27  28
HETATM   28  C2  UNL     1      -5.987  18.574  -8.301  1.00  0.00     0.174 C 
HETATM   29  C1  UNL     1      -6.443  18.968  -9.688  1.00  0.00     0.034 C 
ENDBRANCH  27  28
ENDBRANCH  25  27
ENDBRANCH  24  25
ENDBRANCH   1  24
TORSDOF 8
ENDMDL
