MODEL 2
REMARK VINA RESULT: -6.354290238      3.287      7.652
REMARK  8 active torsions:
REMARK  status: ('A' for Active; 'I' for Inactive)
REMARK    1  A    between atoms: C2_2  and  O1_3 
REMARK    2  A    between atoms: O1_3  and  C3_4 
REMARK    3  A    between atoms: C3_4  and  C4_6 
REMARK    4  A    between atoms: C4_6  and  N1_7 
REMARK       I    between atoms: N1_7  and  C5_9 
REMARK       I    between atoms: C5_9  and  N2_11 
REMARK    5  A    between atoms: N2_11  and  C6_12 
REMARK    6  A    between atoms: N2_11  and  C13_20 
REMARK    7  A    between atoms: C6_12  and  C7_13 
REMARK    8  A    between atoms: C13_20  and  C14_21 
ROOT
HETATM    1  N1  UNL     1      -1.076  16.820  -3.938  1.00  0.00    -0.334 N 
ATOM      2  H1  UNL     1      -0.635  17.524  -3.346  1.00  0.00     0.164 HD
HETATM    3  C5  UNL     1      -1.409  17.121  -5.287  1.00  0.00     0.319 C 
HETATM    4  O3  UNL     1      -1.952  16.208  -5.959  1.00  0.00    -0.247 OA
HETATM    5  N2  UNL     1      -1.157  18.385  -5.879  1.00  0.00    -0.323 N 
ENDROOT
BRANCH   5   6
HETATM    6  C6  UNL     1      -1.528  18.610  -7.258  1.00  0.00     0.166 C 
BRANCH   6   7
HETATM    7  C7  UNL     1      -2.886  19.221  -7.327  1.00  0.00    -0.040 A 
HETATM    8  C8  UNL     1      -3.076  20.548  -7.068  1.00  0.00     0.011 A 
HETATM    9  C9  UNL     1      -4.320  21.157  -7.122  1.00  0.00     0.027 A 
HETATM   10  C10 UNL     1      -5.396  20.357  -7.455  1.00  0.00     0.046 A 
HETATM   11  N3  UNL     1      -6.678  20.967  -7.514  1.00  0.00    -0.102 NA
HETATM   12  C11 UNL     1      -5.240  19.018  -7.723  1.00  0.00     0.027 A 
HETATM   13  C12 UNL     1      -3.982  18.447  -7.659  1.00  0.00     0.011 A 
ENDBRANCH   6   7
ENDBRANCH   5   6
BRANCH   5  14
HETATM   14  C13 UNL     1      -0.536  19.481  -5.163  1.00  0.00     0.207 C 
BRANCH  14  15
HETATM   15  C14 UNL     1       0.491  20.109  -6.049  1.00  0.00     0.131 A 
HETATM   16  N4  UNL     1       0.491  21.374  -6.504  1.00  0.00    -0.271 N 
HETATM   17  N5  UNL     1       1.560  21.581  -7.266  1.00  0.00    -0.225 N 
ATOM     18  H4  UNL     1      -0.224  22.071  -6.296  1.00  0.00     0.190 HD
HETATM   19  N6  UNL     1       2.230  20.453  -7.290  1.00  0.00    -0.223 N 
ATOM     20  H5  UNL     1       1.810  22.449  -7.741  1.00  0.00     0.210 HD
HETATM   21  C15 UNL     1       3.459  20.261  -8.012  1.00  0.00     0.202 C 
HETATM   22  N7  UNL     1       1.601  19.550  -6.561  1.00  0.00    -0.269 N 
ATOM     23  H7  UNL     1       1.907  18.588  -6.411  1.00  0.00     0.190 HD
ENDBRANCH  14  15
ENDBRANCH   5  14
BRANCH   1  24
HETATM   24  C4  UNL     1      -1.370  15.503  -3.419  1.00  0.00     0.235 C 
BRANCH  24  25
HETATM   25  C3  UNL     1      -0.272  14.542  -3.669  1.00  0.00     0.276 C 
HETATM   26  O2  UNL     1       0.813  14.674  -3.067  1.00  0.00    -0.263 OA
BRANCH  25  27
HETATM   27  O1  UNL     1      -0.446  13.508  -4.558  1.00  0.00    -0.321 OA
BRANCH  27  28
HETATM   28  C2  UNL     1      -0.803  12.194  -4.173  1.00  0.00     0.174 C 
HETATM   29  C1  UNL     1       0.193  11.223  -4.766  1.00  0.00     0.034 C 
ENDBRANCH  27  28
ENDBRANCH  25  27
ENDBRANCH  24  25
ENDBRANCH   1  24
TORSDOF 8
ENDMDL
