MODEL 1
REMARK VINA RESULT: -10.421612160      0.000      0.000
REMARK  3 active torsions:
REMARK  status: ('A' for Active; 'I' for Inactive)
REMARK    1  A    between atoms: C3_4  and  C4_5 
REMARK    2  A    between atoms: C8_9  and  C9_10 
REMARK    3  A    between atoms: N5_24  and  C17_25 
ROOT
HETATM    1  N1  UNL     1      35.808   2.851  68.511  1.00  0.00    -0.192 NA
HETATM    2  C1  UNL     1      36.781   2.301  68.211  1.00  0.00     0.087 C 
HETATM    3  C2  UNL     1      38.017   1.603  67.852  1.00  0.00     0.094 C 
HETATM    4  C3  UNL     1      39.160   1.915  68.371  1.00  0.00     0.022 C 
ENDROOT
BRANCH   4   5
HETATM    5  C4  UNL     1      40.425   1.224  68.024  1.00  0.00    -0.035 A 
HETATM    6  C5  UNL     1      41.524   1.465  68.808  1.00  0.00     0.011 A 
HETATM    7  C6  UNL     1      42.741   0.872  68.572  1.00  0.00     0.002 A 
HETATM    8  C7  UNL     1      42.790   0.016  67.493  1.00  0.00     0.015 A 
HETATM    9  C8  UNL     1      41.709  -0.253  66.678  1.00  0.00     0.009 A 
HETATM   10  C23 UNL     1      40.530   0.364  66.963  1.00  0.00     0.026 A 
BRANCH   9  11
HETATM   11  C9  UNL     1      41.858  -1.259  65.640  1.00  0.00     0.123 A 
HETATM   12  N2  UNL     1      43.143  -1.619  65.282  1.00  0.00    -0.338 N 
HETATM   13  C10 UNL     1      43.086  -2.535  64.337  1.00  0.00     0.077 A 
ATOM     14  H2  UNL     1      43.998  -1.236  65.685  1.00  0.00     0.167 HD
HETATM   15  C11 UNL     1      44.108  -3.189  63.692  1.00  0.00     0.121 A 
HETATM   16  C16 UNL     1      41.754  -2.756  64.095  1.00  0.00     0.083 A 
HETATM   17  N3  UNL     1      43.782  -4.098  62.776  1.00  0.00    -0.349 N 
HETATM   18  C12 UNL     1      42.484  -4.356  62.506  1.00  0.00     0.117 A 
ATOM     19  H3  UNL     1      44.515  -4.602  62.277  1.00  0.00     0.167 HD
HETATM   20  N4  UNL     1      41.905  -5.239  61.654  1.00  0.00    -0.352 N 
HETATM   21  C15 UNL     1      41.423  -3.705  63.146  1.00  0.00     0.039 A 
HETATM   22  C13 UNL     1      40.577  -5.173  61.733  1.00  0.00     0.090 A 
ATOM     23  H4  UNL     1      42.417  -5.869  61.037  1.00  0.00     0.166 HD
HETATM   24  C14 UNL     1      40.232  -4.205  62.676  1.00  0.00     0.034 A 
HETATM   25  N5  UNL     1      40.995  -1.963  64.894  1.00  0.00    -0.301 N 
BRANCH  25  26
HETATM   26  C17 UNL     1      39.571  -1.827  64.820  1.00  0.00    -0.004 C 
HETATM   27  C18 UNL     1      38.784  -2.087  66.046  1.00  0.00     0.053 C 
HETATM   28  C19 UNL     1      37.326  -2.294  65.573  1.00  0.00     0.006 C 
HETATM   29  C20 UNL     1      36.813  -0.944  65.174  1.00  0.00     0.001 C 
HETATM   30  C21 UNL     1      37.850   0.000  64.659  1.00  0.00     0.006 C 
HETATM   31  C22 UNL     1      39.051  -0.668  64.040  1.00  0.00     0.053 C 
ENDBRANCH  25  26
ENDBRANCH   9  11
ENDBRANCH   4   5
TORSDOF 3
ENDMDL
