MODEL 11
REMARK VINA RESULT: -8.988080720      1.642      6.648
REMARK  3 active torsions:
REMARK  status: ('A' for Active; 'I' for Inactive)
REMARK    1  A    between atoms: C3_4  and  C4_5 
REMARK    2  A    between atoms: C8_9  and  C9_10 
REMARK    3  A    between atoms: N5_24  and  C17_25 
ROOT
HETATM    1  N1  UNL     1      39.986  -6.106  60.146  1.00  0.00    -0.192 NA
HETATM    2  C1  UNL     1      40.521  -5.454  60.938  1.00  0.00     0.087 C 
HETATM    3  C2  UNL     1      41.211  -4.620  61.924  1.00  0.00     0.094 C 
HETATM    4  C3  UNL     1      42.501  -4.569  62.002  1.00  0.00     0.022 C 
ENDROOT
BRANCH   4   5
HETATM    5  C4  UNL     1      43.223  -3.734  62.991  1.00  0.00    -0.035 A 
HETATM    6  C5  UNL     1      44.594  -3.722  62.942  1.00  0.00     0.011 A 
HETATM    7  C6  UNL     1      45.355  -2.979  63.812  1.00  0.00     0.002 A 
HETATM    8  C7  UNL     1      44.653  -2.243  64.742  1.00  0.00     0.015 A 
HETATM    9  C8  UNL     1      43.275  -2.227  64.826  1.00  0.00     0.009 A 
HETATM   10  C23 UNL     1      42.577  -2.983  63.936  1.00  0.00     0.026 A 
BRANCH   9  11
HETATM   11  C9  UNL     1      42.649  -1.324  65.777  1.00  0.00     0.123 A 
HETATM   12  N2  UNL     1      43.427  -0.862  66.822  1.00  0.00    -0.338 N 
HETATM   13  C10 UNL     1      42.702  -0.061  67.576  1.00  0.00     0.077 A 
ATOM     14  H2  UNL     1      44.404  -1.103  66.983  1.00  0.00     0.167 HD
HETATM   15  C11 UNL     1      43.058   0.633  68.707  1.00  0.00     0.121 A 
HETATM   16  C16 UNL     1      41.456  -0.016  67.004  1.00  0.00     0.083 A 
HETATM   17  N3  UNL     1      42.134   1.401  69.281  1.00  0.00    -0.349 N 
HETATM   18  C12 UNL     1      40.894   1.482  68.752  1.00  0.00     0.117 A 
ATOM     19  H3  UNL     1      42.364   1.929  70.123  1.00  0.00     0.167 HD
HETATM   20  N4  UNL     1      39.806   2.202  69.126  1.00  0.00    -0.352 N 
HETATM   21  C15 UNL     1      40.503   0.786  67.602  1.00  0.00     0.039 A 
HETATM   22  C13 UNL     1      38.791   1.996  68.290  1.00  0.00     0.090 A 
ATOM     23  H4  UNL     1      39.771   2.818  69.939  1.00  0.00     0.166 HD
HETATM   24  C14 UNL     1      39.199   1.099  67.303  1.00  0.00     0.034 A 
HETATM   25  N5  UNL     1      41.421  -0.802  65.897  1.00  0.00    -0.301 N 
BRANCH  25  26
HETATM   26  C17 UNL     1      40.251  -1.104  65.128  1.00  0.00    -0.004 C 
HETATM   27  C18 UNL     1      39.191  -1.915  65.768  1.00  0.00     0.053 C 
HETATM   28  C19 UNL     1      38.303  -2.434  64.612  1.00  0.00     0.006 C 
HETATM   29  C20 UNL     1      37.518  -1.258  64.118  1.00  0.00     0.001 C 
HETATM   30  C21 UNL     1      38.195   0.065  64.271  1.00  0.00     0.006 C 
HETATM   31  C22 UNL     1      39.700  -0.003  64.288  1.00  0.00     0.053 C 
ENDBRANCH  25  26
ENDBRANCH   9  11
ENDBRANCH   4   5
TORSDOF 3
ENDMDL
