MODEL 3
REMARK VINA RESULT: -9.883011255      3.315      6.174
REMARK  3 active torsions:
REMARK  status: ('A' for Active; 'I' for Inactive)
REMARK    1  A    between atoms: C3_4  and  C4_5 
REMARK    2  A    between atoms: C8_9  and  C9_10 
REMARK    3  A    between atoms: N5_24  and  C17_25 
ROOT
HETATM    1  N1  UNL     1      43.926  -0.184  67.627  1.00  0.00    -0.192 NA
HETATM    2  C1  UNL     1      42.788  -0.075  67.445  1.00  0.00     0.087 C 
HETATM    3  C2  UNL     1      41.353   0.084  67.208  1.00  0.00     0.094 C 
HETATM    4  C3  UNL     1      40.684   1.091  67.670  1.00  0.00     0.022 C 
ENDROOT
BRANCH   4   5
HETATM    5  C4  UNL     1      39.231   1.273  67.444  1.00  0.00    -0.035 A 
HETATM    6  C5  UNL     1      38.522   1.992  68.374  1.00  0.00     0.011 A 
HETATM    7  C6  UNL     1      37.173   2.221  68.255  1.00  0.00     0.002 A 
HETATM    8  C7  UNL     1      36.571   1.680  67.140  1.00  0.00     0.015 A 
HETATM    9  C8  UNL     1      37.245   0.950  66.181  1.00  0.00     0.009 A 
HETATM   10  C23 UNL     1      38.582   0.759  66.354  1.00  0.00     0.026 A 
BRANCH   9  11
HETATM   11  C9  UNL     1      36.521   0.528  64.994  1.00  0.00     0.123 A 
HETATM   12  N2  UNL     1      35.462   1.315  64.582  1.00  0.00    -0.338 N 
HETATM   13  C10 UNL     1      34.929   0.786  63.500  1.00  0.00     0.077 A 
ATOM     14  H2  UNL     1      35.145   2.168  65.042  1.00  0.00     0.167 HD
HETATM   15  C11 UNL     1      33.873   1.228  62.740  1.00  0.00     0.121 A 
HETATM   16  C16 UNL     1      35.656  -0.345  63.225  1.00  0.00     0.083 A 
HETATM   17  N3  UNL     1      33.537   0.514  61.668  1.00  0.00    -0.349 N 
HETATM   18  C12 UNL     1      34.226  -0.605  61.354  1.00  0.00     0.117 A 
ATOM     19  H3  UNL     1      32.758   0.813  61.083  1.00  0.00     0.167 HD
HETATM   20  N4  UNL     1      34.101  -1.472  60.317  1.00  0.00    -0.352 N 
HETATM   21  C15 UNL     1      35.305  -1.079  62.109  1.00  0.00     0.039 A 
HETATM   22  C13 UNL     1      35.022  -2.431  60.388  1.00  0.00     0.090 A 
ATOM     23  H4  UNL     1      33.396  -1.399  59.584  1.00  0.00     0.166 HD
HETATM   24  C14 UNL     1      35.810  -2.212  61.518  1.00  0.00     0.034 A 
HETATM   25  N5  UNL     1      36.635  -0.508  64.153  1.00  0.00    -0.301 N 
BRANCH  25  26
HETATM   26  C17 UNL     1      37.496  -1.648  64.262  1.00  0.00    -0.004 C 
HETATM   27  C18 UNL     1      38.858  -1.545  63.692  1.00  0.00     0.053 C 
HETATM   28  C19 UNL     1      39.370  -3.000  63.561  1.00  0.00     0.006 C 
HETATM   29  C20 UNL     1      39.666  -3.472  64.952  1.00  0.00     0.001 C 
HETATM   30  C21 UNL     1      38.824  -2.856  66.023  1.00  0.00     0.006 C 
HETATM   31  C22 UNL     1      37.471  -2.383  65.558  1.00  0.00     0.053 C 
ENDBRANCH  25  26
ENDBRANCH   9  11
ENDBRANCH   4   5
TORSDOF 3
ENDMDL
