MODEL 5
REMARK VINA RESULT: -9.657327611      1.740      6.798
REMARK  3 active torsions:
REMARK  status: ('A' for Active; 'I' for Inactive)
REMARK    1  A    between atoms: C3_4  and  C4_5 
REMARK    2  A    between atoms: C8_9  and  C9_10 
REMARK    3  A    between atoms: N5_24  and  C17_25 
ROOT
HETATM    1  N1  UNL     1      39.031  -7.245  59.966  1.00  0.00    -0.192 NA
HETATM    2  C1  UNL     1      39.813  -6.488  60.361  1.00  0.00     0.087 C 
HETATM    3  C2  UNL     1      40.802  -5.542  60.879  1.00  0.00     0.094 C 
HETATM    4  C3  UNL     1      40.663  -4.959  62.026  1.00  0.00     0.022 C 
ENDROOT
BRANCH   4   5
HETATM    5  C4  UNL     1      41.649  -3.997  62.572  1.00  0.00    -0.035 A 
HETATM    6  C5  UNL     1      42.842  -3.853  61.908  1.00  0.00     0.011 A 
HETATM    7  C6  UNL     1      43.820  -2.986  62.332  1.00  0.00     0.002 A 
HETATM    8  C7  UNL     1      43.529  -2.266  63.470  1.00  0.00     0.015 A 
HETATM    9  C8  UNL     1      42.344  -2.380  64.168  1.00  0.00     0.009 A 
HETATM   10  C23 UNL     1      41.413  -3.255  63.699  1.00  0.00     0.026 A 
BRANCH   9  11
HETATM   11  C9  UNL     1      42.111  -1.485  65.289  1.00  0.00     0.123 A 
HETATM   12  N2  UNL     1      43.202  -1.134  66.060  1.00  0.00    -0.338 N 
HETATM   13  C10 UNL     1      42.808  -0.324  67.021  1.00  0.00     0.077 A 
ATOM     14  H2  UNL     1      44.160  -1.452  65.909  1.00  0.00     0.167 HD
HETATM   15  C11 UNL     1      43.545   0.285  68.008  1.00  0.00     0.121 A 
HETATM   16  C16 UNL     1      41.456  -0.161  66.856  1.00  0.00     0.083 A 
HETATM   17  N3  UNL     1      42.904   1.085  68.857  1.00  0.00    -0.349 N 
HETATM   18  C12 UNL     1      41.572   1.281  68.733  1.00  0.00     0.117 A 
ATOM     19  H3  UNL     1      43.419   1.551  69.604  1.00  0.00     0.167 HD
HETATM   20  N4  UNL     1      40.712   2.056  69.441  1.00  0.00    -0.352 N 
HETATM   21  C15 UNL     1      40.797   0.674  67.738  1.00  0.00     0.039 A 
HETATM   22  C13 UNL     1      39.478   1.966  68.948  1.00  0.00     0.090 A 
ATOM     23  H4  UNL     1      40.975   2.630  70.242  1.00  0.00     0.166 HD
HETATM   24  C14 UNL     1      39.494   1.094  67.859  1.00  0.00     0.034 A 
HETATM   25  N5  UNL     1      41.024  -0.885  65.791  1.00  0.00    -0.301 N 
BRANCH  25  26
HETATM   26  C17 UNL     1      39.655  -1.063  65.407  1.00  0.00    -0.004 C 
HETATM   27  C18 UNL     1      38.715  -1.596  66.418  1.00  0.00     0.053 C 
HETATM   28  C19 UNL     1      37.477  -2.081  65.626  1.00  0.00     0.006 C 
HETATM   29  C20 UNL     1      36.755  -0.850  65.171  1.00  0.00     0.001 C 
HETATM   30  C21 UNL     1      37.624   0.342  64.934  1.00  0.00     0.006 C 
HETATM   31  C22 UNL     1      39.049   0.014  64.573  1.00  0.00     0.053 C 
ENDBRANCH  25  26
ENDBRANCH   9  11
ENDBRANCH   4   5
TORSDOF 3
ENDMDL
