MODEL 2
REMARK VINA RESULT: -10.185564737      2.576      4.587
REMARK  3 active torsions:
REMARK  status: ('A' for Active; 'I' for Inactive)
REMARK    1  A    between atoms: C3_4  and  C4_5 
REMARK    2  A    between atoms: C8_9  and  C9_10 
REMARK    3  A    between atoms: N5_24  and  C17_25 
ROOT
HETATM    1  N1  UNL     1      33.274   3.295  63.339  1.00  0.00    -0.192 NA
HETATM    2  C1  UNL     1      34.071   2.951  64.105  1.00  0.00     0.087 C 
HETATM    3  C2  UNL     1      35.062   2.513  65.089  1.00  0.00     0.094 C 
HETATM    4  C3  UNL     1      35.087   2.976  66.296  1.00  0.00     0.022 C 
ENDROOT
BRANCH   4   5
HETATM    5  C4  UNL     1      36.080   2.549  67.310  1.00  0.00    -0.035 A 
HETATM    6  C5  UNL     1      35.717   2.612  68.632  1.00  0.00     0.011 A 
HETATM    7  C6  UNL     1      36.563   2.236  69.646  1.00  0.00     0.002 A 
HETATM    8  C7  UNL     1      37.806   1.790  69.254  1.00  0.00     0.015 A 
HETATM    9  C8  UNL     1      38.213   1.711  67.937  1.00  0.00     0.009 A 
HETATM   10  C23 UNL     1      37.329   2.097  66.976  1.00  0.00     0.026 A 
BRANCH   9  11
HETATM   11  C9  UNL     1      39.507   1.119  67.645  1.00  0.00     0.123 A 
HETATM   12  N2  UNL     1      40.590   1.562  68.380  1.00  0.00    -0.338 N 
HETATM   13  C10 UNL     1      41.670   0.919  67.985  1.00  0.00     0.077 A 
ATOM     14  H2  UNL     1      40.557   2.272  69.111  1.00  0.00     0.167 HD
HETATM   15  C11 UNL     1      42.962   1.022  68.440  1.00  0.00     0.121 A 
HETATM   16  C16 UNL     1      41.267   0.063  66.992  1.00  0.00     0.083 A 
HETATM   17  N3  UNL     1      43.881   0.237  67.881  1.00  0.00    -0.349 N 
HETATM   18  C12 UNL     1      43.533  -0.627  66.902  1.00  0.00     0.117 A 
ATOM     19  H3  UNL     1      44.851   0.288  68.193  1.00  0.00     0.167 HD
HETATM   20  N4  UNL     1      44.264  -1.535  66.208  1.00  0.00    -0.352 N 
HETATM   21  C15 UNL     1      42.225  -0.752  66.419  1.00  0.00     0.039 A 
HETATM   22  C13 UNL     1      43.497  -2.200  65.345  1.00  0.00     0.090 A 
ATOM     23  H4  UNL     1      45.265  -1.688  66.330  1.00  0.00     0.166 HD
HETATM   24  C14 UNL     1      42.189  -1.729  65.453  1.00  0.00     0.034 A 
HETATM   25  N5  UNL     1      39.932   0.191  66.776  1.00  0.00    -0.301 N 
BRANCH  25  26
HETATM   26  C17 UNL     1      39.195  -0.443  65.725  1.00  0.00    -0.004 C 
HETATM   27  C18 UNL     1      38.002  -1.238  66.095  1.00  0.00     0.053 C 
HETATM   28  C19 UNL     1      37.692  -2.126  64.867  1.00  0.00     0.006 C 
HETATM   29  C20 UNL     1      37.128  -1.218  63.817  1.00  0.00     0.001 C 
HETATM   30  C21 UNL     1      37.624   0.191  63.866  1.00  0.00     0.006 C 
HETATM   31  C22 UNL     1      38.991   0.350  64.479  1.00  0.00     0.053 C 
ENDBRANCH  25  26
ENDBRANCH   9  11
ENDBRANCH   4   5
TORSDOF 3
ENDMDL
