MODEL 2
REMARK VINA RESULT: -9.165524043      3.076      6.334
REMARK  3 active torsions:
REMARK  status: ('A' for Active; 'I' for Inactive)
REMARK    1  A    between atoms: C3_4  and  C4_5 
REMARK    2  A    between atoms: C7_8  and  C8_9 
REMARK    3  A    between atoms: N5_23  and  C16_24 
ROOT
HETATM    1  N1  UNL     1       2.922  29.669   3.458  1.00  0.00    -0.192 NA
HETATM    2  C1  UNL     1       2.371  29.014   2.699  1.00  0.00     0.088 C 
HETATM    3  C2  UNL     1       1.651  28.198   1.738  1.00  0.00     0.096 C 
HETATM    4  C3  UNL     1       0.349  28.079   1.793  1.00  0.00     0.048 C 
ENDROOT
BRANCH   4   5
HETATM    5  C4  UNL     1      -0.342  27.234   0.792  1.00  0.00     0.076 A 
HETATM    6  C5  UNL     1      -1.683  27.269   0.484  1.00  0.00     0.040 A 
HETATM    7  C6  UNL     1      -1.886  26.307  -0.508  1.00  0.00     0.044 A 
HETATM    8  C7  UNL     1      -0.689  25.721  -0.771  1.00  0.00     0.120 A 
HETATM    9  O1  UNL     1       0.189  26.326   0.042  1.00  0.00    -0.307 OA
BRANCH   8  10
HETATM   10  C8  UNL     1      -0.279  24.653  -1.693  1.00  0.00     0.147 A 
HETATM   11  N2  UNL     1      -1.215  23.766  -2.156  1.00  0.00    -0.337 N 
HETATM   12  C9  UNL     1      -0.638  22.915  -2.981  1.00  0.00     0.077 A 
ATOM     13  H2  UNL     1      -2.202  23.765  -1.902  1.00  0.00     0.167 HD
HETATM   14  C10 UNL     1      -1.116  21.843  -3.693  1.00  0.00     0.121 A 
HETATM   15  C15 UNL     1       0.712  23.287  -3.038  1.00  0.00     0.083 A 
HETATM   16  N3  UNL     1      -0.284  21.133  -4.458  1.00  0.00    -0.349 N 
HETATM   17  C11 UNL     1       1.018  21.470  -4.527  1.00  0.00     0.117 A 
ATOM     18  H3  UNL     1      -0.634  20.337  -4.990  1.00  0.00     0.167 HD
HETATM   19  N4  UNL     1       2.051  20.908  -5.219  1.00  0.00    -0.352 N 
HETATM   20  C14 UNL     1       1.557  22.541  -3.833  1.00  0.00     0.039 A 
HETATM   21  C12 UNL     1       3.175  21.592  -4.967  1.00  0.00     0.090 A 
ATOM     22  H4  UNL     1       1.979  20.095  -5.831  1.00  0.00     0.166 HD
HETATM   23  C13 UNL     1       2.901  22.627  -4.099  1.00  0.00     0.034 A 
HETATM   24  N5  UNL     1       0.923  24.364  -2.241  1.00  0.00    -0.300 N 
BRANCH  24  25
HETATM   25  C16 UNL     1       2.143  25.079  -2.070  1.00  0.00    -0.003 C 
HETATM   26  C17 UNL     1       2.701  25.798  -3.273  1.00  0.00     0.053 C 
HETATM   27  C18 UNL     1       4.174  26.077  -3.069  1.00  0.00     0.006 C 
HETATM   28  C19 UNL     1       4.493  26.542  -1.688  1.00  0.00     0.001 C 
HETATM   29  C20 UNL     1       3.971  25.679  -0.573  1.00  0.00     0.006 C 
HETATM   30  C21 UNL     1       3.200  24.517  -1.216  1.00  0.00     0.053 C 
ENDBRANCH  24  25
ENDBRANCH   8  10
ENDBRANCH   4   5
TORSDOF 3
ENDMDL
