MODEL 3
REMARK VINA RESULT: -9.122989472      1.937      2.458
REMARK  3 active torsions:
REMARK  status: ('A' for Active; 'I' for Inactive)
REMARK    1  A    between atoms: C3_4  and  C4_5 
REMARK    2  A    between atoms: C7_8  and  C8_9 
REMARK    3  A    between atoms: N5_23  and  C16_24 
ROOT
HETATM    1  N1  UNL     1       8.206  19.151  -7.702  1.00  0.00    -0.192 NA
HETATM    2  C1  UNL     1       7.589  19.768  -6.962  1.00  0.00     0.088 C 
HETATM    3  C2  UNL     1       6.796  20.564  -6.043  1.00  0.00     0.096 C 
HETATM    4  C3  UNL     1       6.478  21.802  -6.323  1.00  0.00     0.048 C 
ENDROOT
BRANCH   4   5
HETATM    5  C4  UNL     1       5.668  22.576  -5.354  1.00  0.00     0.076 A 
HETATM    6  C5  UNL     1       6.124  23.582  -4.533  1.00  0.00     0.040 A 
HETATM    7  C6  UNL     1       5.022  24.021  -3.795  1.00  0.00     0.044 A 
HETATM    8  C7  UNL     1       3.946  23.284  -4.177  1.00  0.00     0.120 A 
HETATM    9  O1  UNL     1       4.406  22.442  -5.112  1.00  0.00    -0.307 OA
BRANCH   8  10
HETATM   10  C8  UNL     1       2.538  23.278  -3.757  1.00  0.00     0.147 A 
HETATM   11  N2  UNL     1       1.672  22.377  -4.317  1.00  0.00    -0.337 N 
HETATM   12  C9  UNL     1       0.477  22.531  -3.782  1.00  0.00     0.077 A 
ATOM     13  H2  UNL     1       1.914  21.695  -5.035  1.00  0.00     0.167 HD
HETATM   14  C10 UNL     1      -0.725  21.902  -3.996  1.00  0.00     0.121 A 
HETATM   15  C15 UNL     1       0.602  23.568  -2.848  1.00  0.00     0.083 A 
HETATM   16  N3  UNL     1      -1.801  22.280  -3.304  1.00  0.00    -0.349 N 
HETATM   17  C11 UNL     1      -1.706  23.275  -2.402  1.00  0.00     0.117 A 
ATOM     18  H3  UNL     1      -2.696  21.815  -3.458  1.00  0.00     0.167 HD
HETATM   19  N4  UNL     1      -2.646  23.839  -1.590  1.00  0.00    -0.352 N 
HETATM   20  C14 UNL     1      -0.521  23.946  -2.143  1.00  0.00     0.039 A 
HETATM   21  C12 UNL     1      -2.077  24.811  -0.864  1.00  0.00     0.090 A 
ATOM     22  H4  UNL     1      -3.627  23.564  -1.543  1.00  0.00     0.166 HD
HETATM   23  C13 UNL     1      -0.740  24.905  -1.186  1.00  0.00     0.034 A 
HETATM   24  N5  UNL     1       1.882  24.021  -2.837  1.00  0.00    -0.300 N 
BRANCH  24  25
HETATM   25  C16 UNL     1       2.430  25.024  -1.988  1.00  0.00    -0.003 C 
HETATM   26  C17 UNL     1       3.126  26.189  -2.648  1.00  0.00     0.053 C 
HETATM   27  C18 UNL     1       4.039  26.873  -1.655  1.00  0.00     0.006 C 
HETATM   28  C19 UNL     1       3.425  27.019  -0.304  1.00  0.00     0.001 C 
HETATM   29  C20 UNL     1       2.861  25.761   0.295  1.00  0.00     0.006 C 
HETATM   30  C21 UNL     1       3.074  24.633  -0.725  1.00  0.00     0.053 C 
ENDBRANCH  24  25
ENDBRANCH   8  10
ENDBRANCH   4   5
TORSDOF 3
ENDMDL
