MODEL 17
REMARK VINA RESULT: -8.730172211      2.852      5.546
REMARK  3 active torsions:
REMARK  status: ('A' for Active; 'I' for Inactive)
REMARK    1  A    between atoms: C3_4  and  C4_5 
REMARK    2  A    between atoms: C7_8  and  C8_9 
REMARK    3  A    between atoms: N5_23  and  C16_24 
ROOT
HETATM    1  N1  UNL     1       5.948  30.450   0.692  1.00  0.00    -0.192 NA
HETATM    2  C1  UNL     1       5.107  29.707   0.464  1.00  0.00     0.088 C 
HETATM    3  C2  UNL     1       4.026  28.778   0.193  1.00  0.00     0.096 C 
HETATM    4  C3  UNL     1       3.138  28.487   1.109  1.00  0.00     0.048 C 
ENDROOT
BRANCH   4   5
HETATM    5  C4  UNL     1       2.053  27.532   0.786  1.00  0.00     0.076 A 
HETATM    6  C5  UNL     1       0.852  27.411   1.448  1.00  0.00     0.040 A 
HETATM    7  C6  UNL     1       0.147  26.391   0.804  1.00  0.00     0.044 A 
HETATM    8  C7  UNL     1       0.922  25.926  -0.210  1.00  0.00     0.120 A 
HETATM    9  O1  UNL     1       2.046  26.655  -0.162  1.00  0.00    -0.307 OA
BRANCH   8  10
HETATM   10  C8  UNL     1       0.729  24.870  -1.214  1.00  0.00     0.147 A 
HETATM   11  N2  UNL     1      -0.534  24.402  -1.464  1.00  0.00    -0.337 N 
HETATM   12  C9  UNL     1      -0.479  23.484  -2.408  1.00  0.00     0.077 A 
ATOM     13  H2  UNL     1      -1.383  24.715  -0.994  1.00  0.00     0.167 HD
HETATM   14  C10 UNL     1      -1.441  22.708  -3.007  1.00  0.00     0.121 A 
HETATM   15  C15 UNL     1       0.872  23.375  -2.764  1.00  0.00     0.083 A 
HETATM   16  N3  UNL     1      -1.090  21.829  -3.948  1.00  0.00    -0.349 N 
HETATM   17  C11 UNL     1       0.202  21.706  -4.305  1.00  0.00     0.117 A 
ATOM     18  H3  UNL     1      -1.800  21.252  -4.397  1.00  0.00     0.167 HD
HETATM   19  N4  UNL     1       0.804  20.889  -5.219  1.00  0.00    -0.352 N 
HETATM   20  C14 UNL     1       1.216  22.461  -3.737  1.00  0.00     0.039 A 
HETATM   21  C12 UNL     1       2.123  21.123  -5.218  1.00  0.00     0.090 A 
ATOM     22  H4  UNL     1       0.324  20.209  -5.808  1.00  0.00     0.166 HD
HETATM   23  C13 UNL     1       2.418  22.107  -4.299  1.00  0.00     0.034 A 
HETATM   24  N5  UNL     1       1.610  24.239  -2.022  1.00  0.00    -0.300 N 
BRANCH  24  25
HETATM   25  C16 UNL     1       3.011  24.477  -2.121  1.00  0.00    -0.003 C 
HETATM   26  C17 UNL     1       3.884  23.967  -1.001  1.00  0.00     0.053 C 
HETATM   27  C18 UNL     1       5.209  24.695  -1.008  1.00  0.00     0.006 C 
HETATM   28  C19 UNL     1       5.763  24.882  -2.380  1.00  0.00     0.001 C 
HETATM   29  C20 UNL     1       4.829  25.500  -3.382  1.00  0.00     0.006 C 
HETATM   30  C21 UNL     1       3.494  25.754  -2.667  1.00  0.00     0.053 C 
ENDBRANCH  24  25
ENDBRANCH   8  10
ENDBRANCH   4   5
TORSDOF 3
ENDMDL
