MODEL 5
REMARK VINA RESULT: -9.011704090      2.503      6.864
REMARK  3 active torsions:
REMARK  status: ('A' for Active; 'I' for Inactive)
REMARK    1  A    between atoms: C3_4  and  C4_5 
REMARK    2  A    between atoms: C7_8  and  C8_9 
REMARK    3  A    between atoms: N5_23  and  C16_24 
ROOT
HETATM    1  N1  UNL     1      -1.365  21.811  -3.799  1.00  0.00    -0.192 NA
HETATM    2  C1  UNL     1      -0.279  22.171  -3.782  1.00  0.00     0.088 C 
HETATM    3  C2  UNL     1       1.100  22.623  -3.787  1.00  0.00     0.096 C 
HETATM    4  C3  UNL     1       1.976  22.112  -4.614  1.00  0.00     0.048 C 
ENDROOT
BRANCH   4   5
HETATM    5  C4  UNL     1       3.373  22.604  -4.581  1.00  0.00     0.076 A 
HETATM    6  C5  UNL     1       4.475  21.957  -5.092  1.00  0.00     0.040 A 
HETATM    7  C6  UNL     1       5.572  22.784  -4.837  1.00  0.00     0.044 A 
HETATM    8  C7  UNL     1       5.118  23.889  -4.189  1.00  0.00     0.120 A 
HETATM    9  O1  UNL     1       3.795  23.713  -4.071  1.00  0.00    -0.307 OA
BRANCH   8  10
HETATM   10  C8  UNL     1       5.788  25.086  -3.662  1.00  0.00     0.147 A 
HETATM   11  N2  UNL     1       6.828  25.639  -4.362  1.00  0.00    -0.337 N 
HETATM   12  C9  UNL     1       7.261  26.709  -3.726  1.00  0.00     0.077 A 
ATOM     13  H2  UNL     1       7.206  25.280  -5.239  1.00  0.00     0.167 HD
HETATM   14  C10 UNL     1       8.271  27.601  -3.989  1.00  0.00     0.121 A 
HETATM   15  C15 UNL     1       6.459  26.830  -2.583  1.00  0.00     0.083 A 
HETATM   16  N3  UNL     1       8.501  28.608  -3.144  1.00  0.00    -0.349 N 
HETATM   17  C11 UNL     1       7.745  28.744  -2.039  1.00  0.00     0.117 A 
ATOM     18  H3  UNL     1       9.249  29.274  -3.336  1.00  0.00     0.167 HD
HETATM   19  N4  UNL     1       7.786  29.668  -1.035  1.00  0.00    -0.352 N 
HETATM   20  C14 UNL     1       6.712  27.876  -1.721  1.00  0.00     0.039 A 
HETATM   21  C12 UNL     1       6.831  29.389  -0.138  1.00  0.00     0.090 A 
ATOM     22  H4  UNL     1       8.441  30.447  -0.977  1.00  0.00     0.166 HD
HETATM   23  C13 UNL     1       6.135  28.268  -0.539  1.00  0.00     0.034 A 
HETATM   24  N5  UNL     1       5.549  25.823  -2.555  1.00  0.00    -0.300 N 
BRANCH  24  25
HETATM   25  C16 UNL     1       4.517  25.626  -1.593  1.00  0.00    -0.003 C 
HETATM   26  C17 UNL     1       4.521  24.326  -0.828  1.00  0.00     0.053 C 
HETATM   27  C18 UNL     1       3.152  24.072  -0.238  1.00  0.00     0.006 C 
HETATM   28  C19 UNL     1       2.532  25.297   0.344  1.00  0.00     0.001 C 
HETATM   29  C20 UNL     1       2.491  26.498  -0.557  1.00  0.00     0.006 C 
HETATM   30  C21 UNL     1       3.155  26.099  -1.883  1.00  0.00     0.053 C 
ENDBRANCH  24  25
ENDBRANCH   8  10
ENDBRANCH   4   5
TORSDOF 3
ENDMDL
