MODEL 13
REMARK VINA RESULT: -8.771608646      3.891      6.705
REMARK  3 active torsions:
REMARK  status: ('A' for Active; 'I' for Inactive)
REMARK    1  A    between atoms: C3_4  and  C4_5 
REMARK    2  A    between atoms: C7_8  and  C8_9 
REMARK    3  A    between atoms: N5_23  and  C16_24 
ROOT
HETATM    1  N1  UNL     1       2.222  31.573   5.584  1.00  0.00    -0.192 NA
HETATM    2  C1  UNL     1       2.438  30.737   4.834  1.00  0.00     0.088 C 
HETATM    3  C2  UNL     1       2.701  29.691   3.863  1.00  0.00     0.096 C 
HETATM    4  C3  UNL     1       1.918  29.515   2.828  1.00  0.00     0.048 C 
ENDROOT
BRANCH   4   5
HETATM    5  C4  UNL     1       2.226  28.434   1.865  1.00  0.00     0.076 A 
HETATM    6  C5  UNL     1       3.481  28.042   1.455  1.00  0.00     0.040 A 
HETATM    7  C6  UNL     1       3.292  26.997   0.549  1.00  0.00     0.044 A 
HETATM    8  C7  UNL     1       1.955  26.785   0.430  1.00  0.00     0.120 A 
HETATM    9  O1  UNL     1       1.380  27.679   1.246  1.00  0.00    -0.307 OA
BRANCH   8  10
HETATM   10  C8  UNL     1       1.158  25.843  -0.368  1.00  0.00     0.147 A 
HETATM   11  N2  UNL     1      -0.202  25.805  -0.206  1.00  0.00    -0.337 N 
HETATM   12  C9  UNL     1      -0.714  24.914  -1.031  1.00  0.00     0.077 A 
ATOM     13  H2  UNL     1      -0.733  26.376   0.450  1.00  0.00     0.167 HD
HETATM   14  C10 UNL     1      -1.999  24.486  -1.255  1.00  0.00     0.121 A 
HETATM   15  C15 UNL     1       0.369  24.376  -1.740  1.00  0.00     0.083 A 
HETATM   16  N3  UNL     1      -2.231  23.538  -2.165  1.00  0.00    -0.349 N 
HETATM   17  C11 UNL     1      -1.207  23.004  -2.857  1.00  0.00     0.117 A 
ATOM     18  H3  UNL     1      -3.184  23.218  -2.336  1.00  0.00     0.167 HD
HETATM   19  N4  UNL     1      -1.185  22.034  -3.817  1.00  0.00    -0.352 N 
HETATM   20  C14 UNL     1       0.110  23.396  -2.675  1.00  0.00     0.039 A 
HETATM   21  C12 UNL     1       0.079  21.831  -4.210  1.00  0.00     0.090 A 
ATOM     22  H4  UNL     1      -2.002  21.542  -4.177  1.00  0.00     0.166 HD
HETATM   23  C13 UNL     1       0.921  22.672  -3.513  1.00  0.00     0.034 A 
HETATM   24  N5  UNL     1       1.522  24.960  -1.325  1.00  0.00    -0.300 N 
BRANCH  24  25
HETATM   25  C16 UNL     1       2.831  24.733  -1.837  1.00  0.00    -0.003 C 
HETATM   26  C17 UNL     1       3.119  25.207  -3.240  1.00  0.00     0.053 C 
HETATM   27  C18 UNL     1       4.331  24.487  -3.789  1.00  0.00     0.006 C 
HETATM   28  C19 UNL     1       5.429  24.352  -2.790  1.00  0.00     0.001 C 
HETATM   29  C20 UNL     1       5.036  23.765  -1.463  1.00  0.00     0.006 C 
HETATM   30  C21 UNL     1       3.528  23.478  -1.518  1.00  0.00     0.053 C 
ENDBRANCH  24  25
ENDBRANCH   8  10
ENDBRANCH   4   5
TORSDOF 3
ENDMDL
