MODEL 1
REMARK VINA RESULT: -9.731505183      0.000      0.000
REMARK  3 active torsions:
REMARK  status: ('A' for Active; 'I' for Inactive)
REMARK    1  A    between atoms: C3_4  and  C4_5 
REMARK    2  A    between atoms: C7_8  and  C8_9 
REMARK    3  A    between atoms: N5_23  and  C16_24 
ROOT
HETATM    1  N1  UNL     1       9.132  26.756  -6.203  1.00  0.00    -0.192 NA
HETATM    2  C1  UNL     1       8.279  26.053  -5.907  1.00  0.00     0.088 C 
HETATM    3  C2  UNL     1       7.213  25.141  -5.532  1.00  0.00     0.096 C 
HETATM    4  C3  UNL     1       7.202  23.903  -5.957  1.00  0.00     0.048 C 
ENDROOT
BRANCH   4   5
HETATM    5  C4  UNL     1       6.094  23.010  -5.550  1.00  0.00     0.076 A 
HETATM    6  C5  UNL     1       6.099  21.634  -5.594  1.00  0.00     0.040 A 
HETATM    7  C6  UNL     1       4.853  21.218  -5.119  1.00  0.00     0.044 A 
HETATM    8  C7  UNL     1       4.135  22.329  -4.807  1.00  0.00     0.120 A 
HETATM    9  O1  UNL     1       4.939  23.363  -5.089  1.00  0.00    -0.307 OA
BRANCH   8  10
HETATM   10  C8  UNL     1       2.777  22.527  -4.281  1.00  0.00     0.147 A 
HETATM   11  N2  UNL     1       1.760  21.721  -4.720  1.00  0.00    -0.337 N 
HETATM   12  C9  UNL     1       0.643  22.055  -4.106  1.00  0.00     0.077 A 
ATOM     13  H2  UNL     1       1.854  20.979  -5.413  1.00  0.00     0.167 HD
HETATM   14  C10 UNL     1      -0.642  21.579  -4.190  1.00  0.00     0.121 A 
HETATM   15  C15 UNL     1       0.976  23.111  -3.246  1.00  0.00     0.083 A 
HETATM   16  N3  UNL     1      -1.601  22.128  -3.442  1.00  0.00    -0.349 N 
HETATM   17  C11 UNL     1      -1.306  23.145  -2.610  1.00  0.00     0.117 A 
ATOM     18  H3  UNL     1      -2.557  21.777  -3.499  1.00  0.00     0.167 HD
HETATM   19  N4  UNL     1      -2.097  23.866  -1.763  1.00  0.00    -0.352 N 
HETATM   20  C14 UNL     1      -0.029  23.667  -2.482  1.00  0.00     0.039 A 
HETATM   21  C12 UNL     1      -1.352  24.789  -1.142  1.00  0.00     0.090 A 
ATOM     22  H4  UNL     1      -3.098  23.723  -1.626  1.00  0.00     0.166 HD
HETATM   23  C13 UNL     1      -0.045  24.692  -1.569  1.00  0.00     0.034 A 
HETATM   24  N5  UNL     1       2.298  23.393  -3.360  1.00  0.00    -0.300 N 
BRANCH  24  25
HETATM   25  C16 UNL     1       3.038  24.357  -2.616  1.00  0.00    -0.003 C 
HETATM   26  C17 UNL     1       3.336  25.674  -3.288  1.00  0.00     0.053 C 
HETATM   27  C18 UNL     1       4.492  26.357  -2.593  1.00  0.00     0.006 C 
HETATM   28  C19 UNL     1       4.418  26.260  -1.107  1.00  0.00     0.001 C 
HETATM   29  C20 UNL     1       4.226  24.876  -0.553  1.00  0.00     0.006 C 
HETATM   30  C21 UNL     1       4.137  23.913  -1.745  1.00  0.00     0.053 C 
ENDBRANCH  24  25
ENDBRANCH   8  10
ENDBRANCH   4   5
TORSDOF 3
ENDMDL
