MODEL 4
REMARK VINA RESULT: -8.890961284      3.205      5.209
REMARK  4 active torsions:
REMARK  status: ('A' for Active; 'I' for Inactive)
REMARK    1  A    between atoms: C2_3  and  C3_4 
REMARK    2  A    between atoms: C3_4  and  C4_5 
REMARK    3  A    between atoms: C7_8  and  C8_9 
REMARK    4  A    between atoms: N5_23  and  C16_24 
ROOT
HETATM    1  N1  UNL     1      29.719  57.184  -1.136  1.00  0.00    -0.197 NA
HETATM    2  C1  UNL     1      30.657  56.659  -0.707  1.00  0.00     0.059 C 
HETATM    3  C2  UNL     1      31.850  55.997  -0.136  1.00  0.00     0.130 C 
ENDROOT
BRANCH   3   4
HETATM    4  C3  UNL     1      31.440  55.474   1.224  1.00  0.00     0.079 C 
BRANCH   4   5
HETATM    5  C4  UNL     1      32.409  54.468   1.738  1.00  0.00     0.054 A 
HETATM    6  C5  UNL     1      32.911  54.488   3.004  1.00  0.00     0.035 A 
HETATM    7  C6  UNL     1      33.766  53.369   3.023  1.00  0.00     0.043 A 
HETATM    8  C7  UNL     1      33.754  52.741   1.834  1.00  0.00     0.119 A 
HETATM    9  O1  UNL     1      32.895  53.474   1.086  1.00  0.00    -0.311 OA
BRANCH   8  10
HETATM   10  C8  UNL     1      34.374  51.581   1.245  1.00  0.00     0.143 A 
HETATM   11  N2  UNL     1      33.586  50.632   0.574  1.00  0.00    -0.337 N 
HETATM   12  C9  UNL     1      34.355  49.657   0.130  1.00  0.00     0.077 A 
ATOM     13  H2  UNL     1      32.575  50.688   0.448  1.00  0.00     0.167 HD
HETATM   14  C10 UNL     1      34.043  48.499  -0.603  1.00  0.00     0.121 A 
HETATM   15  C15 UNL     1      35.644  49.937   0.494  1.00  0.00     0.079 A 
HETATM   16  N3  UNL     1      35.004  47.665  -0.952  1.00  0.00    -0.349 N 
HETATM   17  C11 UNL     1      36.292  47.880  -0.632  1.00  0.00     0.117 A 
ATOM     18  H3  UNL     1      34.762  46.828  -1.483  1.00  0.00     0.167 HD
HETATM   19  N4  UNL     1      37.414  47.184  -0.909  1.00  0.00    -0.352 N 
HETATM   20  C14 UNL     1      36.600  49.038   0.101  1.00  0.00     0.038 A 
HETATM   21  C12 UNL     1      38.449  47.830  -0.395  1.00  0.00     0.090 A 
ATOM     22  H4  UNL     1      37.458  46.307  -1.428  1.00  0.00     0.166 HD
HETATM   23  C13 UNL     1      37.958  48.988   0.236  1.00  0.00     0.034 A 
HETATM   24  N5  UNL     1      35.620  51.131   1.189  1.00  0.00    -0.323 N 
BRANCH  24  25
HETATM   25  C16 UNL     1      36.808  51.576   1.810  1.00  0.00     0.092 C 
HETATM   26  C17 UNL     1      37.116  52.991   2.023  1.00  0.00     0.026 C 
HETATM   27  C18 UNL     1      38.325  53.005   3.018  1.00  0.00     0.002 C 
HETATM   28  C19 UNL     1      37.747  52.901   4.410  1.00  0.00     0.000 C 
HETATM   29  C20 UNL     1      36.485  52.053   4.275  1.00  0.00     0.002 C 
HETATM   30  C21 UNL     1      36.833  50.978   3.254  1.00  0.00     0.026 C 
ENDBRANCH  24  25
ENDBRANCH   8  10
ENDBRANCH   4   5
ENDBRANCH   3   4
TORSDOF 4
ENDMDL
