MODEL 2
REMARK VINA RESULT: -8.974085935      2.793      4.902
REMARK  4 active torsions:
REMARK  status: ('A' for Active; 'I' for Inactive)
REMARK    1  A    between atoms: C2_3  and  C3_4 
REMARK    2  A    between atoms: C3_4  and  C4_5 
REMARK    3  A    between atoms: C7_8  and  C8_9 
REMARK    4  A    between atoms: N5_23  and  C16_24 
ROOT
HETATM    1  N1  UNL     1      34.401  54.479   5.716  1.00  0.00    -0.197 NA
HETATM    2  C1  UNL     1      35.449  54.203   6.123  1.00  0.00     0.059 C 
HETATM    3  C2  UNL     1      36.796  53.849   6.621  1.00  0.00     0.130 C 
ENDROOT
BRANCH   3   4
HETATM    4  C3  UNL     1      37.785  54.559   5.722  1.00  0.00     0.079 C 
BRANCH   4   5
HETATM    5  C4  UNL     1      38.754  53.608   5.115  1.00  0.00     0.054 A 
HETATM    6  C5  UNL     1      40.051  53.500   5.514  1.00  0.00     0.035 A 
HETATM    7  C6  UNL     1      40.560  52.496   4.668  1.00  0.00     0.043 A 
HETATM    8  C7  UNL     1      39.608  52.050   3.831  1.00  0.00     0.119 A 
HETATM    9  O1  UNL     1      38.515  52.782   4.161  1.00  0.00    -0.311 OA
BRANCH   8  10
HETATM   10  C8  UNL     1      39.496  51.067   2.783  1.00  0.00     0.143 A 
HETATM   11  N2  UNL     1      40.650  50.608   2.129  1.00  0.00    -0.337 N 
HETATM   12  C9  UNL     1      40.312  49.729   1.206  1.00  0.00     0.077 A 
ATOM     13  H2  UNL     1      41.603  50.908   2.335  1.00  0.00     0.167 HD
HETATM   14  C10 UNL     1      41.098  48.988   0.307  1.00  0.00     0.121 A 
HETATM   15  C15 UNL     1      38.950  49.593   1.231  1.00  0.00     0.079 A 
HETATM   16  N3  UNL     1      40.522  48.143  -0.526  1.00  0.00    -0.349 N 
HETATM   17  C11 UNL     1      39.191  47.956  -0.552  1.00  0.00     0.117 A 
ATOM     18  H3  UNL     1      41.106  47.613  -1.173  1.00  0.00     0.167 HD
HETATM   19  N4  UNL     1      38.414  47.136  -1.290  1.00  0.00    -0.352 N 
HETATM   20  C14 UNL     1      38.408  48.699   0.346  1.00  0.00     0.038 A 
HETATM   21  C12 UNL     1      37.154  47.301  -0.918  1.00  0.00     0.090 A 
ATOM     22  H4  UNL     1      38.742  46.496  -2.013  1.00  0.00     0.166 HD
HETATM   23  C13 UNL     1      37.134  48.270   0.102  1.00  0.00     0.034 A 
HETATM   24  N5  UNL     1      38.476  50.440   2.214  1.00  0.00    -0.323 N 
BRANCH  24  25
HETATM   25  C16 UNL     1      37.079  50.605   2.349  1.00  0.00     0.092 C 
HETATM   26  C17 UNL     1      36.443  51.051   3.589  1.00  0.00     0.026 C 
HETATM   27  C18 UNL     1      34.972  51.413   3.191  1.00  0.00     0.002 C 
HETATM   28  C19 UNL     1      34.995  52.830   2.670  1.00  0.00     0.000 C 
HETATM   29  C20 UNL     1      36.355  53.006   2.000  1.00  0.00     0.002 C 
HETATM   30  C21 UNL     1      36.632  51.679   1.304  1.00  0.00     0.026 C 
ENDBRANCH  24  25
ENDBRANCH   8  10
ENDBRANCH   4   5
ENDBRANCH   3   4
TORSDOF 4
ENDMDL
