MODEL 1
REMARK VINA RESULT: -9.087974729      0.000      0.000
REMARK  4 active torsions:
REMARK  status: ('A' for Active; 'I' for Inactive)
REMARK    1  A    between atoms: C2_3  and  C3_4 
REMARK    2  A    between atoms: C3_4  and  C4_5 
REMARK    3  A    between atoms: C7_8  and  C8_9 
REMARK    4  A    between atoms: N5_23  and  C16_24 
ROOT
HETATM    1  N1  UNL     1      31.650  56.052   0.611  1.00  0.00    -0.197 NA
HETATM    2  C1  UNL     1      32.025  55.347   1.450  1.00  0.00     0.059 C 
HETATM    3  C2  UNL     1      32.521  54.465   2.528  1.00  0.00     0.130 C 
ENDROOT
BRANCH   3   4
HETATM    4  C3  UNL     1      32.702  55.341   3.749  1.00  0.00     0.079 C 
BRANCH   4   5
HETATM    5  C4  UNL     1      33.826  54.868   4.600  1.00  0.00     0.054 A 
HETATM    6  C5  UNL     1      33.796  54.882   5.962  1.00  0.00     0.035 A 
HETATM    7  C6  UNL     1      35.053  54.355   6.312  1.00  0.00     0.043 A 
HETATM    8  C7  UNL     1      35.766  54.052   5.214  1.00  0.00     0.119 A 
HETATM    9  O1  UNL     1      34.947  54.395   4.189  1.00  0.00    -0.311 OA
BRANCH   8  10
HETATM   10  C8  UNL     1      37.059  53.492   4.913  1.00  0.00     0.143 A 
HETATM   11  N2  UNL     1      38.213  54.049   5.488  1.00  0.00    -0.337 N 
HETATM   12  C9  UNL     1      39.276  53.392   5.066  1.00  0.00     0.077 A 
ATOM     13  H2  UNL     1      38.227  54.840   6.132  1.00  0.00     0.167 HD
HETATM   14  C10 UNL     1      40.640  53.558   5.362  1.00  0.00     0.121 A 
HETATM   15  C15 UNL     1      38.852  52.405   4.217  1.00  0.00     0.079 A 
HETATM   16  N3  UNL     1      41.531  52.752   4.819  1.00  0.00    -0.349 N 
HETATM   17  C11 UNL     1      41.186  51.758   3.982  1.00  0.00     0.117 A 
ATOM     18  H3  UNL     1      42.518  52.886   5.043  1.00  0.00     0.167 HD
HETATM   19  N4  UNL     1      41.920  50.819   3.352  1.00  0.00    -0.352 N 
HETATM   20  C14 UNL     1      39.822  51.596   3.688  1.00  0.00     0.038 A 
HETATM   21  C12 UNL     1      41.105  50.042   2.656  1.00  0.00     0.090 A 
ATOM     22  H4  UNL     1      42.935  50.724   3.402  1.00  0.00     0.166 HD
HETATM   23  C13 UNL     1      39.794  50.511   2.857  1.00  0.00     0.034 A 
HETATM   24  N5  UNL     1      37.476  52.499   4.140  1.00  0.00    -0.323 N 
BRANCH  24  25
HETATM   25  C16 UNL     1      36.794  51.685   3.208  1.00  0.00     0.092 C 
HETATM   26  C17 UNL     1      35.375  51.346   3.331  1.00  0.00     0.026 C 
HETATM   27  C18 UNL     1      34.975  50.735   1.946  1.00  0.00     0.002 C 
HETATM   28  C19 UNL     1      34.640  51.895   1.037  1.00  0.00     0.000 C 
HETATM   29  C20 UNL     1      35.543  53.043   1.476  1.00  0.00     0.002 C 
HETATM   30  C21 UNL     1      36.878  52.394   1.817  1.00  0.00     0.026 C 
ENDBRANCH  24  25
ENDBRANCH   8  10
ENDBRANCH   4   5
ENDBRANCH   3   4
TORSDOF 4
ENDMDL
