MODEL 18
REMARK VINA RESULT: -6.402403621      1.849      6.248
REMARK  6 active torsions:
REMARK  status: ('A' for Active; 'I' for Inactive)
REMARK    1  A    between atoms: C1_2  and  C2_3 
REMARK    2  A    between atoms: C1_2  and  C8_13 
REMARK    3  A    between atoms: C5_6  and  O2_7 
REMARK    4  A    between atoms: C7_10  and  O3_11 
REMARK    5  A    between atoms: C11_16  and  O4_17 
REMARK    6  A    between atoms: C13_20  and  O5_21 
ROOT
HETATM    1  O1  UNL     1     -16.762  -1.890 -39.432  1.00  0.00    -0.286 OA
HETATM    2  C1  UNL     1     -16.041  -2.967 -39.431  1.00  0.00     0.197 C 
ENDROOT
BRANCH   2   3
HETATM    3  C2  UNL     1     -14.643  -2.748 -39.266  1.00  0.00     0.048 A 
HETATM    4  C3  UNL     1     -13.956  -3.020 -38.123  1.00  0.00     0.021 A 
HETATM    5  C4  UNL     1     -12.565  -2.846 -38.018  1.00  0.00     0.037 A 
HETATM    6  C5  UNL     1     -11.847  -2.388 -39.092  1.00  0.00     0.068 A 
HETATM    7  C6  UNL     1     -12.524  -2.109 -40.257  1.00  0.00     0.074 A 
HETATM    8  C7  UNL     1     -13.890  -2.283 -40.346  1.00  0.00     0.082 A 
BRANCH   6   9
HETATM    9  O2  UNL     1     -10.457  -2.208 -39.007  1.00  0.00    -0.361 OA
ATOM     10  H2  UNL     1      -9.990  -1.697 -39.658  1.00  0.00     0.217 HD
ENDBRANCH   6   9
BRANCH   8  11
HETATM   11  O3  UNL     1     -14.502  -1.980 -41.553  1.00  0.00    -0.360 OA
ATOM     12  H3  UNL     1     -14.172  -1.275 -42.097  1.00  0.00     0.217 HD
ENDBRANCH   8  11
ENDBRANCH   2   3
BRANCH   2  13
HETATM   13  C8  UNL     1     -16.762  -4.201 -39.596  1.00  0.00     0.048 A 
HETATM   14  C9  UNL     1     -16.150  -5.279 -40.248  1.00  0.00     0.021 A 
HETATM   15  C10 UNL     1     -16.745  -6.514 -40.362  1.00  0.00     0.037 A 
HETATM   16  C11 UNL     1     -17.985  -6.746 -39.828  1.00  0.00     0.068 A 
HETATM   17  C12 UNL     1     -18.611  -5.724 -39.184  1.00  0.00     0.074 A 
HETATM   18  C13 UNL     1     -18.001  -4.458 -39.072  1.00  0.00     0.082 A 
BRANCH  16  19
HETATM   19  O4  UNL     1     -18.584  -8.016 -39.950  1.00  0.00    -0.361 OA
ATOM     20  H4  UNL     1     -18.943  -8.298 -40.782  1.00  0.00     0.217 HD
ENDBRANCH  16  19
BRANCH  18  21
HETATM   21  O5  UNL     1     -18.695  -3.471 -38.412  1.00  0.00    -0.360 OA
ATOM     22  H5  UNL     1     -19.459  -3.074 -38.812  1.00  0.00     0.217 HD
ENDBRANCH  18  21
ENDBRANCH   2  13
TORSDOF 6
ENDMDL
