MODEL 14
REMARK VINA RESULT: -6.438485060      1.926      2.865
REMARK  6 active torsions:
REMARK  status: ('A' for Active; 'I' for Inactive)
REMARK    1  A    between atoms: C1_2  and  C2_3 
REMARK    2  A    between atoms: C1_2  and  C8_13 
REMARK    3  A    between atoms: C5_6  and  O2_7 
REMARK    4  A    between atoms: C7_10  and  O3_11 
REMARK    5  A    between atoms: C11_16  and  O4_17 
REMARK    6  A    between atoms: C13_20  and  O5_21 
ROOT
HETATM    1  O1  UNL     1     -16.276  -1.785 -39.960  1.00  0.00    -0.286 OA
HETATM    2  C1  UNL     1     -15.559  -2.851 -39.795  1.00  0.00     0.197 C 
ENDROOT
BRANCH   2   3
HETATM    3  C2  UNL     1     -16.301  -4.067 -39.753  1.00  0.00     0.048 A 
HETATM    4  C3  UNL     1     -15.970  -5.189 -40.447  1.00  0.00     0.021 A 
HETATM    5  C4  UNL     1     -16.694  -6.389 -40.334  1.00  0.00     0.037 A 
HETATM    6  C5  UNL     1     -17.778  -6.461 -39.499  1.00  0.00     0.068 A 
HETATM    7  C6  UNL     1     -18.127  -5.337 -38.786  1.00  0.00     0.074 A 
HETATM    8  C7  UNL     1     -17.409  -4.165 -38.908  1.00  0.00     0.082 A 
BRANCH   6   9
HETATM    9  O2  UNL     1     -18.514  -7.651 -39.372  1.00  0.00    -0.361 OA
ATOM     10  H2  UNL     1     -19.453  -7.631 -39.233  1.00  0.00     0.217 HD
ENDBRANCH   6   9
BRANCH   8  11
HETATM   11  O3  UNL     1     -17.822  -3.074 -38.159  1.00  0.00    -0.360 OA
ATOM     12  H3  UNL     1     -18.607  -2.596 -38.396  1.00  0.00     0.217 HD
ENDBRANCH   8  11
ENDBRANCH   2   3
BRANCH   2  13
HETATM   13  C8  UNL     1     -14.141  -2.640 -39.679  1.00  0.00     0.048 A 
HETATM   14  C9  UNL     1     -13.479  -3.009 -38.501  1.00  0.00     0.021 A 
HETATM   15  C10 UNL     1     -12.114  -2.918 -38.356  1.00  0.00     0.037 A 
HETATM   16  C11 UNL     1     -11.330  -2.458 -39.380  1.00  0.00     0.068 A 
HETATM   17  C12 UNL     1     -11.935  -2.091 -40.542  1.00  0.00     0.074 A 
HETATM   18  C13 UNL     1     -13.335  -2.182 -40.688  1.00  0.00     0.082 A 
BRANCH  16  19
HETATM   19  O4  UNL     1      -9.932  -2.370 -39.221  1.00  0.00    -0.361 OA
ATOM     20  H4  UNL     1      -9.410  -1.869 -39.836  1.00  0.00     0.217 HD
ENDBRANCH  16  19
BRANCH  18  21
HETATM   21  O5  UNL     1     -13.879  -1.789 -41.888  1.00  0.00    -0.360 OA
ATOM     22  H5  UNL     1     -13.359  -1.818 -42.682  1.00  0.00     0.217 HD
ENDBRANCH  18  21
ENDBRANCH   2  13
TORSDOF 6
ENDMDL
