MODEL 1
REMARK VINA RESULT: -5.318650862      0.000      0.000
REMARK  0 active torsions:
REMARK  status: ('A' for Active; 'I' for Inactive)
ROOT
HETATM    1  O1  UNL     1     -13.190   1.839  41.167  1.00  0.00    -0.266 OA
HETATM    2  C1  UNL     1     -12.724   2.276  40.095  1.00  0.00     0.267 A 
HETATM    3  N1  UNL     1     -11.345   2.260  39.755  1.00  0.00    -0.314 N 
ATOM      4  H1  UNL     1     -10.687   1.866  40.427  1.00  0.00     0.170 HD
HETATM    5  C2  UNL     1     -10.885   2.711  38.654  1.00  0.00     0.105 A 
HETATM    6 CL1  UNL     1      -9.112   2.624  38.360  1.00  0.00    -0.067 Cl
HETATM    7  C3  UNL     1     -11.729   3.293  37.624  1.00  0.00     0.168 A 
HETATM    8 CL2  UNL     1     -11.439   2.537  36.027  1.00  0.00    -0.113 Cl
HETATM    9  C4  UNL     1     -13.147   3.317  37.958  1.00  0.00     0.030 A 
HETATM   10  C5  UNL     1     -13.613   2.852  39.090  1.00  0.00     0.100 A 
HETATM   11 CL3  UNL     1     -15.353   2.925  39.407  1.00  0.00    -0.079 Cl
ENDROOT
TORSDOF 0
ENDMDL
