MODEL 2
REMARK VINA RESULT: -5.277175329      2.527      3.021
REMARK  0 active torsions:
REMARK  status: ('A' for Active; 'I' for Inactive)
ROOT
HETATM    1  O1  UNL     1     -13.092   4.033  35.575  1.00  0.00    -0.266 OA
HETATM    2  C1  UNL     1     -12.689   3.516  36.636  1.00  0.00     0.267 A 
HETATM    3  N1  UNL     1     -11.327   3.235  36.924  1.00  0.00    -0.314 N 
ATOM      4  H1  UNL     1     -10.627   3.470  36.221  1.00  0.00     0.170 HD
HETATM    5  C2  UNL     1     -10.932   2.705  38.015  1.00  0.00     0.105 A 
HETATM    6 CL1  UNL     1      -9.171   2.408  38.241  1.00  0.00    -0.067 Cl
HETATM    7  C3  UNL     1     -11.839   2.330  39.086  1.00  0.00     0.168 A 
HETATM    8 CL2  UNL     1     -11.328   3.020  40.658  1.00  0.00    -0.113 Cl
HETATM    9  C4  UNL     1     -13.241   2.612  38.806  1.00  0.00     0.030 A 
HETATM   10  C5  UNL     1     -13.640   3.156  37.684  1.00  0.00     0.100 A 
HETATM   11 CL3  UNL     1     -15.367   3.460  37.433  1.00  0.00    -0.079 Cl
ENDROOT
TORSDOF 0
ENDMDL
