MODEL 3
REMARK VINA RESULT: -5.214091504      1.401      3.374
REMARK  0 active torsions:
REMARK  status: ('A' for Active; 'I' for Inactive)
ROOT
HETATM    1  O1  UNL     1     -11.379   2.696  40.864  1.00  0.00    -0.266 OA
HETATM    2  C1  UNL     1     -11.783   2.740  39.685  1.00  0.00     0.267 A 
HETATM    3  N1  UNL     1     -13.149   2.840  39.308  1.00  0.00    -0.314 N 
ATOM      4  H1  UNL     1     -13.851   2.879  40.047  1.00  0.00     0.170 HD
HETATM    5  C2  UNL     1     -13.546   2.883  38.097  1.00  0.00     0.105 A 
HETATM    6 CL1  UNL     1     -15.311   3.011  37.771  1.00  0.00    -0.067 Cl
HETATM    7  C3  UNL     1     -12.635   2.835  36.965  1.00  0.00     0.168 A 
HETATM    8 CL2  UNL     1     -12.922   4.189  35.828  1.00  0.00    -0.113 Cl
HETATM    9  C4  UNL     1     -11.229   2.733  37.334  1.00  0.00     0.030 A 
HETATM   10  C5  UNL     1     -10.829   2.688  38.580  1.00  0.00     0.100 A 
HETATM   11 CL3  UNL     1      -9.098   2.563  38.931  1.00  0.00    -0.079 Cl
ENDROOT
TORSDOF 0
ENDMDL
