MODEL 2
REMARK VINA RESULT: -8.012585343      2.208      3.158
REMARK  3 active torsions:
REMARK  status: ('A' for Active; 'I' for Inactive)
REMARK    1  A    between atoms: C7_8  and  N1_9 
REMARK    2  A    between atoms: N1_9  and  C8_11 
REMARK    3  A    between atoms: C12_17  and  C13_18 
ROOT
HETATM    1  C8  UNL     1       4.215   7.412  -0.324  1.00  0.00     0.122 A 
HETATM    2  N2  UNL     1       5.083   7.205  -1.360  1.00  0.00    -0.351 N 
ATOM      3  H2  UNL     1       4.852   6.462  -2.020  1.00  0.00     0.166 HD
HETATM    4  C9  UNL     1       6.197   7.888  -1.582  1.00  0.00     0.090 A 
HETATM    5  C10 UNL     1       6.517   8.901  -0.689  1.00  0.00     0.018 A 
HETATM    6  C11 UNL     1       5.671   9.136   0.360  1.00  0.00     0.024 A 
HETATM    7  C12 UNL     1       4.497   8.400   0.575  1.00  0.00     0.084 A 
ENDROOT
BRANCH   1   8
HETATM    8  N1  UNL     1       3.063   6.609  -0.210  1.00  0.00    -0.341 N 
ATOM      9  H1  UNL     1       2.168   7.093  -0.279  1.00  0.00     0.167 HD
BRANCH   8  10
HETATM   10  C7  UNL     1       3.003   5.214  -0.012  1.00  0.00     0.041 A 
HETATM   11  C2  UNL     1       1.734   4.607  -0.102  1.00  0.00    -0.013 A 
HETATM   12  C1  UNL     1       0.576   5.480  -0.397  1.00  0.00     0.052 C 
HETATM   13  C3  UNL     1       1.607   3.250   0.081  1.00  0.00     0.042 A 
HETATM   14 CL1  UNL     1      -0.014   2.581  -0.051  1.00  0.00    -0.084 Cl
HETATM   15  C4  UNL     1       2.698   2.460   0.354  1.00  0.00     0.024 A 
HETATM   16  C5  UNL     1       3.934   3.050   0.442  1.00  0.00     0.004 A 
HETATM   17  C6  UNL     1       4.100   4.441   0.259  1.00  0.00     0.030 A 
ENDBRANCH   8  10
ENDBRANCH   1   8
BRANCH   7  18
HETATM   18  C13 UNL     1       3.686   8.739   1.713  1.00  0.00     0.213 C 
HETATM   19  O1  UNL     1       3.515   9.988   1.943  1.00  0.00    -0.644 OA
HETATM   20  O2  UNL     1       3.075   7.869   2.584  1.00  0.00    -0.644 OA
ENDBRANCH   7  18
TORSDOF 3
ENDMDL
