MODEL 3
REMARK VINA RESULT: -7.797863332      1.083      1.996
REMARK  3 active torsions:
REMARK  status: ('A' for Active; 'I' for Inactive)
REMARK    1  A    between atoms: C7_8  and  N1_9 
REMARK    2  A    between atoms: N1_9  and  C8_11 
REMARK    3  A    between atoms: C12_17  and  C13_18 
ROOT
HETATM    1  C8  UNL     1       3.940   6.904   0.030  1.00  0.00     0.122 A 
HETATM    2  N2  UNL     1       3.420   7.254   1.246  1.00  0.00    -0.351 N 
ATOM      3  H2  UNL     1       2.618   6.719   1.581  1.00  0.00     0.166 HD
HETATM    4  C9  UNL     1       3.868   8.226   2.026  1.00  0.00     0.090 A 
HETATM    5  C10 UNL     1       4.960   8.957   1.577  1.00  0.00     0.018 A 
HETATM    6  C11 UNL     1       5.506   8.635   0.365  1.00  0.00     0.024 A 
HETATM    7  C12 UNL     1       5.014   7.601  -0.444  1.00  0.00     0.084 A 
ENDROOT
BRANCH   1   8
HETATM    8  N1  UNL     1       3.360   5.844  -0.695  1.00  0.00    -0.341 N 
ATOM      9  H1  UNL     1       3.064   6.060  -1.647  1.00  0.00     0.167 HD
BRANCH   8  10
HETATM   10  C7  UNL     1       3.142   4.521  -0.260  1.00  0.00     0.041 A 
HETATM   11  C2  UNL     1       1.805   4.080  -0.191  1.00  0.00    -0.013 A 
HETATM   12  C1  UNL     1       0.746   5.038  -0.580  1.00  0.00     0.052 C 
HETATM   13  C3  UNL     1       1.524   2.800   0.225  1.00  0.00     0.042 A 
HETATM   14 CL1  UNL     1      -0.171   2.338   0.279  1.00  0.00    -0.084 Cl
HETATM   15  C4  UNL     1       2.525   1.928   0.582  1.00  0.00     0.024 A 
HETATM   16  C5  UNL     1       3.828   2.356   0.516  1.00  0.00     0.004 A 
HETATM   17  C6  UNL     1       4.151   3.665   0.091  1.00  0.00     0.030 A 
ENDBRANCH   8  10
ENDBRANCH   1   8
BRANCH   7  18
HETATM   18  C13 UNL     1       5.671   7.354  -1.699  1.00  0.00     0.213 C 
HETATM   19  O1  UNL     1       6.758   7.997  -1.912  1.00  0.00    -0.644 OA
HETATM   20  O2  UNL     1       5.259   6.504  -2.697  1.00  0.00    -0.644 OA
ENDBRANCH   7  18
TORSDOF 3
ENDMDL
