MODEL 9
REMARK VINA RESULT: -7.352043405      3.156      5.773
REMARK  3 active torsions:
REMARK  status: ('A' for Active; 'I' for Inactive)
REMARK    1  A    between atoms: C7_8  and  N1_9 
REMARK    2  A    between atoms: N1_9  and  C8_11 
REMARK    3  A    between atoms: C12_17  and  C13_18 
ROOT
HETATM    1  C8  UNL     1       2.315   4.489  -0.583  1.00  0.00     0.122 A 
HETATM    2  N2  UNL     1       1.101   4.770  -1.146  1.00  0.00    -0.351 N 
ATOM      3  H2  UNL     1       0.989   5.687  -1.579  1.00  0.00     0.166 HD
HETATM    4  C9  UNL     1       0.057   3.954  -1.177  1.00  0.00     0.090 A 
HETATM    5  C10 UNL     1       0.203   2.704  -0.591  1.00  0.00     0.018 A 
HETATM    6  C11 UNL     1       1.404   2.389  -0.018  1.00  0.00     0.024 A 
HETATM    7  C12 UNL     1       2.495   3.270   0.004  1.00  0.00     0.084 A 
ENDROOT
BRANCH   1   8
HETATM    8  N1  UNL     1       3.340   5.455  -0.622  1.00  0.00    -0.341 N 
ATOM      9  H1  UNL     1       4.018   5.361  -1.379  1.00  0.00     0.167 HD
BRANCH   8  10
HETATM   10  C7  UNL     1       3.538   6.536   0.260  1.00  0.00     0.041 A 
HETATM   11  C2  UNL     1       4.333   7.605  -0.201  1.00  0.00    -0.013 A 
HETATM   12  C1  UNL     1       4.891   7.503  -1.568  1.00  0.00     0.052 C 
HETATM   13  C3  UNL     1       4.564   8.690   0.611  1.00  0.00     0.042 A 
HETATM   14 CL1  UNL     1       5.567   9.975  -0.048  1.00  0.00    -0.084 Cl
HETATM   15  C4  UNL     1       4.035   8.762   1.878  1.00  0.00     0.024 A 
HETATM   16  C5  UNL     1       3.260   7.722   2.328  1.00  0.00     0.004 A 
HETATM   17  C6  UNL     1       3.002   6.592   1.519  1.00  0.00     0.030 A 
ENDBRANCH   8  10
ENDBRANCH   1   8
BRANCH   7  18
HETATM   18  C13 UNL     1       3.708   2.827   0.635  1.00  0.00     0.213 C 
HETATM   19  O1  UNL     1       4.755   2.787  -0.102  1.00  0.00    -0.644 OA
HETATM   20  O2  UNL     1       3.868   2.441   1.945  1.00  0.00    -0.644 OA
ENDBRANCH   7  18
TORSDOF 3
ENDMDL
