MODEL 1
REMARK VINA RESULT: -8.013829781      0.000      0.000
REMARK  3 active torsions:
REMARK  status: ('A' for Active; 'I' for Inactive)
REMARK    1  A    between atoms: C7_8  and  N1_9 
REMARK    2  A    between atoms: N1_9  and  C8_11 
REMARK    3  A    between atoms: C12_17  and  C13_18 
ROOT
HETATM    1  C8  UNL     1       4.313   7.417   0.328  1.00  0.00     0.122 A 
HETATM    2  N2  UNL     1       3.700   8.086   1.352  1.00  0.00    -0.351 N 
ATOM      3  H2  UNL     1       3.171   7.529   2.022  1.00  0.00     0.166 HD
HETATM    4  C9  UNL     1       3.737   9.397   1.548  1.00  0.00     0.090 A 
HETATM    5  C10 UNL     1       4.457  10.161   0.640  1.00  0.00     0.018 A 
HETATM    6  C11 UNL     1       5.082   9.525  -0.397  1.00  0.00     0.024 A 
HETATM    7  C12 UNL     1       5.029   8.137  -0.584  1.00  0.00     0.084 A 
ENDROOT
BRANCH   1   8
HETATM    8  N1  UNL     1       4.190   6.016   0.242  1.00  0.00    -0.341 N 
ATOM      9  H1  UNL     1       5.052   5.481   0.352  1.00  0.00     0.167 HD
BRANCH   8  10
HETATM   10  C7  UNL     1       3.017   5.267   0.020  1.00  0.00     0.041 A 
HETATM   11  C2  UNL     1       3.127   3.864   0.089  1.00  0.00    -0.013 A 
HETATM   12  C1  UNL     1       4.462   3.296   0.387  1.00  0.00     0.052 C 
HETATM   13  C3  UNL     1       2.020   3.075  -0.117  1.00  0.00     0.042 A 
HETATM   14 CL1  UNL     1       2.254   1.336  -0.011  1.00  0.00    -0.084 Cl
HETATM   15  C4  UNL     1       0.791   3.626  -0.393  1.00  0.00     0.024 A 
HETATM   16  C5  UNL     1       0.681   4.993  -0.460  1.00  0.00     0.004 A 
HETATM   17  C6  UNL     1       1.800   5.832  -0.253  1.00  0.00     0.030 A 
ENDBRANCH   8  10
ENDBRANCH   1   8
BRANCH   7  18
HETATM   18  C13 UNL     1       5.728   7.580  -1.712  1.00  0.00     0.213 C 
HETATM   19  O1  UNL     1       6.902   8.038  -1.941  1.00  0.00    -0.644 OA
HETATM   20  O2  UNL     1       5.272   6.610  -2.572  1.00  0.00    -0.644 OA
ENDBRANCH   7  18
TORSDOF 3
ENDMDL
