MODEL 6
REMARK VINA RESULT: -5.600229803      3.104      5.538
REMARK  3 active torsions:
REMARK  status: ('A' for Active; 'I' for Inactive)
REMARK    1  A    between atoms: C1_2  and  C2_4 
REMARK    2  A    between atoms: C2_4  and  O3_5 
REMARK    3  A    between atoms: O3_5  and  C3_6 
ROOT
HETATM    1  C3  UNL     1     -14.561  -3.216 -37.558  1.00  0.00     0.092 A 
HETATM    2  C4  UNL     1     -14.355  -2.634 -38.812  1.00  0.00     0.064 A 
HETATM    3  C5  UNL     1     -13.085  -2.638 -39.350  1.00  0.00     0.058 A 
HETATM    4 CL1  UNL     1     -12.775  -1.915 -40.933  1.00  0.00    -0.082 Cl
HETATM    5  C6  UNL     1     -12.024  -3.203 -38.673  1.00  0.00     0.057 A 
HETATM    6 CL2  UNL     1     -10.424  -3.196 -39.375  1.00  0.00    -0.082 Cl
HETATM    7  C7  UNL     1     -12.219  -3.772 -37.449  1.00  0.00     0.052 A 
HETATM    8  C8  UNL     1     -13.488  -3.776 -36.898  1.00  0.00     0.069 A 
HETATM    9 CL3  UNL     1     -13.788  -4.496 -35.327  1.00  0.00    -0.081 Cl
ENDROOT
BRANCH   1  10
HETATM   10  O3  UNL     1     -15.829  -3.210 -37.025  1.00  0.00    -0.339 OA
BRANCH  10  11
HETATM   11  C2  UNL     1     -16.961  -2.851 -37.761  1.00  0.00     0.288 C 
BRANCH  11  12
HETATM   12  C1  UNL     1     -17.510  -1.533 -37.321  1.00  0.00     0.198 C 
HETATM   13  O1  UNL     1     -17.482  -1.189 -36.113  1.00  0.00    -0.646 OA
HETATM   14  O2  UNL     1     -18.063  -0.675 -38.274  1.00  0.00    -0.646 OA
ENDBRANCH  11  12
ENDBRANCH  10  11
ENDBRANCH   1  10
TORSDOF 3
ENDMDL
