MODEL 1
REMARK VINA RESULT: -5.949226176      0.000      0.000
REMARK  3 active torsions:
REMARK  status: ('A' for Active; 'I' for Inactive)
REMARK    1  A    between atoms: C1_2  and  C2_4 
REMARK    2  A    between atoms: C2_4  and  O3_5 
REMARK    3  A    between atoms: O3_5  and  C3_6 
ROOT
HETATM    1  C3  UNL     1     -13.386  -2.359 -38.852  1.00  0.00     0.092 A 
HETATM    2  C4  UNL     1     -13.569  -2.927 -37.588  1.00  0.00     0.064 A 
HETATM    3  C5  UNL     1     -14.710  -3.663 -37.345  1.00  0.00     0.058 A 
HETATM    4 CL1  UNL     1     -14.987  -4.401 -35.763  1.00  0.00    -0.082 Cl
HETATM    5  C6  UNL     1     -15.666  -3.844 -38.324  1.00  0.00     0.057 A 
HETATM    6 CL2  UNL     1     -17.103  -4.781 -37.993  1.00  0.00    -0.082 Cl
HETATM    7  C7  UNL     1     -15.492  -3.292 -39.559  1.00  0.00     0.052 A 
HETATM    8  C8  UNL     1     -14.351  -2.552 -39.817  1.00  0.00     0.069 A 
HETATM    9 CL3  UNL     1     -14.085  -1.823 -41.389  1.00  0.00    -0.081 Cl
ENDROOT
BRANCH   1  10
HETATM   10  O3  UNL     1     -12.247  -1.626 -39.090  1.00  0.00    -0.339 OA
BRANCH  10  11
HETATM   11  C2  UNL     1     -10.970  -2.193 -39.112  1.00  0.00     0.288 C 
BRANCH  11  12
HETATM   12  C1  UNL     1     -10.923  -3.416 -39.970  1.00  0.00     0.198 C 
HETATM   13  O1  UNL     1     -10.851  -4.562 -39.462  1.00  0.00    -0.646 OA
HETATM   14  O2  UNL     1     -10.962  -3.273 -41.359  1.00  0.00    -0.646 OA
ENDBRANCH  11  12
ENDBRANCH  10  11
ENDBRANCH   1  10
TORSDOF 3
ENDMDL
