MODEL 8
REMARK VINA RESULT: -5.445425645      2.562      3.351
REMARK  3 active torsions:
REMARK  status: ('A' for Active; 'I' for Inactive)
REMARK    1  A    between atoms: C1_2  and  C2_4 
REMARK    2  A    between atoms: C2_4  and  O3_5 
REMARK    3  A    between atoms: O3_5  and  C3_6 
ROOT
HETATM    1  C3  UNL     1     -15.823  -3.270 -38.610  1.00  0.00     0.092 A 
HETATM    2  C4  UNL     1     -15.984  -2.115 -37.838  1.00  0.00     0.064 A 
HETATM    3  C5  UNL     1     -17.228  -1.825 -37.320  1.00  0.00     0.058 A 
HETATM    4 CL1  UNL     1     -17.481  -0.377 -36.338  1.00  0.00    -0.082 Cl
HETATM    5  C6  UNL     1     -18.309  -2.652 -37.551  1.00  0.00     0.057 A 
HETATM    6 CL2  UNL     1     -19.876  -2.264 -36.883  1.00  0.00    -0.082 Cl
HETATM    7  C7  UNL     1     -18.159  -3.779 -38.303  1.00  0.00     0.052 A 
HETATM    8  C8  UNL     1     -16.915  -4.083 -38.828  1.00  0.00     0.069 A 
HETATM    9 CL3  UNL     1     -16.673  -5.522 -39.801  1.00  0.00    -0.081 Cl
ENDROOT
BRANCH   1  10
HETATM   10  O3  UNL     1     -14.581  -3.556 -39.126  1.00  0.00    -0.339 OA
BRANCH  10  11
HETATM   11  C2  UNL     1     -13.572  -2.597 -39.251  1.00  0.00     0.288 C 
BRANCH  11  12
HETATM   12  C1  UNL     1     -13.196  -2.377 -40.681  1.00  0.00     0.198 C 
HETATM   13  O1  UNL     1     -14.028  -1.929 -41.509  1.00  0.00    -0.646 OA
HETATM   14  O2  UNL     1     -11.895  -2.675 -41.095  1.00  0.00    -0.646 OA
ENDBRANCH  11  12
ENDBRANCH  10  11
ENDBRANCH   1  10
TORSDOF 3
ENDMDL
