MODEL 3
REMARK VINA RESULT: -5.786956454      1.862      3.030
REMARK  3 active torsions:
REMARK  status: ('A' for Active; 'I' for Inactive)
REMARK    1  A    between atoms: C1_2  and  C2_4 
REMARK    2  A    between atoms: C2_4  and  O3_5 
REMARK    3  A    between atoms: O3_5  and  C3_6 
ROOT
HETATM    1  C3  UNL     1     -13.723  -3.825 -38.310  1.00  0.00     0.092 A 
HETATM    2  C4  UNL     1     -14.660  -3.226 -39.157  1.00  0.00     0.064 A 
HETATM    3  C5  UNL     1     -15.779  -2.637 -38.607  1.00  0.00     0.058 A 
HETATM    4 CL1  UNL     1     -16.991  -1.867 -39.638  1.00  0.00    -0.082 Cl
HETATM    5  C6  UNL     1     -15.986  -2.632 -37.242  1.00  0.00     0.057 A 
HETATM    6 CL2  UNL     1     -17.412  -1.880 -36.568  1.00  0.00    -0.082 Cl
HETATM    7  C7  UNL     1     -15.077  -3.215 -36.411  1.00  0.00     0.052 A 
HETATM    8  C8  UNL     1     -13.948  -3.809 -36.949  1.00  0.00     0.069 A 
HETATM    9 CL3  UNL     1     -12.751  -4.571 -35.920  1.00  0.00    -0.081 Cl
ENDROOT
BRANCH   1  10
HETATM   10  O3  UNL     1     -12.608  -4.411 -38.862  1.00  0.00    -0.339 OA
BRANCH  10  11
HETATM   11  C2  UNL     1     -11.434  -3.703 -39.131  1.00  0.00     0.288 C 
BRANCH  11  12
HETATM   12  C1  UNL     1     -11.215  -3.536 -40.600  1.00  0.00     0.198 C 
HETATM   13  O1  UNL     1     -11.825  -2.651 -41.250  1.00  0.00    -0.646 OA
HETATM   14  O2  UNL     1     -10.316  -4.382 -41.254  1.00  0.00    -0.646 OA
ENDBRANCH  11  12
ENDBRANCH  10  11
ENDBRANCH   1  10
TORSDOF 3
ENDMDL
