MODEL 7
REMARK VINA RESULT: -5.465275688      3.192      5.210
REMARK  3 active torsions:
REMARK  status: ('A' for Active; 'I' for Inactive)
REMARK    1  A    between atoms: C1_2  and  C2_4 
REMARK    2  A    between atoms: C2_4  and  O3_5 
REMARK    3  A    between atoms: O3_5  and  C3_6 
ROOT
HETATM    1  C3  UNL     1     -14.614  -3.553 -37.743  1.00  0.00     0.092 A 
HETATM    2  C4  UNL     1     -14.363  -2.975 -38.991  1.00  0.00     0.064 A 
HETATM    3  C5  UNL     1     -13.066  -2.655 -39.332  1.00  0.00     0.058 A 
HETATM    4 CL1  UNL     1     -12.700  -1.922 -40.898  1.00  0.00    -0.082 Cl
HETATM    5  C6  UNL     1     -12.019  -2.896 -38.465  1.00  0.00     0.057 A 
HETATM    6 CL2  UNL     1     -10.384  -2.483 -38.919  1.00  0.00    -0.082 Cl
HETATM    7  C7  UNL     1     -12.257  -3.459 -37.247  1.00  0.00     0.052 A 
HETATM    8  C8  UNL     1     -13.554  -3.786 -36.892  1.00  0.00     0.069 A 
HETATM    9 CL3  UNL     1     -13.908  -4.513 -35.336  1.00  0.00    -0.081 Cl
ENDROOT
BRANCH   1  10
HETATM   10  O3  UNL     1     -15.909  -3.870 -37.406  1.00  0.00    -0.339 OA
BRANCH  10  11
HETATM   11  C2  UNL     1     -16.956  -3.869 -38.332  1.00  0.00     0.288 C 
BRANCH  11  12
HETATM   12  C1  UNL     1     -17.129  -5.209 -38.970  1.00  0.00     0.198 C 
HETATM   13  O1  UNL     1     -17.367  -6.231 -38.279  1.00  0.00    -0.646 OA
HETATM   14  O2  UNL     1     -17.022  -5.319 -40.359  1.00  0.00    -0.646 OA
ENDBRANCH  11  12
ENDBRANCH  10  11
ENDBRANCH   1  10
TORSDOF 3
ENDMDL
