MODEL 1
REMARK VINA RESULT: -8.500068412      0.000      0.000
REMARK  7 active torsions:
REMARK  status: ('A' for Active; 'I' for Inactive)
REMARK    1  A    between atoms: C1_2  and  C2_4 
REMARK    2  A    between atoms: C2_4  and  C3_7 
REMARK    3  A    between atoms: C3_7  and  C4_10 
REMARK    4  A    between atoms: C4_10  and  C5_13 
REMARK    5  A    between atoms: C5_13  and  C6_16 
REMARK    6  A    between atoms: C6_16  and  C7_19 
REMARK    7  A    between atoms: C7_19  and  C8_22 
ROOT
HETATM    1  C5  UNL     1      13.961  -3.580  38.370  1.00  0.00     0.384 C 
HETATM    2  F7  UNL     1      13.867  -4.741  39.091  1.00  0.00    -0.192 F 
HETATM    3  F8  UNL     1      14.046  -3.765  37.027  1.00  0.00    -0.192 F 
ENDROOT
BRANCH   1   4
HETATM    4  C4  UNL     1      12.748  -2.684  38.649  1.00  0.00     0.385 C 
HETATM    5  F5  UNL     1      12.996  -1.523  37.934  1.00  0.00    -0.192 F 
HETATM    6  F6  UNL     1      12.835  -2.342  39.984  1.00  0.00    -0.192 F 
BRANCH   4   7
HETATM    7  C3  UNL     1      11.445  -3.300  38.324  1.00  0.00     0.389 C 
HETATM    8  F3  UNL     1      11.545  -4.504  37.640  1.00  0.00    -0.192 F 
HETATM    9  F4  UNL     1      10.859  -3.687  39.562  1.00  0.00    -0.192 F 
BRANCH   7  10
HETATM   10  C2  UNL     1      10.419  -2.436  37.674  1.00  0.00     0.399 C 
HETATM   11  F1  UNL     1       9.159  -2.922  37.645  1.00  0.00    -0.187 F 
HETATM   12  F2  UNL     1      10.380  -1.198  38.344  1.00  0.00    -0.187 F 
BRANCH  10  13
HETATM   13  C1  UNL     1      10.828  -2.117  36.252  1.00  0.00     0.255 C 
HETATM   14  O1  UNL     1      10.537  -1.006  35.748  1.00  0.00    -0.643 OA
HETATM   15  O2  UNL     1      11.530  -3.051  35.491  1.00  0.00    -0.643 OA
ENDBRANCH  10  13
ENDBRANCH   7  10
ENDBRANCH   4   7
ENDBRANCH   1   4
BRANCH   1  16
HETATM   16  C6  UNL     1      15.222  -2.836  38.807  1.00  0.00     0.387 C 
HETATM   17  F9  UNL     1      15.448  -1.936  37.731  1.00  0.00    -0.192 F 
HETATM   18  F10 UNL     1      14.961  -2.071  39.901  1.00  0.00    -0.192 F 
BRANCH  16  19
HETATM   19  C7  UNL     1      16.445  -3.663  38.876  1.00  0.00     0.409 C 
HETATM   20  F11 UNL     1      16.474  -4.328  40.094  1.00  0.00    -0.189 F 
HETATM   21  F12 UNL     1      16.331  -4.635  37.873  1.00  0.00    -0.189 F 
BRANCH  19  22
HETATM   22  C8  UNL     1      17.762  -3.008  38.699  1.00  0.00     0.461 C 
HETATM   23  F13 UNL     1      18.659  -3.737  39.524  1.00  0.00    -0.165 F 
HETATM   24  F14 UNL     1      18.291  -3.069  37.438  1.00  0.00    -0.165 F 
HETATM   25  F15 UNL     1      17.832  -1.715  39.187  1.00  0.00    -0.165 F 
ENDBRANCH  19  22
ENDBRANCH  16  19
ENDBRANCH   1  16
TORSDOF 7
ENDMDL
