MODEL 19
REMARK VINA RESULT: -7.988719919      2.505      6.143
REMARK  7 active torsions:
REMARK  status: ('A' for Active; 'I' for Inactive)
REMARK    1  A    between atoms: C1_2  and  C2_4 
REMARK    2  A    between atoms: C2_4  and  C3_7 
REMARK    3  A    between atoms: C3_7  and  C4_10 
REMARK    4  A    between atoms: C4_10  and  C5_13 
REMARK    5  A    between atoms: C5_13  and  C6_16 
REMARK    6  A    between atoms: C6_16  and  C7_19 
REMARK    7  A    between atoms: C7_19  and  C8_22 
ROOT
HETATM    1  C5  UNL     1      13.881  -3.577  38.109  1.00  0.00     0.384 C 
HETATM    2  F7  UNL     1      13.815  -3.909  36.782  1.00  0.00    -0.192 F 
HETATM    3  F8  UNL     1      13.999  -4.642  38.944  1.00  0.00    -0.192 F 
ENDROOT
BRANCH   1   4
HETATM    4  C4  UNL     1      15.069  -2.642  38.363  1.00  0.00     0.385 C 
HETATM    5  F5  UNL     1      15.060  -2.423  39.731  1.00  0.00    -0.192 F 
HETATM    6  F6  UNL     1      14.731  -1.438  37.776  1.00  0.00    -0.192 F 
BRANCH   4   7
HETATM    7  C3  UNL     1      16.364  -3.150  37.864  1.00  0.00     0.389 C 
HETATM    8  F3  UNL     1      16.432  -4.534  37.778  1.00  0.00    -0.192 F 
HETATM    9  F4  UNL     1      16.463  -2.743  36.504  1.00  0.00    -0.192 F 
BRANCH   7  10
HETATM   10  C2  UNL     1      17.602  -2.624  38.507  1.00  0.00     0.399 C 
HETATM   11  F1  UNL     1      17.518  -1.387  39.042  1.00  0.00    -0.187 F 
HETATM   12  F2  UNL     1      17.988  -3.506  39.534  1.00  0.00    -0.187 F 
BRANCH  10  13
HETATM   13  C1  UNL     1      18.748  -2.627  37.517  1.00  0.00     0.255 C 
HETATM   14  O1  UNL     1      19.405  -3.677  37.320  1.00  0.00    -0.643 OA
HETATM   15  O2  UNL     1      19.081  -1.468  36.816  1.00  0.00    -0.643 OA
ENDBRANCH  10  13
ENDBRANCH   7  10
ENDBRANCH   4   7
ENDBRANCH   1   4
BRANCH   1  16
HETATM   16  C6  UNL     1      12.597  -2.841  38.491  1.00  0.00     0.387 C 
HETATM   17  F9  UNL     1      12.488  -3.097  39.885  1.00  0.00    -0.192 F 
HETATM   18  F10 UNL     1      12.767  -1.499  38.358  1.00  0.00    -0.192 F 
BRANCH  16  19
HETATM   19  C7  UNL     1      11.359  -3.395  37.904  1.00  0.00     0.409 C 
HETATM   20  F11 UNL     1      11.301  -3.050  36.561  1.00  0.00    -0.189 F 
HETATM   21  F12 UNL     1      11.470  -4.790  37.972  1.00  0.00    -0.189 F 
BRANCH  19  22
HETATM   22  C8  UNL     1      10.056  -3.032  38.509  1.00  0.00     0.461 C 
HETATM   23  F13 UNL     1       9.766  -4.072  39.430  1.00  0.00    -0.165 F 
HETATM   24  F14 UNL     1      10.044  -1.877  39.242  1.00  0.00    -0.165 F 
HETATM   25  F15 UNL     1       8.987  -3.054  37.630  1.00  0.00    -0.165 F 
ENDBRANCH  19  22
ENDBRANCH  16  19
ENDBRANCH   1  16
TORSDOF 7
ENDMDL
