MODEL 13
REMARK VINA RESULT: -8.023583317      2.408      6.013
REMARK  7 active torsions:
REMARK  status: ('A' for Active; 'I' for Inactive)
REMARK    1  A    between atoms: C1_2  and  C2_4 
REMARK    2  A    between atoms: C2_4  and  C3_7 
REMARK    3  A    between atoms: C3_7  and  C4_10 
REMARK    4  A    between atoms: C4_10  and  C5_13 
REMARK    5  A    between atoms: C5_13  and  C6_16 
REMARK    6  A    between atoms: C6_16  and  C7_19 
REMARK    7  A    between atoms: C7_19  and  C8_22 
ROOT
HETATM    1  C5  UNL     1      13.446  -2.765  38.157  1.00  0.00     0.384 C 
HETATM    2  F7  UNL     1      13.169  -1.424  38.142  1.00  0.00    -0.192 F 
HETATM    3  F8  UNL     1      13.440  -3.348  36.931  1.00  0.00    -0.192 F 
ENDROOT
BRANCH   1   4
HETATM    4  C4  UNL     1      14.819  -3.014  38.793  1.00  0.00     0.385 C 
HETATM    5  F5  UNL     1      14.823  -4.364  39.106  1.00  0.00    -0.192 F 
HETATM    6  F6  UNL     1      14.803  -2.337  39.997  1.00  0.00    -0.192 F 
BRANCH   4   7
HETATM    7  C3  UNL     1      15.965  -2.610  37.952  1.00  0.00     0.389 C 
HETATM    8  F3  UNL     1      16.107  -3.360  36.792  1.00  0.00    -0.192 F 
HETATM    9  F4  UNL     1      15.664  -1.311  37.453  1.00  0.00    -0.192 F 
BRANCH   7  10
HETATM   10  C2  UNL     1      17.289  -2.461  38.620  1.00  0.00     0.399 C 
HETATM   11  F1  UNL     1      17.495  -1.304  39.287  1.00  0.00    -0.187 F 
HETATM   12  F2  UNL     1      17.454  -3.515  39.538  1.00  0.00    -0.187 F 
BRANCH  10  13
HETATM   13  C1  UNL     1      18.406  -2.621  37.610  1.00  0.00     0.255 C 
HETATM   14  O1  UNL     1      19.110  -3.659  37.612  1.00  0.00    -0.643 OA
HETATM   15  O2  UNL     1      18.661  -1.622  36.672  1.00  0.00    -0.643 OA
ENDBRANCH  10  13
ENDBRANCH   7  10
ENDBRANCH   4   7
ENDBRANCH   1   4
BRANCH   1  16
HETATM   16  C6  UNL     1      12.387  -3.472  39.002  1.00  0.00     0.387 C 
HETATM   17  F9  UNL     1      12.958  -4.756  39.216  1.00  0.00    -0.192 F 
HETATM   18  F10 UNL     1      12.291  -2.884  40.225  1.00  0.00    -0.192 F 
BRANCH  16  19
HETATM   19  C7  UNL     1      11.107  -3.734  38.311  1.00  0.00     0.409 C 
HETATM   20  F11 UNL     1      11.328  -4.628  37.272  1.00  0.00    -0.189 F 
HETATM   21  F12 UNL     1      10.272  -4.371  39.238  1.00  0.00    -0.189 F 
BRANCH  19  22
HETATM   22  C8  UNL     1      10.347  -2.590  37.754  1.00  0.00     0.461 C 
HETATM   23  F13 UNL     1       8.987  -2.996  37.774  1.00  0.00    -0.165 F 
HETATM   24  F14 UNL     1      10.397  -1.434  38.485  1.00  0.00    -0.165 F 
HETATM   25  F15 UNL     1      10.600  -2.326  36.420  1.00  0.00    -0.165 F 
ENDBRANCH  19  22
ENDBRANCH  16  19
ENDBRANCH   1  16
TORSDOF 7
ENDMDL
