MODEL 3
REMARK VINA RESULT: -8.378697025      2.059      2.421
REMARK  7 active torsions:
REMARK  status: ('A' for Active; 'I' for Inactive)
REMARK    1  A    between atoms: C1_2  and  C2_4 
REMARK    2  A    between atoms: C2_4  and  C3_7 
REMARK    3  A    between atoms: C3_7  and  C4_10 
REMARK    4  A    between atoms: C4_10  and  C5_13 
REMARK    5  A    between atoms: C5_13  and  C6_16 
REMARK    6  A    between atoms: C6_16  and  C7_19 
REMARK    7  A    between atoms: C7_19  and  C8_22 
ROOT
HETATM    1  C5  UNL     1      14.365  -3.711  37.849  1.00  0.00     0.384 C 
HETATM    2  F7  UNL     1      14.698  -4.691  38.746  1.00  0.00    -0.192 F 
HETATM    3  F8  UNL     1      14.091  -4.169  36.600  1.00  0.00    -0.192 F 
ENDROOT
BRANCH   1   4
HETATM    4  C4  UNL     1      13.140  -2.932  38.347  1.00  0.00     0.385 C 
HETATM    5  F5  UNL     1      12.941  -1.943  37.396  1.00  0.00    -0.192 F 
HETATM    6  F6  UNL     1      13.550  -2.286  39.497  1.00  0.00    -0.192 F 
BRANCH   4   7
HETATM    7  C3  UNL     1      11.941  -3.763  38.581  1.00  0.00     0.389 C 
HETATM    8  F3  UNL     1      11.533  -4.491  37.471  1.00  0.00    -0.192 F 
HETATM    9  F4  UNL     1      12.325  -4.779  39.501  1.00  0.00    -0.192 F 
BRANCH   7  10
HETATM   10  C2  UNL     1      10.763  -3.105  39.213  1.00  0.00     0.399 C 
HETATM   11  F1  UNL     1      10.660  -1.769  39.042  1.00  0.00    -0.187 F 
HETATM   12  F2  UNL     1       9.589  -3.690  38.700  1.00  0.00    -0.187 F 
BRANCH  10  13
HETATM   13  C1  UNL     1      10.741  -3.387  40.701  1.00  0.00     0.255 C 
HETATM   14  O1  UNL     1      11.410  -2.673  41.485  1.00  0.00    -0.643 OA
HETATM   15  O2  UNL     1       9.980  -4.439  41.211  1.00  0.00    -0.643 OA
ENDBRANCH  10  13
ENDBRANCH   7  10
ENDBRANCH   4   7
ENDBRANCH   1   4
BRANCH   1  16
HETATM   16  C6  UNL     1      15.539  -2.740  37.730  1.00  0.00     0.387 C 
HETATM   17  F9  UNL     1      16.015  -2.979  36.412  1.00  0.00    -0.192 F 
HETATM   18  F10 UNL     1      15.091  -1.456  37.749  1.00  0.00    -0.192 F 
BRANCH  16  19
HETATM   19  C7  UNL     1      16.688  -3.035  38.611  1.00  0.00     0.409 C 
HETATM   20  F11 UNL     1      16.238  -3.152  39.918  1.00  0.00    -0.189 F 
HETATM   21  F12 UNL     1      17.179  -4.289  38.225  1.00  0.00    -0.189 F 
BRANCH  19  22
HETATM   22  C8  UNL     1      17.839  -2.102  38.622  1.00  0.00     0.461 C 
HETATM   23  F13 UNL     1      17.438  -1.021  39.450  1.00  0.00    -0.165 F 
HETATM   24  F14 UNL     1      18.990  -2.587  39.182  1.00  0.00    -0.165 F 
HETATM   25  F15 UNL     1      18.111  -1.508  37.402  1.00  0.00    -0.165 F 
ENDBRANCH  19  22
ENDBRANCH  16  19
ENDBRANCH   1  16
TORSDOF 7
ENDMDL
