MODEL 2
REMARK VINA RESULT: -8.466135187      2.108      3.161
REMARK  7 active torsions:
REMARK  status: ('A' for Active; 'I' for Inactive)
REMARK    1  A    between atoms: C1_2  and  C2_4 
REMARK    2  A    between atoms: C2_4  and  C3_7 
REMARK    3  A    between atoms: C3_7  and  C4_10 
REMARK    4  A    between atoms: C4_10  and  C5_13 
REMARK    5  A    between atoms: C5_13  and  C6_16 
REMARK    6  A    between atoms: C6_16  and  C7_19 
REMARK    7  A    between atoms: C7_19  and  C8_22 
ROOT
HETATM    1  C5  UNL     1      14.092  -2.611  38.559  1.00  0.00     0.384 C 
HETATM    2  F7  UNL     1      14.261  -1.463  37.831  1.00  0.00    -0.192 F 
HETATM    3  F8  UNL     1      14.239  -2.446  39.899  1.00  0.00    -0.192 F 
ENDROOT
BRANCH   1   4
HETATM    4  C4  UNL     1      12.699  -3.200  38.304  1.00  0.00     0.385 C 
HETATM    5  F5  UNL     1      12.681  -4.385  39.022  1.00  0.00    -0.192 F 
HETATM    6  F6  UNL     1      12.681  -3.555  36.970  1.00  0.00    -0.192 F 
BRANCH   4   7
HETATM    7  C3  UNL     1      11.581  -2.296  38.646  1.00  0.00     0.389 C 
HETATM    8  F3  UNL     1      11.967  -1.161  39.346  1.00  0.00    -0.192 F 
HETATM    9  F4  UNL     1      11.101  -1.762  37.418  1.00  0.00    -0.192 F 
BRANCH   7  10
HETATM   10  C2  UNL     1      10.381  -2.901  39.291  1.00  0.00     0.399 C 
HETATM   11  F1  UNL     1       9.265  -2.140  39.309  1.00  0.00    -0.187 F 
HETATM   12  F2  UNL     1      10.065  -4.100  38.624  1.00  0.00    -0.187 F 
BRANCH  10  13
HETATM   13  C1  UNL     1      10.697  -3.299  40.717  1.00  0.00     0.255 C 
HETATM   14  O1  UNL     1      11.491  -2.609  41.400  1.00  0.00    -0.643 OA
HETATM   15  O2  UNL     1      10.112  -4.431  41.282  1.00  0.00    -0.643 OA
ENDBRANCH  10  13
ENDBRANCH   7  10
ENDBRANCH   4   7
ENDBRANCH   1   4
BRANCH   1  16
HETATM   16  C6  UNL     1      15.138  -3.631  38.109  1.00  0.00     0.387 C 
HETATM   17  F9  UNL     1      15.140  -4.573  39.174  1.00  0.00    -0.192 F 
HETATM   18  F10 UNL     1      14.700  -4.298  37.007  1.00  0.00    -0.192 F 
BRANCH  16  19
HETATM   19  C7  UNL     1      16.524  -3.122  38.047  1.00  0.00     0.409 C 
HETATM   20  F11 UNL     1      16.721  -2.496  36.824  1.00  0.00    -0.189 F 
HETATM   21  F12 UNL     1      16.637  -2.141  39.040  1.00  0.00    -0.189 F 
BRANCH  19  22
HETATM   22  C8  UNL     1      17.644  -4.071  38.243  1.00  0.00     0.461 C 
HETATM   23  F13 UNL     1      18.711  -3.562  37.457  1.00  0.00    -0.165 F 
HETATM   24  F14 UNL     1      18.134  -4.156  39.518  1.00  0.00    -0.165 F 
HETATM   25  F15 UNL     1      17.423  -5.337  37.728  1.00  0.00    -0.165 F 
ENDBRANCH  19  22
ENDBRANCH  16  19
ENDBRANCH   1  16
TORSDOF 7
ENDMDL
