MODEL 1
REMARK VINA RESULT: -7.371519878      0.000      0.000
REMARK  6 active torsions:
REMARK  status: ('A' for Active; 'I' for Inactive)
REMARK    1  A    between atoms: N1_1  and  S1_4 
REMARK    2  A    between atoms: S1_4  and  C1_7 
REMARK    3  A    between atoms: C4_10  and  S2_11 
REMARK    4  A    between atoms: S2_11  and  C5_12 
REMARK    5  A    between atoms: C5_12  and  C6_13 
REMARK    6  A    between atoms: C6_13  and  C7_14 
ROOT
HETATM    1  C1  UNL     1      -5.804   2.514  16.167  1.00  0.00     0.079 A 
HETATM    2  C2  UNL     1      -6.540   3.651  15.968  1.00  0.00     0.026 A 
HETATM    3  C3  UNL     1      -6.208   4.552  15.008  1.00  0.00     0.020 A 
HETATM    4  C4  UNL     1      -5.093   4.303  14.217  1.00  0.00     0.000 A 
HETATM    5  C13 UNL     1      -4.364   3.177  14.414  1.00  0.00     0.020 A 
HETATM    6  C14 UNL     1      -4.714   2.245  15.411  1.00  0.00     0.026 A 
ENDROOT
BRANCH   4   7
HETATM    7  S2  UNL     1      -4.707   5.499  12.977  1.00  0.00    -0.130 SA
BRANCH   7   8
HETATM    8  C5  UNL     1      -3.088   6.208  13.211  1.00  0.00     0.084 C 
BRANCH   8   9
HETATM    9  C6  UNL     1      -2.859   6.698  14.608  1.00  0.00     0.049 C 
BRANCH   9  10
HETATM   10  C7  UNL     1      -1.806   7.750  14.566  1.00  0.00    -0.057 A 
HETATM   11  C8  UNL     1      -1.022   7.757  13.434  1.00  0.00     0.007 A 
HETATM   12  C9  UNL     1      -0.036   8.709  13.327  1.00  0.00     0.001 A 
HETATM   13  C10 UNL     1       0.162   9.641  14.336  1.00  0.00     0.000 A 
HETATM   14  C11 UNL     1      -0.625   9.631  15.464  1.00  0.00     0.001 A 
HETATM   15  C12 UNL     1      -1.611   8.663  15.550  1.00  0.00     0.007 A 
ENDBRANCH   9  10
ENDBRANCH   8   9
ENDBRANCH   7   8
ENDBRANCH   4   7
BRANCH   1  16
HETATM   16  S1  UNL     1      -6.239   1.343  17.416  1.00  0.00     0.256 S 
HETATM   17  O1  UNL     1      -7.537   0.673  17.091  1.00  0.00    -0.201 OA
HETATM   18  O2  UNL     1      -5.175   0.292  17.415  1.00  0.00    -0.201 OA
BRANCH  16  19
HETATM   19  N1  UNL     1      -6.321   2.188  18.903  1.00  0.00    -0.324 N 
ATOM     20  H12 UNL     1      -6.357   3.205  18.969  1.00  0.00     0.169 HD
ATOM     21  H11 UNL     1      -6.329   1.548  19.698  1.00  0.00     0.169 HD
ENDBRANCH  16  19
ENDBRANCH   1  16
TORSDOF 6
ENDMDL
