MODEL 2
REMARK VINA RESULT: -7.367638365      0.058      1.090
REMARK  6 active torsions:
REMARK  status: ('A' for Active; 'I' for Inactive)
REMARK    1  A    between atoms: N1_1  and  S1_4 
REMARK    2  A    between atoms: S1_4  and  C1_7 
REMARK    3  A    between atoms: C4_10  and  S2_11 
REMARK    4  A    between atoms: S2_11  and  C5_12 
REMARK    5  A    between atoms: C5_12  and  C6_13 
REMARK    6  A    between atoms: C6_13  and  C7_14 
ROOT
HETATM    1  C1  UNL     1      -5.817   2.490  16.172  1.00  0.00     0.079 A 
HETATM    2  C2  UNL     1      -4.741   2.277  15.352  1.00  0.00     0.026 A 
HETATM    3  C3  UNL     1      -4.400   3.167  14.385  1.00  0.00     0.020 A 
HETATM    4  C4  UNL     1      -5.168   4.315  14.234  1.00  0.00     0.000 A 
HETATM    5  C13 UNL     1      -6.232   4.526  15.047  1.00  0.00     0.020 A 
HETATM    6  C14 UNL     1      -6.581   3.600  16.048  1.00  0.00     0.026 A 
ENDROOT
BRANCH   4   7
HETATM    7  S2  UNL     1      -4.678   5.445  12.970  1.00  0.00    -0.130 SA
BRANCH   7   8
HETATM    8  C5  UNL     1      -3.044   6.101  13.253  1.00  0.00     0.084 C 
BRANCH   8   9
HETATM    9  C6  UNL     1      -2.866   6.651  14.636  1.00  0.00     0.049 C 
BRANCH   9  10
HETATM   10  C7  UNL     1      -1.823   7.713  14.583  1.00  0.00    -0.057 A 
HETATM   11  C8  UNL     1      -1.045   7.722  13.447  1.00  0.00     0.007 A 
HETATM   12  C9  UNL     1      -0.068   8.684  13.330  1.00  0.00     0.001 A 
HETATM   13  C10 UNL     1       0.126   9.622  14.334  1.00  0.00     0.000 A 
HETATM   14  C11 UNL     1      -0.654   9.608  15.467  1.00  0.00     0.001 A 
HETATM   15  C12 UNL     1      -1.630   8.632  15.563  1.00  0.00     0.007 A 
ENDBRANCH   9  10
ENDBRANCH   8   9
ENDBRANCH   7   8
ENDBRANCH   4   7
BRANCH   1  16
HETATM   16  S1  UNL     1      -6.259   1.331  17.429  1.00  0.00     0.256 S 
HETATM   17  O1  UNL     1      -7.557   0.660  17.105  1.00  0.00    -0.201 OA
HETATM   18  O2  UNL     1      -5.197   0.278  17.443  1.00  0.00    -0.201 OA
BRANCH  16  19
HETATM   19  N1  UNL     1      -6.346   2.189  18.909  1.00  0.00    -0.324 N 
ATOM     20  H12 UNL     1      -7.029   1.983  19.638  1.00  0.00     0.169 HD
ATOM     21  H11 UNL     1      -5.636   2.921  18.961  1.00  0.00     0.169 HD
ENDBRANCH  16  19
ENDBRANCH   1  16
TORSDOF 6
ENDMDL
