MODEL 7
REMARK VINA RESULT: -6.994255382      3.866      5.124
REMARK  6 active torsions:
REMARK  status: ('A' for Active; 'I' for Inactive)
REMARK    1  A    between atoms: N1_1  and  S1_4 
REMARK    2  A    between atoms: S1_4  and  C1_7 
REMARK    3  A    between atoms: C4_10  and  S2_11 
REMARK    4  A    between atoms: S2_11  and  C5_12 
REMARK    5  A    between atoms: C5_12  and  C6_13 
REMARK    6  A    between atoms: C6_13  and  C7_14 
ROOT
HETATM    1  C1  UNL     1      -4.627   2.079  14.339  1.00  0.00     0.079 A 
HETATM    2  C2  UNL     1      -4.558   1.731  13.016  1.00  0.00     0.026 A 
HETATM    3  C3  UNL     1      -4.465   2.669  12.039  1.00  0.00     0.020 A 
HETATM    4  C4  UNL     1      -4.440   4.010  12.403  1.00  0.00     0.000 A 
HETATM    5  C13 UNL     1      -4.508   4.355  13.712  1.00  0.00     0.020 A 
HETATM    6  C14 UNL     1      -4.604   3.377  14.721  1.00  0.00     0.026 A 
ENDROOT
BRANCH   4   7
HETATM    7  S2  UNL     1      -4.308   5.191  11.098  1.00  0.00    -0.130 SA
BRANCH   7   8
HETATM    8  C5  UNL     1      -4.786   6.827  11.623  1.00  0.00     0.084 C 
BRANCH   8   9
HETATM    9  C6  UNL     1      -6.271   7.018  11.661  1.00  0.00     0.049 C 
BRANCH   9  10
HETATM   10  C7  UNL     1      -6.653   7.916  10.535  1.00  0.00    -0.057 A 
HETATM   11  C8  UNL     1      -6.122   9.185  10.583  1.00  0.00     0.007 A 
HETATM   12  C9  UNL     1      -6.427  10.062   9.568  1.00  0.00     0.001 A 
HETATM   13  C10 UNL     1      -7.251   9.674   8.521  1.00  0.00     0.000 A 
HETATM   14  C11 UNL     1      -7.779   8.405   8.478  1.00  0.00     0.001 A 
HETATM   15  C12 UNL     1      -7.458   7.540   9.509  1.00  0.00     0.007 A 
ENDBRANCH   9  10
ENDBRANCH   8   9
ENDBRANCH   7   8
ENDBRANCH   4   7
BRANCH   1  16
HETATM   16  S1  UNL     1      -4.749   0.857  15.607  1.00  0.00     0.256 S 
HETATM   17  O1  UNL     1      -4.797  -0.519  15.021  1.00  0.00    -0.201 OA
HETATM   18  O2  UNL     1      -3.501   0.956  16.427  1.00  0.00    -0.201 OA
BRANCH  16  19
HETATM   19  N1  UNL     1      -6.157   1.203  16.518  1.00  0.00    -0.324 N 
ATOM     20  H12 UNL     1      -6.743   0.483  16.940  1.00  0.00     0.169 HD
ATOM     21  H11 UNL     1      -6.327   2.207  16.581  1.00  0.00     0.169 HD
ENDBRANCH  16  19
ENDBRANCH   1  16
TORSDOF 6
ENDMDL
