MODEL 3
REMARK VINA RESULT: -7.328701927      0.079      1.096
REMARK  6 active torsions:
REMARK  status: ('A' for Active; 'I' for Inactive)
REMARK    1  A    between atoms: N1_1  and  S1_4 
REMARK    2  A    between atoms: S1_4  and  C1_7 
REMARK    3  A    between atoms: C4_10  and  S2_11 
REMARK    4  A    between atoms: S2_11  and  C5_12 
REMARK    5  A    between atoms: C5_12  and  C6_13 
REMARK    6  A    between atoms: C6_13  and  C7_14 
ROOT
HETATM    1  C1  UNL     1      -5.804   2.517  16.168  1.00  0.00     0.079 A 
HETATM    2  C2  UNL     1      -6.542   3.653  15.970  1.00  0.00     0.026 A 
HETATM    3  C3  UNL     1      -6.209   4.558  15.014  1.00  0.00     0.020 A 
HETATM    4  C4  UNL     1      -5.092   4.313  14.225  1.00  0.00     0.000 A 
HETATM    5  C13 UNL     1      -4.362   3.188  14.421  1.00  0.00     0.020 A 
HETATM    6  C14 UNL     1      -4.712   2.253  15.414  1.00  0.00     0.026 A 
ENDROOT
BRANCH   4   7
HETATM    7  S2  UNL     1      -4.706   5.514  12.990  1.00  0.00    -0.130 SA
BRANCH   7   8
HETATM    8  C5  UNL     1      -3.060   6.172  13.186  1.00  0.00     0.084 C 
BRANCH   8   9
HETATM    9  C6  UNL     1      -2.806   6.710  14.561  1.00  0.00     0.049 C 
BRANCH   9  10
HETATM   10  C7  UNL     1      -1.742   7.748  14.465  1.00  0.00    -0.057 A 
HETATM   11  C8  UNL     1      -1.673   8.625  15.525  1.00  0.00     0.007 A 
HETATM   12  C9  UNL     1      -0.707   9.603  15.504  1.00  0.00     0.001 A 
HETATM   13  C10 UNL     1       0.177   9.703  14.438  1.00  0.00     0.000 A 
HETATM   14  C11 UNL     1       0.104   8.824  13.382  1.00  0.00     0.001 A 
HETATM   15  C12 UNL     1      -0.876   7.848  13.425  1.00  0.00     0.007 A 
ENDBRANCH   9  10
ENDBRANCH   8   9
ENDBRANCH   7   8
ENDBRANCH   4   7
BRANCH   1  16
HETATM   16  S1  UNL     1      -6.239   1.342  17.412  1.00  0.00     0.256 S 
HETATM   17  O1  UNL     1      -7.535   0.669  17.082  1.00  0.00    -0.201 OA
HETATM   18  O2  UNL     1      -5.173   0.293  17.411  1.00  0.00    -0.201 OA
BRANCH  16  19
HETATM   19  N1  UNL     1      -6.328   2.183  18.902  1.00  0.00    -0.324 N 
ATOM     20  H12 UNL     1      -6.860   1.847  19.704  1.00  0.00     0.169 HD
ATOM     21  H11 UNL     1      -5.786   3.047  18.877  1.00  0.00     0.169 HD
ENDBRANCH  16  19
ENDBRANCH   1  16
TORSDOF 6
ENDMDL
