MODEL 10
REMARK VINA RESULT: -6.825815183      3.489      5.072
REMARK  6 active torsions:
REMARK  status: ('A' for Active; 'I' for Inactive)
REMARK    1  A    between atoms: N1_1  and  S1_4 
REMARK    2  A    between atoms: S1_4  and  C1_7 
REMARK    3  A    between atoms: C4_10  and  S2_11 
REMARK    4  A    between atoms: S2_11  and  C5_12 
REMARK    5  A    between atoms: C5_12  and  C6_13 
REMARK    6  A    between atoms: C6_13  and  C7_14 
ROOT
HETATM    1  C1  UNL     1      -5.496   2.601  16.002  1.00  0.00     0.079 A 
HETATM    2  C2  UNL     1      -4.207   2.631  15.543  1.00  0.00     0.026 A 
HETATM    3  C3  UNL     1      -3.771   3.614  14.714  1.00  0.00     0.020 A 
HETATM    4  C4  UNL     1      -4.665   4.606  14.330  1.00  0.00     0.000 A 
HETATM    5  C13 UNL     1      -5.942   4.576  14.784  1.00  0.00     0.020 A 
HETATM    6  C14 UNL     1      -6.388   3.554  15.644  1.00  0.00     0.026 A 
ENDROOT
BRANCH   4   7
HETATM    7  S2  UNL     1      -4.049   5.867  13.259  1.00  0.00    -0.130 SA
BRANCH   7   8
HETATM    8  C5  UNL     1      -4.976   5.968  11.739  1.00  0.00     0.084 C 
BRANCH   8   9
HETATM    9  C6  UNL     1      -5.485   7.348  11.454  1.00  0.00     0.049 C 
BRANCH   9  10
HETATM   10  C7  UNL     1      -6.121   7.340  10.107  1.00  0.00    -0.057 A 
HETATM   11  C8  UNL     1      -7.424   7.784  10.065  1.00  0.00     0.007 A 
HETATM   12  C9  UNL     1      -8.067   7.812   8.850  1.00  0.00     0.001 A 
HETATM   13  C10 UNL     1      -7.417   7.401   7.695  1.00  0.00     0.000 A 
HETATM   14  C11 UNL     1      -6.115   6.959   7.742  1.00  0.00     0.001 A 
HETATM   15  C12 UNL     1      -5.488   6.940   8.975  1.00  0.00     0.007 A 
ENDBRANCH   9  10
ENDBRANCH   8   9
ENDBRANCH   7   8
ENDBRANCH   4   7
BRANCH   1  16
HETATM   16  S1  UNL     1      -6.060   1.321  17.080  1.00  0.00     0.256 S 
HETATM   17  O1  UNL     1      -7.261   0.633  16.510  1.00  0.00    -0.201 OA
HETATM   18  O2  UNL     1      -4.961   0.311  17.168  1.00  0.00    -0.201 OA
BRANCH  16  19
HETATM   19  N1  UNL     1      -6.407   2.042  18.594  1.00  0.00    -0.324 N 
ATOM     20  H12 UNL     1      -6.247   1.576  19.487  1.00  0.00     0.169 HD
ATOM     21  H11 UNL     1      -6.787   2.983  18.483  1.00  0.00     0.169 HD
ENDBRANCH  16  19
ENDBRANCH   1  16
TORSDOF 6
ENDMDL
