MODEL 14
REMARK VINA RESULT: -6.653529866      3.333      5.171
REMARK  6 active torsions:
REMARK  status: ('A' for Active; 'I' for Inactive)
REMARK    1  A    between atoms: N1_1  and  S1_4 
REMARK    2  A    between atoms: S1_4  and  C1_7 
REMARK    3  A    between atoms: C4_10  and  S2_11 
REMARK    4  A    between atoms: S2_11  and  C5_12 
REMARK    5  A    between atoms: C5_12  and  C6_13 
REMARK    6  A    between atoms: C6_13  and  C7_14 
ROOT
HETATM    1  C1  UNL     1      -5.729   2.518  16.385  1.00  0.00     0.079 A 
HETATM    2  C2  UNL     1      -4.425   2.559  15.969  1.00  0.00     0.026 A 
HETATM    3  C3  UNL     1      -3.989   3.500  15.093  1.00  0.00     0.020 A 
HETATM    4  C4  UNL     1      -4.897   4.438  14.614  1.00  0.00     0.000 A 
HETATM    5  C13 UNL     1      -6.187   4.397  15.027  1.00  0.00     0.020 A 
HETATM    6  C14 UNL     1      -6.634   3.419  15.936  1.00  0.00     0.026 A 
ENDROOT
BRANCH   4   7
HETATM    7  S2  UNL     1      -4.280   5.646  13.485  1.00  0.00    -0.130 SA
BRANCH   7   8
HETATM    8  C5  UNL     1      -4.151   5.008  11.825  1.00  0.00     0.084 C 
BRANCH   8   9
HETATM    9  C6  UNL     1      -3.046   4.009  11.666  1.00  0.00     0.049 C 
BRANCH   9  10
HETATM   10  C7  UNL     1      -3.646   2.646  11.672  1.00  0.00    -0.057 A 
HETATM   11  C8  UNL     1      -4.626   2.427  10.729  1.00  0.00     0.007 A 
HETATM   12  C9  UNL     1      -5.215   1.185  10.674  1.00  0.00     0.001 A 
HETATM   13  C10 UNL     1      -4.831   0.179  11.549  1.00  0.00     0.000 A 
HETATM   14  C11 UNL     1      -3.851   0.403  12.488  1.00  0.00     0.001 A 
HETATM   15  C12 UNL     1      -3.272   1.659  12.525  1.00  0.00     0.007 A 
ENDBRANCH   9  10
ENDBRANCH   8   9
ENDBRANCH   7   8
ENDBRANCH   4   7
BRANCH   1  16
HETATM   16  S1  UNL     1      -6.293   1.294  17.525  1.00  0.00     0.256 S 
HETATM   17  O1  UNL     1      -7.602   0.717  17.084  1.00  0.00    -0.201 OA
HETATM   18  O2  UNL     1      -5.285   0.189  17.510  1.00  0.00    -0.201 OA
BRANCH  16  19
HETATM   19  N1  UNL     1      -6.419   2.042  19.060  1.00  0.00    -0.324 N 
ATOM     20  H12 UNL     1      -6.252   1.552  19.938  1.00  0.00     0.169 HD
ATOM     21  H11 UNL     1      -6.680   3.025  18.978  1.00  0.00     0.169 HD
ENDBRANCH  16  19
ENDBRANCH   1  16
TORSDOF 6
ENDMDL
