MODEL 4
REMARK VINA RESULT: -7.319036079      0.088      1.545
REMARK  6 active torsions:
REMARK  status: ('A' for Active; 'I' for Inactive)
REMARK    1  A    between atoms: N1_1  and  S1_4 
REMARK    2  A    between atoms: S1_4  and  C1_7 
REMARK    3  A    between atoms: C4_10  and  S2_11 
REMARK    4  A    between atoms: S2_11  and  C5_12 
REMARK    5  A    between atoms: C5_12  and  C6_13 
REMARK    6  A    between atoms: C6_13  and  C7_14 
ROOT
HETATM    1  C1  UNL     1      -5.795   2.515  16.160  1.00  0.00     0.079 A 
HETATM    2  C2  UNL     1      -4.722   2.309  15.334  1.00  0.00     0.026 A 
HETATM    3  C3  UNL     1      -4.383   3.208  14.374  1.00  0.00     0.020 A 
HETATM    4  C4  UNL     1      -5.152   4.358  14.236  1.00  0.00     0.000 A 
HETATM    5  C13 UNL     1      -6.213   4.561  15.054  1.00  0.00     0.020 A 
HETATM    6  C14 UNL     1      -6.560   3.626  16.048  1.00  0.00     0.026 A 
ENDROOT
BRANCH   4   7
HETATM    7  S2  UNL     1      -4.665   5.500  12.981  1.00  0.00    -0.130 SA
BRANCH   7   8
HETATM    8  C5  UNL     1      -3.006   6.104  13.231  1.00  0.00     0.084 C 
BRANCH   8   9
HETATM    9  C6  UNL     1      -2.803   6.714  14.584  1.00  0.00     0.049 C 
BRANCH   9  10
HETATM   10  C7  UNL     1      -1.740   7.751  14.471  1.00  0.00    -0.057 A 
HETATM   11  C8  UNL     1      -1.661   8.634  15.525  1.00  0.00     0.007 A 
HETATM   12  C9  UNL     1      -0.693   9.612  15.489  1.00  0.00     0.001 A 
HETATM   13  C10 UNL     1       0.181   9.703  14.415  1.00  0.00     0.000 A 
HETATM   14  C11 UNL     1       0.098   8.817  13.365  1.00  0.00     0.001 A 
HETATM   15  C12 UNL     1      -0.882   7.843  13.423  1.00  0.00     0.007 A 
ENDBRANCH   9  10
ENDBRANCH   8   9
ENDBRANCH   7   8
ENDBRANCH   4   7
BRANCH   1  16
HETATM   16  S1  UNL     1      -6.234   1.345  17.407  1.00  0.00     0.256 S 
HETATM   17  O1  UNL     1      -7.528   0.670  17.075  1.00  0.00    -0.201 OA
HETATM   18  O2  UNL     1      -5.167   0.297  17.415  1.00  0.00    -0.201 OA
BRANCH  16  19
HETATM   19  N1  UNL     1      -6.328   2.192  18.893  1.00  0.00    -0.324 N 
ATOM     20  H12 UNL     1      -7.117   2.111  19.535  1.00  0.00     0.169 HD
ATOM     21  H11 UNL     1      -5.505   2.775  19.045  1.00  0.00     0.169 HD
ENDBRANCH  16  19
ENDBRANCH   1  16
TORSDOF 6
ENDMDL
