MODEL 6
REMARK VINA RESULT: -8.010168494      2.376      5.494
REMARK  9 active torsions:
REMARK  status: ('A' for Active; 'I' for Inactive)
REMARK    1  A    between atoms: C2_2  and  C3_3 
REMARK    2  A    between atoms: C5_8  and  N3_9 
REMARK    3  A    between atoms: N3_9  and  C6_11 
REMARK    4  A    between atoms: C6_11  and  C7_12 
REMARK    5  A    between atoms: N4_16  and  O1_17 
REMARK    6  A    between atoms: C13_21  and  N5_22 
REMARK    7  A    between atoms: C18_27  and  C19_28 
REMARK    8  A    between atoms: C19_28  and  C20_29 
REMARK    9  A    between atoms: C20_29  and  O2_30 
ROOT
HETATM    1  C3  UNL     1      23.002  16.870   0.061  1.00  0.00     0.004 A 
HETATM    2  C4  UNL     1      24.336  16.619   0.014  1.00  0.00     0.118 A 
HETATM    3  N1  UNL     1      24.887  17.558  -0.770  1.00  0.00    -0.301 N 
ATOM      4  H1  UNL     1      25.882  17.616  -0.986  1.00  0.00     0.186 HD
HETATM    5  N2  UNL     1      23.969  18.401  -1.229  1.00  0.00    -0.224 N 
HETATM    6  C5  UNL     1      24.009  19.475  -2.024  1.00  0.00     0.129 A 
HETATM    7  C12 UNL     1      22.835  20.150  -2.316  1.00  0.00     0.098 A 
HETATM    8  C13 UNL     1      21.619  19.751  -1.813  1.00  0.00     0.108 A 
HETATM    9  N6  UNL     1      21.636  18.665  -1.019  1.00  0.00    -0.327 N 
ATOM     10  H6  UNL     1      20.756  18.334  -0.624  1.00  0.00     0.169 HD
HETATM   11  C21 UNL     1      22.771  17.994  -0.723  1.00  0.00     0.138 A 
ENDROOT
BRANCH   6  12
HETATM   12  N3  UNL     1      25.248  19.904  -2.551  1.00  0.00    -0.370 N 
ATOM     13  H3  UNL     1      25.503  19.657  -3.508  1.00  0.00     0.161 HD
BRANCH  12  14
HETATM   14  C6  UNL     1      26.156  20.687  -1.749  1.00  0.00     0.161 C 
BRANCH  14  15
HETATM   15  C7  UNL     1      25.960  22.149  -1.883  1.00  0.00    -0.023 A 
HETATM   16  C8  UNL     1      26.787  22.836  -2.777  1.00  0.00     0.012 A 
HETATM   17  C9  UNL     1      26.669  24.191  -2.950  1.00  0.00     0.020 A 
HETATM   18  C10 UNL     1      25.708  24.864  -2.217  1.00  0.00     0.122 A 
HETATM   19  N4  UNL     1      24.913  24.223  -1.363  1.00  0.00    -0.247 N 
HETATM   20  C11 UNL     1      25.036  22.888  -1.197  1.00  0.00     0.131 A 
BRANCH  19  21
HETATM   21  O1  UNL     1      23.975  24.954  -0.665  1.00  0.00    -0.284 OA
ATOM     22  H1  UNL     1      24.024  24.963   0.284  1.00  0.00     0.245 HD
ENDBRANCH  19  21
ENDBRANCH  14  15
ENDBRANCH  12  14
ENDBRANCH   6  12
BRANCH   8  23
HETATM   23  N5  UNL     1      20.412  20.439  -2.115  1.00  0.00    -0.362 N 
HETATM   24  C14 UNL     1      19.166  20.094  -1.467  1.00  0.00     0.125 C 
HETATM   25  C15 UNL     1      18.202  21.219  -1.314  1.00  0.00     0.020 C 
HETATM   26  C16 UNL     1      18.101  22.143  -2.499  1.00  0.00     0.004 C 
HETATM   27  C17 UNL     1      19.003  21.634  -3.574  1.00  0.00     0.025 C 
HETATM   28  C18 UNL     1      20.414  21.524  -3.121  1.00  0.00     0.087 C 
BRANCH  28  29
HETATM   29  C19 UNL     1      21.018  22.708  -2.475  1.00  0.00     0.051 C 
BRANCH  29  30
HETATM   30  C20 UNL     1      21.102  23.944  -3.293  1.00  0.00     0.166 C 
BRANCH  30  31
HETATM   31  O2  UNL     1      22.174  24.759  -3.104  1.00  0.00    -0.401 OA
ATOM     32  H2  UNL     1      22.051  25.692  -3.234  1.00  0.00     0.209 HD
ENDBRANCH  30  31
ENDBRANCH  29  30
ENDBRANCH  28  29
ENDBRANCH   8  23
BRANCH   1  33
HETATM   33  C2  UNL     1      21.995  16.084   0.813  1.00  0.00     0.039 C 
HETATM   34  C1  UNL     1      22.695  15.262   1.889  1.00  0.00     0.010 C 
ENDBRANCH   1  33
TORSDOF 9
ENDMDL
