MODEL 1
REMARK VINA RESULT: -8.769367898      0.000      0.000
REMARK  9 active torsions:
REMARK  status: ('A' for Active; 'I' for Inactive)
REMARK    1  A    between atoms: C2_2  and  C3_3 
REMARK    2  A    between atoms: C5_8  and  N3_9 
REMARK    3  A    between atoms: N3_9  and  C6_11 
REMARK    4  A    between atoms: C6_11  and  C7_12 
REMARK    5  A    between atoms: N4_16  and  O1_17 
REMARK    6  A    between atoms: C13_21  and  N5_22 
REMARK    7  A    between atoms: C18_27  and  C19_28 
REMARK    8  A    between atoms: C19_28  and  C20_29 
REMARK    9  A    between atoms: C20_29  and  O2_30 
ROOT
HETATM    1  C3  UNL     1      19.631  21.943  -2.756  1.00  0.00     0.004 A 
HETATM    2  C4  UNL     1      19.463  23.280  -2.918  1.00  0.00     0.118 A 
HETATM    3  N1  UNL     1      20.645  23.861  -2.666  1.00  0.00    -0.301 N 
ATOM      4  H1  UNL     1      20.814  24.866  -2.711  1.00  0.00     0.186 HD
HETATM    5  N2  UNL     1      21.567  22.958  -2.351  1.00  0.00    -0.224 N 
HETATM    6  C5  UNL     1      22.862  23.028  -2.024  1.00  0.00     0.129 A 
HETATM    7  C12 UNL     1      23.556  21.862  -1.742  1.00  0.00     0.098 A 
HETATM    8  C13 UNL     1      22.957  20.626  -1.786  1.00  0.00     0.108 A 
HETATM    9  N6  UNL     1      21.653  20.614  -2.120  1.00  0.00    -0.327 N 
ATOM     10  H6  UNL     1      21.168  19.718  -2.165  1.00  0.00     0.169 HD
HETATM   11  C21 UNL     1      20.959  21.740  -2.398  1.00  0.00     0.138 A 
ENDROOT
BRANCH   6  12
HETATM   12  N3  UNL     1      23.499  24.288  -1.974  1.00  0.00    -0.370 N 
ATOM     13  H3  UNL     1      23.058  25.096  -2.414  1.00  0.00     0.161 HD
BRANCH  12  14
HETATM   14  C6  UNL     1      24.769  24.443  -1.306  1.00  0.00     0.161 C 
BRANCH  14  15
HETATM   15  C7  UNL     1      25.928  24.453  -2.226  1.00  0.00    -0.023 A 
HETATM   16  C8  UNL     1      25.746  25.011  -3.496  1.00  0.00     0.012 A 
HETATM   17  C9  UNL     1      26.772  25.050  -4.405  1.00  0.00     0.020 A 
HETATM   18  C10 UNL     1      27.996  24.524  -4.033  1.00  0.00     0.122 A 
HETATM   19  N4  UNL     1      28.186  23.990  -2.828  1.00  0.00    -0.247 N 
HETATM   20  C11 UNL     1      27.169  23.954  -1.939  1.00  0.00     0.131 A 
BRANCH  19  21
HETATM   21  O1  UNL     1      29.431  23.484  -2.523  1.00  0.00    -0.284 OA
ATOM     22  H1  UNL     1      29.485  22.613  -2.149  1.00  0.00     0.245 HD
ENDBRANCH  19  21
ENDBRANCH  14  15
ENDBRANCH  12  14
ENDBRANCH   6  12
BRANCH   8  23
HETATM   23  N5  UNL     1      23.666  19.430  -1.493  1.00  0.00    -0.362 N 
HETATM   24  C14 UNL     1      25.092  19.329  -1.708  1.00  0.00     0.125 C 
HETATM   25  C15 UNL     1      25.805  18.395  -0.791  1.00  0.00     0.020 C 
HETATM   26  C16 UNL     1      25.083  17.104  -0.504  1.00  0.00     0.004 C 
HETATM   27  C17 UNL     1      23.810  17.089  -1.285  1.00  0.00     0.025 C 
HETATM   28  C18 UNL     1      22.940  18.252  -0.969  1.00  0.00     0.087 C 
BRANCH  28  29
HETATM   29  C19 UNL     1      22.653  18.522   0.455  1.00  0.00     0.051 C 
BRANCH  29  30
HETATM   30  C20 UNL     1      21.224  18.557   0.852  1.00  0.00     0.166 C 
BRANCH  30  31
HETATM   31  O2  UNL     1      20.300  18.803  -0.117  1.00  0.00    -0.401 OA
ATOM     32  H2  UNL     1      19.913  18.057  -0.560  1.00  0.00     0.209 HD
ENDBRANCH  30  31
ENDBRANCH  29  30
ENDBRANCH  28  29
ENDBRANCH   8  23
BRANCH   1  33
HETATM   33  C2  UNL     1      18.587  20.906  -2.933  1.00  0.00     0.039 C 
HETATM   34  C1  UNL     1      17.741  20.819  -1.668  1.00  0.00     0.010 C 
ENDBRANCH   1  33
TORSDOF 9
ENDMDL
