MODEL 5
REMARK VINA RESULT: -8.059865729      1.887      4.911
REMARK  9 active torsions:
REMARK  status: ('A' for Active; 'I' for Inactive)
REMARK    1  A    between atoms: C2_2  and  C3_3 
REMARK    2  A    between atoms: C5_8  and  N3_9 
REMARK    3  A    between atoms: N3_9  and  C6_11 
REMARK    4  A    between atoms: C6_11  and  C7_12 
REMARK    5  A    between atoms: N4_16  and  O1_17 
REMARK    6  A    between atoms: C13_21  and  N5_22 
REMARK    7  A    between atoms: C18_27  and  C19_28 
REMARK    8  A    between atoms: C19_28  and  C20_29 
REMARK    9  A    between atoms: C20_29  and  O2_30 
ROOT
HETATM    1  C3  UNL     1      24.861  18.287  -0.372  1.00  0.00     0.004 A 
HETATM    2  C4  UNL     1      26.093  18.753  -0.044  1.00  0.00     0.118 A 
HETATM    3  N1  UNL     1      26.066  20.085  -0.194  1.00  0.00    -0.301 N 
ATOM      4  H1  UNL     1      26.859  20.701  -0.018  1.00  0.00     0.186 HD
HETATM    5  N2  UNL     1      24.871  20.498  -0.603  1.00  0.00    -0.224 N 
HETATM    6  C5  UNL     1      24.351  21.696  -0.890  1.00  0.00     0.129 A 
HETATM    7  C12 UNL     1      23.031  21.784  -1.304  1.00  0.00     0.098 A 
HETATM    8  C13 UNL     1      22.231  20.673  -1.431  1.00  0.00     0.108 A 
HETATM    9  N6  UNL     1      22.805  19.494  -1.129  1.00  0.00    -0.327 N 
ATOM     10  H6  UNL     1      22.247  18.645  -1.209  1.00  0.00     0.169 HD
HETATM   11  C21 UNL     1      24.090  19.389  -0.724  1.00  0.00     0.138 A 
ENDROOT
BRANCH   6  12
HETATM   12  N3  UNL     1      25.156  22.852  -0.765  1.00  0.00    -0.370 N 
ATOM     13  H3  UNL     1      25.863  22.899  -0.031  1.00  0.00     0.161 HD
BRANCH  12  14
HETATM   14  C6  UNL     1      24.986  23.965  -1.667  1.00  0.00     0.161 C 
BRANCH  14  15
HETATM   15  C7  UNL     1      26.091  24.116  -2.641  1.00  0.00    -0.023 A 
HETATM   16  C8  UNL     1      25.957  25.095  -3.630  1.00  0.00     0.012 A 
HETATM   17  C9  UNL     1      26.936  25.290  -4.570  1.00  0.00     0.020 A 
HETATM   18  C10 UNL     1      28.064  24.491  -4.515  1.00  0.00     0.122 A 
HETATM   19  N4  UNL     1      28.207  23.555  -3.579  1.00  0.00    -0.247 N 
HETATM   20  C11 UNL     1      27.237  23.369  -2.657  1.00  0.00     0.131 A 
BRANCH  19  21
HETATM   21  O1  UNL     1      29.357  22.795  -3.582  1.00  0.00    -0.284 OA
ATOM     22  H1  UNL     1      29.983  22.923  -4.284  1.00  0.00     0.245 HD
ENDBRANCH  19  21
ENDBRANCH  14  15
ENDBRANCH  12  14
ENDBRANCH   6  12
BRANCH   8  23
HETATM   23  N5  UNL     1      20.878  20.760  -1.859  1.00  0.00    -0.362 N 
HETATM   24  C14 UNL     1      19.816  20.094  -1.139  1.00  0.00     0.125 C 
HETATM   25  C15 UNL     1      18.486  20.760  -1.218  1.00  0.00     0.020 C 
HETATM   26  C16 UNL     1      18.125  21.313  -2.571  1.00  0.00     0.004 C 
HETATM   27  C17 UNL     1      19.230  20.992  -3.524  1.00  0.00     0.025 C 
HETATM   28  C18 UNL     1      20.538  21.535  -3.073  1.00  0.00     0.087 C 
BRANCH  28  29
HETATM   29  C19 UNL     1      20.593  22.963  -2.701  1.00  0.00     0.051 C 
BRANCH  29  30
HETATM   30  C20 UNL     1      21.224  23.883  -3.680  1.00  0.00     0.166 C 
BRANCH  30  31
HETATM   31  O2  UNL     1      22.067  24.839  -3.203  1.00  0.00    -0.401 OA
ATOM     32  H2  UNL     1      22.892  24.555  -2.825  1.00  0.00     0.209 HD
ENDBRANCH  30  31
ENDBRANCH  29  30
ENDBRANCH  28  29
ENDBRANCH   8  23
BRANCH   1  33
HETATM   33  C2  UNL     1      24.432  16.868  -0.351  1.00  0.00     0.039 C 
HETATM   34  C1  UNL     1      23.254  16.710   0.603  1.00  0.00     0.010 C 
ENDBRANCH   1  33
TORSDOF 9
ENDMDL
