MODEL 7
REMARK VINA RESULT: -7.956742107      2.306      5.816
REMARK  9 active torsions:
REMARK  status: ('A' for Active; 'I' for Inactive)
REMARK    1  A    between atoms: C2_2  and  C3_3 
REMARK    2  A    between atoms: C5_8  and  N3_9 
REMARK    3  A    between atoms: N3_9  and  C6_11 
REMARK    4  A    between atoms: C6_11  and  C7_12 
REMARK    5  A    between atoms: N4_16  and  O1_17 
REMARK    6  A    between atoms: C13_21  and  N5_22 
REMARK    7  A    between atoms: C18_27  and  C19_28 
REMARK    8  A    between atoms: C19_28  and  C20_29 
REMARK    9  A    between atoms: C20_29  and  O2_30 
ROOT
HETATM    1  C3  UNL     1      27.251  23.992  -2.848  1.00  0.00     0.004 A 
HETATM    2  C4  UNL     1      26.742  25.237  -3.030  1.00  0.00     0.118 A 
HETATM    3  N1  UNL     1      25.429  25.170  -2.764  1.00  0.00    -0.301 N 
ATOM      4  H1  UNL     1      24.788  25.962  -2.820  1.00  0.00     0.186 HD
HETATM    5  N2  UNL     1      25.070  23.938  -2.418  1.00  0.00    -0.224 N 
HETATM    6  C5  UNL     1      23.911  23.372  -2.070  1.00  0.00     0.129 A 
HETATM    7  C12 UNL     1      23.878  22.021  -1.762  1.00  0.00     0.098 A 
HETATM    8  C13 UNL     1      25.006  21.236  -1.801  1.00  0.00     0.108 A 
HETATM    9  N6  UNL     1      26.145  21.857  -2.158  1.00  0.00    -0.327 N 
ATOM     10  H6  UNL     1      27.006  21.313  -2.201  1.00  0.00     0.169 HD
HETATM   11  C21 UNL     1      26.196  23.173  -2.462  1.00  0.00     0.138 A 
ENDROOT
BRANCH   6  12
HETATM   12  N3  UNL     1      22.739  24.161  -2.021  1.00  0.00    -0.370 N 
ATOM     13  H3  UNL     1      22.574  24.773  -1.222  1.00  0.00     0.161 HD
BRANCH  12  14
HETATM   14  C6  UNL     1      21.773  24.107  -3.092  1.00  0.00     0.161 C 
BRANCH  14  15
HETATM   15  C7  UNL     1      20.726  23.079  -2.899  1.00  0.00    -0.023 A 
HETATM   16  C8  UNL     1      19.425  23.517  -2.630  1.00  0.00     0.012 A 
HETATM   17  C9  UNL     1      18.404  22.624  -2.433  1.00  0.00     0.020 A 
HETATM   18  C10 UNL     1      18.692  21.273  -2.507  1.00  0.00     0.122 A 
HETATM   19  N4  UNL     1      19.925  20.840  -2.763  1.00  0.00    -0.247 N 
HETATM   20  C11 UNL     1      20.926  21.727  -2.955  1.00  0.00     0.131 A 
BRANCH  19  21
HETATM   21  O1  UNL     1      20.144  19.480  -2.824  1.00  0.00    -0.284 OA
ATOM     22  H1  UNL     1      21.039  19.165  -2.806  1.00  0.00     0.245 HD
ENDBRANCH  19  21
ENDBRANCH  14  15
ENDBRANCH  12  14
ENDBRANCH   6  12
BRANCH   8  23
HETATM   23  N5  UNL     1      24.974  19.849  -1.490  1.00  0.00    -0.362 N 
HETATM   24  C14 UNL     1      26.190  19.073  -1.388  1.00  0.00     0.125 C 
HETATM   25  C15 UNL     1      26.127  17.923  -0.443  1.00  0.00     0.020 C 
HETATM   26  C16 UNL     1      24.839  17.141  -0.470  1.00  0.00     0.004 C 
HETATM   27  C17 UNL     1      23.950  17.730  -1.515  1.00  0.00     0.025 C 
HETATM   28  C18 UNL     1      23.677  19.171  -1.276  1.00  0.00     0.087 C 
BRANCH  28  29
HETATM   29  C19 UNL     1      23.203  19.563   0.067  1.00  0.00     0.051 C 
BRANCH  29  30
HETATM   30  C20 UNL     1      21.894  19.013   0.500  1.00  0.00     0.166 C 
BRANCH  30  31
HETATM   31  O2  UNL     1      21.886  18.135   1.538  1.00  0.00    -0.401 OA
ATOM     32  H2  UNL     1      22.285  17.283   1.403  1.00  0.00     0.209 HD
ENDBRANCH  30  31
ENDBRANCH  29  30
ENDBRANCH  28  29
ENDBRANCH   8  23
BRANCH   1  33
HETATM   33  C2  UNL     1      28.668  23.596  -3.029  1.00  0.00     0.039 C 
HETATM   34  C1  UNL     1      29.354  24.586  -3.963  1.00  0.00     0.010 C 
ENDBRANCH   1  33
TORSDOF 9
ENDMDL
