MODEL 2
REMARK VINA RESULT: -8.441651021      0.951      1.196
REMARK  9 active torsions:
REMARK  status: ('A' for Active; 'I' for Inactive)
REMARK    1  A    between atoms: C2_2  and  C3_3 
REMARK    2  A    between atoms: C5_8  and  N3_9 
REMARK    3  A    between atoms: N3_9  and  C6_11 
REMARK    4  A    between atoms: C6_11  and  C7_12 
REMARK    5  A    between atoms: N4_16  and  O1_17 
REMARK    6  A    between atoms: C13_21  and  N5_22 
REMARK    7  A    between atoms: C18_27  and  C19_28 
REMARK    8  A    between atoms: C19_28  and  C20_29 
REMARK    9  A    between atoms: C20_29  and  O2_30 
ROOT
HETATM    1  C3  UNL     1      19.656  21.943  -2.758  1.00  0.00     0.004 A 
HETATM    2  C4  UNL     1      19.489  23.279  -2.937  1.00  0.00     0.118 A 
HETATM    3  N1  UNL     1      20.676  23.860  -2.707  1.00  0.00    -0.301 N 
ATOM      4  H1  UNL     1      20.847  24.863  -2.768  1.00  0.00     0.186 HD
HETATM    5  N2  UNL     1      21.599  22.959  -2.389  1.00  0.00    -0.224 N 
HETATM    6  C5  UNL     1      22.898  23.030  -2.079  1.00  0.00     0.129 A 
HETATM    7  C12 UNL     1      23.593  21.866  -1.788  1.00  0.00     0.098 A 
HETATM    8  C13 UNL     1      22.989  20.631  -1.807  1.00  0.00     0.108 A 
HETATM    9  N6  UNL     1      21.681  20.618  -2.126  1.00  0.00    -0.327 N 
ATOM     10  H6  UNL     1      21.194  19.723  -2.152  1.00  0.00     0.169 HD
HETATM   11  C21 UNL     1      20.988  21.742  -2.412  1.00  0.00     0.138 A 
ENDROOT
BRANCH   6  12
HETATM   12  N3  UNL     1      23.539  24.289  -2.054  1.00  0.00    -0.370 N 
ATOM     13  H3  UNL     1      23.083  25.097  -2.478  1.00  0.00     0.161 HD
BRANCH  12  14
HETATM   14  C6  UNL     1      24.833  24.441  -1.434  1.00  0.00     0.161 C 
BRANCH  14  15
HETATM   15  C7  UNL     1      25.963  24.369  -2.388  1.00  0.00    -0.023 A 
HETATM   16  C8  UNL     1      27.024  23.513  -2.077  1.00  0.00     0.012 A 
HETATM   17  C9  UNL     1      28.107  23.398  -2.909  1.00  0.00     0.020 A 
HETATM   18  C10 UNL     1      28.125  24.151  -4.068  1.00  0.00     0.122 A 
HETATM   19  N4  UNL     1      27.122  24.971  -4.379  1.00  0.00    -0.247 N 
HETATM   20  C11 UNL     1      26.058  25.079  -3.553  1.00  0.00     0.131 A 
BRANCH  19  21
HETATM   21  O1  UNL     1      27.204  25.693  -5.551  1.00  0.00    -0.284 OA
ATOM     22  H1  UNL     1      27.880  25.464  -6.177  1.00  0.00     0.245 HD
ENDBRANCH  19  21
ENDBRANCH  14  15
ENDBRANCH  12  14
ENDBRANCH   6  12
BRANCH   8  23
HETATM   23  N5  UNL     1      23.698  19.437  -1.505  1.00  0.00    -0.362 N 
HETATM   24  C14 UNL     1      25.129  19.344  -1.692  1.00  0.00     0.125 C 
HETATM   25  C15 UNL     1      25.828  18.410  -0.766  1.00  0.00     0.020 C 
HETATM   26  C16 UNL     1      25.107  17.114  -0.498  1.00  0.00     0.004 C 
HETATM   27  C17 UNL     1      23.850  17.096  -1.305  1.00  0.00     0.025 C 
HETATM   28  C18 UNL     1      22.968  18.253  -1.001  1.00  0.00     0.087 C 
BRANCH  28  29
HETATM   29  C19 UNL     1      22.652  18.516   0.418  1.00  0.00     0.051 C 
BRANCH  29  30
HETATM   30  C20 UNL     1      21.217  18.482   0.799  1.00  0.00     0.166 C 
BRANCH  30  31
HETATM   31  O2  UNL     1      20.301  18.839  -0.142  1.00  0.00    -0.401 OA
ATOM     32  H2  UNL     1      19.420  19.038   0.150  1.00  0.00     0.209 HD
ENDBRANCH  30  31
ENDBRANCH  29  30
ENDBRANCH  28  29
ENDBRANCH   8  23
BRANCH   1  33
HETATM   33  C2  UNL     1      18.607  20.907  -2.908  1.00  0.00     0.039 C 
HETATM   34  C1  UNL     1      17.744  20.876  -1.652  1.00  0.00     0.010 C 
ENDBRANCH   1  33
TORSDOF 9
ENDMDL
