MODEL 3
REMARK VINA RESULT: -8.239079732      0.667      1.084
REMARK  9 active torsions:
REMARK  status: ('A' for Active; 'I' for Inactive)
REMARK    1  A    between atoms: C2_2  and  C3_3 
REMARK    2  A    between atoms: C5_8  and  N3_9 
REMARK    3  A    between atoms: N3_9  and  C6_11 
REMARK    4  A    between atoms: C6_11  and  C7_12 
REMARK    5  A    between atoms: N4_16  and  O1_17 
REMARK    6  A    between atoms: C13_21  and  N5_22 
REMARK    7  A    between atoms: C18_27  and  C19_28 
REMARK    8  A    between atoms: C19_28  and  C20_29 
REMARK    9  A    between atoms: C20_29  and  O2_30 
ROOT
HETATM    1  C3  UNL     1      19.504  21.829  -2.750  1.00  0.00     0.004 A 
HETATM    2  C4  UNL     1      19.291  23.158  -2.929  1.00  0.00     0.118 A 
HETATM    3  N1  UNL     1      20.462  23.778  -2.720  1.00  0.00    -0.301 N 
ATOM      4  H1  UNL     1      20.599  24.787  -2.785  1.00  0.00     0.186 HD
HETATM    5  N2  UNL     1      21.419  22.908  -2.416  1.00  0.00    -0.224 N 
HETATM    6  C5  UNL     1      22.719  23.021  -2.128  1.00  0.00     0.129 A 
HETATM    7  C12 UNL     1      23.456  21.882  -1.847  1.00  0.00     0.098 A 
HETATM    8  C13 UNL     1      22.893  20.628  -1.855  1.00  0.00     0.108 A 
HETATM    9  N6  UNL     1      21.581  20.572  -2.151  1.00  0.00    -0.327 N 
ATOM     10  H6  UNL     1      21.122  19.662  -2.167  1.00  0.00     0.169 HD
HETATM   11  C21 UNL     1      20.847  21.672  -2.427  1.00  0.00     0.138 A 
ENDROOT
BRANCH   6  12
HETATM   12  N3  UNL     1      23.320  24.301  -2.116  1.00  0.00    -0.370 N 
ATOM     13  H3  UNL     1      23.022  24.993  -1.428  1.00  0.00     0.161 HD
BRANCH  12  14
HETATM   14  C6  UNL     1      24.351  24.636  -3.068  1.00  0.00     0.161 C 
BRANCH  14  15
HETATM   15  C7  UNL     1      25.718  24.304  -2.607  1.00  0.00    -0.023 A 
HETATM   16  C8  UNL     1      26.053  24.615  -1.286  1.00  0.00     0.012 A 
HETATM   17  C9  UNL     1      27.302  24.343  -0.790  1.00  0.00     0.020 A 
HETATM   18  C10 UNL     1      28.225  23.750  -1.631  1.00  0.00     0.122 A 
HETATM   19  N4  UNL     1      27.922  23.448  -2.892  1.00  0.00    -0.247 N 
HETATM   20  C11 UNL     1      26.689  23.720  -3.374  1.00  0.00     0.131 A 
BRANCH  19  21
HETATM   21  O1  UNL     1      28.890  22.858  -3.677  1.00  0.00    -0.284 OA
ATOM     22  H1  UNL     1      29.470  23.419  -4.177  1.00  0.00     0.245 HD
ENDBRANCH  19  21
ENDBRANCH  14  15
ENDBRANCH  12  14
ENDBRANCH   6  12
BRANCH   8  23
HETATM   23  N5  UNL     1      23.645  19.458  -1.562  1.00  0.00    -0.362 N 
HETATM   24  C14 UNL     1      25.068  19.395  -1.816  1.00  0.00     0.125 C 
HETATM   25  C15 UNL     1      25.833  18.498  -0.905  1.00  0.00     0.020 C 
HETATM   26  C16 UNL     1      25.158  17.192  -0.577  1.00  0.00     0.004 C 
HETATM   27  C17 UNL     1      23.865  17.127  -1.322  1.00  0.00     0.025 C 
HETATM   28  C18 UNL     1      22.970  18.268  -0.999  1.00  0.00     0.087 C 
BRANCH  28  29
HETATM   29  C19 UNL     1      22.715  18.554   0.427  1.00  0.00     0.051 C 
BRANCH  29  30
HETATM   30  C20 UNL     1      21.296  18.558   0.864  1.00  0.00     0.166 C 
BRANCH  30  31
HETATM   31  O2  UNL     1      20.339  18.723  -0.089  1.00  0.00    -0.401 OA
ATOM     32  H2  UNL     1      20.039  17.953  -0.556  1.00  0.00     0.209 HD
ENDBRANCH  30  31
ENDBRANCH  29  30
ENDBRANCH  28  29
ENDBRANCH   8  23
BRANCH   1  33
HETATM   33  C2  UNL     1      18.486  20.760  -2.881  1.00  0.00     0.039 C 
HETATM   34  C1  UNL     1      17.641  20.709  -1.614  1.00  0.00     0.010 C 
ENDBRANCH   1  33
TORSDOF 9
ENDMDL
