MODEL 5
REMARK VINA RESULT: -7.490934857      3.691      5.104
REMARK  2 active torsions:
REMARK  status: ('A' for Active; 'I' for Inactive)
REMARK    1  A    between atoms: O1_2  and  C2_3 
REMARK    2  A    between atoms: C9_10  and  C10_11 
ROOT
HETATM    1  C2  UNL     1      -8.522 -21.898  23.255  1.00  0.00     0.069 A 
HETATM    2  C3  UNL     1      -8.686 -20.620  22.776  1.00  0.00     0.039 A 
HETATM    3  C4  UNL     1      -7.705 -19.998  22.055  1.00  0.00     0.033 A 
HETATM    4  C5  UNL     1      -6.529 -20.673  21.808  1.00  0.00     0.046 A 
HETATM    5  C6  UNL     1      -6.367 -21.942  22.285  1.00  0.00     0.009 A 
HETATM    6  C7  UNL     1      -7.345 -22.574  23.008  1.00  0.00     0.051 A 
HETATM    7  C8  UNL     1      -5.036 -22.480  21.907  1.00  0.00     0.047 A 
HETATM    8  C9  UNL     1      -4.541 -23.656  22.222  1.00  0.00     0.049 C 
HETATM    9  C13 UNL     1      -4.419 -21.403  21.157  1.00  0.00     0.257 A 
HETATM   10  O2  UNL     1      -3.277 -21.387  20.628  1.00  0.00    -0.267 OA
HETATM   11  N3  UNL     1      -5.346 -20.302  21.104  1.00  0.00    -0.322 N 
ATOM     12  H3  UNL     1      -5.184 -19.408  20.641  1.00  0.00     0.169 HD
ENDROOT
BRANCH   8  13
HETATM   13  C10 UNL     1      -3.236 -24.155  21.831  1.00  0.00     0.049 A 
HETATM   14  C11 UNL     1      -2.096 -24.401  22.566  1.00  0.00     0.118 A 
HETATM   15  N1  UNL     1      -1.172 -24.881  21.724  1.00  0.00    -0.360 N 
HETATM   16  C12 UNL     1      -1.647 -24.959  20.489  1.00  0.00     0.180 A 
ATOM     17  H1  UNL     1      -0.228 -25.152  21.997  1.00  0.00     0.166 HD
HETATM   18  N2  UNL     1      -2.909 -24.515  20.551  1.00  0.00    -0.351 N 
ATOM     19  H2  UNL     1      -3.542 -24.454  19.753  1.00  0.00     0.166 HD
ENDBRANCH   8  13
BRANCH   1  20
HETATM   20  O1  UNL     1      -9.529 -22.533  23.994  1.00  0.00    -0.356 OA
HETATM   21  C1  UNL     1      -9.179 -23.408  25.035  1.00  0.00     0.210 C 
ENDBRANCH   1  20
TORSDOF 2
ENDMDL
