MODEL 1
REMARK VINA RESULT: -8.144352035      0.000      0.000
REMARK  2 active torsions:
REMARK  status: ('A' for Active; 'I' for Inactive)
REMARK    1  A    between atoms: O1_2  and  C2_3 
REMARK    2  A    between atoms: C9_10  and  C10_11 
ROOT
HETATM    1  C2  UNL     1      -7.473 -19.852  21.446  1.00  0.00     0.069 A 
HETATM    2  C3  UNL     1      -8.784 -19.438  21.455  1.00  0.00     0.039 A 
HETATM    3  C4  UNL     1      -9.737 -20.105  22.173  1.00  0.00     0.033 A 
HETATM    4  C5  UNL     1      -9.367 -21.215  22.900  1.00  0.00     0.046 A 
HETATM    5  C6  UNL     1      -8.065 -21.627  22.890  1.00  0.00     0.009 A 
HETATM    6  C7  UNL     1      -7.103 -20.964  22.174  1.00  0.00     0.051 A 
HETATM    7  C8  UNL     1      -7.888 -22.833  23.735  1.00  0.00     0.047 A 
HETATM    8  C9  UNL     1      -6.774 -23.505  23.929  1.00  0.00     0.049 C 
HETATM    9  C13 UNL     1      -9.216 -23.103  24.251  1.00  0.00     0.257 A 
HETATM   10  O2  UNL     1      -9.571 -24.036  25.018  1.00  0.00    -0.267 OA
HETATM   11  N3  UNL     1     -10.113 -22.103  23.730  1.00  0.00    -0.322 N 
ATOM     12  H3  UNL     1     -11.112 -22.041  23.923  1.00  0.00     0.169 HD
ENDROOT
BRANCH   8  13
HETATM   13  C10 UNL     1      -6.633 -24.681  24.767  1.00  0.00     0.049 A 
HETATM   14  C11 UNL     1      -6.315 -25.986  24.461  1.00  0.00     0.118 A 
HETATM   15  N1  UNL     1      -6.291 -26.673  25.611  1.00  0.00    -0.360 N 
HETATM   16  C12 UNL     1      -6.575 -25.889  26.641  1.00  0.00     0.180 A 
ATOM     17  H1  UNL     1      -6.081 -27.669  25.684  1.00  0.00     0.166 HD
HETATM   18  N2  UNL     1      -6.785 -24.670  26.128  1.00  0.00    -0.351 N 
ATOM     19  H2  UNL     1      -7.026 -23.844  26.677  1.00  0.00     0.166 HD
ENDBRANCH   8  13
BRANCH   1  20
HETATM   20  O1  UNL     1      -6.498 -19.166  20.708  1.00  0.00    -0.356 OA
HETATM   21  C1  UNL     1      -5.971 -19.749  19.545  1.00  0.00     0.210 C 
ENDBRANCH   1  20
TORSDOF 2
ENDMDL
