MODEL 10
REMARK VINA RESULT: -7.409702004      1.698      1.803
REMARK  2 active torsions:
REMARK  status: ('A' for Active; 'I' for Inactive)
REMARK    1  A    between atoms: O1_2  and  C2_3 
REMARK    2  A    between atoms: C9_10  and  C10_11 
ROOT
HETATM    1  C2  UNL     1      -8.846 -20.383  21.199  1.00  0.00     0.069 A 
HETATM    2  C3  UNL     1     -10.061 -20.272  21.832  1.00  0.00     0.039 A 
HETATM    3  C4  UNL     1     -10.374 -21.048  22.913  1.00  0.00     0.033 A 
HETATM    4  C5  UNL     1      -9.448 -21.958  23.371  1.00  0.00     0.046 A 
HETATM    5  C6  UNL     1      -8.240 -22.068  22.742  1.00  0.00     0.009 A 
HETATM    6  C7  UNL     1      -7.917 -21.294  21.658  1.00  0.00     0.051 A 
HETATM    7  C8  UNL     1      -7.399 -23.101  23.394  1.00  0.00     0.047 A 
HETATM    8  C9  UNL     1      -6.194 -23.482  23.032  1.00  0.00     0.049 C 
HETATM    9  C13 UNL     1      -8.225 -23.599  24.478  1.00  0.00     0.257 A 
HETATM   10  O2  UNL     1      -7.940 -24.493  25.316  1.00  0.00    -0.267 OA
HETATM   11  N3  UNL     1      -9.478 -22.889  24.451  1.00  0.00    -0.322 N 
ATOM     12  H3  UNL     1     -10.255 -23.028  25.096  1.00  0.00     0.169 HD
ENDROOT
BRANCH   8  13
HETATM   13  C10 UNL     1      -5.393 -24.494  23.697  1.00  0.00     0.049 A 
HETATM   14  C11 UNL     1      -4.767 -25.623  23.215  1.00  0.00     0.118 A 
HETATM   15  N1  UNL     1      -4.135 -26.201  24.245  1.00  0.00    -0.360 N 
HETATM   16  C12 UNL     1      -4.317 -25.514  25.363  1.00  0.00     0.180 A 
ATOM     17  H1  UNL     1      -3.586 -27.058  24.178  1.00  0.00     0.166 HD
HETATM   18  N2  UNL     1      -5.087 -24.469  25.031  1.00  0.00    -0.351 N 
ATOM     19  H2  UNL     1      -5.402 -23.751  25.685  1.00  0.00     0.166 HD
ENDBRANCH   8  13
BRANCH   1  20
HETATM   20  O1  UNL     1      -8.527 -19.586  20.090  1.00  0.00    -0.356 OA
HETATM   21  C1  UNL     1      -9.555 -19.098  19.269  1.00  0.00     0.210 C 
ENDBRANCH   1  20
TORSDOF 2
ENDMDL
