MODEL 3
REMARK VINA RESULT: -7.822189877      1.198      1.213
REMARK  2 active torsions:
REMARK  status: ('A' for Active; 'I' for Inactive)
REMARK    1  A    between atoms: O1_2  and  C2_3 
REMARK    2  A    between atoms: C9_10  and  C10_11 
ROOT
HETATM    1  C2  UNL     1      -7.876 -20.146  20.715  1.00  0.00     0.069 A 
HETATM    2  C3  UNL     1      -9.135 -19.818  21.159  1.00  0.00     0.039 A 
HETATM    3  C4  UNL     1      -9.715 -20.476  22.207  1.00  0.00     0.033 A 
HETATM    4  C5  UNL     1      -9.016 -21.489  22.827  1.00  0.00     0.046 A 
HETATM    5  C6  UNL     1      -7.765 -21.815  22.385  1.00  0.00     0.009 A 
HETATM    6  C7  UNL     1      -7.176 -21.160  21.335  1.00  0.00     0.051 A 
HETATM    7  C8  UNL     1      -7.196 -22.925  23.188  1.00  0.00     0.047 A 
HETATM    8  C9  UNL     1      -6.028 -23.503  23.020  1.00  0.00     0.049 C 
HETATM    9  C13 UNL     1      -8.233 -23.231  24.154  1.00  0.00     0.257 A 
HETATM   10  O2  UNL     1      -8.213 -24.111  25.055  1.00  0.00    -0.267 OA
HETATM   11  N3  UNL     1      -9.343 -22.343  23.921  1.00  0.00    -0.322 N 
ATOM     12  H3  UNL     1     -10.215 -22.327  24.449  1.00  0.00     0.169 HD
ENDROOT
BRANCH   8  13
HETATM   13  C10 UNL     1      -5.497 -24.586  23.828  1.00  0.00     0.049 A 
HETATM   14  C11 UNL     1      -5.214 -25.899  23.520  1.00  0.00     0.118 A 
HETATM   15  N1  UNL     1      -4.716 -26.470  24.625  1.00  0.00    -0.360 N 
HETATM   16  C12 UNL     1      -4.662 -25.605  25.627  1.00  0.00     0.180 A 
ATOM     17  H1  UNL     1      -4.417 -27.444  24.686  1.00  0.00     0.166 HD
HETATM   18  N2  UNL     1      -5.140 -24.451  25.143  1.00  0.00    -0.351 N 
ATOM     19  H2  UNL     1      -5.225 -23.589  25.681  1.00  0.00     0.166 HD
ENDBRANCH   8  13
BRANCH   1  20
HETATM   20  O1  UNL     1      -7.284 -19.469  19.639  1.00  0.00    -0.356 OA
HETATM   21  C1  UNL     1      -5.893 -19.530  19.463  1.00  0.00     0.210 C 
ENDBRANCH   1  20
TORSDOF 2
ENDMDL
