MODEL 8
REMARK VINA RESULT: -7.417248736      3.523      5.524
REMARK  2 active torsions:
REMARK  status: ('A' for Active; 'I' for Inactive)
REMARK    1  A    between atoms: O1_2  and  C2_3 
REMARK    2  A    between atoms: C9_10  and  C10_11 
ROOT
HETATM    1  C2  UNL     1      -9.477 -21.725  22.925  1.00  0.00     0.069 A 
HETATM    2  C3  UNL     1     -10.208 -20.729  22.323  1.00  0.00     0.039 A 
HETATM    3  C4  UNL     1      -9.700 -19.999  21.286  1.00  0.00     0.033 A 
HETATM    4  C5  UNL     1      -8.425 -20.273  20.840  1.00  0.00     0.046 A 
HETATM    5  C6  UNL     1      -7.699 -21.262  21.439  1.00  0.00     0.009 A 
HETATM    6  C7  UNL     1      -8.201 -22.000  22.479  1.00  0.00     0.051 A 
HETATM    7  C8  UNL     1      -6.363 -21.389  20.807  1.00  0.00     0.047 A 
HETATM    8  C9  UNL     1      -5.402 -22.219  21.149  1.00  0.00     0.049 C 
HETATM    9  C13 UNL     1      -6.363 -20.375  19.770  1.00  0.00     0.257 A 
HETATM   10  O2  UNL     1      -5.438 -20.098  18.962  1.00  0.00    -0.267 OA
HETATM   11  N3  UNL     1      -7.634 -19.699  19.802  1.00  0.00    -0.322 N 
ATOM     12  H3  UNL     1      -7.920 -18.938  19.187  1.00  0.00     0.169 HD
ENDROOT
BRANCH   8  13
HETATM   13  C10 UNL     1      -4.106 -22.323  20.505  1.00  0.00     0.049 A 
HETATM   14  C11 UNL     1      -2.846 -21.957  20.929  1.00  0.00     0.118 A 
HETATM   15  N1  UNL     1      -1.985 -22.295  19.960  1.00  0.00    -0.360 N 
HETATM   16  C12 UNL     1      -2.613 -22.856  18.937  1.00  0.00     0.180 A 
ATOM     17  H1  UNL     1      -0.977 -22.142  20.004  1.00  0.00     0.166 HD
HETATM   18  N2  UNL     1      -3.911 -22.874  19.267  1.00  0.00    -0.351 N 
ATOM     19  H2  UNL     1      -4.654 -23.248  18.676  1.00  0.00     0.166 HD
ENDBRANCH   8  13
BRANCH   1  20
HETATM   20  O1  UNL     1     -10.001 -22.472  23.989  1.00  0.00    -0.356 OA
HETATM   21  C1  UNL     1      -9.151 -23.294  24.746  1.00  0.00     0.210 C 
ENDBRANCH   1  20
TORSDOF 2
ENDMDL
