MODEL 7
REMARK VINA RESULT: -7.421390910      3.429      5.280
REMARK  2 active torsions:
REMARK  status: ('A' for Active; 'I' for Inactive)
REMARK    1  A    between atoms: O1_2  and  C2_3 
REMARK    2  A    between atoms: C9_10  and  C10_11 
ROOT
HETATM    1  C2  UNL     1      -9.355 -21.819  23.241  1.00  0.00     0.069 A 
HETATM    2  C3  UNL     1     -10.007 -20.748  22.678  1.00  0.00     0.039 A 
HETATM    3  C4  UNL     1      -9.393 -19.942  21.760  1.00  0.00     0.033 A 
HETATM    4  C5  UNL     1      -8.092 -20.215  21.398  1.00  0.00     0.046 A 
HETATM    5  C6  UNL     1      -7.444 -21.279  21.959  1.00  0.00     0.009 A 
HETATM    6  C7  UNL     1      -8.052 -22.093  22.879  1.00  0.00     0.051 A 
HETATM    7  C8  UNL     1      -6.062 -21.391  21.431  1.00  0.00     0.047 A 
HETATM    8  C9  UNL     1      -5.156 -22.280  21.772  1.00  0.00     0.049 C 
HETATM    9  C13 UNL     1      -5.948 -20.286  20.498  1.00  0.00     0.257 A 
HETATM   10  O2  UNL     1      -4.951 -19.965  19.800  1.00  0.00    -0.267 OA
HETATM   11  N3  UNL     1      -7.200 -19.574  20.489  1.00  0.00    -0.322 N 
ATOM     12  H3  UNL     1      -7.413 -18.751  19.926  1.00  0.00     0.169 HD
ENDROOT
BRANCH   8  13
HETATM   13  C10 UNL     1      -3.812 -22.366  21.232  1.00  0.00     0.049 A 
HETATM   14  C11 UNL     1      -3.236 -23.263  20.359  1.00  0.00     0.118 A 
HETATM   15  N1  UNL     1      -1.969 -22.875  20.164  1.00  0.00    -0.360 N 
HETATM   16  C12 UNL     1      -1.692 -21.781  20.859  1.00  0.00     0.180 A 
ATOM     17  H1  UNL     1      -1.304 -23.357  19.559  1.00  0.00     0.166 HD
HETATM   18  N2  UNL     1      -2.818 -21.467  21.514  1.00  0.00    -0.351 N 
ATOM     19  H2  UNL     1      -2.920 -20.667  22.138  1.00  0.00     0.166 HD
ENDBRANCH   8  13
BRANCH   1  20
HETATM   20  O1  UNL     1      -9.987 -22.643  24.183  1.00  0.00    -0.356 OA
HETATM   21  C1  UNL     1      -9.211 -23.373  25.097  1.00  0.00     0.210 C 
ENDBRANCH   1  20
TORSDOF 2
ENDMDL
