MODEL 4
REMARK VINA RESULT: -7.594400639      0.928      1.006
REMARK  2 active torsions:
REMARK  status: ('A' for Active; 'I' for Inactive)
REMARK    1  A    between atoms: O1_2  and  C2_3 
REMARK    2  A    between atoms: C9_10  and  C10_11 
ROOT
HETATM    1  C2  UNL     1      -6.442 -20.117  21.118  1.00  0.00     0.069 A 
HETATM    2  C3  UNL     1      -7.689 -19.543  21.189  1.00  0.00     0.039 A 
HETATM    3  C4  UNL     1      -8.659 -20.045  22.011  1.00  0.00     0.033 A 
HETATM    4  C5  UNL     1      -8.372 -21.149  22.783  1.00  0.00     0.046 A 
HETATM    5  C6  UNL     1      -7.133 -21.719  22.712  1.00  0.00     0.009 A 
HETATM    6  C7  UNL     1      -6.155 -21.223  21.891  1.00  0.00     0.051 A 
HETATM    7  C8  UNL     1      -7.039 -22.889  23.620  1.00  0.00     0.047 A 
HETATM    8  C9  UNL     1      -6.004 -23.683  23.781  1.00  0.00     0.049 C 
HETATM    9  C13 UNL     1      -8.348 -22.962  24.240  1.00  0.00     0.257 A 
HETATM   10  O2  UNL     1      -8.754 -23.799  25.089  1.00  0.00    -0.267 OA
HETATM   11  N3  UNL     1      -9.155 -21.889  23.717  1.00  0.00    -0.322 N 
ATOM     12  H3  UNL     1     -10.122 -21.692  23.973  1.00  0.00     0.169 HD
ENDROOT
BRANCH   8  13
HETATM   13  C10 UNL     1      -5.943 -24.818  24.683  1.00  0.00     0.049 A 
HETATM   14  C11 UNL     1      -6.536 -26.060  24.626  1.00  0.00     0.118 A 
HETATM   15  N1  UNL     1      -6.130 -26.747  25.702  1.00  0.00    -0.360 N 
HETATM   16  C12 UNL     1      -5.311 -26.022  26.450  1.00  0.00     0.180 A 
ATOM     17  H1  UNL     1      -6.414 -27.703  25.917  1.00  0.00     0.166 HD
HETATM   18  N2  UNL     1      -5.195 -24.841  25.830  1.00  0.00    -0.351 N 
ATOM     19  H2  UNL     1      -4.626 -24.064  26.166  1.00  0.00     0.166 HD
ENDBRANCH   8  13
BRANCH   1  20
HETATM   20  O1  UNL     1      -5.450 -19.600  20.273  1.00  0.00    -0.356 OA
HETATM   21  C1  UNL     1      -5.077 -20.314  19.124  1.00  0.00     0.210 C 
ENDBRANCH   1  20
TORSDOF 2
ENDMDL
