MODEL 2
REMARK VINA RESULT: -8.040926294      0.984      1.061
REMARK  2 active torsions:
REMARK  status: ('A' for Active; 'I' for Inactive)
REMARK    1  A    between atoms: O1_2  and  C2_3 
REMARK    2  A    between atoms: C9_10  and  C10_11 
ROOT
HETATM    1  C2  UNL     1      -8.289 -20.157  20.517  1.00  0.00     0.069 A 
HETATM    2  C3  UNL     1      -9.579 -19.765  20.784  1.00  0.00     0.039 A 
HETATM    3  C4  UNL     1     -10.295 -20.320  21.807  1.00  0.00     0.033 A 
HETATM    4  C5  UNL     1      -9.705 -21.293  22.582  1.00  0.00     0.046 A 
HETATM    5  C6  UNL     1      -8.423 -21.683  22.317  1.00  0.00     0.009 A 
HETATM    6  C7  UNL     1      -7.697 -21.132  21.294  1.00  0.00     0.051 A 
HETATM    7  C8  UNL     1      -7.986 -22.735  23.267  1.00  0.00     0.047 A 
HETATM    8  C9  UNL     1      -6.825 -23.353  23.283  1.00  0.00     0.049 C 
HETATM    9  C13 UNL     1      -9.136 -22.936  24.127  1.00  0.00     0.257 A 
HETATM   10  O2  UNL     1      -9.248 -23.738  25.092  1.00  0.00    -0.267 OA
HETATM   11  N3  UNL     1     -10.182 -22.045  23.696  1.00  0.00    -0.322 N 
ATOM     12  H3  UNL     1     -11.108 -21.966  24.116  1.00  0.00     0.169 HD
ENDROOT
BRANCH   8  13
HETATM   13  C10 UNL     1      -6.426 -24.376  24.231  1.00  0.00     0.049 A 
HETATM   14  C11 UNL     1      -5.355 -24.450  25.095  1.00  0.00     0.118 A 
HETATM   15  N1  UNL     1      -5.466 -25.601  25.772  1.00  0.00    -0.360 N 
HETATM   16  C12 UNL     1      -6.544 -26.273  25.398  1.00  0.00     0.180 A 
ATOM     17  H1  UNL     1      -4.807 -25.917  26.484  1.00  0.00     0.166 HD
HETATM   18  N2  UNL     1      -7.134 -25.526  24.455  1.00  0.00    -0.351 N 
ATOM     19  H2  UNL     1      -7.995 -25.781  23.969  1.00  0.00     0.166 HD
ENDBRANCH   8  13
BRANCH   1  20
HETATM   20  O1  UNL     1      -7.556 -19.586  19.467  1.00  0.00    -0.356 OA
HETATM   21  C1  UNL     1      -6.153 -19.614  19.505  1.00  0.00     0.210 C 
ENDBRANCH   1  20
TORSDOF 2
ENDMDL
