MODEL 8
REMARK VINA RESULT: -8.225063786      5.296      8.577
REMARK  5 active torsions:
REMARK  status: ('A' for Active; 'I' for Inactive)
REMARK    1  A    between atoms: C4_6  and  C5_7 
REMARK    2  A    between atoms: C8_12  and  N3_13 
REMARK    3  A    between atoms: N3_13  and  C9_15 
REMARK    4  A    between atoms: C12_18  and  S1_19 
REMARK    5  A    between atoms: N5_27  and  C16_28 
ROOT
HETATM    1  C5  UNL     1      -1.437 -22.765  21.262  1.00  0.00     0.078 A 
HETATM    2  C6  UNL     1      -0.304 -21.986  21.231  1.00  0.00     0.050 A 
HETATM    3  C7  UNL     1      -0.184 -21.005  20.265  1.00  0.00     0.108 A 
HETATM    4  N2  UNL     1      -1.207 -20.885  19.410  1.00  0.00    -0.202 N 
ATOM      5  H2  UNL     1      -1.127 -20.164  18.693  1.00  0.00     0.183 HD
HETATM    6  C8  UNL     1      -2.309 -21.613  19.407  1.00  0.00     0.683 A 
HETATM    7  N4  UNL     1      -2.391 -22.572  20.377  1.00  0.00    -0.189 N 
ATOM      8  H4  UNL     1      -3.222 -23.160  20.415  1.00  0.00     0.184 HD
ENDROOT
BRANCH   6   9
HETATM    9  N3  UNL     1      -3.398 -21.475  18.487  1.00  0.00    -0.192 N 
ATOM     10  H3  UNL     1      -3.308 -21.934  17.580  1.00  0.00     0.184 HD
BRANCH   9  11
HETATM   11  C9  UNL     1      -4.569 -20.765  18.732  1.00  0.00     0.049 A 
HETATM   12  C10 UNL     1      -4.623 -19.406  18.819  1.00  0.00     0.031 A 
HETATM   13  C11 UNL     1      -5.825 -18.730  19.080  1.00  0.00     0.025 A 
HETATM   14  C12 UNL     1      -6.987 -19.444  19.257  1.00  0.00     0.059 A 
HETATM   15  C14 UNL     1      -6.969 -20.812  19.176  1.00  0.00     0.025 A 
HETATM   16  C15 UNL     1      -5.788 -21.440  18.921  1.00  0.00     0.031 A 
BRANCH  14  17
HETATM   17  S1  UNL     1      -8.499 -18.626  19.584  1.00  0.00     0.171 S 
HETATM   18  C13 UNL     1      -9.724 -19.796  20.133  1.00  0.00     0.167 C 
HETATM   19  O1  UNL     1      -8.976 -17.917  18.333  1.00  0.00    -0.223 OA
HETATM   20  O2  UNL     1      -8.337 -17.574  20.647  1.00  0.00    -0.223 OA
ENDBRANCH  14  17
ENDBRANCH   9  11
ENDBRANCH   6   9
BRANCH   1  21
HETATM   21  C4  UNL     1      -1.594 -23.809  22.269  1.00  0.00     0.079 A 
HETATM   22  C3  UNL     1      -0.493 -24.528  22.759  1.00  0.00     0.121 A 
HETATM   23  N1  UNL     1      -0.991 -25.380  23.643  1.00  0.00    -0.354 N 
HETATM   24  C2  UNL     1      -2.300 -25.231  23.723  1.00  0.00     0.080 A 
ATOM     25  H1  UNL     1      -0.445 -26.051  24.183  1.00  0.00     0.166 HD
HETATM   26  C1  UNL     1      -3.206 -26.003  24.601  1.00  0.00     0.089 C 
HETATM   27  N5  UNL     1      -2.705 -24.255  22.875  1.00  0.00    -0.330 N 
BRANCH  27  28
HETATM   28  C16 UNL     1      -4.061 -23.801  22.675  1.00  0.00     0.083 C 
HETATM   29  C17 UNL     1      -5.093 -24.879  22.730  1.00  0.00     0.032 C 
HETATM   30  C18 UNL     1      -4.439 -22.623  23.542  1.00  0.00     0.032 C 
ENDBRANCH  27  28
ENDBRANCH   1  21
TORSDOF 5
ENDMDL
