MODEL 11
REMARK VINA RESULT: -8.123081004      4.794      6.575
REMARK  5 active torsions:
REMARK  status: ('A' for Active; 'I' for Inactive)
REMARK    1  A    between atoms: C4_6  and  C5_7 
REMARK    2  A    between atoms: C8_12  and  N3_13 
REMARK    3  A    between atoms: N3_13  and  C9_15 
REMARK    4  A    between atoms: C12_18  and  S1_19 
REMARK    5  A    between atoms: N5_27  and  C16_28 
ROOT
HETATM    1  C5  UNL     1      -6.145 -19.978  20.404  1.00  0.00     0.078 A 
HETATM    2  C6  UNL     1      -6.048 -18.636  20.122  1.00  0.00     0.050 A 
HETATM    3  C7  UNL     1      -5.161 -18.211  19.149  1.00  0.00     0.108 A 
HETATM    4  N2  UNL     1      -4.446 -19.164  18.540  1.00  0.00    -0.202 N 
ATOM      5  H2  UNL     1      -3.790 -18.861  17.821  1.00  0.00     0.183 HD
HETATM    6  C8  UNL     1      -4.511 -20.462  18.783  1.00  0.00     0.683 A 
HETATM    7  N4  UNL     1      -5.398 -20.842  19.751  1.00  0.00    -0.189 N 
ATOM      8  H4  UNL     1      -5.483 -21.832  19.975  1.00  0.00     0.184 HD
ENDROOT
BRANCH   6   9
HETATM    9  N3  UNL     1      -3.740 -21.473  18.125  1.00  0.00    -0.192 N 
ATOM     10  H3  UNL     1      -4.214 -22.046  17.426  1.00  0.00     0.184 HD
BRANCH   9  11
HETATM   11  C9  UNL     1      -2.395 -21.738  18.364  1.00  0.00     0.049 A 
HETATM   12  C10 UNL     1      -1.399 -21.435  17.485  1.00  0.00     0.031 A 
HETATM   13  C11 UNL     1      -0.055 -21.731  17.761  1.00  0.00     0.025 A 
HETATM   14  C12 UNL     1       0.281 -22.343  18.946  1.00  0.00     0.059 A 
HETATM   15  C14 UNL     1      -0.696 -22.662  19.853  1.00  0.00     0.025 A 
HETATM   16  C15 UNL     1      -1.990 -22.362  19.558  1.00  0.00     0.031 A 
BRANCH  14  17
HETATM   17  S1  UNL     1       1.949 -22.724  19.316  1.00  0.00     0.171 S 
HETATM   18  C13 UNL     1       2.072 -24.372  19.977  1.00  0.00     0.167 C 
HETATM   19  O1  UNL     1       2.492 -21.719  20.311  1.00  0.00    -0.223 OA
HETATM   20  O2  UNL     1       2.818 -22.638  18.090  1.00  0.00    -0.223 OA
ENDBRANCH  14  17
ENDBRANCH   9  11
ENDBRANCH   6   9
BRANCH   1  21
HETATM   21  C4  UNL     1      -7.070 -20.458  21.425  1.00  0.00     0.079 A 
HETATM   22  C3  UNL     1      -8.430 -20.116  21.401  1.00  0.00     0.121 A 
HETATM   23  N1  UNL     1      -8.964 -20.714  22.457  1.00  0.00    -0.354 N 
HETATM   24  C2  UNL     1      -8.035 -21.384  23.111  1.00  0.00     0.080 A 
ATOM     25  H1  UNL     1      -9.948 -20.663  22.724  1.00  0.00     0.166 HD
HETATM   26  C1  UNL     1      -8.247 -22.179  24.341  1.00  0.00     0.089 C 
HETATM   27  N5  UNL     1      -6.840 -21.243  22.489  1.00  0.00    -0.330 N 
BRANCH  27  28
HETATM   28  C16 UNL     1      -5.585 -21.824  22.900  1.00  0.00     0.083 C 
HETATM   29  C17 UNL     1      -5.163 -23.019  22.108  1.00  0.00     0.032 C 
HETATM   30  C18 UNL     1      -4.464 -20.819  23.030  1.00  0.00     0.032 C 
ENDBRANCH  27  28
ENDBRANCH   1  21
TORSDOF 5
ENDMDL
