MODEL 2
REMARK VINA RESULT: -8.934857462      5.181      8.071
REMARK  5 active torsions:
REMARK  status: ('A' for Active; 'I' for Inactive)
REMARK    1  A    between atoms: C4_6  and  C5_7 
REMARK    2  A    between atoms: C8_12  and  N3_13 
REMARK    3  A    between atoms: N3_13  and  C9_15 
REMARK    4  A    between atoms: C12_18  and  S1_19 
REMARK    5  A    between atoms: N5_27  and  C16_28 
ROOT
HETATM    1  C5  UNL     1      -2.648 -23.406  21.683  1.00  0.00     0.078 A 
HETATM    2  C6  UNL     1      -1.274 -23.367  21.669  1.00  0.00     0.050 A 
HETATM    3  C7  UNL     1      -0.625 -22.767  20.606  1.00  0.00     0.108 A 
HETATM    4  N2  UNL     1      -1.404 -22.257  19.645  1.00  0.00    -0.202 N 
ATOM      5  H2  UNL     1      -0.935 -21.812  18.857  1.00  0.00     0.183 HD
HETATM    6  C8  UNL     1      -2.725 -22.275  19.622  1.00  0.00     0.683 A 
HETATM    7  N4  UNL     1      -3.330 -22.877  20.690  1.00  0.00    -0.189 N 
ATOM      8  H4  UNL     1      -4.348 -22.917  20.718  1.00  0.00     0.184 HD
ENDROOT
BRANCH   6   9
HETATM    9  N3  UNL     1      -3.550 -21.727  18.588  1.00  0.00    -0.192 N 
ATOM     10  H3  UNL     1      -3.287 -21.923  17.622  1.00  0.00     0.184 HD
BRANCH   9  11
HETATM   11  C9  UNL     1      -4.683 -20.945  18.797  1.00  0.00     0.049 A 
HETATM   12  C10 UNL     1      -4.639 -19.613  19.081  1.00  0.00     0.031 A 
HETATM   13  C11 UNL     1      -5.806 -18.865  19.298  1.00  0.00     0.025 A 
HETATM   14  C12 UNL     1      -7.034 -19.478  19.225  1.00  0.00     0.059 A 
HETATM   15  C14 UNL     1      -7.116 -20.817  18.941  1.00  0.00     0.025 A 
HETATM   16  C15 UNL     1      -5.966 -21.517  18.736  1.00  0.00     0.031 A 
BRANCH  14  17
HETATM   17  S1  UNL     1      -8.507 -18.570  19.490  1.00  0.00     0.171 S 
HETATM   18  C13 UNL     1      -9.835 -19.667  19.936  1.00  0.00     0.167 C 
HETATM   19  O1  UNL     1      -8.863 -17.799  18.235  1.00  0.00    -0.223 OA
HETATM   20  O2  UNL     1      -8.337 -17.557  20.591  1.00  0.00    -0.223 OA
ENDBRANCH  14  17
ENDBRANCH   9  11
ENDBRANCH   6   9
BRANCH   1  21
HETATM   21  C4  UNL     1      -3.363 -24.032  22.790  1.00  0.00     0.079 A 
HETATM   22  C3  UNL     1      -2.999 -25.297  23.277  1.00  0.00     0.121 A 
HETATM   23  N1  UNL     1      -3.844 -25.553  24.265  1.00  0.00    -0.354 N 
HETATM   24  C2  UNL     1      -4.685 -24.545  24.409  1.00  0.00     0.080 A 
ATOM     25  H1  UNL     1      -3.846 -26.402  24.831  1.00  0.00     0.166 HD
HETATM   26  C1  UNL     1      -5.772 -24.464  25.409  1.00  0.00     0.089 C 
HETATM   27  N5  UNL     1      -4.407 -23.580  23.501  1.00  0.00    -0.330 N 
BRANCH  27  28
HETATM   28  C16 UNL     1      -5.104 -22.326  23.342  1.00  0.00     0.083 C 
HETATM   29  C17 UNL     1      -4.215 -21.136  23.180  1.00  0.00     0.032 C 
HETATM   30  C18 UNL     1      -6.184 -22.361  22.286  1.00  0.00     0.032 C 
ENDBRANCH  27  28
ENDBRANCH   1  21
TORSDOF 5
ENDMDL
