MODEL 3
REMARK VINA RESULT: -8.887809368      2.448      3.903
REMARK  5 active torsions:
REMARK  status: ('A' for Active; 'I' for Inactive)
REMARK    1  A    between atoms: C4_6  and  C5_7 
REMARK    2  A    between atoms: C8_12  and  N3_13 
REMARK    3  A    between atoms: N3_13  and  C9_15 
REMARK    4  A    between atoms: C12_18  and  S1_19 
REMARK    5  A    between atoms: N5_27  and  C16_28 
ROOT
HETATM    1  C5  UNL     1      -8.459 -20.520  22.087  1.00  0.00     0.078 A 
HETATM    2  C6  UNL     1      -9.819 -20.425  21.909  1.00  0.00     0.050 A 
HETATM    3  C7  UNL     1     -10.659 -21.213  22.674  1.00  0.00     0.108 A 
HETATM    4  N2  UNL     1     -10.068 -22.031  23.553  1.00  0.00    -0.202 N 
ATOM      5  H2  UNL     1     -10.679 -22.617  24.122  1.00  0.00     0.183 HD
HETATM    6  C8  UNL     1      -8.767 -22.151  23.753  1.00  0.00     0.683 A 
HETATM    7  N4  UNL     1      -7.971 -21.356  22.978  1.00  0.00    -0.189 N 
ATOM      8  H4  UNL     1      -6.960 -21.413  23.095  1.00  0.00     0.184 HD
ENDROOT
BRANCH   6   9
HETATM    9  N3  UNL     1      -8.145 -23.030  24.697  1.00  0.00    -0.192 N 
ATOM     10  H3  UNL     1      -8.649 -23.223  25.564  1.00  0.00     0.184 HD
BRANCH   9  11
HETATM   11  C9  UNL     1      -6.908 -23.644  24.526  1.00  0.00     0.049 A 
HETATM   12  C10 UNL     1      -6.298 -23.789  23.316  1.00  0.00     0.031 A 
HETATM   13  C11 UNL     1      -5.054 -24.426  23.187  1.00  0.00     0.025 A 
HETATM   14  C12 UNL     1      -4.422 -24.922  24.302  1.00  0.00     0.059 A 
HETATM   15  C14 UNL     1      -5.006 -24.794  25.535  1.00  0.00     0.025 A 
HETATM   16  C15 UNL     1      -6.213 -24.171  25.629  1.00  0.00     0.031 A 
BRANCH  14  17
HETATM   17  S1  UNL     1      -2.870 -25.721  24.170  1.00  0.00     0.171 S 
HETATM   18  C13 UNL     1      -2.072 -25.781  25.760  1.00  0.00     0.167 C 
HETATM   19  O1  UNL     1      -2.000 -24.982  23.174  1.00  0.00    -0.223 OA
HETATM   20  O2  UNL     1      -3.018 -27.129  23.659  1.00  0.00    -0.223 OA
ENDBRANCH  14  17
ENDBRANCH   9  11
ENDBRANCH   6   9
BRANCH   1  21
HETATM   21  C4  UNL     1      -7.546 -19.702  21.295  1.00  0.00     0.079 A 
HETATM   22  C3  UNL     1      -7.659 -18.304  21.258  1.00  0.00     0.121 A 
HETATM   23  N1  UNL     1      -6.687 -17.892  20.456  1.00  0.00    -0.354 N 
HETATM   24  C2  UNL     1      -6.002 -18.928  20.011  1.00  0.00     0.080 A 
ATOM     25  H1  UNL     1      -6.496 -16.918  20.219  1.00  0.00     0.166 HD
HETATM   26  C1  UNL     1      -4.843 -18.869  19.094  1.00  0.00     0.089 C 
HETATM   27  N5  UNL     1      -6.517 -20.074  20.519  1.00  0.00    -0.330 N 
BRANCH  27  28
HETATM   28  C16 UNL     1      -6.042 -21.413  20.266  1.00  0.00     0.083 C 
HETATM   29  C17 UNL     1      -6.225 -21.883  18.860  1.00  0.00     0.032 C 
HETATM   30  C18 UNL     1      -4.636 -21.661  20.758  1.00  0.00     0.032 C 
ENDBRANCH  27  28
ENDBRANCH   1  21
TORSDOF 5
ENDMDL
