MODEL 4
REMARK VINA RESULT: -9.025633845      5.131      7.528
REMARK  5 active torsions:
REMARK  status: ('A' for Active; 'I' for Inactive)
REMARK    1  A    between atoms: C4_6  and  C5_7 
REMARK    2  A    between atoms: C8_12  and  N3_13 
REMARK    3  A    between atoms: N3_13  and  C9_15 
REMARK    4  A    between atoms: C12_18  and  S1_19 
REMARK    5  A    between atoms: N5_27  and  C16_28 
ROOT
HETATM    1  C5  UNL     1       1.020 -12.143 -24.307  1.00  0.00     0.078 A 
HETATM    2  C6  UNL     1       1.919 -12.982 -24.922  1.00  0.00     0.050 A 
HETATM    3  C7  UNL     1       2.871 -12.449 -25.771  1.00  0.00     0.108 A 
HETATM    4  N2  UNL     1       2.845 -11.121 -25.933  1.00  0.00    -0.202 N 
ATOM      5  H2  UNL     1       3.544 -10.718 -26.557  1.00  0.00     0.183 HD
HETATM    6  C8  UNL     1       2.000 -10.282 -25.360  1.00  0.00     0.683 A 
HETATM    7  N4  UNL     1       1.074 -10.847 -24.529  1.00  0.00    -0.189 N 
ATOM      8  H4  UNL     1       0.398 -10.242 -24.064  1.00  0.00     0.184 HD
ENDROOT
BRANCH   6   9
HETATM    9  N3  UNL     1       1.981  -8.862 -25.541  1.00  0.00    -0.192 N 
ATOM     10  H3  UNL     1       2.880  -8.382 -25.590  1.00  0.00     0.184 HD
BRANCH   9  11
HETATM   11  C9  UNL     1       0.833  -8.084 -25.656  1.00  0.00     0.049 A 
HETATM   12  C10 UNL     1       0.144  -7.922 -26.820  1.00  0.00     0.031 A 
HETATM   13  C11 UNL     1      -1.004  -7.117 -26.893  1.00  0.00     0.025 A 
HETATM   14  C12 UNL     1      -1.457  -6.468 -25.770  1.00  0.00     0.059 A 
HETATM   15  C14 UNL     1      -0.788  -6.609 -24.581  1.00  0.00     0.025 A 
HETATM   16  C15 UNL     1       0.322  -7.396 -24.540  1.00  0.00     0.031 A 
BRANCH  14  17
HETATM   17  S1  UNL     1      -2.885  -5.459 -25.833  1.00  0.00     0.171 S 
HETATM   18  C13 UNL     1      -2.428  -3.740 -25.750  1.00  0.00     0.167 C 
HETATM   19  O1  UNL     1      -3.809  -5.811 -24.685  1.00  0.00    -0.223 OA
HETATM   20  O2  UNL     1      -3.662  -5.683 -27.103  1.00  0.00    -0.223 OA
ENDBRANCH  14  17
ENDBRANCH   9  11
ENDBRANCH   6   9
BRANCH   1  21
HETATM   21  C4  UNL     1       0.003 -12.675 -23.406  1.00  0.00     0.079 A 
HETATM   22  C3  UNL     1      -0.245 -14.052 -23.311  1.00  0.00     0.121 A 
HETATM   23  N1  UNL     1      -1.213 -14.177 -22.415  1.00  0.00    -0.354 N 
HETATM   24  C2  UNL     1      -1.566 -12.987 -21.966  1.00  0.00     0.080 A 
ATOM     25  H1  UNL     1      -1.625 -15.061 -22.116  1.00  0.00     0.166 HD
HETATM   26  C1  UNL     1      -2.614 -12.719 -20.957  1.00  0.00     0.089 C 
HETATM   27  N5  UNL     1      -0.822 -12.028 -22.568  1.00  0.00    -0.330 N 
BRANCH  27  28
HETATM   28  C16 UNL     1      -0.912 -10.605 -22.343  1.00  0.00     0.083 C 
HETATM   29  C17 UNL     1      -2.054  -9.936 -23.037  1.00  0.00     0.032 C 
HETATM   30  C18 UNL     1      -0.841 -10.216 -20.886  1.00  0.00     0.032 C 
ENDBRANCH  27  28
ENDBRANCH   1  21
TORSDOF 5
ENDMDL
