MODEL 7
REMARK VINA RESULT: -8.907167089      4.498      7.213
REMARK  5 active torsions:
REMARK  status: ('A' for Active; 'I' for Inactive)
REMARK    1  A    between atoms: C4_6  and  C5_7 
REMARK    2  A    between atoms: C8_12  and  N3_13 
REMARK    3  A    between atoms: N3_13  and  C9_15 
REMARK    4  A    between atoms: C12_18  and  S1_19 
REMARK    5  A    between atoms: N5_27  and  C16_28 
ROOT
HETATM    1  C5  UNL     1      -1.463  -6.620 -25.883  1.00  0.00     0.078 A 
HETATM    2  C6  UNL     1      -2.833  -6.552 -25.786  1.00  0.00     0.050 A 
HETATM    3  C7  UNL     1      -3.479  -7.282 -24.806  1.00  0.00     0.108 A 
HETATM    4  N2  UNL     1      -2.701  -8.019 -24.004  1.00  0.00    -0.202 N 
ATOM      5  H2  UNL     1      -3.169  -8.561 -23.278  1.00  0.00     0.183 HD
HETATM    6  C8  UNL     1      -1.385  -8.111 -24.065  1.00  0.00     0.683 A 
HETATM    7  N4  UNL     1      -0.783  -7.376 -25.047  1.00  0.00    -0.189 N 
ATOM      8  H4  UNL     1       0.232  -7.414 -25.136  1.00  0.00     0.184 HD
ENDROOT
BRANCH   6   9
HETATM    9  N3  UNL     1      -0.562  -8.904 -23.202  1.00  0.00    -0.192 N 
ATOM     10  H3  UNL     1       0.384  -8.570 -23.016  1.00  0.00     0.184 HD
BRANCH   9  11
HETATM   11  C9  UNL     1      -0.952 -10.095 -22.596  1.00  0.00     0.049 A 
HETATM   12  C10 UNL     1      -0.441 -11.313 -22.929  1.00  0.00     0.031 A 
HETATM   13  C11 UNL     1      -0.872 -12.492 -22.300  1.00  0.00     0.025 A 
HETATM   14  C12 UNL     1      -1.835 -12.431 -21.321  1.00  0.00     0.059 A 
HETATM   15  C14 UNL     1      -2.371 -11.222 -20.960  1.00  0.00     0.025 A 
HETATM   16  C15 UNL     1      -1.933 -10.096 -21.588  1.00  0.00     0.031 A 
BRANCH  14  17
HETATM   17  S1  UNL     1      -2.391 -13.885 -20.521  1.00  0.00     0.171 S 
HETATM   18  C13 UNL     1      -2.237 -15.285 -21.610  1.00  0.00     0.167 C 
HETATM   19  O1  UNL     1      -3.833 -13.711 -20.093  1.00  0.00    -0.223 OA
HETATM   20  O2  UNL     1      -1.596 -14.165 -19.273  1.00  0.00    -0.223 OA
ENDBRANCH  14  17
ENDBRANCH   9  11
ENDBRANCH   6   9
BRANCH   1  21
HETATM   21  C4  UNL     1      -0.751  -5.862 -26.907  1.00  0.00     0.079 A 
HETATM   22  C3  UNL     1      -1.030  -4.508 -27.143  1.00  0.00     0.121 A 
HETATM   23  N1  UNL     1      -0.214  -4.144 -28.122  1.00  0.00    -0.354 N 
HETATM   24  C2  UNL     1       0.531  -5.170 -28.491  1.00  0.00     0.080 A 
ATOM     25  H1  UNL     1      -0.167  -3.210 -28.530  1.00  0.00     0.166 HD
HETATM   26  C1  UNL     1       1.560  -5.153 -29.553  1.00  0.00     0.089 C 
HETATM   27  N5  UNL     1       0.217  -6.258 -27.748  1.00  0.00    -0.330 N 
BRANCH  27  28
HETATM   28  C16 UNL     1       0.811  -7.569 -27.853  1.00  0.00     0.083 C 
HETATM   29  C17 UNL     1       1.987  -7.793 -26.958  1.00  0.00     0.032 C 
HETATM   30  C18 UNL     1      -0.188  -8.698 -27.752  1.00  0.00     0.032 C 
ENDBRANCH  27  28
ENDBRANCH   1  21
TORSDOF 5
ENDMDL
