MODEL 5
REMARK VINA RESULT: -8.974527205      4.821      6.969
REMARK  5 active torsions:
REMARK  status: ('A' for Active; 'I' for Inactive)
REMARK    1  A    between atoms: C4_6  and  C5_7 
REMARK    2  A    between atoms: C8_12  and  N3_13 
REMARK    3  A    between atoms: N3_13  and  C9_15 
REMARK    4  A    between atoms: C12_18  and  S1_19 
REMARK    5  A    between atoms: N5_27  and  C16_28 
ROOT
HETATM    1  C5  UNL     1       0.778  -8.457 -26.295  1.00  0.00     0.078 A 
HETATM    2  C6  UNL     1       2.118  -8.167 -26.198  1.00  0.00     0.050 A 
HETATM    3  C7  UNL     1       3.005  -9.171 -25.853  1.00  0.00     0.108 A 
HETATM    4  N2  UNL     1       2.476 -10.381 -25.634  1.00  0.00    -0.202 N 
ATOM      5  H2  UNL     1       3.121 -11.128 -25.380  1.00  0.00     0.183 HD
HETATM    6  C8  UNL     1       1.196 -10.698 -25.717  1.00  0.00     0.683 A 
HETATM    7  N4  UNL     1       0.352  -9.679 -26.060  1.00  0.00    -0.189 N 
ATOM      8  H4  UNL     1      -0.646  -9.874 -26.136  1.00  0.00     0.184 HD
ENDROOT
BRANCH   6   9
HETATM    9  N3  UNL     1       0.641 -11.996 -25.481  1.00  0.00    -0.192 N 
ATOM     10  H3  UNL     1       0.722 -12.686 -26.228  1.00  0.00     0.184 HD
BRANCH   9  11
HETATM   11  C9  UNL     1      -0.001 -12.392 -24.310  1.00  0.00     0.049 A 
HETATM   12  C10 UNL     1      -0.143 -11.589 -23.219  1.00  0.00     0.031 A 
HETATM   13  C11 UNL     1      -0.787 -12.033 -22.054  1.00  0.00     0.025 A 
HETATM   14  C12 UNL     1      -1.292 -13.310 -21.996  1.00  0.00     0.059 A 
HETATM   15  C14 UNL     1      -1.166 -14.146 -23.076  1.00  0.00     0.025 A 
HETATM   16  C15 UNL     1      -0.537 -13.687 -24.192  1.00  0.00     0.031 A 
BRANCH  14  17
HETATM   17  S1  UNL     1      -2.099 -13.891 -20.556  1.00  0.00     0.171 S 
HETATM   18  C13 UNL     1      -2.608 -15.582 -20.774  1.00  0.00     0.167 C 
HETATM   19  O1  UNL     1      -3.300 -13.017 -20.258  1.00  0.00    -0.223 OA
HETATM   20  O2  UNL     1      -1.198 -13.817 -19.353  1.00  0.00    -0.223 OA
ENDBRANCH  14  17
ENDBRANCH   9  11
ENDBRANCH   6   9
BRANCH   1  21
HETATM   21  C4  UNL     1      -0.183  -7.419 -26.656  1.00  0.00     0.079 A 
HETATM   22  C3  UNL     1      -0.114  -6.754 -27.890  1.00  0.00     0.121 A 
HETATM   23  N1  UNL     1      -1.122  -5.893 -27.883  1.00  0.00    -0.354 N 
HETATM   24  C2  UNL     1      -1.787  -5.988 -26.747  1.00  0.00     0.080 A 
ATOM     25  H1  UNL     1      -1.350  -5.252 -28.643  1.00  0.00     0.166 HD
HETATM   26  C1  UNL     1      -2.974  -5.189 -26.371  1.00  0.00     0.089 C 
HETATM   27  N5  UNL     1      -1.222  -6.934 -25.960  1.00  0.00    -0.330 N 
BRANCH  27  28
HETATM   28  C16 UNL     1      -1.662  -7.329 -24.643  1.00  0.00     0.083 C 
HETATM   29  C17 UNL     1      -2.443  -8.602 -24.603  1.00  0.00     0.032 C 
HETATM   30  C18 UNL     1      -0.561  -7.319 -23.608  1.00  0.00     0.032 C 
ENDBRANCH  27  28
ENDBRANCH   1  21
TORSDOF 5
ENDMDL
