MODEL 1
REMARK VINA RESULT: -9.230103325      0.000      0.000
REMARK  5 active torsions:
REMARK  status: ('A' for Active; 'I' for Inactive)
REMARK    1  A    between atoms: C4_6  and  C5_7 
REMARK    2  A    between atoms: C8_12  and  N3_13 
REMARK    3  A    between atoms: N3_13  and  C9_15 
REMARK    4  A    between atoms: C12_18  and  S1_19 
REMARK    5  A    between atoms: N5_27  and  C16_28 
ROOT
HETATM    1  C5  UNL     1      -0.845  -5.002 -27.491  1.00  0.00     0.078 A 
HETATM    2  C6  UNL     1      -0.940  -3.631 -27.533  1.00  0.00     0.050 A 
HETATM    3  C7  UNL     1      -0.042  -2.914 -28.302  1.00  0.00     0.108 A 
HETATM    4  N2  UNL     1       0.876  -3.628 -28.965  1.00  0.00    -0.202 N 
ATOM      5  H2  UNL     1       1.543  -3.108 -29.535  1.00  0.00     0.183 HD
HETATM    6  C8  UNL     1       0.999  -4.943 -28.950  1.00  0.00     0.683 A 
HETATM    7  N4  UNL     1       0.094  -5.617 -28.178  1.00  0.00    -0.189 N 
ATOM      8  H4  UNL     1       0.149  -6.633 -28.134  1.00  0.00     0.184 HD
ENDROOT
BRANCH   6   9
HETATM    9  N3  UNL     1       1.986  -5.697 -29.663  1.00  0.00    -0.192 N 
ATOM     10  H3  UNL     1       2.268  -5.353 -30.582  1.00  0.00     0.184 HD
BRANCH   9  11
HETATM   11  C9  UNL     1       2.590  -6.863 -29.203  1.00  0.00     0.049 A 
HETATM   12  C10 UNL     1       2.456  -7.331 -27.930  1.00  0.00     0.031 A 
HETATM   13  C11 UNL     1       3.095  -8.506 -27.503  1.00  0.00     0.025 A 
HETATM   14  C12 UNL     1       3.880  -9.214 -28.381  1.00  0.00     0.059 A 
HETATM   15  C14 UNL     1       4.037  -8.773 -29.670  1.00  0.00     0.025 A 
HETATM   16  C15 UNL     1       3.406  -7.630 -30.054  1.00  0.00     0.031 A 
BRANCH  14  17
HETATM   17  S1  UNL     1       4.688 -10.683 -27.876  1.00  0.00     0.171 S 
HETATM   18  C13 UNL     1       4.776 -11.834 -29.231  1.00  0.00     0.167 C 
HETATM   19  O1  UNL     1       3.941 -11.300 -26.712  1.00  0.00    -0.223 OA
HETATM   20  O2  UNL     1       6.087 -10.404 -27.397  1.00  0.00    -0.223 OA
ENDBRANCH  14  17
ENDBRANCH   9  11
ENDBRANCH   6   9
BRANCH   1  21
HETATM   21  C4  UNL     1      -1.777  -5.788 -26.689  1.00  0.00     0.079 A 
HETATM   22  C3  UNL     1      -3.160  -5.561 -26.740  1.00  0.00     0.121 A 
HETATM   23  N1  UNL     1      -3.694  -6.437 -25.900  1.00  0.00    -0.354 N 
HETATM   24  C2  UNL     1      -2.743  -7.170 -25.352  1.00  0.00     0.080 A 
ATOM     25  H1  UNL     1      -4.691  -6.532 -25.707  1.00  0.00     0.166 HD
HETATM   26  C1  UNL     1      -2.948  -8.253 -24.365  1.00  0.00     0.089 C 
HETATM   27  N5  UNL     1      -1.534  -6.786 -25.826  1.00  0.00    -0.330 N 
BRANCH  27  28
HETATM   28  C16 UNL     1      -0.253  -7.348 -25.466  1.00  0.00     0.083 C 
HETATM   29  C17 UNL     1       0.240  -6.954 -24.112  1.00  0.00     0.032 C 
HETATM   30  C18 UNL     1      -0.165  -8.841 -25.678  1.00  0.00     0.032 C 
ENDBRANCH  27  28
ENDBRANCH   1  21
TORSDOF 5
ENDMDL
