MODEL 5
REMARK VINA RESULT: -8.930259118      1.254      1.757
REMARK  6 active torsions:
REMARK  status: ('A' for Active; 'I' for Inactive)
REMARK    1  A    between atoms: C2_2  and  N1_3 
REMARK    2  A    between atoms: C5_8  and  N3_9 
REMARK    3  A    between atoms: N3_9  and  C6_11 
REMARK    4  A    between atoms: C12_20  and  N5_21 
REMARK    5  A    between atoms: N5_21  and  C13_23 
REMARK    6  A    between atoms: C18_28  and  N6_29 
ROOT
HETATM    1  N1  UNL     1      14.544   3.418  -7.513  1.00  0.00    -0.327 N 
HETATM    2  C3  UNL     1      15.070   2.674  -8.493  1.00  0.00     0.185 A 
HETATM    3  N2  UNL     1      15.193   3.431  -9.587  1.00  0.00    -0.346 N 
ATOM      4  H2  UNL     1      15.567   3.116 -10.482  1.00  0.00     0.167 HD
HETATM    5  C4  UNL     1      14.751   4.658  -9.327  1.00  0.00     0.123 A 
HETATM    6  C5  UNL     1      14.651   5.836 -10.102  1.00  0.00     0.152 A 
HETATM    7  N4  UNL     1      14.143   6.876  -9.455  1.00  0.00    -0.174 N 
ATOM      8  H4  UNL     1      14.057   7.743  -9.985  1.00  0.00     0.186 HD
HETATM    9  C12 UNL     1      13.736   6.912  -8.199  1.00  0.00     0.685 A 
HETATM   10  N7  UNL     1      13.832   5.768  -7.443  1.00  0.00    -0.174 N 
ATOM     11  H7  UNL     1      13.529   5.755  -6.470  1.00  0.00     0.186 HD
HETATM   12  C19 UNL     1      14.336   4.672  -8.021  1.00  0.00     0.155 A 
ENDROOT
BRANCH   9  13
HETATM   13  N5  UNL     1      13.189   8.079  -7.610  1.00  0.00    -0.197 N 
ATOM     14  H5  UNL     1      13.839   8.623  -7.043  1.00  0.00     0.183 HD
BRANCH  13  15
HETATM   15  C13 UNL     1      11.875   8.604  -7.688  1.00  0.00     0.034 C 
HETATM   16  C14 UNL     1      11.017   8.399  -6.479  1.00  0.00     0.055 C 
HETATM   17  C15 UNL     1       9.826   9.304  -6.495  1.00  0.00     0.006 C 
HETATM   18  C16 UNL     1       9.071   9.286  -7.795  1.00  0.00     0.003 C 
HETATM   19  C17 UNL     1       9.951   9.368  -8.996  1.00  0.00     0.039 C 
HETATM   20  C18 UNL     1      11.134   8.429  -8.956  1.00  0.00     0.229 C 
BRANCH  20  21
HETATM   21  N6  UNL     1      10.822   7.114  -9.384  1.00  0.00    -0.070 N 
ATOM     22  H63 UNL     1      10.950   7.056 -10.395  1.00  0.00     0.275 HD
ATOM     23  H62 UNL     1      11.549   6.478  -9.057  1.00  0.00     0.275 HD
ATOM     24  H61 UNL     1       9.910   6.724  -9.143  1.00  0.00     0.275 HD
ENDBRANCH  20  21
ENDBRANCH  13  15
ENDBRANCH   9  13
BRANCH   6  25
HETATM   25  N3  UNL     1      15.067   5.748 -11.431  1.00  0.00    -0.340 N 
ATOM     26  H3  UNL     1      15.102   4.825 -11.864  1.00  0.00     0.167 HD
BRANCH  25  27
HETATM   27  C6  UNL     1      15.440   6.862 -12.210  1.00  0.00     0.035 A 
HETATM   28  C7  UNL     1      16.727   7.173 -12.584  1.00  0.00     0.029 A 
HETATM   29  C8  UNL     1      16.969   8.311 -13.335  1.00  0.00     0.004 A 
HETATM   30  C9  UNL     1      15.945   9.135 -13.712  1.00  0.00     0.024 A 
HETATM   31  C10 UNL     1      14.671   8.816 -13.334  1.00  0.00     0.036 A 
HETATM   32 CL1  UNL     1      13.339   9.868 -13.810  1.00  0.00    -0.084 Cl
HETATM   33  C11 UNL     1      14.391   7.711 -12.599  1.00  0.00     0.053 A 
ENDBRANCH  25  27
ENDBRANCH   6  25
BRANCH   1  34
HETATM   34  C2  UNL     1      14.232   3.010  -6.146  1.00  0.00     0.127 C 
HETATM   35  C1  UNL     1      15.461   2.727  -5.340  1.00  0.00     0.027 C 
ENDBRANCH   1  34
TORSDOF 6
ENDMDL
