MODEL 7
REMARK VINA RESULT: -8.916682850      3.234      7.252
REMARK  6 active torsions:
REMARK  status: ('A' for Active; 'I' for Inactive)
REMARK    1  A    between atoms: C2_2  and  N1_3 
REMARK    2  A    between atoms: C5_8  and  N3_9 
REMARK    3  A    between atoms: N3_9  and  C6_11 
REMARK    4  A    between atoms: C12_20  and  N5_21 
REMARK    5  A    between atoms: N5_21  and  C13_23 
REMARK    6  A    between atoms: C18_28  and  N6_29 
ROOT
HETATM    1  N1  UNL     1      12.362   7.788  -8.338  1.00  0.00    -0.327 N 
HETATM    2  C3  UNL     1      11.189   7.885  -7.704  1.00  0.00     0.185 A 
HETATM    3  N2  UNL     1      10.344   8.581  -8.470  1.00  0.00    -0.346 N 
ATOM      4  H2  UNL     1       9.378   8.804  -8.230  1.00  0.00     0.167 HD
HETATM    5  C4  UNL     1      10.958   8.936  -9.595  1.00  0.00     0.123 A 
HETATM    6  C5  UNL     1      10.548   9.666 -10.734  1.00  0.00     0.152 A 
HETATM    7  N4  UNL     1      11.484   9.805 -11.663  1.00  0.00    -0.174 N 
ATOM      8  H4  UNL     1      11.222  10.326 -12.499  1.00  0.00     0.186 HD
HETATM    9  C12 UNL     1      12.721   9.341 -11.623  1.00  0.00     0.685 A 
HETATM   10  N7  UNL     1      13.122   8.631 -10.516  1.00  0.00    -0.174 N 
ATOM     11  H7  UNL     1      14.068   8.257 -10.448  1.00  0.00     0.186 HD
HETATM   12  C19 UNL     1      12.236   8.445  -9.532  1.00  0.00     0.155 A 
ENDROOT
BRANCH   9  13
HETATM   13  N5  UNL     1      13.650   9.564 -12.669  1.00  0.00    -0.197 N 
ATOM     14  H5  UNL     1      13.751  10.537 -12.959  1.00  0.00     0.183 HD
BRANCH  13  15
HETATM   15  C13 UNL     1      14.462   8.640 -13.373  1.00  0.00     0.034 C 
HETATM   16  C14 UNL     1      15.924   8.684 -13.059  1.00  0.00     0.055 C 
HETATM   17  C15 UNL     1      16.622   7.448 -13.532  1.00  0.00     0.006 C 
HETATM   18  C16 UNL     1      16.309   7.086 -14.957  1.00  0.00     0.003 C 
HETATM   19  C17 UNL     1      14.857   7.166 -15.287  1.00  0.00     0.039 C 
HETATM   20  C18 UNL     1      14.188   8.433 -14.811  1.00  0.00     0.229 C 
BRANCH  20  21
HETATM   21  N6  UNL     1      14.358   9.526 -15.698  1.00  0.00    -0.070 N 
ATOM     22  H63 UNL     1      14.435  10.385 -15.154  1.00  0.00     0.275 HD
ATOM     23  H62 UNL     1      15.287   9.472 -16.115  1.00  0.00     0.275 HD
ATOM     24  H61 UNL     1      13.671   9.664 -16.440  1.00  0.00     0.275 HD
ENDBRANCH  20  21
ENDBRANCH  13  15
ENDBRANCH   9  13
BRANCH   6  25
HETATM   25  N3  UNL     1       9.243  10.161 -10.725  1.00  0.00    -0.340 N 
ATOM     26  H3  UNL     1       8.512   9.595 -11.155  1.00  0.00     0.167 HD
BRANCH  25  27
HETATM   27  C6  UNL     1       8.879  11.398 -10.156  1.00  0.00     0.035 A 
HETATM   28  C7  UNL     1       9.312  12.629 -10.590  1.00  0.00     0.029 A 
HETATM   29  C8  UNL     1       8.899  13.775  -9.933  1.00  0.00     0.004 A 
HETATM   30  C9  UNL     1       8.062  13.702  -8.852  1.00  0.00     0.024 A 
HETATM   31  C10 UNL     1       7.639  12.473  -8.430  1.00  0.00     0.036 A 
HETATM   32 CL1  UNL     1       6.561  12.361  -7.040  1.00  0.00    -0.084 Cl
HETATM   33  C11 UNL     1       8.020  11.327  -9.047  1.00  0.00     0.053 A 
ENDBRANCH  25  27
ENDBRANCH   6  25
BRANCH   1  34
HETATM   34  C2  UNL     1      13.576   7.118  -7.880  1.00  0.00     0.127 C 
HETATM   35  C1  UNL     1      13.391   5.640  -7.730  1.00  0.00     0.027 C 
ENDBRANCH   1  34
TORSDOF 6
ENDMDL
