MODEL 4
REMARK VINA RESULT: -8.949403622      3.507      7.550
REMARK  6 active torsions:
REMARK  status: ('A' for Active; 'I' for Inactive)
REMARK    1  A    between atoms: C2_2  and  N1_3 
REMARK    2  A    between atoms: C5_8  and  N3_9 
REMARK    3  A    between atoms: N3_9  and  C6_11 
REMARK    4  A    between atoms: C12_20  and  N5_21 
REMARK    5  A    between atoms: N5_21  and  C13_23 
REMARK    6  A    between atoms: C18_28  and  N6_29 
ROOT
HETATM    1  N1  UNL     1      13.221   9.675 -13.037  1.00  0.00    -0.327 N 
HETATM    2  C3  UNL     1      12.519  10.607 -13.691  1.00  0.00     0.185 A 
HETATM    3  N2  UNL     1      11.354  10.786 -13.062  1.00  0.00    -0.346 N 
ATOM      4  H2  UNL     1      10.625  11.441 -13.347  1.00  0.00     0.167 HD
HETATM    5  C4  UNL     1      11.293   9.978 -12.008  1.00  0.00     0.123 A 
HETATM    6  C5  UNL     1      10.313   9.757 -11.013  1.00  0.00     0.152 A 
HETATM    7  N4  UNL     1      10.644   8.842 -10.111  1.00  0.00    -0.174 N 
ATOM      8  H4  UNL     1       9.960   8.658  -9.378  1.00  0.00     0.186 HD
HETATM    9  C12 UNL     1      11.765   8.144 -10.060  1.00  0.00     0.685 A 
HETATM   10  N7  UNL     1      12.719   8.358 -11.026  1.00  0.00    -0.174 N 
ATOM     11  H7  UNL     1      13.597   7.839 -11.020  1.00  0.00     0.186 HD
HETATM   12  C19 UNL     1      12.463   9.266 -11.973  1.00  0.00     0.155 A 
ENDROOT
BRANCH   9  13
HETATM   13  N5  UNL     1      12.010   7.173  -9.057  1.00  0.00    -0.197 N 
ATOM     14  H5  UNL     1      12.238   6.241  -9.403  1.00  0.00     0.183 HD
BRANCH  13  15
HETATM   15  C13 UNL     1      11.986   7.301  -7.646  1.00  0.00     0.034 C 
HETATM   16  C14 UNL     1      12.742   8.462  -7.082  1.00  0.00     0.055 C 
HETATM   17  C15 UNL     1      12.343   8.740  -5.667  1.00  0.00     0.006 C 
HETATM   18  C16 UNL     1      12.345   7.520  -4.789  1.00  0.00     0.003 C 
HETATM   19  C17 UNL     1      11.694   6.333  -5.415  1.00  0.00     0.039 C 
HETATM   20  C18 UNL     1      12.132   6.072  -6.837  1.00  0.00     0.229 C 
BRANCH  20  21
HETATM   21  N6  UNL     1      13.344   5.341  -6.925  1.00  0.00    -0.070 N 
ATOM     22  H63 UNL     1      13.145   4.352  -6.776  1.00  0.00     0.275 HD
ATOM     23  H62 UNL     1      13.657   5.335  -7.896  1.00  0.00     0.275 HD
ATOM     24  H61 UNL     1      14.125   5.616  -6.329  1.00  0.00     0.275 HD
ENDBRANCH  20  21
ENDBRANCH  13  15
ENDBRANCH   9  13
BRANCH   6  25
HETATM   25  N3  UNL     1       9.134  10.495 -11.119  1.00  0.00    -0.340 N 
ATOM     26  H3  UNL     1       8.445  10.202 -11.812  1.00  0.00     0.167 HD
BRANCH  25  27
HETATM   27  C6  UNL     1       8.840  11.621 -10.324  1.00  0.00     0.035 A 
HETATM   28  C7  UNL     1       9.252  12.907 -10.588  1.00  0.00     0.029 A 
HETATM   29  C8  UNL     1       8.916  13.929  -9.716  1.00  0.00     0.004 A 
HETATM   30  C9  UNL     1       8.177  13.679  -8.592  1.00  0.00     0.024 A 
HETATM   31  C10 UNL     1       7.774  12.397  -8.341  1.00  0.00     0.036 A 
HETATM   32 CL1  UNL     1       6.822  12.058  -6.897  1.00  0.00    -0.084 Cl
HETATM   33  C11 UNL     1       8.082  11.368  -9.170  1.00  0.00     0.053 A 
ENDBRANCH  25  27
ENDBRANCH   6  25
BRANCH   1  34
HETATM   34  C2  UNL     1      14.547   9.159 -13.363  1.00  0.00     0.127 C 
HETATM   35  C1  UNL     1      14.654   8.717 -14.789  1.00  0.00     0.027 C 
ENDBRANCH   1  34
TORSDOF 6
ENDMDL
