MODEL 1
REMARK VINA RESULT: -9.305051169      0.000      0.000
REMARK  6 active torsions:
REMARK  status: ('A' for Active; 'I' for Inactive)
REMARK    1  A    between atoms: C2_2  and  N1_3 
REMARK    2  A    between atoms: C5_8  and  N3_9 
REMARK    3  A    between atoms: N3_9  and  C6_11 
REMARK    4  A    between atoms: C12_20  and  N5_21 
REMARK    5  A    between atoms: N5_21  and  C13_23 
REMARK    6  A    between atoms: C18_28  and  N6_29 
ROOT
HETATM    1  N1  UNL     1      14.494   3.758  -7.658  1.00  0.00    -0.327 N 
HETATM    2  C3  UNL     1      15.336   3.102  -8.464  1.00  0.00     0.185 A 
HETATM    3  N2  UNL     1      15.351   3.709  -9.655  1.00  0.00    -0.346 N 
ATOM      4  H2  UNL     1      15.908   3.417 -10.457  1.00  0.00     0.167 HD
HETATM    5  C4  UNL     1      14.526   4.752  -9.629  1.00  0.00     0.123 A 
HETATM    6  C5  UNL     1      14.162   5.723 -10.589  1.00  0.00     0.152 A 
HETATM    7  N4  UNL     1      13.286   6.620 -10.157  1.00  0.00    -0.174 N 
ATOM      8  H4  UNL     1      13.002   7.337 -10.825  1.00  0.00     0.186 HD
HETATM    9  C12 UNL     1      12.740   6.686  -8.956  1.00  0.00     0.685 A 
HETATM   10  N7  UNL     1      13.092   5.743  -8.020  1.00  0.00    -0.174 N 
ATOM     11  H7  UNL     1      12.693   5.760  -7.082  1.00  0.00     0.186 HD
HETATM   12  C19 UNL     1      13.973   4.802  -8.376  1.00  0.00     0.155 A 
ENDROOT
BRANCH   9  13
HETATM   13  N5  UNL     1      11.795   7.682  -8.604  1.00  0.00    -0.197 N 
ATOM     14  H5  UNL     1      11.563   7.727  -7.611  1.00  0.00     0.183 HD
BRANCH  13  15
HETATM   15  C13 UNL     1      11.123   8.624  -9.421  1.00  0.00     0.034 C 
HETATM   16  C14 UNL     1      11.934   9.802  -9.862  1.00  0.00     0.055 C 
HETATM   17  C15 UNL     1      11.287  10.511 -11.010  1.00  0.00     0.006 C 
HETATM   18  C16 UNL     1       9.831  10.814 -10.789  1.00  0.00     0.003 C 
HETATM   19  C17 UNL     1       9.061   9.665 -10.233  1.00  0.00     0.039 C 
HETATM   20  C18 UNL     1       9.734   8.982  -9.065  1.00  0.00     0.229 C 
BRANCH  20  21
HETATM   21  N6  UNL     1       9.495   9.627  -7.825  1.00  0.00    -0.070 N 
ATOM     22  H63 UNL     1       9.682   8.968  -7.069  1.00  0.00     0.275 HD
ATOM     23  H62 UNL     1      10.226  10.320  -7.666  1.00  0.00     0.275 HD
ATOM     24  H61 UNL     1       8.587  10.063  -7.667  1.00  0.00     0.275 HD
ENDBRANCH  20  21
ENDBRANCH  13  15
ENDBRANCH   9  13
BRANCH   6  25
HETATM   25  N3  UNL     1      14.740   5.602 -11.853  1.00  0.00    -0.340 N 
ATOM     26  H3  UNL     1      14.709   4.690 -12.310  1.00  0.00     0.167 HD
BRANCH  25  27
HETATM   27  C6  UNL     1      15.365   6.666 -12.534  1.00  0.00     0.035 A 
HETATM   28  C7  UNL     1      16.667   7.070 -12.350  1.00  0.00     0.029 A 
HETATM   29  C8  UNL     1      17.161   8.147 -13.066  1.00  0.00     0.004 A 
HETATM   30  C9  UNL     1      16.371   8.819 -13.959  1.00  0.00     0.024 A 
HETATM   31  C10 UNL     1      15.079   8.408 -14.133  1.00  0.00     0.036 A 
HETATM   32 CL1  UNL     1      14.048   9.263 -15.278  1.00  0.00    -0.084 Cl
HETATM   33  C11 UNL     1      14.557   7.357 -13.451  1.00  0.00     0.053 A 
ENDBRANCH  25  27
ENDBRANCH   6  25
BRANCH   1  34
HETATM   34  C2  UNL     1      14.162   3.454  -6.270  1.00  0.00     0.127 C 
HETATM   35  C1  UNL     1      15.308   2.840  -5.529  1.00  0.00     0.027 C 
ENDBRANCH   1  34
TORSDOF 6
ENDMDL
