MODEL 7
REMARK VINA RESULT: -7.484438715      3.288      7.878
REMARK  8 active torsions:
REMARK  status: ('A' for Active; 'I' for Inactive)
REMARK    1  A    between atoms: C2_2  and  C3_3 
REMARK    2  A    between atoms: C2_2  and  C8_13 
REMARK    3  A    between atoms: C3_3  and  C4_4 
REMARK    4  A    between atoms: C4_4  and  C5_5 
REMARK       I    between atoms: C5_5  and  N1_7 
REMARK    5  A    between atoms: N1_7  and  C6_9 
REMARK    6  A    between atoms: C6_9  and  C7_10 
REMARK    7  A    between atoms: C22_27  and  O4_28 
REMARK    8  A    between atoms: C26_33  and  O5_34 
ROOT
HETATM    1  C8  UNL     1     -10.181 -51.305  14.683  1.00  0.00    -0.002 C 
HETATM    2  C9  UNL     1      -9.257 -50.829  13.583  1.00  0.00     0.006 C 
HETATM    3  C10 UNL     1     -10.185 -50.570  12.378  1.00  0.00     0.006 C 
HETATM    4  C11 UNL     1     -11.543 -50.819  12.955  1.00  0.00     0.001 C 
HETATM    5  C12 UNL     1     -12.652 -51.132  12.068  1.00  0.00     0.024 C 
HETATM    6  C13 UNL     1     -13.889 -51.228  12.985  1.00  0.00     0.001 C 
HETATM    7  C14 UNL     1     -13.704 -52.465  13.831  1.00  0.00     0.007 C 
HETATM    8  C15 UNL     1     -12.472 -52.316  14.665  1.00  0.00     0.010 C 
HETATM    9  C16 UNL     1     -11.246 -52.012  13.885  1.00  0.00    -0.036 C 
HETATM   10  C17 UNL     1     -10.778 -53.217  13.157  1.00  0.00     0.016 C 
HETATM   11  C18 UNL     1     -15.159 -51.144  12.239  1.00  0.00    -0.036 C 
HETATM   12  C19 UNL     1     -15.299 -52.106  11.105  1.00  0.00     0.016 C 
HETATM   13  C20 UNL     1     -16.302 -51.367  13.191  1.00  0.00     0.012 C 
HETATM   14  C21 UNL     1     -17.608 -50.794  12.684  1.00  0.00     0.032 C 
HETATM   15  C22 UNL     1     -17.563 -49.298  12.551  1.00  0.00     0.118 C 
HETATM   16  C23 UNL     1     -16.115 -48.873  12.700  1.00  0.00     0.037 C 
HETATM   17  C24 UNL     1     -15.285 -49.692  11.752  1.00  0.00    -0.001 C 
HETATM   18  C25 UNL     1     -13.896 -49.052  11.698  1.00  0.00     0.037 C 
HETATM   19  C26 UNL     1     -12.977 -50.046  11.058  1.00  0.00     0.123 C 
ENDROOT
BRANCH   1  20
HETATM   20  C2  UNL     1      -9.554 -51.988  15.816  1.00  0.00    -0.013 C 
HETATM   21  C1  UNL     1      -8.430 -51.030  16.318  1.00  0.00     0.010 C 
BRANCH  20  22
HETATM   22  C3  UNL     1      -8.812 -53.259  15.483  1.00  0.00     0.014 C 
BRANCH  22  23
HETATM   23  C4  UNL     1      -9.165 -54.337  16.539  1.00  0.00     0.103 C 
BRANCH  23  24
HETATM   24  C5  UNL     1      -9.654 -55.557  15.835  1.00  0.00     0.218 C 
HETATM   25  O1  UNL     1      -8.889 -56.531  15.576  1.00  0.00    -0.274 OA
HETATM   26  N1  UNL     1     -11.010 -55.658  15.432  1.00  0.00    -0.351 N 
ATOM     27  H1  UNL     1     -11.644 -54.884  15.629  1.00  0.00     0.163 HD
BRANCH  26  28
HETATM   28  C6  UNL     1     -11.523 -56.832  14.744  1.00  0.00     0.235 C 
BRANCH  28  29
HETATM   29  C7  UNL     1     -12.961 -56.617  14.408  1.00  0.00     0.191 C 
HETATM   30  O2  UNL     1     -13.686 -55.863  15.121  1.00  0.00    -0.647 OA
HETATM   31  O3  UNL     1     -13.535 -57.232  13.313  1.00  0.00    -0.647 OA
ENDBRANCH  28  29
ENDBRANCH  26  28
ENDBRANCH  23  24
ENDBRANCH  22  23
ENDBRANCH  20  22
ENDBRANCH   1  20
BRANCH  19  32
HETATM   32  O5  UNL     1     -11.843 -49.426  10.567  1.00  0.00    -0.395 OA
ATOM     33  H5  UNL     1     -11.960 -49.109   9.679  1.00  0.00     0.210 HD
ENDBRANCH  19  32
BRANCH  15  34
HETATM   34  O4  UNL     1     -18.321 -48.629  13.485  1.00  0.00    -0.396 OA
ATOM     35  H4  UNL     1     -17.822 -48.040  14.038  1.00  0.00     0.210 HD
ENDBRANCH  15  34
TORSDOF 8
ENDMDL
