MODEL 11
REMARK VINA RESULT: -7.251801878      3.226      8.610
REMARK  8 active torsions:
REMARK  status: ('A' for Active; 'I' for Inactive)
REMARK    1  A    between atoms: C2_2  and  C3_3 
REMARK    2  A    between atoms: C2_2  and  C8_13 
REMARK    3  A    between atoms: C3_3  and  C4_4 
REMARK    4  A    between atoms: C4_4  and  C5_5 
REMARK       I    between atoms: C5_5  and  N1_7 
REMARK    5  A    between atoms: N1_7  and  C6_9 
REMARK    6  A    between atoms: C6_9  and  C7_10 
REMARK    7  A    between atoms: C22_27  and  O4_28 
REMARK    8  A    between atoms: C26_33  and  O5_34 
ROOT
HETATM    1  C8  UNL     1     -11.464 -51.432  12.821  1.00  0.00    -0.002 C 
HETATM    2  C9  UNL     1     -11.444 -52.636  13.738  1.00  0.00     0.006 C 
HETATM    3  C10 UNL     1     -12.911 -52.816  14.180  1.00  0.00     0.006 C 
HETATM    4  C11 UNL     1     -13.621 -51.768  13.382  1.00  0.00     0.001 C 
HETATM    5  C12 UNL     1     -14.921 -51.290  13.824  1.00  0.00     0.024 C 
HETATM    6  C13 UNL     1     -15.383 -50.306  12.729  1.00  0.00     0.001 C 
HETATM    7  C14 UNL     1     -14.474 -49.103  12.816  1.00  0.00     0.007 C 
HETATM    8  C15 UNL     1     -13.066 -49.526  12.548  1.00  0.00     0.010 C 
HETATM    9  C16 UNL     1     -12.586 -50.626  13.423  1.00  0.00    -0.036 C 
HETATM   10  C17 UNL     1     -12.324 -50.125  14.795  1.00  0.00     0.016 C 
HETATM   11  C18 UNL     1     -16.830 -50.023  12.791  1.00  0.00    -0.036 C 
HETATM   12  C19 UNL     1     -17.336 -49.568  14.121  1.00  0.00     0.016 C 
HETATM   13  C20 UNL     1     -17.168 -48.970  11.771  1.00  0.00     0.012 C 
HETATM   14  C21 UNL     1     -18.629 -48.984  11.376  1.00  0.00     0.032 C 
HETATM   15  C22 UNL     1     -19.024 -50.261  10.689  1.00  0.00     0.118 C 
HETATM   16  C23 UNL     1     -17.884 -51.244  10.873  1.00  0.00     0.037 C 
HETATM   17  C24 UNL     1     -17.547 -51.305  12.335  1.00  0.00    -0.001 C 
HETATM   18  C25 UNL     1     -16.618 -52.504  12.536  1.00  0.00     0.037 C 
HETATM   19  C26 UNL     1     -15.997 -52.359  13.891  1.00  0.00     0.123 C 
ENDROOT
BRANCH   1  20
HETATM   20  C2  UNL     1     -10.176 -50.790  12.553  1.00  0.00    -0.013 C 
HETATM   21  C1  UNL     1     -10.122 -50.580  11.008  1.00  0.00     0.010 C 
BRANCH  20  22
HETATM   22  C3  UNL     1      -8.956 -51.630  12.838  1.00  0.00     0.014 C 
BRANCH  22  23
HETATM   23  C4  UNL     1      -8.166 -50.988  14.006  1.00  0.00     0.103 C 
BRANCH  23  24
HETATM   24  C5  UNL     1      -8.470 -51.735  15.260  1.00  0.00     0.218 C 
HETATM   25  O1  UNL     1      -8.460 -51.173  16.393  1.00  0.00    -0.274 OA
HETATM   26  N1  UNL     1      -8.784 -53.118  15.213  1.00  0.00    -0.351 N 
ATOM     27  H1  UNL     1      -8.797 -53.592  14.310  1.00  0.00     0.163 HD
BRANCH  26  28
HETATM   28  C6  UNL     1      -9.087 -53.879  16.415  1.00  0.00     0.235 C 
BRANCH  28  29
HETATM   29  C7  UNL     1      -9.601 -55.226  16.028  1.00  0.00     0.191 C 
HETATM   30  O2  UNL     1     -10.808 -55.381  15.679  1.00  0.00    -0.647 OA
HETATM   31  O3  UNL     1      -8.775 -56.333  16.041  1.00  0.00    -0.647 OA
ENDBRANCH  28  29
ENDBRANCH  26  28
ENDBRANCH  23  24
ENDBRANCH  22  23
ENDBRANCH  20  22
ENDBRANCH   1  20
BRANCH  19  32
HETATM   32  O5  UNL     1     -15.508 -53.571  14.342  1.00  0.00    -0.395 OA
ATOM     33  H5  UNL     1     -15.717 -54.288  13.754  1.00  0.00     0.210 HD
ENDBRANCH  19  32
BRANCH  15  34
HETATM   34  O4  UNL     1     -19.277 -50.119   9.344  1.00  0.00    -0.396 OA
ATOM     35  H4  UNL     1     -19.955 -50.696   9.015  1.00  0.00     0.210 HD
ENDBRANCH  15  34
TORSDOF 8
ENDMDL
