MODEL 10
REMARK VINA RESULT: -7.282840239      3.218      8.980
REMARK  8 active torsions:
REMARK  status: ('A' for Active; 'I' for Inactive)
REMARK    1  A    between atoms: C2_2  and  C3_3 
REMARK    2  A    between atoms: C2_2  and  C8_13 
REMARK    3  A    between atoms: C3_3  and  C4_4 
REMARK    4  A    between atoms: C4_4  and  C5_5 
REMARK       I    between atoms: C5_5  and  N1_7 
REMARK    5  A    between atoms: N1_7  and  C6_9 
REMARK    6  A    between atoms: C6_9  and  C7_10 
REMARK    7  A    between atoms: C22_27  and  O4_28 
REMARK    8  A    between atoms: C26_33  and  O5_34 
ROOT
HETATM    1  C8  UNL     1     -10.167 -51.347  14.690  1.00  0.00    -0.002 C 
HETATM    2  C9  UNL     1      -9.241 -50.891  13.583  1.00  0.00     0.006 C 
HETATM    3  C10 UNL     1     -10.170 -50.622  12.381  1.00  0.00     0.006 C 
HETATM    4  C11 UNL     1     -11.529 -50.846  12.966  1.00  0.00     0.001 C 
HETATM    5  C12 UNL     1     -12.647 -51.146  12.086  1.00  0.00     0.024 C 
HETATM    6  C13 UNL     1     -13.881 -51.217  13.009  1.00  0.00     0.001 C 
HETATM    7  C14 UNL     1     -13.713 -52.453  13.860  1.00  0.00     0.007 C 
HETATM    8  C15 UNL     1     -12.475 -52.320  14.687  1.00  0.00     0.010 C 
HETATM    9  C16 UNL     1     -11.247 -52.040  13.900  1.00  0.00    -0.036 C 
HETATM   10  C17 UNL     1     -10.802 -53.256  13.176  1.00  0.00     0.016 C 
HETATM   11  C18 UNL     1     -15.153 -51.116  12.269  1.00  0.00    -0.036 C 
HETATM   12  C19 UNL     1     -15.314 -52.081  11.140  1.00  0.00     0.016 C 
HETATM   13  C20 UNL     1     -16.295 -51.315  13.227  1.00  0.00     0.012 C 
HETATM   14  C21 UNL     1     -17.594 -50.723  12.724  1.00  0.00     0.032 C 
HETATM   15  C22 UNL     1     -17.526 -49.229  12.584  1.00  0.00     0.118 C 
HETATM   16  C23 UNL     1     -16.070 -48.828  12.724  1.00  0.00     0.037 C 
HETATM   17  C24 UNL     1     -15.258 -49.663  11.776  1.00  0.00    -0.001 C 
HETATM   18  C25 UNL     1     -13.859 -49.047  11.712  1.00  0.00     0.037 C 
HETATM   19  C26 UNL     1     -12.960 -50.059  11.072  1.00  0.00     0.123 C 
ENDROOT
BRANCH   1  20
HETATM   20  C2  UNL     1      -9.546 -52.035  15.823  1.00  0.00    -0.013 C 
HETATM   21  C1  UNL     1      -8.457 -51.058  16.366  1.00  0.00     0.010 C 
BRANCH  20  22
HETATM   22  C3  UNL     1      -8.765 -53.280  15.483  1.00  0.00     0.014 C 
BRANCH  22  23
HETATM   23  C4  UNL     1      -9.284 -54.451  16.355  1.00  0.00     0.103 C 
BRANCH  23  24
HETATM   24  C5  UNL     1      -9.318 -55.689  15.526  1.00  0.00     0.218 C 
HETATM   25  O1  UNL     1     -10.082 -56.660  15.804  1.00  0.00    -0.274 OA
HETATM   26  N1  UNL     1      -8.483 -55.813  14.386  1.00  0.00    -0.351 N 
ATOM     27  H1  UNL     1      -7.859 -55.044  14.144  1.00  0.00     0.163 HD
BRANCH  26  28
HETATM   28  C6  UNL     1      -8.491 -57.006  13.552  1.00  0.00     0.235 C 
BRANCH  28  29
HETATM   29  C7  UNL     1      -7.085 -57.448  13.314  1.00  0.00     0.191 C 
HETATM   30  O2  UNL     1      -6.111 -56.761  13.738  1.00  0.00    -0.647 OA
HETATM   31  O3  UNL     1      -6.814 -58.615  12.626  1.00  0.00    -0.647 OA
ENDBRANCH  28  29
ENDBRANCH  26  28
ENDBRANCH  23  24
ENDBRANCH  22  23
ENDBRANCH  20  22
ENDBRANCH   1  20
BRANCH  19  32
HETATM   32  O5  UNL     1     -11.818 -49.460  10.573  1.00  0.00    -0.395 OA
ATOM     33  H5  UNL     1     -11.585 -49.787   9.712  1.00  0.00     0.210 HD
ENDBRANCH  19  32
BRANCH  15  34
HETATM   34  O4  UNL     1     -18.268 -48.543  13.518  1.00  0.00    -0.396 OA
ATOM     35  H4  UNL     1     -17.746 -48.050  14.140  1.00  0.00     0.210 HD
ENDBRANCH  15  34
TORSDOF 8
ENDMDL
