MODEL 6
REMARK VINA RESULT: -7.508393922      2.804      3.528
REMARK  8 active torsions:
REMARK  status: ('A' for Active; 'I' for Inactive)
REMARK    1  A    between atoms: C2_2  and  C3_3 
REMARK    2  A    between atoms: C2_2  and  C8_13 
REMARK    3  A    between atoms: C3_3  and  C4_4 
REMARK    4  A    between atoms: C4_4  and  C5_5 
REMARK       I    between atoms: C5_5  and  N1_7 
REMARK    5  A    between atoms: N1_7  and  C6_9 
REMARK    6  A    between atoms: C6_9  and  C7_10 
REMARK    7  A    between atoms: C22_27  and  O4_28 
REMARK    8  A    between atoms: C26_33  and  O5_34 
ROOT
HETATM    1  C8  UNL     1     -14.333 -49.726  12.847  1.00  0.00    -0.002 C 
HETATM    2  C9  UNL     1     -13.705 -48.987  11.684  1.00  0.00     0.006 C 
HETATM    3  C10 UNL     1     -12.197 -49.294  11.794  1.00  0.00     0.006 C 
HETATM    4  C11 UNL     1     -12.145 -50.260  12.935  1.00  0.00     0.001 C 
HETATM    5  C12 UNL     1     -10.899 -50.446  13.661  1.00  0.00     0.024 C 
HETATM    6  C13 UNL     1     -11.189 -51.563  14.685  1.00  0.00     0.001 C 
HETATM    7  C14 UNL     1     -12.147 -50.983  15.697  1.00  0.00     0.007 C 
HETATM    8  C15 UNL     1     -13.415 -50.590  15.011  1.00  0.00     0.010 C 
HETATM    9  C16 UNL     1     -13.223 -49.666  13.865  1.00  0.00    -0.036 C 
HETATM   10  C17 UNL     1     -12.893 -48.301  14.343  1.00  0.00     0.016 C 
HETATM   11  C18 UNL     1      -9.959 -52.165  15.235  1.00  0.00    -0.036 C 
HETATM   12  C19 UNL     1      -8.977 -51.198  15.812  1.00  0.00     0.016 C 
HETATM   13  C20 UNL     1     -10.334 -53.153  16.306  1.00  0.00     0.012 C 
HETATM   14  C21 UNL     1      -9.255 -54.184  16.556  1.00  0.00     0.032 C 
HETATM   15  C22 UNL     1      -9.010 -55.059  15.358  1.00  0.00     0.118 C 
HETATM   16  C23 UNL     1      -9.734 -54.429  14.184  1.00  0.00     0.037 C 
HETATM   17  C24 UNL     1      -9.327 -52.986  14.099  1.00  0.00    -0.001 C 
HETATM   18  C25 UNL     1      -9.822 -52.454  12.753  1.00  0.00     0.037 C 
HETATM   19  C26 UNL     1      -9.747 -50.959  12.814  1.00  0.00     0.123 C 
ENDROOT
BRANCH   1  20
HETATM   20  C2  UNL     1     -15.686 -49.319  13.229  1.00  0.00    -0.013 C 
HETATM   21  C1  UNL     1     -16.401 -50.623  13.702  1.00  0.00     0.010 C 
BRANCH  20  22
HETATM   22  C3  UNL     1     -16.561 -48.825  12.103  1.00  0.00     0.014 C 
BRANCH  22  23
HETATM   23  C4  UNL     1     -17.257 -50.040  11.439  1.00  0.00     0.103 C 
BRANCH  23  24
HETATM   24  C5  UNL     1     -18.664 -49.670  11.115  1.00  0.00     0.218 C 
HETATM   25  O1  UNL     1     -19.304 -48.814  11.794  1.00  0.00    -0.274 OA
HETATM   26  N1  UNL     1     -19.333 -50.276  10.021  1.00  0.00    -0.351 N 
ATOM     27  H1  UNL     1     -18.838 -50.969   9.461  1.00  0.00     0.163 HD
BRANCH  26  28
HETATM   28  C6  UNL     1     -20.705 -49.939   9.675  1.00  0.00     0.235 C 
BRANCH  28  29
HETATM   29  C7  UNL     1     -20.794 -49.680   8.208  1.00  0.00     0.191 C 
HETATM   30  O2  UNL     1     -20.009 -50.261   7.401  1.00  0.00    -0.647 OA
HETATM   31  O3  UNL     1     -21.731 -48.805   7.695  1.00  0.00    -0.647 OA
ENDBRANCH  28  29
ENDBRANCH  26  28
ENDBRANCH  23  24
ENDBRANCH  22  23
ENDBRANCH  20  22
ENDBRANCH   1  20
BRANCH  19  32
HETATM   32  O5  UNL     1      -9.742 -50.412  11.544  1.00  0.00    -0.395 OA
ATOM     33  H5  UNL     1     -10.465 -50.725  11.012  1.00  0.00     0.210 HD
ENDBRANCH  19  32
BRANCH  15  34
HETATM   34  O4  UNL     1      -9.450 -56.353  15.510  1.00  0.00    -0.396 OA
ATOM     35  H4  UNL     1      -9.322 -56.898  14.742  1.00  0.00     0.210 HD
ENDBRANCH  15  34
TORSDOF 8
ENDMDL
