MODEL 2
REMARK VINA RESULT: -7.718111157      1.991      2.737
REMARK  8 active torsions:
REMARK  status: ('A' for Active; 'I' for Inactive)
REMARK    1  A    between atoms: C2_2  and  C3_3 
REMARK    2  A    between atoms: C2_2  and  C8_13 
REMARK    3  A    between atoms: C3_3  and  C4_4 
REMARK    4  A    between atoms: C4_4  and  C5_5 
REMARK       I    between atoms: C5_5  and  N1_7 
REMARK    5  A    between atoms: N1_7  and  C6_9 
REMARK    6  A    between atoms: C6_9  and  C7_10 
REMARK    7  A    between atoms: C22_27  and  O4_28 
REMARK    8  A    between atoms: C26_33  and  O5_34 
ROOT
HETATM    1  C8  UNL     1     -14.230 -49.805  12.886  1.00  0.00    -0.002 C 
HETATM    2  C9  UNL     1     -13.581 -49.039  11.754  1.00  0.00     0.006 C 
HETATM    3  C10 UNL     1     -12.076 -49.352  11.882  1.00  0.00     0.006 C 
HETATM    4  C11 UNL     1     -12.046 -50.347  12.998  1.00  0.00     0.001 C 
HETATM    5  C12 UNL     1     -10.812 -50.554  13.740  1.00  0.00     0.024 C 
HETATM    6  C13 UNL     1     -11.122 -51.696  14.730  1.00  0.00     0.001 C 
HETATM    7  C14 UNL     1     -12.096 -51.139  15.741  1.00  0.00     0.007 C 
HETATM    8  C15 UNL     1     -13.352 -50.726  15.043  1.00  0.00     0.010 C 
HETATM    9  C16 UNL     1     -13.138 -49.774  13.924  1.00  0.00    -0.036 C 
HETATM   10  C17 UNL     1     -12.813 -48.422  14.443  1.00  0.00     0.016 C 
HETATM   11  C18 UNL     1      -9.903 -52.315  15.286  1.00  0.00    -0.036 C 
HETATM   12  C19 UNL     1      -8.929 -51.366  15.904  1.00  0.00     0.016 C 
HETATM   13  C20 UNL     1     -10.298 -53.329  16.325  1.00  0.00     0.012 C 
HETATM   14  C21 UNL     1      -9.226 -54.369  16.567  1.00  0.00     0.032 C 
HETATM   15  C22 UNL     1      -8.963 -55.213  15.352  1.00  0.00     0.118 C 
HETATM   16  C23 UNL     1      -9.665 -54.552  14.181  1.00  0.00     0.037 C 
HETATM   17  C24 UNL     1      -9.254 -53.108  14.141  1.00  0.00    -0.001 C 
HETATM   18  C25 UNL     1      -9.725 -52.541  12.800  1.00  0.00     0.037 C 
HETATM   19  C26 UNL     1      -9.647 -51.049  12.900  1.00  0.00     0.123 C 
ENDROOT
BRANCH   1  20
HETATM   20  C2  UNL     1     -15.589 -49.405  13.255  1.00  0.00    -0.013 C 
HETATM   21  C1  UNL     1     -16.327 -50.724  13.643  1.00  0.00     0.010 C 
BRANCH  20  22
HETATM   22  C3  UNL     1     -16.431 -48.845  12.136  1.00  0.00     0.014 C 
BRANCH  22  23
HETATM   23  C4  UNL     1     -17.273 -49.991  11.520  1.00  0.00     0.103 C 
BRANCH  23  24
HETATM   24  C5  UNL     1     -18.693 -49.546  11.424  1.00  0.00     0.218 C 
HETATM   25  O1  UNL     1     -19.008 -48.411  10.961  1.00  0.00    -0.274 OA
HETATM   26  N1  UNL     1     -19.742 -50.397  11.856  1.00  0.00    -0.351 N 
ATOM     27  H1  UNL     1     -19.511 -51.315  12.233  1.00  0.00     0.163 HD
BRANCH  26  28
HETATM   28  C6  UNL     1     -21.139 -49.997  11.777  1.00  0.00     0.235 C 
BRANCH  28  29
HETATM   29  C7  UNL     1     -21.556 -49.402  13.081  1.00  0.00     0.191 C 
HETATM   30  O2  UNL     1     -21.852 -50.143  14.063  1.00  0.00    -0.647 OA
HETATM   31  O3  UNL     1     -21.627 -48.033  13.247  1.00  0.00    -0.647 OA
ENDBRANCH  28  29
ENDBRANCH  26  28
ENDBRANCH  23  24
ENDBRANCH  22  23
ENDBRANCH  20  22
ENDBRANCH   1  20
BRANCH  19  32
HETATM   32  O5  UNL     1      -9.620 -50.470  11.645  1.00  0.00    -0.395 OA
ATOM     33  H5  UNL     1      -8.966 -50.864  11.079  1.00  0.00     0.210 HD
ENDBRANCH  19  32
BRANCH  15  34
HETATM   34  O4  UNL     1      -9.408 -56.510  15.463  1.00  0.00    -0.396 OA
ATOM     35  H4  UNL     1      -9.917 -56.810  14.719  1.00  0.00     0.210 HD
ENDBRANCH  15  34
TORSDOF 8
ENDMDL
