MODEL 4
REMARK VINA RESULT: -7.549259987      1.964      3.061
REMARK  8 active torsions:
REMARK  status: ('A' for Active; 'I' for Inactive)
REMARK    1  A    between atoms: C2_2  and  C3_3 
REMARK    2  A    between atoms: C2_2  and  C8_13 
REMARK    3  A    between atoms: C3_3  and  C4_4 
REMARK    4  A    between atoms: C4_4  and  C5_5 
REMARK       I    between atoms: C5_5  and  N1_7 
REMARK    5  A    between atoms: N1_7  and  C6_9 
REMARK    6  A    between atoms: C6_9  and  C7_10 
REMARK    7  A    between atoms: C22_27  and  O4_28 
REMARK    8  A    between atoms: C26_33  and  O5_34 
ROOT
HETATM    1  C8  UNL     1      55.012  -0.427  -8.887  1.00  0.00    -0.002 C 
HETATM    2  C9  UNL     1      54.485  -1.663  -8.189  1.00  0.00     0.006 C 
HETATM    3  C10 UNL     1      55.352  -2.819  -8.732  1.00  0.00     0.006 C 
HETATM    4  C11 UNL     1      56.345  -2.103  -9.591  1.00  0.00     0.001 C 
HETATM    5  C12 UNL     1      57.045  -2.832 -10.636  1.00  0.00     0.024 C 
HETATM    6  C13 UNL     1      58.039  -1.818 -11.240  1.00  0.00     0.001 C 
HETATM    7  C14 UNL     1      57.213  -0.786 -11.971  1.00  0.00     0.007 C 
HETATM    8  C15 UNL     1      56.317  -0.090 -10.998  1.00  0.00     0.010 C 
HETATM    9  C16 UNL     1      55.455  -1.005 -10.207  1.00  0.00    -0.036 C 
HETATM   10  C17 UNL     1      54.358  -1.546 -11.047  1.00  0.00     0.016 C 
HETATM   11  C18 UNL     1      59.104  -2.466 -12.031  1.00  0.00    -0.036 C 
HETATM   12  C19 UNL     1      58.630  -3.401 -13.096  1.00  0.00     0.016 C 
HETATM   13  C20 UNL     1      59.949  -1.403 -12.677  1.00  0.00     0.012 C 
HETATM   14  C21 UNL     1      61.330  -1.899 -13.051  1.00  0.00     0.032 C 
HETATM   15  C22 UNL     1      62.141  -2.294 -11.848  1.00  0.00     0.118 C 
HETATM   16  C23 UNL     1      61.198  -2.334 -10.661  1.00  0.00     0.037 C 
HETATM   17  C24 UNL     1      60.017  -3.187 -11.027  1.00  0.00    -0.001 C 
HETATM   18  C25 UNL     1      59.239  -3.461  -9.738  1.00  0.00     0.037 C 
HETATM   19  C26 UNL     1      57.895  -3.987 -10.137  1.00  0.00     0.123 C 
ENDROOT
BRANCH   1  20
HETATM   20  C2  UNL     1      54.149   0.755  -8.869  1.00  0.00    -0.013 C 
HETATM   21  C1  UNL     1      54.987   1.879  -8.185  1.00  0.00     0.010 C 
BRANCH  20  22
HETATM   22  C3  UNL     1      52.920   0.652  -7.999  1.00  0.00     0.014 C 
BRANCH  22  23
HETATM   23  C4  UNL     1      51.792   1.513  -8.623  1.00  0.00     0.103 C 
BRANCH  23  24
HETATM   24  C5  UNL     1      51.607   2.737  -7.792  1.00  0.00     0.218 C 
HETATM   25  O1  UNL     1      51.852   2.746  -6.550  1.00  0.00    -0.274 OA
HETATM   26  N1  UNL     1      51.143   3.941  -8.381  1.00  0.00    -0.351 N 
ATOM     27  H1  UNL     1      50.938   3.956  -9.379  1.00  0.00     0.163 HD
BRANCH  26  28
HETATM   28  C6  UNL     1      50.952   5.155  -7.602  1.00  0.00     0.235 C 
BRANCH  28  29
HETATM   29  C7  UNL     1      49.492   5.373  -7.382  1.00  0.00     0.191 C 
HETATM   30  O2  UNL     1      48.679   4.404  -7.429  1.00  0.00    -0.647 OA
HETATM   31  O3  UNL     1      48.993   6.635  -7.122  1.00  0.00    -0.647 OA
ENDBRANCH  28  29
ENDBRANCH  26  28
ENDBRANCH  23  24
ENDBRANCH  22  23
ENDBRANCH  20  22
ENDBRANCH   1  20
BRANCH  19  32
HETATM   32  O5  UNL     1      57.300  -4.666  -9.090  1.00  0.00    -0.395 OA
ATOM     33  H5  UNL     1      57.761  -4.541  -8.269  1.00  0.00     0.210 HD
ENDBRANCH  19  32
BRANCH  15  34
HETATM   34  O4  UNL     1      63.177  -1.435 -11.565  1.00  0.00    -0.396 OA
ATOM     35  H4  UNL     1      64.001  -1.870 -11.378  1.00  0.00     0.210 HD
ENDBRANCH  15  34
TORSDOF 8
ENDMDL
