MODEL 11
REMARK VINA RESULT: -7.134747937      1.958      3.159
REMARK  8 active torsions:
REMARK  status: ('A' for Active; 'I' for Inactive)
REMARK    1  A    between atoms: C2_2  and  C3_3 
REMARK    2  A    between atoms: C2_2  and  C8_13 
REMARK    3  A    between atoms: C3_3  and  C4_4 
REMARK    4  A    between atoms: C4_4  and  C5_5 
REMARK       I    between atoms: C5_5  and  N1_7 
REMARK    5  A    between atoms: N1_7  and  C6_9 
REMARK    6  A    between atoms: C6_9  and  C7_10 
REMARK    7  A    between atoms: C22_27  and  O4_28 
REMARK    8  A    between atoms: C26_33  and  O5_34 
ROOT
HETATM    1  C8  UNL     1      54.521  -0.442  -8.355  1.00  0.00    -0.002 C 
HETATM    2  C9  UNL     1      54.603  -1.084  -6.986  1.00  0.00     0.006 C 
HETATM    3  C10 UNL     1      55.798  -2.056  -7.081  1.00  0.00     0.006 C 
HETATM    4  C11 UNL     1      56.332  -1.780  -8.450  1.00  0.00     0.001 C 
HETATM    5  C12 UNL     1      57.155  -2.779  -9.113  1.00  0.00     0.024 C 
HETATM    6  C13 UNL     1      57.597  -2.125 -10.439  1.00  0.00     0.001 C 
HETATM    7  C14 UNL     1      56.360  -2.008 -11.296  1.00  0.00     0.007 C 
HETATM    8  C15 UNL     1      55.364  -1.129 -10.611  1.00  0.00     0.010 C 
HETATM    9  C16 UNL     1      55.022  -1.561  -9.232  1.00  0.00    -0.036 C 
HETATM   10  C17 UNL     1      54.152  -2.762  -9.262  1.00  0.00     0.016 C 
HETATM   11  C18 UNL     1      58.746  -2.814 -11.059  1.00  0.00    -0.036 C 
HETATM   12  C19 UNL     1      58.578  -4.285 -11.256  1.00  0.00     0.016 C 
HETATM   13  C20 UNL     1      59.029  -2.187 -12.397  1.00  0.00     0.012 C 
HETATM   14  C21 UNL     1      60.447  -2.426 -12.868  1.00  0.00     0.032 C 
HETATM   15  C22 UNL     1      61.465  -1.782 -11.969  1.00  0.00     0.118 C 
HETATM   16  C23 UNL     1      60.742  -1.338 -10.712  1.00  0.00     0.037 C 
HETATM   17  C24 UNL     1      59.967  -2.509 -10.177  1.00  0.00    -0.001 C 
HETATM   18  C25 UNL     1      59.497  -2.135  -8.770  1.00  0.00     0.037 C 
HETATM   19  C26 UNL     1      58.441  -3.123  -8.381  1.00  0.00     0.123 C 
ENDROOT
BRANCH   1  20
HETATM   20  C2  UNL     1      53.266   0.232  -8.689  1.00  0.00    -0.013 C 
HETATM   21  C1  UNL     1      53.676   1.577  -9.367  1.00  0.00     0.010 C 
BRANCH  20  22
HETATM   22  C3  UNL     1      52.427   0.670  -7.514  1.00  0.00     0.014 C 
BRANCH  22  23
HETATM   23  C4  UNL     1      52.884   2.084  -7.071  1.00  0.00     0.103 C 
BRANCH  23  24
HETATM   24  C5  UNL     1      51.741   2.771  -6.405  1.00  0.00     0.218 C 
HETATM   25  O1  UNL     1      50.850   2.130  -5.775  1.00  0.00    -0.274 OA
HETATM   26  N1  UNL     1      51.621   4.183  -6.462  1.00  0.00    -0.351 N 
ATOM     27  H1  UNL     1      52.326   4.720  -6.965  1.00  0.00     0.163 HD
BRANCH  26  28
HETATM   28  C6  UNL     1      50.520   4.888  -5.823  1.00  0.00     0.235 C 
BRANCH  28  29
HETATM   29  C7  UNL     1      49.555   5.344  -6.867  1.00  0.00     0.191 C 
HETATM   30  O2  UNL     1      49.469   6.568  -7.176  1.00  0.00    -0.647 OA
HETATM   31  O3  UNL     1      48.735   4.443  -7.518  1.00  0.00    -0.647 OA
ENDBRANCH  28  29
ENDBRANCH  26  28
ENDBRANCH  23  24
ENDBRANCH  22  23
ENDBRANCH  20  22
ENDBRANCH   1  20
BRANCH  19  32
HETATM   32  O5  UNL     1      58.274  -3.153  -7.008  1.00  0.00    -0.395 OA
ATOM     33  H5  UNL     1      58.836  -2.531  -6.562  1.00  0.00     0.210 HD
ENDBRANCH  19  32
BRANCH  15  34
HETATM   34  O4  UNL     1      62.097  -0.695 -12.527  1.00  0.00    -0.396 OA
ATOM     35  H4  UNL     1      62.217   0.032 -11.927  1.00  0.00     0.210 HD
ENDBRANCH  15  34
TORSDOF 8
ENDMDL
