MODEL 6
REMARK VINA RESULT: -7.433333151      1.246      1.881
REMARK  8 active torsions:
REMARK  status: ('A' for Active; 'I' for Inactive)
REMARK    1  A    between atoms: C2_2  and  C3_3 
REMARK    2  A    between atoms: C2_2  and  C8_13 
REMARK    3  A    between atoms: C3_3  and  C4_4 
REMARK    4  A    between atoms: C4_4  and  C5_5 
REMARK       I    between atoms: C5_5  and  N1_7 
REMARK    5  A    between atoms: N1_7  and  C6_9 
REMARK    6  A    between atoms: C6_9  and  C7_10 
REMARK    7  A    between atoms: C22_27  and  O4_28 
REMARK    8  A    between atoms: C26_33  and  O5_34 
ROOT
HETATM    1  C8  UNL     1      54.664  -0.119  -9.115  1.00  0.00    -0.002 C 
HETATM    2  C9  UNL     1      54.109  -1.283  -8.323  1.00  0.00     0.006 C 
HETATM    3  C10 UNL     1      54.989  -2.486  -8.726  1.00  0.00     0.006 C 
HETATM    4  C11 UNL     1      56.013  -1.854  -9.615  1.00  0.00     0.001 C 
HETATM    5  C12 UNL     1      56.744  -2.679 -10.563  1.00  0.00     0.024 C 
HETATM    6  C13 UNL     1      57.761  -1.727 -11.226  1.00  0.00     0.001 C 
HETATM    7  C14 UNL     1      56.964  -0.767 -12.077  1.00  0.00     0.007 C 
HETATM    8  C15 UNL     1      56.039   0.018 -11.204  1.00  0.00     0.010 C 
HETATM    9  C16 UNL     1      55.148  -0.818 -10.360  1.00  0.00    -0.036 C 
HETATM   10  C17 UNL     1      54.077  -1.435 -11.182  1.00  0.00     0.016 C 
HETATM   11  C18 UNL     1      58.849  -2.446 -11.917  1.00  0.00    -0.036 C 
HETATM   12  C19 UNL     1      58.407  -3.477 -12.905  1.00  0.00     0.016 C 
HETATM   13  C20 UNL     1      59.720  -1.450 -12.632  1.00  0.00     0.012 C 
HETATM   14  C21 UNL     1      61.110  -1.979 -12.911  1.00  0.00     0.032 C 
HETATM   15  C22 UNL     1      61.879  -2.260 -11.651  1.00  0.00     0.118 C 
HETATM   16  C23 UNL     1      60.898  -2.189 -10.497  1.00  0.00     0.037 C 
HETATM   17  C24 UNL     1      59.726  -3.071 -10.821  1.00  0.00    -0.001 C 
HETATM   18  C25 UNL     1      58.905  -3.222  -9.538  1.00  0.00     0.037 C 
HETATM   19  C26 UNL     1      57.573  -3.783  -9.930  1.00  0.00     0.123 C 
ENDROOT
BRANCH   1  20
HETATM   20  C2  UNL     1      53.805   1.060  -9.237  1.00  0.00    -0.013 C 
HETATM   21  C1  UNL     1      54.461   2.155  -8.339  1.00  0.00     0.010 C 
BRANCH  20  22
HETATM   22  C3  UNL     1      52.417   0.918  -8.663  1.00  0.00     0.014 C 
BRANCH  22  23
HETATM   23  C4  UNL     1      52.241   1.946  -7.516  1.00  0.00     0.103 C 
BRANCH  23  24
HETATM   24  C5  UNL     1      51.595   1.267  -6.357  1.00  0.00     0.218 C 
HETATM   25  O1  UNL     1      51.467   0.009  -6.305  1.00  0.00    -0.274 OA
HETATM   26  N1  UNL     1      51.098   2.025  -5.266  1.00  0.00    -0.351 N 
ATOM     27  H1  UNL     1      51.189   3.040  -5.288  1.00  0.00     0.163 HD
BRANCH  26  28
HETATM   28  C6  UNL     1      50.462   1.397  -4.118  1.00  0.00     0.235 C 
BRANCH  28  29
HETATM   29  C7  UNL     1      49.478   2.346  -3.519  1.00  0.00     0.191 C 
HETATM   30  O2  UNL     1      49.253   2.342  -2.274  1.00  0.00    -0.647 OA
HETATM   31  O3  UNL     1      48.793   3.250  -4.307  1.00  0.00    -0.647 OA
ENDBRANCH  28  29
ENDBRANCH  26  28
ENDBRANCH  23  24
ENDBRANCH  22  23
ENDBRANCH  20  22
ENDBRANCH   1  20
BRANCH  19  32
HETATM   32  O5  UNL     1      56.941  -4.360  -8.845  1.00  0.00    -0.395 OA
ATOM     33  H5  UNL     1      56.262  -4.972  -9.105  1.00  0.00     0.210 HD
ENDBRANCH  19  32
BRANCH  15  34
HETATM   34  O4  UNL     1      62.909  -1.379 -11.415  1.00  0.00    -0.396 OA
ATOM     35  H4  UNL     1      63.374  -1.537 -10.602  1.00  0.00     0.210 HD
ENDBRANCH  15  34
TORSDOF 8
ENDMDL
