MODEL 9
REMARK VINA RESULT: -7.176651314      4.191      8.518
REMARK  8 active torsions:
REMARK  status: ('A' for Active; 'I' for Inactive)
REMARK    1  A    between atoms: C2_2  and  C3_3 
REMARK    2  A    between atoms: C2_2  and  C8_13 
REMARK    3  A    between atoms: C3_3  and  C4_4 
REMARK    4  A    between atoms: C4_4  and  C5_5 
REMARK       I    between atoms: C5_5  and  N1_7 
REMARK    5  A    between atoms: N1_7  and  C6_9 
REMARK    6  A    between atoms: C6_9  and  C7_10 
REMARK    7  A    between atoms: C22_27  and  O4_28 
REMARK    8  A    between atoms: C26_33  and  O5_34 
ROOT
HETATM    1  C8  UNL     1      60.306  -3.357  -9.478  1.00  0.00    -0.002 C 
HETATM    2  C9  UNL     1      60.851  -3.356 -10.891  1.00  0.00     0.006 C 
HETATM    3  C10 UNL     1      59.686  -2.837 -11.759  1.00  0.00     0.006 C 
HETATM    4  C11 UNL     1      58.647  -2.495 -10.738  1.00  0.00     0.001 C 
HETATM    5  C12 UNL     1      57.251  -2.410 -11.136  1.00  0.00     0.024 C 
HETATM    6  C13 UNL     1      56.496  -1.952  -9.871  1.00  0.00     0.001 C 
HETATM    7  C14 UNL     1      56.554  -3.102  -8.894  1.00  0.00     0.007 C 
HETATM    8  C15 UNL     1      57.980  -3.390  -8.551  1.00  0.00     0.010 C 
HETATM    9  C16 UNL     1      58.847  -3.643  -9.728  1.00  0.00    -0.036 C 
HETATM   10  C17 UNL     1      58.568  -4.982 -10.305  1.00  0.00     0.016 C 
HETATM   11  C18 UNL     1      55.149  -1.429 -10.169  1.00  0.00    -0.036 C 
HETATM   12  C19 UNL     1      54.276  -2.335 -10.975  1.00  0.00     0.016 C 
HETATM   13  C20 UNL     1      54.446  -1.122  -8.875  1.00  0.00     0.012 C 
HETATM   14  C21 UNL     1      53.323  -0.120  -9.041  1.00  0.00     0.032 C 
HETATM   15  C22 UNL     1      53.820   1.227  -9.486  1.00  0.00     0.118 C 
HETATM   16  C23 UNL     1      55.269   1.060  -9.901  1.00  0.00     0.037 C 
HETATM   17  C24 UNL     1      55.350  -0.079 -10.876  1.00  0.00    -0.001 C 
HETATM   18  C25 UNL     1      56.745  -0.039 -11.505  1.00  0.00     0.037 C 
HETATM   19  C26 UNL     1      56.960  -1.354 -12.188  1.00  0.00     0.123 C 
ENDROOT
BRANCH   1  20
HETATM   20  C2  UNL     1      61.040  -4.152  -8.492  1.00  0.00    -0.013 C 
HETATM   21  C1  UNL     1      61.819  -3.123  -7.616  1.00  0.00     0.010 C 
BRANCH  20  22
HETATM   22  C3  UNL     1      62.127  -5.038  -9.048  1.00  0.00     0.014 C 
BRANCH  22  23
HETATM   23  C4  UNL     1      61.636  -6.508  -9.025  1.00  0.00     0.103 C 
BRANCH  23  24
HETATM   24  C5  UNL     1      61.962  -7.103  -7.699  1.00  0.00     0.218 C 
HETATM   25  O1  UNL     1      63.147  -7.138  -7.254  1.00  0.00    -0.274 OA
HETATM   26  N1  UNL     1      60.938  -7.654  -6.887  1.00  0.00    -0.351 N 
ATOM     27  H1  UNL     1      59.976  -7.638  -7.226  1.00  0.00     0.163 HD
BRANCH  26  28
HETATM   28  C6  UNL     1      61.219  -8.242  -5.587  1.00  0.00     0.235 C 
BRANCH  28  29
HETATM   29  C7  UNL     1      61.001  -9.718  -5.656  1.00  0.00     0.191 C 
HETATM   30  O2  UNL     1      60.622 -10.363  -4.635  1.00  0.00    -0.647 OA
HETATM   31  O3  UNL     1      61.208 -10.412  -6.831  1.00  0.00    -0.647 OA
ENDBRANCH  28  29
ENDBRANCH  26  28
ENDBRANCH  23  24
ENDBRANCH  22  23
ENDBRANCH  20  22
ENDBRANCH   1  20
BRANCH  19  32
HETATM   32  O5  UNL     1      57.964  -1.261 -13.134  1.00  0.00    -0.395 OA
ATOM     33  H5  UNL     1      57.629  -1.303 -14.022  1.00  0.00     0.210 HD
ENDBRANCH  19  32
BRANCH  15  34
HETATM   34  O4  UNL     1      53.744   2.200  -8.516  1.00  0.00    -0.396 OA
ATOM     35  H4  UNL     1      52.981   2.761  -8.590  1.00  0.00     0.210 HD
ENDBRANCH  15  34
TORSDOF 8
ENDMDL
