MODEL 10
REMARK VINA RESULT: -7.166161906      2.813      8.359
REMARK  8 active torsions:
REMARK  status: ('A' for Active; 'I' for Inactive)
REMARK    1  A    between atoms: C2_2  and  C3_3 
REMARK    2  A    between atoms: C2_2  and  C8_13 
REMARK    3  A    between atoms: C3_3  and  C4_4 
REMARK    4  A    between atoms: C4_4  and  C5_5 
REMARK       I    between atoms: C5_5  and  N1_7 
REMARK    5  A    between atoms: N1_7  and  C6_9 
REMARK    6  A    between atoms: C6_9  and  C7_10 
REMARK    7  A    between atoms: C22_27  and  O4_28 
REMARK    8  A    between atoms: C26_33  and  O5_34 
ROOT
HETATM    1  C8  UNL     1      57.190  -1.751 -10.772  1.00  0.00    -0.002 C 
HETATM    2  C9  UNL     1      57.645  -0.388 -11.250  1.00  0.00     0.006 C 
HETATM    3  C10 UNL     1      56.894   0.614 -10.348  1.00  0.00     0.006 C 
HETATM    4  C11 UNL     1      56.182  -0.286  -9.388  1.00  0.00     0.001 C 
HETATM    5  C12 UNL     1      55.017   0.209  -8.672  1.00  0.00     0.024 C 
HETATM    6  C13 UNL     1      54.611  -0.935  -7.720  1.00  0.00     0.001 C 
HETATM    7  C14 UNL     1      54.089  -2.055  -8.587  1.00  0.00     0.007 C 
HETATM    8  C15 UNL     1      55.177  -2.524  -9.499  1.00  0.00     0.010 C 
HETATM    9  C16 UNL     1      55.784  -1.447 -10.321  1.00  0.00    -0.036 C 
HETATM   10  C17 UNL     1      54.860  -1.034 -11.406  1.00  0.00     0.016 C 
HETATM   11  C18 UNL     1      53.711  -0.485  -6.640  1.00  0.00    -0.036 C 
HETATM   12  C19 UNL     1      52.491   0.250  -7.091  1.00  0.00     0.016 C 
HETATM   13  C20 UNL     1      53.273  -1.680  -5.838  1.00  0.00     0.012 C 
HETATM   14  C21 UNL     1      52.810  -1.313  -4.444  1.00  0.00     0.032 C 
HETATM   15  C22 UNL     1      53.916  -0.730  -3.610  1.00  0.00     0.118 C 
HETATM   16  C23 UNL     1      55.076  -0.433  -4.539  1.00  0.00     0.037 C 
HETATM   17  C24 UNL     1      54.559   0.378  -5.693  1.00  0.00    -0.001 C 
HETATM   18  C25 UNL     1      55.776   0.915  -6.450  1.00  0.00     0.037 C 
HETATM   19  C26 UNL     1      55.288   1.406  -7.778  1.00  0.00     0.123 C 
ENDROOT
BRANCH   1  20
HETATM   20  C2  UNL     1      57.431  -2.877 -11.676  1.00  0.00    -0.013 C 
HETATM   21  C1  UNL     1      58.212  -3.934 -10.835  1.00  0.00     0.010 C 
BRANCH  20  22
HETATM   22  C3  UNL     1      58.355  -2.596 -12.836  1.00  0.00     0.014 C 
BRANCH  22  23
HETATM   23  C4  UNL     1      59.768  -3.134 -12.493  1.00  0.00     0.103 C 
BRANCH  23  24
HETATM   24  C5  UNL     1      60.731  -1.996 -12.505  1.00  0.00     0.218 C 
HETATM   25  O1  UNL     1      61.276  -1.593 -13.574  1.00  0.00    -0.274 OA
HETATM   26  N1  UNL     1      61.065  -1.325 -11.301  1.00  0.00    -0.351 N 
ATOM     27  H1  UNL     1      60.639  -1.634 -10.428  1.00  0.00     0.163 HD
BRANCH  26  28
HETATM   28  C6  UNL     1      62.000  -0.211 -11.276  1.00  0.00     0.235 C 
BRANCH  28  29
HETATM   29  C7  UNL     1      61.438   0.884 -10.431  1.00  0.00     0.191 C 
HETATM   30  O2  UNL     1      61.879   1.089  -9.262  1.00  0.00    -0.647 OA
HETATM   31  O3  UNL     1      60.426   1.698 -10.902  1.00  0.00    -0.647 OA
ENDBRANCH  28  29
ENDBRANCH  26  28
ENDBRANCH  23  24
ENDBRANCH  22  23
ENDBRANCH  20  22
ENDBRANCH   1  20
BRANCH  19  32
HETATM   32  O5  UNL     1      56.191   2.290  -8.340  1.00  0.00    -0.395 OA
ATOM     33  H5  UNL     1      55.836   3.167  -8.421  1.00  0.00     0.210 HD
ENDBRANCH  19  32
BRANCH  15  34
HETATM   34  O4  UNL     1      54.353  -1.557  -2.601  1.00  0.00    -0.396 OA
ATOM     35  H4  UNL     1      54.092  -2.465  -2.705  1.00  0.00     0.210 HD
ENDBRANCH  15  34
TORSDOF 8
ENDMDL
