MODEL 8
REMARK VINA RESULT: -7.341099490      2.827      8.120
REMARK  8 active torsions:
REMARK  status: ('A' for Active; 'I' for Inactive)
REMARK    1  A    between atoms: C2_2  and  C3_3 
REMARK    2  A    between atoms: C2_2  and  C8_13 
REMARK    3  A    between atoms: C3_3  and  C4_4 
REMARK    4  A    between atoms: C4_4  and  C5_5 
REMARK       I    between atoms: C5_5  and  N1_7 
REMARK    5  A    between atoms: N1_7  and  C6_9 
REMARK    6  A    between atoms: C6_9  and  C7_10 
REMARK    7  A    between atoms: C22_27  and  O4_28 
REMARK    8  A    between atoms: C26_33  and  O5_34 
ROOT
HETATM    1  C8  UNL     1      56.607  -1.954 -10.717  1.00  0.00    -0.002 C 
HETATM    2  C9  UNL     1      56.524  -0.704 -11.567  1.00  0.00     0.006 C 
HETATM    3  C10 UNL     1      55.646   0.267 -10.750  1.00  0.00     0.006 C 
HETATM    4  C11 UNL     1      55.419  -0.492  -9.481  1.00  0.00     0.001 C 
HETATM    5  C12 UNL     1      54.286  -0.151  -8.636  1.00  0.00     0.024 C 
HETATM    6  C13 UNL     1      54.421  -1.055  -7.393  1.00  0.00     0.001 C 
HETATM    7  C14 UNL     1      54.152  -2.467  -7.855  1.00  0.00     0.007 C 
HETATM    8  C15 UNL     1      55.173  -2.859  -8.874  1.00  0.00     0.010 C 
HETATM    9  C16 UNL     1      55.268  -1.927 -10.026  1.00  0.00    -0.036 C 
HETATM   10  C17 UNL     1      54.101  -2.090 -10.927  1.00  0.00     0.016 C 
HETATM   11  C18 UNL     1      53.608  -0.586  -6.255  1.00  0.00    -0.036 C 
HETATM   12  C19 UNL     1      52.162  -0.357  -6.555  1.00  0.00     0.016 C 
HETATM   13  C20 UNL     1      53.705  -1.587  -5.137  1.00  0.00     0.012 C 
HETATM   14  C21 UNL     1      53.377  -0.990  -3.785  1.00  0.00     0.032 C 
HETATM   15  C22 UNL     1      54.357   0.074  -3.376  1.00  0.00     0.118 C 
HETATM   16  C23 UNL     1      55.200   0.404  -4.592  1.00  0.00     0.037 C 
HETATM   17  C24 UNL     1      54.277   0.698  -5.739  1.00  0.00    -0.001 C 
HETATM   18  C25 UNL     1      55.123   1.314  -6.856  1.00  0.00     0.037 C 
HETATM   19  C26 UNL     1      54.301   1.273  -8.106  1.00  0.00     0.123 C 
ENDROOT
BRANCH   1  20
HETATM   20  C2  UNL     1      57.048  -3.177 -11.390  1.00  0.00    -0.013 C 
HETATM   21  C1  UNL     1      57.978  -3.908 -10.372  1.00  0.00     0.010 C 
BRANCH  20  22
HETATM   22  C3  UNL     1      57.933  -2.976 -12.596  1.00  0.00     0.014 C 
BRANCH  22  23
HETATM   23  C4  UNL     1      59.411  -3.169 -12.170  1.00  0.00     0.103 C 
BRANCH  23  24
HETATM   24  C5  UNL     1      60.109  -1.855 -12.248  1.00  0.00     0.218 C 
HETATM   25  O1  UNL     1      60.905  -1.574 -13.191  1.00  0.00    -0.274 OA
HETATM   26  N1  UNL     1      59.895  -0.869 -11.250  1.00  0.00    -0.351 N 
ATOM     27  H1  UNL     1      59.259  -1.074 -10.481  1.00  0.00     0.163 HD
BRANCH  26  28
HETATM   28  C6  UNL     1      60.558   0.425 -11.293  1.00  0.00     0.235 C 
BRANCH  28  29
HETATM   29  C7  UNL     1      59.695   1.443 -10.626  1.00  0.00     0.191 C 
HETATM   30  O2  UNL     1      59.838   1.705  -9.395  1.00  0.00    -0.647 OA
HETATM   31  O3  UNL     1      58.721   2.123 -11.331  1.00  0.00    -0.647 OA
ENDBRANCH  28  29
ENDBRANCH  26  28
ENDBRANCH  23  24
ENDBRANCH  22  23
ENDBRANCH  20  22
ENDBRANCH   1  20
BRANCH  19  32
HETATM   32  O5  UNL     1      54.774   2.177  -9.039  1.00  0.00    -0.395 OA
ATOM     33  H5  UNL     1      54.081   2.709  -9.412  1.00  0.00     0.210 HD
ENDBRANCH  19  32
BRANCH  15  34
HETATM   34  O4  UNL     1      55.189  -0.297  -2.345  1.00  0.00    -0.396 OA
ATOM     35  H4  UNL     1      55.789  -1.000  -2.566  1.00  0.00     0.210 HD
ENDBRANCH  15  34
TORSDOF 8
ENDMDL
