MODEL 2
REMARK VINA RESULT: -11.068772457      1.035      1.322
REMARK  8 active torsions:
REMARK  status: ('A' for Active; 'I' for Inactive)
REMARK    1  A    between atoms: C2_2  and  C4_4 
REMARK    2  A    between atoms: C7_7  and  C8_8 
REMARK       I    between atoms: C8_8  and  N1_10 
REMARK    3  A    between atoms: N1_10  and  C9_12 
REMARK    4  A    between atoms: C11_14  and  C12_15 
REMARK    5  A    between atoms: C12_15  and  N2_16 
REMARK    6  A    between atoms: C19_24  and  C20_25 
REMARK    7  A    between atoms: C23_31  and  C24_32 
REMARK    8  A    between atoms: C25_33  and  C26_34 
ROOT
HETATM    1  C4  UNL     1      -5.339  14.165   3.329  1.00  0.00    -0.036 A 
HETATM    2  C5  UNL     1      -5.921  14.764   2.260  1.00  0.00     0.010 A 
HETATM    3  C6  UNL     1      -5.376  15.925   1.665  1.00  0.00     0.017 A 
HETATM    4  C7  UNL     1      -4.238  16.522   2.120  1.00  0.00     0.033 A 
HETATM    5  C22 UNL     1      -3.631  15.904   3.228  1.00  0.00     0.038 A 
HETATM    6  C23 UNL     1      -4.173  14.786   3.788  1.00  0.00     0.025 A 
ENDROOT
BRANCH   4   7
HETATM    7  C8  UNL     1      -3.627  17.737   1.689  1.00  0.00     0.256 C 
HETATM    8  O1  UNL     1      -2.747  18.261   2.439  1.00  0.00    -0.267 OA
HETATM    9  N1  UNL     1      -3.832  18.495   0.507  1.00  0.00    -0.323 N 
ATOM     10  H1  UNL     1      -4.544  18.174  -0.148  1.00  0.00     0.169 HD
BRANCH   9  11
HETATM   11  C9  UNL     1      -3.109  19.673   0.177  1.00  0.00     0.036 A 
HETATM   12  C10 UNL     1      -3.551  20.625  -0.699  1.00  0.00     0.038 A 
HETATM   13  C11 UNL     1      -2.808  21.750  -1.098  1.00  0.00    -0.027 A 
HETATM   14  C18 UNL     1      -1.538  21.885  -0.549  1.00  0.00     0.025 A 
HETATM   15  C19 UNL     1      -1.046  20.932   0.350  1.00  0.00     0.050 A 
HETATM   16  C21 UNL     1      -1.836  19.856   0.692  1.00  0.00     0.045 A 
BRANCH  13  17
HETATM   17  C12 UNL     1      -3.327  22.723  -2.092  1.00  0.00     0.311 C 
BRANCH  17  18
HETATM   18  N2  UNL     1      -3.905  23.932  -1.628  1.00  0.00     0.096 N 
HETATM   19  C13 UNL     1      -5.337  23.796  -1.685  1.00  0.00     0.303 C 
HETATM   20  C14 UNL     1      -6.111  25.029  -1.369  1.00  0.00     0.302 C 
HETATM   21  N3  UNL     1      -5.554  26.202  -2.019  1.00  0.00     0.087 N 
HETATM   22  C15 UNL     1      -5.653  26.094  -3.461  1.00  0.00     0.310 C 
HETATM   23  C16 UNL     1      -4.194  26.317  -1.534  1.00  0.00     0.302 C 
HETATM   24  C17 UNL     1      -3.377  25.173  -2.052  1.00  0.00     0.303 C 
ENDBRANCH  17  18
ENDBRANCH  13  17
BRANCH  15  25
HETATM   25  C20 UNL     1       0.304  21.010   0.969  1.00  0.00     0.417 C 
HETATM   26  F1  UNL     1       1.221  21.447   0.014  1.00  0.00    -0.166 F 
HETATM   27  F2  UNL     1       0.270  21.960   1.960  1.00  0.00    -0.166 F 
HETATM   28  F3  UNL     1       0.692  19.781   1.477  1.00  0.00    -0.166 F 
ENDBRANCH  15  25
ENDBRANCH   9  11
ENDBRANCH   4   7
BRANCH   6  29
HETATM   29  C24 UNL     1      -3.682  14.352   5.118  1.00  0.00    -0.059 C 
HETATM   30  C25 UNL     1      -3.313  13.890   6.161  1.00  0.00    -0.041 C 
BRANCH  30  31
HETATM   31  C26 UNL     1      -2.895  13.265   7.401  1.00  0.00     0.110 A 
HETATM   32  C27 UNL     1      -1.738  12.615   7.700  1.00  0.00     0.129 A 
HETATM   33  N4  UNL     1      -1.796  12.214   8.993  1.00  0.00    -0.348 N 
HETATM   34  C28 UNL     1      -2.961  12.594   9.514  1.00  0.00     0.128 A 
ATOM     35  H4  UNL     1      -1.064  11.703   9.488  1.00  0.00     0.167 HD
HETATM   36  C29 UNL     1      -3.486  12.418  10.773  1.00  0.00     0.137 A 
HETATM   37  N6  UNL     1      -3.642  13.238   8.536  1.00  0.00    -0.297 N 
HETATM   38  N5  UNL     1      -4.717  12.921  10.992  1.00  0.00    -0.371 N 
HETATM   39  C30 UNL     1      -5.429  13.561  10.071  1.00  0.00     0.105 A 
ATOM     40  H5  UNL     1      -5.126  12.804  11.919  1.00  0.00     0.164 HD
HETATM   41  C31 UNL     1      -4.870  13.727   8.787  1.00  0.00     0.116 A 
ENDBRANCH  30  31
ENDBRANCH   6  29
BRANCH   1  42
HETATM   42  C2  UNL     1      -5.672  12.864   3.919  1.00  0.00     0.012 C 
HETATM   43  C1  UNL     1      -7.174  12.604   4.120  1.00  0.00     0.015 C 
HETATM   44  C3  UNL     1      -5.358  11.791   2.796  1.00  0.00     0.015 C 
ENDBRANCH   1  42
TORSDOF 8
ENDMDL
