MODEL 5
REMARK VINA RESULT: -10.723774478      3.764      5.171
REMARK  8 active torsions:
REMARK  status: ('A' for Active; 'I' for Inactive)
REMARK    1  A    between atoms: C2_2  and  C4_4 
REMARK    2  A    between atoms: C7_7  and  C8_8 
REMARK       I    between atoms: C8_8  and  N1_10 
REMARK    3  A    between atoms: N1_10  and  C9_12 
REMARK    4  A    between atoms: C11_14  and  C12_15 
REMARK    5  A    between atoms: C12_15  and  N2_16 
REMARK    6  A    between atoms: C19_24  and  C20_25 
REMARK    7  A    between atoms: C23_31  and  C24_32 
REMARK    8  A    between atoms: C25_33  and  C26_34 
ROOT
HETATM    1  C4  UNL     1      -5.669  14.184   3.824  1.00  0.00    -0.036 A 
HETATM    2  C5  UNL     1      -4.507  14.054   3.136  1.00  0.00     0.010 A 
HETATM    3  C6  UNL     1      -3.847  15.168   2.568  1.00  0.00     0.017 A 
HETATM    4  C7  UNL     1      -4.327  16.440   2.668  1.00  0.00     0.033 A 
HETATM    5  C22 UNL     1      -5.531  16.579   3.381  1.00  0.00     0.038 A 
HETATM    6  C23 UNL     1      -6.153  15.492   3.920  1.00  0.00     0.025 A 
ENDROOT
BRANCH   4   7
HETATM    7  C8  UNL     1      -3.828  17.637   2.073  1.00  0.00     0.256 C 
HETATM    8  O1  UNL     1      -3.071  18.380   2.771  1.00  0.00    -0.267 OA
HETATM    9  N1  UNL     1      -4.031  18.166   0.772  1.00  0.00    -0.323 N 
ATOM     10  H1  UNL     1      -4.652  17.658   0.142  1.00  0.00     0.169 HD
BRANCH   9  11
HETATM   11  C9  UNL     1      -3.424  19.356   0.289  1.00  0.00     0.036 A 
HETATM   12  C10 UNL     1      -4.044  20.255  -0.535  1.00  0.00     0.038 A 
HETATM   13  C11 UNL     1      -3.427  21.390  -1.087  1.00  0.00    -0.027 A 
HETATM   14  C18 UNL     1      -2.093  21.596  -0.758  1.00  0.00     0.025 A 
HETATM   15  C19 UNL     1      -1.419  20.700   0.079  1.00  0.00     0.050 A 
HETATM   16  C21 UNL     1      -2.094  19.608   0.581  1.00  0.00     0.045 A 
BRANCH  13  17
HETATM   17  C12 UNL     1      -4.144  22.302  -2.014  1.00  0.00     0.311 C 
BRANCH  17  18
HETATM   18  N2  UNL     1      -4.289  23.666  -1.656  1.00  0.00     0.096 N 
HETATM   19  C13 UNL     1      -5.692  23.942  -1.495  1.00  0.00     0.303 C 
HETATM   20  C14 UNL     1      -6.042  25.370  -1.259  1.00  0.00     0.302 C 
HETATM   21  N3  UNL     1      -5.313  26.262  -2.142  1.00  0.00     0.087 N 
HETATM   22  C15 UNL     1      -5.685  26.042  -3.526  1.00  0.00     0.310 C 
HETATM   23  C16 UNL     1      -3.909  26.031  -1.870  1.00  0.00     0.302 C 
HETATM   24  C17 UNL     1      -3.529  24.654  -2.324  1.00  0.00     0.303 C 
ENDBRANCH  17  18
ENDBRANCH  13  17
BRANCH  15  25
HETATM   25  C20 UNL     1       0.009  20.855   0.466  1.00  0.00     0.417 C 
HETATM   26  F1  UNL     1       0.600  21.823  -0.345  1.00  0.00    -0.166 F 
HETATM   27  F2  UNL     1       0.058  21.323   1.756  1.00  0.00    -0.166 F 
HETATM   28  F3  UNL     1       0.690  19.653   0.351  1.00  0.00    -0.166 F 
ENDBRANCH  15  25
ENDBRANCH   9  11
ENDBRANCH   4   7
BRANCH   6  29
HETATM   29  C24 UNL     1      -7.551  15.639   4.391  1.00  0.00    -0.059 C 
HETATM   30  C25 UNL     1      -8.663  15.661   4.838  1.00  0.00    -0.041 C 
BRANCH  30  31
HETATM   31  C26 UNL     1      -9.993  15.622   5.414  1.00  0.00     0.110 A 
HETATM   32  C27 UNL     1     -10.384  15.332   6.684  1.00  0.00     0.129 A 
HETATM   33  N4  UNL     1     -11.733  15.439   6.752  1.00  0.00    -0.348 N 
HETATM   34  C28 UNL     1     -12.201  15.789   5.555  1.00  0.00     0.128 A 
ATOM     35  H4  UNL     1     -12.299  15.278   7.585  1.00  0.00     0.167 HD
HETATM   36  C29 UNL     1     -13.487  16.013   5.120  1.00  0.00     0.137 A 
HETATM   37  N6  UNL     1     -11.134  15.900   4.728  1.00  0.00    -0.297 N 
HETATM   38  N5  UNL     1     -13.637  16.351   3.824  1.00  0.00    -0.371 N 
HETATM   39  C30 UNL     1     -12.628  16.473   2.969  1.00  0.00     0.105 A 
ATOM     40  H5  UNL     1     -14.582  16.523   3.479  1.00  0.00     0.164 HD
HETATM   41  C31 UNL     1     -11.319  16.237   3.438  1.00  0.00     0.116 A 
ENDBRANCH  30  31
ENDBRANCH   6  29
BRANCH   1  42
HETATM   42  C2  UNL     1      -6.353  13.164   4.627  1.00  0.00     0.012 C 
HETATM   43  C1  UNL     1      -6.308  11.740   4.049  1.00  0.00     0.015 C 
HETATM   44  C3  UNL     1      -5.458  12.963   5.918  1.00  0.00     0.015 C 
ENDBRANCH   1  42
TORSDOF 8
ENDMDL
