MODEL 1
REMARK VINA RESULT: -11.227001825      0.000      0.000
REMARK  8 active torsions:
REMARK  status: ('A' for Active; 'I' for Inactive)
REMARK    1  A    between atoms: C2_2  and  C4_4 
REMARK    2  A    between atoms: C7_7  and  C8_8 
REMARK       I    between atoms: C8_8  and  N1_10 
REMARK    3  A    between atoms: N1_10  and  C9_12 
REMARK    4  A    between atoms: C11_14  and  C12_15 
REMARK    5  A    between atoms: C12_15  and  N2_16 
REMARK    6  A    between atoms: C19_24  and  C20_25 
REMARK    7  A    between atoms: C23_31  and  C24_32 
REMARK    8  A    between atoms: C25_33  and  C26_34 
ROOT
HETATM    1  C4  UNL     1      -5.192  13.851   3.313  1.00  0.00    -0.036 A 
HETATM    2  C5  UNL     1      -5.739  14.395   2.197  1.00  0.00     0.010 A 
HETATM    3  C6  UNL     1      -5.253  15.600   1.639  1.00  0.00     0.017 A 
HETATM    4  C7  UNL     1      -4.212  16.296   2.178  1.00  0.00     0.033 A 
HETATM    5  C22 UNL     1      -3.643  15.734   3.335  1.00  0.00     0.038 A 
HETATM    6  C23 UNL     1      -4.126  14.573   3.858  1.00  0.00     0.025 A 
ENDROOT
BRANCH   4   7
HETATM    7  C8  UNL     1      -3.679  17.560   1.787  1.00  0.00     0.256 C 
HETATM    8  O1  UNL     1      -3.032  18.228   2.652  1.00  0.00    -0.267 OA
HETATM    9  N1  UNL     1      -3.738  18.232   0.539  1.00  0.00    -0.323 N 
ATOM     10  H1  UNL     1      -4.264  17.791  -0.216  1.00  0.00     0.169 HD
BRANCH   9  11
HETATM   11  C9  UNL     1      -3.111  19.479   0.271  1.00  0.00     0.036 A 
HETATM   12  C10 UNL     1      -3.727  20.532  -0.347  1.00  0.00     0.038 A 
HETATM   13  C11 UNL     1      -3.093  21.737  -0.693  1.00  0.00    -0.027 A 
HETATM   14  C18 UNL     1      -1.744  21.846  -0.374  1.00  0.00     0.025 A 
HETATM   15  C19 UNL     1      -1.074  20.791   0.256  1.00  0.00     0.050 A 
HETATM   16  C21 UNL     1      -1.767  19.640   0.563  1.00  0.00     0.045 A 
BRANCH  13  17
HETATM   17  C12 UNL     1      -3.808  22.825  -1.407  1.00  0.00     0.311 C 
BRANCH  17  18
HETATM   18  N2  UNL     1      -5.212  22.728  -1.571  1.00  0.00     0.096 N 
HETATM   19  C13 UNL     1      -5.474  22.147  -2.862  1.00  0.00     0.303 C 
HETATM   20  C14 UNL     1      -6.907  22.103  -3.266  1.00  0.00     0.302 C 
HETATM   21  N3  UNL     1      -7.594  23.349  -2.974  1.00  0.00     0.087 N 
HETATM   22  C15 UNL     1      -7.049  24.439  -3.760  1.00  0.00     0.310 C 
HETATM   23  C16 UNL     1      -7.474  23.543  -1.544  1.00  0.00     0.302 C 
HETATM   24  C17 UNL     1      -6.042  23.807  -1.190  1.00  0.00     0.303 C 
ENDBRANCH  17  18
ENDBRANCH  13  17
BRANCH  15  25
HETATM   25  C20 UNL     1       0.368  20.837   0.619  1.00  0.00     0.417 C 
HETATM   26  F1  UNL     1       0.999  21.822  -0.139  1.00  0.00    -0.166 F 
HETATM   27  F2  UNL     1       0.469  21.213   1.936  1.00  0.00    -0.166 F 
HETATM   28  F3  UNL     1       0.974  19.609   0.409  1.00  0.00    -0.166 F 
ENDBRANCH  15  25
ENDBRANCH   9  11
ENDBRANCH   4   7
BRANCH   6  29
HETATM   29  C24 UNL     1      -3.706  14.185   5.226  1.00  0.00    -0.059 C 
HETATM   30  C25 UNL     1      -3.344  13.763   6.289  1.00  0.00    -0.041 C 
BRANCH  30  31
HETATM   31  C26 UNL     1      -2.902  13.184   7.542  1.00  0.00     0.110 A 
HETATM   32  C27 UNL     1      -1.766  12.493   7.828  1.00  0.00     0.129 A 
HETATM   33  N4  UNL     1      -1.785  12.164   9.143  1.00  0.00    -0.348 N 
HETATM   34  C28 UNL     1      -2.906  12.630   9.690  1.00  0.00     0.128 A 
ATOM     35  H4  UNL     1      -1.058  11.644   9.634  1.00  0.00     0.167 HD
HETATM   36  C29 UNL     1      -3.383  12.549  10.978  1.00  0.00     0.137 A 
HETATM   37  N6  UNL     1      -3.598  13.256   8.708  1.00  0.00    -0.297 N 
HETATM   38  N5  UNL     1      -4.577  13.125  11.220  1.00  0.00    -0.371 N 
HETATM   39  C30 UNL     1      -5.297  13.750  10.295  1.00  0.00     0.105 A 
ATOM     40  H5  UNL     1      -4.949  13.078  12.168  1.00  0.00     0.164 HD
HETATM   41  C31 UNL     1      -4.789  13.819   8.982  1.00  0.00     0.116 A 
ENDBRANCH  30  31
ENDBRANCH   6  29
BRANCH   1  42
HETATM   42  C2  UNL     1      -5.455  12.525   3.884  1.00  0.00     0.012 C 
HETATM   43  C1  UNL     1      -6.910  12.276   4.315  1.00  0.00     0.015 C 
HETATM   44  C3  UNL     1      -5.351  11.509   2.674  1.00  0.00     0.015 C 
ENDBRANCH   1  42
TORSDOF 8
ENDMDL
