MODEL 4
REMARK VINA RESULT: -10.888629504      3.423      4.480
REMARK  8 active torsions:
REMARK  status: ('A' for Active; 'I' for Inactive)
REMARK    1  A    between atoms: C2_2  and  C4_4 
REMARK    2  A    between atoms: C7_7  and  C8_8 
REMARK       I    between atoms: C8_8  and  N1_10 
REMARK    3  A    between atoms: N1_10  and  C9_12 
REMARK    4  A    between atoms: C11_14  and  C12_15 
REMARK    5  A    between atoms: C12_15  and  N2_16 
REMARK    6  A    between atoms: C19_24  and  C20_25 
REMARK    7  A    between atoms: C23_31  and  C24_32 
REMARK    8  A    between atoms: C25_33  and  C26_34 
ROOT
HETATM    1  C4  UNL     1      -5.813  14.204   3.847  1.00  0.00    -0.036 A 
HETATM    2  C5  UNL     1      -4.599  14.036   3.266  1.00  0.00     0.010 A 
HETATM    3  C6  UNL     1      -3.871  15.122   2.729  1.00  0.00     0.017 A 
HETATM    4  C7  UNL     1      -4.332  16.405   2.755  1.00  0.00     0.033 A 
HETATM    5  C22 UNL     1      -5.590  16.583   3.357  1.00  0.00     0.038 A 
HETATM    6  C23 UNL     1      -6.278  15.523   3.868  1.00  0.00     0.025 A 
ENDROOT
BRANCH   4   7
HETATM    7  C8  UNL     1      -3.761  17.576   2.175  1.00  0.00     0.256 C 
HETATM    8  O1  UNL     1      -2.901  18.219   2.853  1.00  0.00    -0.267 OA
HETATM    9  N1  UNL     1      -3.987  18.174   0.909  1.00  0.00    -0.323 N 
ATOM     10  H1  UNL     1      -4.686  17.750   0.299  1.00  0.00     0.169 HD
BRANCH   9  11
HETATM   11  C9  UNL     1      -3.302  19.325   0.434  1.00  0.00     0.036 A 
HETATM   12  C10 UNL     1      -3.878  20.300  -0.333  1.00  0.00     0.038 A 
HETATM   13  C11 UNL     1      -3.190  21.397  -0.879  1.00  0.00    -0.027 A 
HETATM   14  C18 UNL     1      -1.830  21.479  -0.606  1.00  0.00     0.025 A 
HETATM   15  C19 UNL     1      -1.200  20.502   0.172  1.00  0.00     0.050 A 
HETATM   16  C21 UNL     1      -1.944  19.454   0.672  1.00  0.00     0.045 A 
BRANCH  13  17
HETATM   17  C12 UNL     1      -3.865  22.397  -1.745  1.00  0.00     0.311 C 
BRANCH  17  18
HETATM   18  N2  UNL     1      -5.281  22.473  -1.726  1.00  0.00     0.096 N 
HETATM   19  C13 UNL     1      -5.776  21.930  -2.964  1.00  0.00     0.303 C 
HETATM   20  C14 UNL     1      -7.243  22.062  -3.180  1.00  0.00     0.302 C 
HETATM   21  N3  UNL     1      -7.730  23.383  -2.822  1.00  0.00     0.087 N 
HETATM   22  C15 UNL     1      -7.162  24.398  -3.687  1.00  0.00     0.310 C 
HETATM   23  C16 UNL     1      -7.404  23.560  -1.422  1.00  0.00     0.302 C 
HETATM   24  C17 UNL     1      -5.917  23.646  -1.258  1.00  0.00     0.303 C 
ENDBRANCH  17  18
ENDBRANCH  13  17
BRANCH  15  25
HETATM   25  C20 UNL     1       0.252  20.523   0.497  1.00  0.00     0.417 C 
HETATM   26  F1  UNL     1       0.822  21.678  -0.033  1.00  0.00    -0.166 F 
HETATM   27  F2  UNL     1       0.387  20.594   1.862  1.00  0.00    -0.166 F 
HETATM   28  F3  UNL     1       0.892  19.400  -0.003  1.00  0.00    -0.166 F 
ENDBRANCH  15  25
ENDBRANCH   9  11
ENDBRANCH   4   7
BRANCH   6  29
HETATM   29  C24 UNL     1      -7.708  15.707   4.211  1.00  0.00    -0.059 C 
HETATM   30  C25 UNL     1      -8.861  15.747   4.538  1.00  0.00    -0.041 C 
BRANCH  30  31
HETATM   31  C26 UNL     1     -10.250  15.724   4.955  1.00  0.00     0.110 A 
HETATM   32  C27 UNL     1     -11.382  15.884   4.219  1.00  0.00     0.129 A 
HETATM   33  N4  UNL     1     -12.449  15.766   5.046  1.00  0.00    -0.348 N 
HETATM   34  C28 UNL     1     -12.016  15.537   6.284  1.00  0.00     0.128 A 
ATOM     35  H4  UNL     1     -13.427  15.840   4.765  1.00  0.00     0.167 HD
HETATM   36  C29 UNL     1     -12.704  15.354   7.461  1.00  0.00     0.137 A 
HETATM   37  N6  UNL     1     -10.662  15.513   6.233  1.00  0.00    -0.297 N 
HETATM   38  N5  UNL     1     -11.965  15.147   8.569  1.00  0.00    -0.371 N 
HETATM   39  C30 UNL     1     -10.637  15.114   8.577  1.00  0.00     0.105 A 
ATOM     40  H5  UNL     1     -12.454  15.007   9.453  1.00  0.00     0.164 HD
HETATM   41  C31 UNL     1      -9.954  15.306   7.359  1.00  0.00     0.116 A 
ENDBRANCH  30  31
ENDBRANCH   6  29
BRANCH   1  42
HETATM   42  C2  UNL     1      -6.585  13.219   4.613  1.00  0.00     0.012 C 
HETATM   43  C1  UNL     1      -6.446  11.765   4.133  1.00  0.00     0.015 C 
HETATM   44  C3  UNL     1      -5.865  13.111   6.020  1.00  0.00     0.015 C 
ENDBRANCH   1  42
TORSDOF 8
ENDMDL
