MODEL 3
REMARK VINA RESULT: -11.018068451      3.461      4.564
REMARK  8 active torsions:
REMARK  status: ('A' for Active; 'I' for Inactive)
REMARK    1  A    between atoms: C2_2  and  C4_4 
REMARK    2  A    between atoms: C7_7  and  C8_8 
REMARK       I    between atoms: C8_8  and  N1_10 
REMARK    3  A    between atoms: N1_10  and  C9_12 
REMARK    4  A    between atoms: C11_14  and  C12_15 
REMARK    5  A    between atoms: C12_15  and  N2_16 
REMARK    6  A    between atoms: C19_24  and  C20_25 
REMARK    7  A    between atoms: C23_31  and  C24_32 
REMARK    8  A    between atoms: C25_33  and  C26_34 
ROOT
HETATM    1  C4  UNL     1      -5.474  14.427   3.785  1.00  0.00    -0.036 A 
HETATM    2  C5  UNL     1      -4.258  14.306   3.195  1.00  0.00     0.010 A 
HETATM    3  C6  UNL     1      -3.592  15.415   2.623  1.00  0.00     0.017 A 
HETATM    4  C7  UNL     1      -4.119  16.672   2.621  1.00  0.00     0.033 A 
HETATM    5  C22 UNL     1      -5.379  16.801   3.233  1.00  0.00     0.038 A 
HETATM    6  C23 UNL     1      -6.006  15.721   3.777  1.00  0.00     0.025 A 
ENDROOT
BRANCH   4   7
HETATM    7  C8  UNL     1      -3.615  17.856   2.006  1.00  0.00     0.256 C 
HETATM    8  O1  UNL     1      -2.755  18.540   2.643  1.00  0.00    -0.267 OA
HETATM    9  N1  UNL     1      -3.911  18.428   0.742  1.00  0.00    -0.323 N 
ATOM     10  H1  UNL     1      -4.616  17.970   0.164  1.00  0.00     0.169 HD
BRANCH   9  11
HETATM   11  C9  UNL     1      -3.289  19.597   0.227  1.00  0.00     0.036 A 
HETATM   12  C10 UNL     1      -3.881  20.458  -0.655  1.00  0.00     0.038 A 
HETATM   13  C11 UNL     1      -3.245  21.569  -1.236  1.00  0.00    -0.027 A 
HETATM   14  C18 UNL     1      -1.923  21.791  -0.873  1.00  0.00     0.025 A 
HETATM   15  C19 UNL     1      -1.277  20.933   0.025  1.00  0.00     0.050 A 
HETATM   16  C21 UNL     1      -1.969  19.864   0.552  1.00  0.00     0.045 A 
BRANCH  13  17
HETATM   17  C12 UNL     1      -3.931  22.438  -2.225  1.00  0.00     0.311 C 
BRANCH  17  18
HETATM   18  N2  UNL     1      -3.943  23.840  -2.012  1.00  0.00     0.096 N 
HETATM   19  C13 UNL     1      -5.299  24.242  -1.747  1.00  0.00     0.303 C 
HETATM   20  C14 UNL     1      -5.522  25.711  -1.642  1.00  0.00     0.302 C 
HETATM   21  N3  UNL     1      -4.831  26.443  -2.688  1.00  0.00     0.087 N 
HETATM   22  C15 UNL     1      -5.362  26.108  -3.995  1.00  0.00     0.310 C 
HETATM   23  C16 UNL     1      -3.426  26.130  -2.531  1.00  0.00     0.302 C 
HETATM   24  C17 UNL     1      -3.192  24.687  -2.860  1.00  0.00     0.303 C 
ENDBRANCH  17  18
ENDBRANCH  13  17
BRANCH  15  25
HETATM   25  C20 UNL     1       0.137  21.107   0.452  1.00  0.00     0.417 C 
HETATM   26  F1  UNL     1       0.750  22.053  -0.369  1.00  0.00    -0.166 F 
HETATM   27  F2  UNL     1       0.144  21.613   1.728  1.00  0.00    -0.166 F 
HETATM   28  F3  UNL     1       0.827  19.906   0.394  1.00  0.00    -0.166 F 
ENDBRANCH  15  25
ENDBRANCH   9  11
ENDBRANCH   4   7
BRANCH   6  29
HETATM   29  C24 UNL     1      -7.441  15.839   4.131  1.00  0.00    -0.059 C 
HETATM   30  C25 UNL     1      -8.586  15.838   4.485  1.00  0.00    -0.041 C 
BRANCH  30  31
HETATM   31  C26 UNL     1      -9.959  15.770   4.946  1.00  0.00     0.110 A 
HETATM   32  C27 UNL     1     -11.119  15.918   4.252  1.00  0.00     0.129 A 
HETATM   33  N4  UNL     1     -12.155  15.755   5.110  1.00  0.00    -0.348 N 
HETATM   34  C28 UNL     1     -11.675  15.509   6.327  1.00  0.00     0.128 A 
ATOM     35  H4  UNL     1     -13.143  15.811   4.863  1.00  0.00     0.167 HD
HETATM   36  C29 UNL     1     -12.319  15.282   7.522  1.00  0.00     0.137 A 
HETATM   37  N6  UNL     1     -10.324  15.520   6.232  1.00  0.00    -0.297 N 
HETATM   38  N5  UNL     1     -11.539  15.070   8.600  1.00  0.00    -0.371 N 
HETATM   39  C30 UNL     1     -10.211  15.070   8.564  1.00  0.00     0.105 A 
ATOM     40  H5  UNL     1     -11.995  14.898   9.496  1.00  0.00     0.164 HD
HETATM   41  C31 UNL     1      -9.574  15.306   7.329  1.00  0.00     0.116 A 
ENDBRANCH  30  31
ENDBRANCH   6  29
BRANCH   1  42
HETATM   42  C2  UNL     1      -6.186  13.424   4.584  1.00  0.00     0.012 C 
HETATM   43  C1  UNL     1      -6.134  11.990   4.028  1.00  0.00     0.015 C 
HETATM   44  C3  UNL     1      -5.327  13.237   5.902  1.00  0.00     0.015 C 
ENDBRANCH   1  42
TORSDOF 8
ENDMDL
