MODEL 17
REMARK VINA RESULT: -7.150722779      2.311      4.936
REMARK  6 active torsions:
REMARK  status: ('A' for Active; 'I' for Inactive)
REMARK    1  A    between atoms: C3_6  and  C4_7 
REMARK    2  A    between atoms: C5_10  and  N4_11 
REMARK    3  A    between atoms: N4_11  and  C6_13 
REMARK    4  A    between atoms: C9_16  and  N5_17 
REMARK    5  A    between atoms: C14_28  and  C15_29 
REMARK    6  A    between atoms: C15_29  and  C16_30 
ROOT
HETATM    1  C4  UNL     1      -3.608 -17.197  -7.558  1.00  0.00     0.102 A 
HETATM    2  N3  UNL     1      -4.662 -17.229  -8.364  1.00  0.00    -0.188 N 
ATOM      3  H3  UNL     1      -5.368 -17.947  -8.202  1.00  0.00     0.184 HD
HETATM    4  C5  UNL     1      -4.855 -16.377  -9.378  1.00  0.00     0.678 A 
HETATM    5  N6  UNL     1      -3.947 -15.425  -9.615  1.00  0.00    -0.199 N 
ATOM      6  H6  UNL     1      -4.088 -14.772 -10.385  1.00  0.00     0.183 HD
HETATM    7  C12 UNL     1      -2.859 -15.323  -8.852  1.00  0.00     0.150 A 
HETATM    8  C13 UNL     1      -2.666 -16.205  -7.808  1.00  0.00     0.160 A 
HETATM    9  F1  UNL     1      -1.580 -16.133  -7.015  1.00  0.00    -0.202 F 
ENDROOT
BRANCH   4  10
HETATM   10  N4  UNL     1      -6.031 -16.482 -10.212  1.00  0.00    -0.221 N 
ATOM     11  H4  UNL     1      -6.411 -15.643 -10.651  1.00  0.00     0.178 HD
BRANCH  10  12
HETATM   12  C6  UNL     1      -6.678 -17.752 -10.436  1.00  0.00     0.099 C 
HETATM   13  C7  UNL     1      -7.982 -17.636 -11.164  1.00  0.00     0.027 C 
HETATM   14  C8  UNL     1      -7.756 -17.556 -12.667  1.00  0.00     0.035 C 
HETATM   15  C9  UNL     1      -7.390 -18.966 -13.114  1.00  0.00     0.183 C 
HETATM   16  C10 UNL     1      -6.455 -19.597 -12.129  1.00  0.00     0.035 C 
HETATM   17  C11 UNL     1      -5.747 -18.611 -11.241  1.00  0.00     0.027 C 
BRANCH  15  18
HETATM   18  N5  UNL     1      -8.541 -19.811 -13.271  1.00  0.00    -0.075 N 
ATOM     19  H53 UNL     1      -8.379 -20.524 -13.982  1.00  0.00     0.274 HD
ATOM     20  H52 UNL     1      -8.667 -20.415 -12.459  1.00  0.00     0.274 HD
ATOM     21  H51 UNL     1      -9.391 -19.282 -13.470  1.00  0.00     0.274 HD
ENDBRANCH  15  18
ENDBRANCH  10  12
ENDBRANCH   4  10
BRANCH   1  22
HETATM   22  C3  UNL     1      -3.375 -18.106  -6.445  1.00  0.00     0.035 A 
HETATM   23  C2  UNL     1      -3.123 -17.850  -5.114  1.00  0.00     0.123 A 
HETATM   24  N2  UNL     1      -2.971 -19.048  -4.469  1.00  0.00    -0.309 N 
HETATM   25  N1  UNL     1      -3.120 -20.027  -5.350  1.00  0.00    -0.300 N 
ATOM     26  H2  UNL     1      -2.776 -19.167  -3.475  1.00  0.00     0.186 HD
HETATM   27  C1  UNL     1      -3.033 -21.473  -5.096  1.00  0.00     0.177 C 
HETATM   28  C14 UNL     1      -3.366 -19.482  -6.558  1.00  0.00     0.042 A 
BRANCH  28  29
HETATM   29  C15 UNL     1      -3.591 -20.248  -7.803  1.00  0.00     0.064 C 
BRANCH  29  30
HETATM   30  C16 UNL     1      -5.025 -20.605  -8.013  1.00  0.00    -0.009 A 
HETATM   31  C17 UNL     1      -5.200 -21.657  -9.133  1.00  0.00     0.005 A 
HETATM   32  C18 UNL     1      -5.627 -21.900  -7.704  1.00  0.00     0.005 A 
ENDBRANCH  29  30
ENDBRANCH  28  29
ENDBRANCH   1  22
TORSDOF 6
ENDMDL
