MODEL 10
REMARK VINA RESULT: -7.213570402      1.770      5.255
REMARK  6 active torsions:
REMARK  status: ('A' for Active; 'I' for Inactive)
REMARK    1  A    between atoms: C3_6  and  C4_7 
REMARK    2  A    between atoms: C5_10  and  N4_11 
REMARK    3  A    between atoms: N4_11  and  C6_13 
REMARK    4  A    between atoms: C9_16  and  N5_17 
REMARK    5  A    between atoms: C14_28  and  C15_29 
REMARK    6  A    between atoms: C15_29  and  C16_30 
ROOT
HETATM    1  C4  UNL     1      -3.318 -18.381  -7.160  1.00  0.00     0.102 A 
HETATM    2  N3  UNL     1      -4.307 -17.839  -7.860  1.00  0.00    -0.188 N 
ATOM      3  H3  UNL     1      -5.223 -18.287  -7.820  1.00  0.00     0.184 HD
HETATM    4  C5  UNL     1      -4.177 -16.741  -8.614  1.00  0.00     0.678 A 
HETATM    5  N6  UNL     1      -2.989 -16.134  -8.685  1.00  0.00    -0.199 N 
ATOM      6  H6  UNL     1      -2.882 -15.296  -9.257  1.00  0.00     0.183 HD
HETATM    7  C12 UNL     1      -1.942 -16.613  -8.013  1.00  0.00     0.150 A 
HETATM    8  C13 UNL     1      -2.084 -17.746  -7.237  1.00  0.00     0.160 A 
HETATM    9  F1  UNL     1      -1.049 -18.259  -6.543  1.00  0.00    -0.202 F 
ENDROOT
BRANCH   4  10
HETATM   10  N4  UNL     1      -5.306 -16.217  -9.348  1.00  0.00    -0.221 N 
ATOM     11  H4  UNL     1      -5.832 -15.431  -8.964  1.00  0.00     0.178 HD
BRANCH  10  12
HETATM   12  C6  UNL     1      -5.705 -16.783 -10.613  1.00  0.00     0.099 C 
HETATM   13  C7  UNL     1      -6.140 -18.213 -10.516  1.00  0.00     0.027 C 
HETATM   14  C8  UNL     1      -7.596 -18.306 -10.085  1.00  0.00     0.035 C 
HETATM   15  C9  UNL     1      -8.422 -17.919 -11.305  1.00  0.00     0.183 C 
HETATM   16  C10 UNL     1      -7.799 -16.751 -12.005  1.00  0.00     0.035 C 
HETATM   17  C11 UNL     1      -6.843 -15.965 -11.149  1.00  0.00     0.027 C 
BRANCH  15  18
HETATM   18  N5  UNL     1      -8.567 -19.000 -12.239  1.00  0.00    -0.075 N 
ATOM     19  H53 UNL     1      -8.881 -19.850 -11.771  1.00  0.00     0.274 HD
ATOM     20  H52 UNL     1      -9.365 -18.849 -12.855  1.00  0.00     0.274 HD
ATOM     21  H51 UNL     1      -7.716 -19.171 -12.777  1.00  0.00     0.274 HD
ENDBRANCH  15  18
ENDBRANCH  10  12
ENDBRANCH   4  10
BRANCH   1  22
HETATM   22  C3  UNL     1      -3.432 -19.570  -6.327  1.00  0.00     0.035 A 
HETATM   23  C2  UNL     1      -3.314 -19.724  -4.963  1.00  0.00     0.123 A 
HETATM   24  N2  UNL     1      -3.503 -21.047  -4.664  1.00  0.00    -0.309 N 
HETATM   25  N1  UNL     1      -3.732 -21.709  -5.790  1.00  0.00    -0.300 N 
ATOM     26  H2  UNL     1      -3.474 -21.455  -3.730  1.00  0.00     0.186 HD
HETATM   27  C1  UNL     1      -3.984 -23.150  -5.939  1.00  0.00     0.177 C 
HETATM   28  C14 UNL     1      -3.694 -20.835  -6.815  1.00  0.00     0.042 A 
BRANCH  28  29
HETATM   29  C15 UNL     1      -3.903 -21.187  -8.236  1.00  0.00     0.064 C 
BRANCH  29  30
HETATM   30  C16 UNL     1      -5.342 -21.160  -8.635  1.00  0.00    -0.009 A 
HETATM   31  C17 UNL     1      -5.587 -21.913  -9.963  1.00  0.00     0.005 A 
HETATM   32  C18 UNL     1      -6.234 -22.317  -8.658  1.00  0.00     0.005 A 
ENDBRANCH  29  30
ENDBRANCH  28  29
ENDBRANCH   1  22
TORSDOF 6
ENDMDL
