MODEL 3
REMARK VINA RESULT: -7.467893683      2.263      7.052
REMARK  6 active torsions:
REMARK  status: ('A' for Active; 'I' for Inactive)
REMARK    1  A    between atoms: C3_6  and  C4_7 
REMARK    2  A    between atoms: C5_10  and  N4_11 
REMARK    3  A    between atoms: N4_11  and  C6_13 
REMARK    4  A    between atoms: C9_16  and  N5_17 
REMARK    5  A    between atoms: C14_28  and  C15_29 
REMARK    6  A    between atoms: C15_29  and  C16_30 
ROOT
HETATM    1  C4  UNL     1      -6.140 -20.176  -9.651  1.00  0.00     0.102 A 
HETATM    2  N3  UNL     1      -5.211 -19.230  -9.574  1.00  0.00    -0.188 N 
ATOM      3  H3  UNL     1      -4.244 -19.519  -9.429  1.00  0.00     0.184 HD
HETATM    4  C5  UNL     1      -5.466 -17.920  -9.676  1.00  0.00     0.678 A 
HETATM    5  N6  UNL     1      -6.725 -17.512  -9.867  1.00  0.00    -0.199 N 
ATOM      6  H6  UNL     1      -6.927 -16.516  -9.946  1.00  0.00     0.183 HD
HETATM    7  C12 UNL     1      -7.718 -18.397  -9.955  1.00  0.00     0.150 A 
HETATM    8  C13 UNL     1      -7.447 -19.746  -9.849  1.00  0.00     0.160 A 
HETATM    9  F1  UNL     1      -8.423 -20.670  -9.933  1.00  0.00    -0.202 F 
ENDROOT
BRANCH   4  10
HETATM   10  N4  UNL     1      -4.396 -16.953  -9.579  1.00  0.00    -0.221 N 
ATOM     11  H4  UNL     1      -4.009 -16.548 -10.432  1.00  0.00     0.178 HD
BRANCH  10  12
HETATM   12  C6  UNL     1      -3.865 -16.551  -8.300  1.00  0.00     0.099 C 
HETATM   13  C7  UNL     1      -3.699 -17.689  -7.339  1.00  0.00     0.027 C 
HETATM   14  C8  UNL     1      -2.386 -18.417  -7.587  1.00  0.00     0.035 C 
HETATM   15  C9  UNL     1      -1.292 -17.514  -7.033  1.00  0.00     0.183 C 
HETATM   16  C10 UNL     1      -1.570 -16.085  -7.385  1.00  0.00     0.035 C 
HETATM   17  C11 UNL     1      -2.526 -15.915  -8.534  1.00  0.00     0.027 C 
BRANCH  15  18
HETATM   18  N5  UNL     1      -1.155 -17.624  -5.607  1.00  0.00    -0.075 N 
ATOM     19  H53 UNL     1      -1.977 -18.063  -5.192  1.00  0.00     0.274 HD
ATOM     20  H52 UNL     1      -0.455 -18.324  -5.359  1.00  0.00     0.274 HD
ATOM     21  H51 UNL     1      -0.952 -16.729  -5.162  1.00  0.00     0.274 HD
ENDBRANCH  15  18
ENDBRANCH  10  12
ENDBRANCH   4  10
BRANCH   1  22
HETATM   22  C3  UNL     1      -5.890 -21.606  -9.550  1.00  0.00     0.035 A 
HETATM   23  C2  UNL     1      -5.830 -22.578 -10.525  1.00  0.00     0.123 A 
HETATM   24  N2  UNL     1      -5.570 -23.778  -9.919  1.00  0.00    -0.309 N 
HETATM   25  N1  UNL     1      -5.469 -23.581  -8.612  1.00  0.00    -0.300 N 
ATOM     26  H2  UNL     1      -5.471 -24.674 -10.394  1.00  0.00     0.186 HD
HETATM   27  C1  UNL     1      -5.201 -24.592  -7.578  1.00  0.00     0.177 C 
HETATM   28  C14 UNL     1      -5.659 -22.270  -8.361  1.00  0.00     0.042 A 
BRANCH  28  29
HETATM   29  C15 UNL     1      -5.623 -21.651  -7.018  1.00  0.00     0.064 C 
BRANCH  29  30
HETATM   30  C16 UNL     1      -4.243 -21.279  -6.589  1.00  0.00    -0.009 A 
HETATM   31  C17 UNL     1      -4.219 -20.715  -5.148  1.00  0.00     0.005 A 
HETATM   32  C18 UNL     1      -3.467 -21.961  -5.555  1.00  0.00     0.005 A 
ENDBRANCH  29  30
ENDBRANCH  28  29
ENDBRANCH   1  22
TORSDOF 6
ENDMDL
