MODEL 2
REMARK VINA RESULT: -7.634238136      2.797      6.067
REMARK  6 active torsions:
REMARK  status: ('A' for Active; 'I' for Inactive)
REMARK    1  A    between atoms: C3_6  and  C4_7 
REMARK    2  A    between atoms: C5_10  and  N4_11 
REMARK    3  A    between atoms: N4_11  and  C6_13 
REMARK    4  A    between atoms: C9_16  and  N5_17 
REMARK    5  A    between atoms: C14_28  and  C15_29 
REMARK    6  A    between atoms: C15_29  and  C16_30 
ROOT
HETATM    1  C4  UNL     1      -6.301 -20.591  -9.140  1.00  0.00     0.102 A 
HETATM    2  N3  UNL     1      -5.170 -20.502  -8.451  1.00  0.00    -0.188 N 
ATOM      3  H3  UNL     1      -4.366 -20.069  -8.905  1.00  0.00     0.184 HD
HETATM    4  C5  UNL     1      -5.020 -20.946  -7.198  1.00  0.00     0.678 A 
HETATM    5  N6  UNL     1      -6.056 -21.518  -6.578  1.00  0.00    -0.199 N 
ATOM      6  H6  UNL     1      -5.950 -21.858  -5.622  1.00  0.00     0.183 HD
HETATM    7  C12 UNL     1      -7.229 -21.648  -7.198  1.00  0.00     0.150 A 
HETATM    8  C13 UNL     1      -7.376 -21.188  -8.491  1.00  0.00     0.160 A 
HETATM    9  F1  UNL     1      -8.546 -21.300  -9.151  1.00  0.00    -0.202 F 
ENDROOT
BRANCH   4  10
HETATM   10  N4  UNL     1      -3.751 -20.812  -6.518  1.00  0.00    -0.221 N 
ATOM     11  H4  UNL     1      -2.933 -21.300  -6.884  1.00  0.00     0.178 HD
BRANCH  10  12
HETATM   12  C6  UNL     1      -3.620 -20.001  -5.332  1.00  0.00     0.099 C 
HETATM   13  C7  UNL     1      -2.429 -20.357  -4.495  1.00  0.00     0.027 C 
HETATM   14  C8  UNL     1      -1.175 -19.678  -5.025  1.00  0.00     0.035 C 
HETATM   15  C9  UNL     1      -1.286 -18.213  -4.619  1.00  0.00     0.183 C 
HETATM   16  C10 UNL     1      -2.687 -17.723  -4.819  1.00  0.00     0.035 C 
HETATM   17  C11 UNL     1      -3.500 -18.568  -5.761  1.00  0.00     0.027 C 
BRANCH  15  18
HETATM   18  N5  UNL     1      -0.904 -17.989  -3.253  1.00  0.00    -0.075 N 
ATOM     19  H53 UNL     1      -1.622 -17.466  -2.752  1.00  0.00     0.274 HD
ATOM     20  H52 UNL     1      -0.930 -18.857  -2.717  1.00  0.00     0.274 HD
ATOM     21  H51 UNL     1       0.005 -17.534  -3.169  1.00  0.00     0.274 HD
ENDBRANCH  15  18
ENDBRANCH  10  12
ENDBRANCH   4  10
BRANCH   1  22
HETATM   22  C3  UNL     1      -6.495 -20.112 -10.501  1.00  0.00     0.035 A 
HETATM   23  C2  UNL     1      -6.574 -20.801 -11.692  1.00  0.00     0.123 A 
HETATM   24  N2  UNL     1      -6.758 -19.893 -12.701  1.00  0.00    -0.309 N 
HETATM   25  N1  UNL     1      -6.794 -18.676 -12.175  1.00  0.00    -0.300 N 
ATOM     26  H2  UNL     1      -6.852 -20.116 -13.691  1.00  0.00     0.186 HD
HETATM   27  C1  UNL     1      -6.970 -17.403 -12.891  1.00  0.00     0.177 C 
HETATM   28  C14 UNL     1      -6.637 -18.782 -10.841  1.00  0.00     0.042 A 
BRANCH  28  29
HETATM   29  C15 UNL     1      -6.621 -17.642  -9.898  1.00  0.00     0.064 C 
BRANCH  29  30
HETATM   30  C16 UNL     1      -5.240 -17.173  -9.579  1.00  0.00    -0.009 A 
HETATM   31  C17 UNL     1      -5.058 -15.668  -9.881  1.00  0.00     0.005 A 
HETATM   32  C18 UNL     1      -4.889 -16.254  -8.498  1.00  0.00     0.005 A 
ENDBRANCH  29  30
ENDBRANCH  28  29
ENDBRANCH   1  22
TORSDOF 6
ENDMDL
