MODEL 1
REMARK VINA RESULT: -7.670995097      0.000      0.000
REMARK  6 active torsions:
REMARK  status: ('A' for Active; 'I' for Inactive)
REMARK    1  A    between atoms: C3_6  and  C4_7 
REMARK    2  A    between atoms: C5_10  and  N4_11 
REMARK    3  A    between atoms: N4_11  and  C6_13 
REMARK    4  A    between atoms: C9_16  and  N5_17 
REMARK    5  A    between atoms: C14_28  and  C15_29 
REMARK    6  A    between atoms: C15_29  and  C16_30 
ROOT
HETATM    1  C4  UNL     1      -3.442 -19.655  -6.911  1.00  0.00     0.102 A 
HETATM    2  N3  UNL     1      -3.813 -20.666  -7.687  1.00  0.00    -0.188 N 
ATOM      3  H3  UNL     1      -3.718 -20.554  -8.697  1.00  0.00     0.184 HD
HETATM    4  C5  UNL     1      -4.304 -21.823  -7.228  1.00  0.00     0.678 A 
HETATM    5  N6  UNL     1      -4.439 -21.998  -5.909  1.00  0.00    -0.199 N 
ATOM      6  H6  UNL     1      -4.811 -22.877  -5.551  1.00  0.00     0.183 HD
HETATM    7  C12 UNL     1      -4.091 -21.033  -5.058  1.00  0.00     0.150 A 
HETATM    8  C13 UNL     1      -3.585 -19.842  -5.541  1.00  0.00     0.160 A 
HETATM    9  F1  UNL     1      -3.222 -18.843  -4.712  1.00  0.00    -0.202 F 
ENDROOT
BRANCH   4  10
HETATM   10  N4  UNL     1      -4.686 -22.874  -8.143  1.00  0.00    -0.221 N 
ATOM     11  H4  UNL     1      -3.964 -23.457  -8.566  1.00  0.00     0.178 HD
BRANCH  10  12
HETATM   12  C6  UNL     1      -6.071 -23.114  -8.468  1.00  0.00     0.099 C 
HETATM   13  C7  UNL     1      -6.662 -22.071  -9.367  1.00  0.00     0.027 C 
HETATM   14  C8  UNL     1      -6.332 -22.363 -10.823  1.00  0.00     0.035 C 
HETATM   15  C9  UNL     1      -7.228 -23.525 -11.233  1.00  0.00     0.183 C 
HETATM   16  C10 UNL     1      -7.291 -24.545 -10.138  1.00  0.00     0.035 C 
HETATM   17  C11 UNL     1      -6.162 -24.449  -9.150  1.00  0.00     0.027 C 
BRANCH  15  18
HETATM   18  N5  UNL     1      -8.563 -23.105 -11.557  1.00  0.00    -0.075 N 
ATOM     19  H53 UNL     1      -8.568 -22.153 -11.925  1.00  0.00     0.274 HD
ATOM     20  H52 UNL     1      -8.914 -23.599 -12.377  1.00  0.00     0.274 HD
ATOM     21  H51 UNL     1      -9.205 -23.197 -10.770  1.00  0.00     0.274 HD
ENDBRANCH  15  18
ENDBRANCH  10  12
ENDBRANCH   4  10
BRANCH   1  22
HETATM   22  C3  UNL     1      -2.900 -18.389  -7.383  1.00  0.00     0.035 A 
HETATM   23  C2  UNL     1      -1.614 -17.895  -7.350  1.00  0.00     0.123 A 
HETATM   24  N2  UNL     1      -1.619 -16.650  -7.918  1.00  0.00    -0.309 N 
HETATM   25  N1  UNL     1      -2.856 -16.361  -8.298  1.00  0.00    -0.300 N 
ATOM     26  H2  UNL     1      -0.806 -16.045  -8.031  1.00  0.00     0.186 HD
HETATM   27  C1  UNL     1      -3.321 -15.126  -8.950  1.00  0.00     0.177 C 
HETATM   28  C14 UNL     1      -3.654 -17.401  -7.985  1.00  0.00     0.042 A 
BRANCH  28  29
HETATM   29  C15 UNL     1      -5.108 -17.462  -8.250  1.00  0.00     0.064 C 
BRANCH  29  30
HETATM   30  C16 UNL     1      -5.429 -18.049  -9.584  1.00  0.00    -0.009 A 
HETATM   31  C17 UNL     1      -6.949 -18.276  -9.763  1.00  0.00     0.005 A 
HETATM   32  C18 UNL     1      -6.144 -17.362 -10.658  1.00  0.00     0.005 A 
ENDBRANCH  29  30
ENDBRANCH  28  29
ENDBRANCH   1  22
TORSDOF 6
ENDMDL
