MODEL 1
REMARK VINA RESULT: -8.293459979      0.000      0.000
REMARK  6 active torsions:
REMARK  status: ('A' for Active; 'I' for Inactive)
REMARK    1  A    between atoms: C3_6  and  C4_7 
REMARK    2  A    between atoms: C5_10  and  N4_11 
REMARK    3  A    between atoms: N4_11  and  C6_13 
REMARK    4  A    between atoms: C9_16  and  N5_17 
REMARK    5  A    between atoms: C14_28  and  C15_29 
REMARK    6  A    between atoms: C15_29  and  C16_30 
ROOT
HETATM    1  C4  UNL     1       4.383   6.094  -6.232  1.00  0.00     0.102 A 
HETATM    2  N3  UNL     1       4.339   5.179  -5.271  1.00  0.00    -0.188 N 
ATOM      3  H3  UNL     1       3.438   4.748  -5.062  1.00  0.00     0.184 HD
HETATM    4  C5  UNL     1       5.402   4.789  -4.559  1.00  0.00     0.678 A 
HETATM    5  N6  UNL     1       6.595   5.337  -4.811  1.00  0.00    -0.199 N 
ATOM      6  H6  UNL     1       7.410   5.044  -4.273  1.00  0.00     0.183 HD
HETATM    7  C12 UNL     1       6.727   6.263  -5.760  1.00  0.00     0.150 A 
HETATM    8  C13 UNL     1       5.625   6.661  -6.490  1.00  0.00     0.160 A 
HETATM    9  F1  UNL     1       5.720   7.593  -7.458  1.00  0.00    -0.202 F 
ENDROOT
BRANCH   4  10
HETATM   10  N4  UNL     1       5.267   3.787  -3.526  1.00  0.00    -0.221 N 
ATOM     11  H4  UNL     1       5.834   2.940  -3.573  1.00  0.00     0.178 HD
BRANCH  10  12
HETATM   12  C6  UNL     1       4.346   3.963  -2.429  1.00  0.00     0.099 C 
HETATM   13  C7  UNL     1       3.943   2.675  -1.777  1.00  0.00     0.027 C 
HETATM   14  C8  UNL     1       4.983   2.240  -0.754  1.00  0.00     0.035 C 
HETATM   15  C9  UNL     1       4.796   3.153   0.451  1.00  0.00     0.183 C 
HETATM   16  C10 UNL     1       4.558   4.563   0.003  1.00  0.00     0.035 C 
HETATM   17  C11 UNL     1       5.006   4.839  -1.406  1.00  0.00     0.027 C 
BRANCH  15  18
HETATM   18  N5  UNL     1       3.707   2.741   1.292  1.00  0.00    -0.075 N 
ATOM     19  H53 UNL     1       2.866   3.284   1.097  1.00  0.00     0.274 HD
ATOM     20  H52 UNL     1       3.369   1.816   1.027  1.00  0.00     0.274 HD
ATOM     21  H51 UNL     1       3.943   2.774   2.284  1.00  0.00     0.274 HD
ENDBRANCH  15  18
ENDBRANCH  10  12
ENDBRANCH   4  10
BRANCH   1  22
HETATM   22  C3  UNL     1       3.244   6.533  -7.026  1.00  0.00     0.035 A 
HETATM   23  C2  UNL     1       3.146   6.824  -8.369  1.00  0.00     0.123 A 
HETATM   24  N2  UNL     1       1.856   7.199  -8.633  1.00  0.00    -0.309 N 
HETATM   25  N1  UNL     1       1.160   7.150  -7.505  1.00  0.00    -0.300 N 
ATOM     26  H2  UNL     1       1.490   7.471  -9.545  1.00  0.00     0.186 HD
HETATM   27  C1  UNL     1      -0.263   7.474  -7.322  1.00  0.00     0.177 C 
HETATM   28  C14 UNL     1       1.980   6.747  -6.514  1.00  0.00     0.042 A 
BRANCH  28  29
HETATM   29  C15 UNL     1       1.577   6.568  -5.102  1.00  0.00     0.064 C 
BRANCH  29  30
HETATM   30  C16 UNL     1       0.971   5.229  -4.838  1.00  0.00    -0.009 A 
HETATM   31  C17 UNL     1       0.778   4.971  -3.325  1.00  0.00     0.005 A 
HETATM   32  C18 UNL     1      -0.371   5.000  -4.307  1.00  0.00     0.005 A 
ENDBRANCH  29  30
ENDBRANCH  28  29
ENDBRANCH   1  22
TORSDOF 6
ENDMDL
