MODEL 2
REMARK VINA RESULT: -8.291000764      1.598      2.128
REMARK  6 active torsions:
REMARK  status: ('A' for Active; 'I' for Inactive)
REMARK    1  A    between atoms: C3_6  and  C4_7 
REMARK    2  A    between atoms: C5_10  and  N4_11 
REMARK    3  A    between atoms: N4_11  and  C6_13 
REMARK    4  A    between atoms: C9_16  and  N5_17 
REMARK    5  A    between atoms: C14_28  and  C15_29 
REMARK    6  A    between atoms: C15_29  and  C16_30 
ROOT
HETATM    1  C4  UNL     1       3.621   5.949  -4.426  1.00  0.00     0.102 A 
HETATM    2  N3  UNL     1       3.693   5.783  -3.111  1.00  0.00    -0.188 N 
ATOM      3  H3  UNL     1       2.871   6.016  -2.553  1.00  0.00     0.184 HD
HETATM    4  C5  UNL     1       4.778   5.331  -2.471  1.00  0.00     0.678 A 
HETATM    5  N6  UNL     1       5.870   5.018  -3.176  1.00  0.00    -0.199 N 
ATOM      6  H6  UNL     1       6.700   4.672  -2.696  1.00  0.00     0.183 HD
HETATM    7  C12 UNL     1       5.882   5.155  -4.502  1.00  0.00     0.150 A 
HETATM    8  C13 UNL     1       4.759   5.623  -5.154  1.00  0.00     0.160 A 
HETATM    9  F1  UNL     1       4.733   5.773  -6.493  1.00  0.00    -0.202 F 
ENDROOT
BRANCH   4  10
HETATM   10  N4  UNL     1       4.775   5.182  -1.034  1.00  0.00    -0.221 N 
ATOM     11  H4  UNL     1       5.371   5.785  -0.466  1.00  0.00     0.178 HD
BRANCH  10  12
HETATM   12  C6  UNL     1       3.944   4.197  -0.386  1.00  0.00     0.099 C 
HETATM   13  C7  UNL     1       4.074   2.826  -0.974  1.00  0.00     0.027 C 
HETATM   14  C8  UNL     1       5.280   2.102  -0.393  1.00  0.00     0.035 C 
HETATM   15  C9  UNL     1       4.882   1.687   1.018  1.00  0.00     0.183 C 
HETATM   16  C10 UNL     1       4.127   2.791   1.691  1.00  0.00     0.035 C 
HETATM   17  C11 UNL     1       4.334   4.142   1.063  1.00  0.00     0.027 C 
BRANCH  15  18
HETATM   18  N5  UNL     1       4.081   0.495   1.037  1.00  0.00    -0.075 N 
ATOM     19  H53 UNL     1       3.693   0.298   0.114  1.00  0.00     0.274 HD
ATOM     20  H52 UNL     1       4.662  -0.336   1.150  1.00  0.00     0.274 HD
ATOM     21  H51 UNL     1       3.347   0.527   1.744  1.00  0.00     0.274 HD
ENDBRANCH  15  18
ENDBRANCH  10  12
ENDBRANCH   4  10
BRANCH   1  22
HETATM   22  C3  UNL     1       2.454   6.433  -5.148  1.00  0.00     0.035 A 
HETATM   23  C2  UNL     1       2.264   7.587  -5.877  1.00  0.00     0.123 A 
HETATM   24  N2  UNL     1       0.983   7.583  -6.360  1.00  0.00    -0.309 N 
HETATM   25  N1  UNL     1       0.380   6.473  -5.957  1.00  0.00    -0.300 N 
ATOM     26  H2  UNL     1       0.562   8.313  -6.934  1.00  0.00     0.186 HD
HETATM   27  C1  UNL     1      -1.002   6.058  -6.240  1.00  0.00     0.177 C 
HETATM   28  C14 UNL     1       1.252   5.756  -5.219  1.00  0.00     0.042 A 
BRANCH  28  29
HETATM   29  C15 UNL     1       0.956   4.451  -4.590  1.00  0.00     0.064 C 
BRANCH  29  30
HETATM   30  C16 UNL     1       0.337   4.586  -3.239  1.00  0.00    -0.009 A 
HETATM   31  C17 UNL     1      -0.776   3.538  -3.006  1.00  0.00     0.005 A 
HETATM   32  C18 UNL     1       0.466   3.620  -2.150  1.00  0.00     0.005 A 
ENDBRANCH  29  30
ENDBRANCH  28  29
ENDBRANCH   1  22
TORSDOF 6
ENDMDL
