MODEL 4
REMARK VINA RESULT: -8.262638894      2.689      3.517
REMARK  6 active torsions:
REMARK  status: ('A' for Active; 'I' for Inactive)
REMARK    1  A    between atoms: C3_6  and  C4_7 
REMARK    2  A    between atoms: C5_10  and  N4_11 
REMARK    3  A    between atoms: N4_11  and  C6_13 
REMARK    4  A    between atoms: C9_16  and  N5_17 
REMARK    5  A    between atoms: C14_28  and  C15_29 
REMARK    6  A    between atoms: C15_29  and  C16_30 
ROOT
HETATM    1  C4  UNL     1       2.767   5.049  -3.086  1.00  0.00     0.102 A 
HETATM    2  N3  UNL     1       3.053   3.820  -2.672  1.00  0.00    -0.188 N 
ATOM      3  H3  UNL     1       2.502   3.048  -3.047  1.00  0.00     0.184 HD
HETATM    4  C5  UNL     1       4.021   3.532  -1.794  1.00  0.00     0.678 A 
HETATM    5  N6  UNL     1       4.759   4.523  -1.286  1.00  0.00    -0.199 N 
ATOM      6  H6  UNL     1       5.499   4.312  -0.616  1.00  0.00     0.183 HD
HETATM    7  C12 UNL     1       4.537   5.787  -1.648  1.00  0.00     0.150 A 
HETATM    8  C13 UNL     1       3.537   6.076  -2.554  1.00  0.00     0.160 A 
HETATM    9  F1  UNL     1       3.284   7.340  -2.945  1.00  0.00    -0.202 F 
ENDROOT
BRANCH   4  10
HETATM   10  N4  UNL     1       4.267   2.165  -1.394  1.00  0.00    -0.221 N 
ATOM     11  H4  UNL     1       4.800   1.551  -2.010  1.00  0.00     0.178 HD
BRANCH  10  12
HETATM   12  C6  UNL     1       3.772   1.652  -0.140  1.00  0.00     0.099 C 
HETATM   13  C7  UNL     1       4.831   1.007   0.700  1.00  0.00     0.027 C 
HETATM   14  C8  UNL     1       5.596   2.052   1.500  1.00  0.00     0.035 C 
HETATM   15  C9  UNL     1       4.667   2.483   2.628  1.00  0.00     0.183 C 
HETATM   16  C10 UNL     1       3.267   2.635   2.119  1.00  0.00     0.035 C 
HETATM   17  C11 UNL     1       3.175   2.796   0.626  1.00  0.00     0.027 C 
BRANCH  15  18
HETATM   18  N5  UNL     1       4.666   1.556   3.725  1.00  0.00    -0.075 N 
ATOM     19  H53 UNL     1       4.127   1.919   4.512  1.00  0.00     0.274 HD
ATOM     20  H52 UNL     1       4.105   0.732   3.510  1.00  0.00     0.274 HD
ATOM     21  H51 UNL     1       5.608   1.292   4.017  1.00  0.00     0.274 HD
ENDBRANCH  15  18
ENDBRANCH  10  12
ENDBRANCH   4  10
BRANCH   1  22
HETATM   22  C3  UNL     1       1.725   5.390  -4.044  1.00  0.00     0.035 A 
HETATM   23  C2  UNL     1       1.800   6.039  -5.257  1.00  0.00     0.123 A 
HETATM   24  N2  UNL     1       0.536   6.121  -5.778  1.00  0.00    -0.309 N 
HETATM   25  N1  UNL     1      -0.310   5.548  -4.932  1.00  0.00    -0.300 N 
ATOM     26  H2  UNL     1       0.287   6.551  -6.668  1.00  0.00     0.186 HD
HETATM   27  C1  UNL     1      -1.766   5.413  -5.086  1.00  0.00     0.177 C 
HETATM   28  C14 UNL     1       0.387   5.096  -3.871  1.00  0.00     0.042 A 
BRANCH  28  29
HETATM   29  C15 UNL     1      -0.200   4.395  -2.708  1.00  0.00     0.064 C 
BRANCH  29  30
HETATM   30  C16 UNL     1      -0.265   2.916  -2.896  1.00  0.00    -0.009 A 
HETATM   31  C17 UNL     1       0.046   2.154  -1.586  1.00  0.00     0.005 A 
HETATM   32  C18 UNL     1      -1.274   2.034  -2.312  1.00  0.00     0.005 A 
ENDBRANCH  29  30
ENDBRANCH  28  29
ENDBRANCH   1  22
TORSDOF 6
ENDMDL
