MODEL 9
REMARK VINA RESULT: -8.147960530      3.324      5.065
REMARK  6 active torsions:
REMARK  status: ('A' for Active; 'I' for Inactive)
REMARK    1  A    between atoms: C3_6  and  C4_7 
REMARK    2  A    between atoms: C5_10  and  N4_11 
REMARK    3  A    between atoms: N4_11  and  C6_13 
REMARK    4  A    between atoms: C9_16  and  N5_17 
REMARK    5  A    between atoms: C14_28  and  C15_29 
REMARK    6  A    between atoms: C15_29  and  C16_30 
ROOT
HETATM    1  C4  UNL     1      -0.795   3.733  -3.848  1.00  0.00     0.102 A 
HETATM    2  N3  UNL     1       0.139   3.621  -2.912  1.00  0.00    -0.188 N 
ATOM      3  H3  UNL     1       0.880   4.323  -2.888  1.00  0.00     0.184 HD
HETATM    4  C5  UNL     1       0.170   2.645  -1.997  1.00  0.00     0.678 A 
HETATM    5  N6  UNL     1      -0.787   1.712  -2.004  1.00  0.00    -0.199 N 
ATOM      6  H6  UNL     1      -0.771   0.965  -1.310  1.00  0.00     0.183 HD
HETATM    7  C12 UNL     1      -1.763   1.750  -2.911  1.00  0.00     0.150 A 
HETATM    8  C13 UNL     1      -1.788   2.761  -3.851  1.00  0.00     0.160 A 
HETATM    9  F1  UNL     1      -2.758   2.833  -4.783  1.00  0.00    -0.202 F 
ENDROOT
BRANCH   4  10
HETATM   10  N4  UNL     1       1.226   2.594  -1.012  1.00  0.00    -0.221 N 
ATOM     11  H4  UNL     1       1.097   2.035  -0.168  1.00  0.00     0.178 HD
BRANCH  10  12
HETATM   12  C6  UNL     1       2.459   3.319  -1.198  1.00  0.00     0.099 C 
HETATM   13  C7  UNL     1       3.365   3.272  -0.006  1.00  0.00     0.027 C 
HETATM   14  C8  UNL     1       4.189   1.993  -0.005  1.00  0.00     0.035 C 
HETATM   15  C9  UNL     1       5.258   2.180  -1.074  1.00  0.00     0.183 C 
HETATM   16  C10 UNL     1       4.672   2.831  -2.288  1.00  0.00     0.035 C 
HETATM   17  C11 UNL     1       3.174   2.722  -2.375  1.00  0.00     0.027 C 
BRANCH  15  18
HETATM   18  N5  UNL     1       6.368   2.967  -0.612  1.00  0.00    -0.075 N 
ATOM     19  H53 UNL     1       6.257   3.216   0.371  1.00  0.00     0.274 HD
ATOM     20  H52 UNL     1       7.214   2.402  -0.543  1.00  0.00     0.274 HD
ATOM     21  H51 UNL     1       6.526   3.796  -1.185  1.00  0.00     0.274 HD
ENDBRANCH  15  18
ENDBRANCH  10  12
ENDBRANCH   4  10
BRANCH   1  22
HETATM   22  C3  UNL     1      -0.856   4.787  -4.850  1.00  0.00     0.035 A 
HETATM   23  C2  UNL     1      -1.910   5.236  -5.618  1.00  0.00     0.123 A 
HETATM   24  N2  UNL     1      -1.455   6.250  -6.418  1.00  0.00    -0.309 N 
HETATM   25  N1  UNL     1      -0.166   6.440  -6.172  1.00  0.00    -0.300 N 
ATOM     26  H2  UNL     1      -2.015   6.772  -7.091  1.00  0.00     0.186 HD
HETATM   27  C1  UNL     1       0.724   7.424  -6.806  1.00  0.00     0.177 C 
HETATM   28  C14 UNL     1       0.222   5.565  -5.223  1.00  0.00     0.042 A 
BRANCH  28  29
HETATM   29  C15 UNL     1       1.592   5.463  -4.675  1.00  0.00     0.064 C 
BRANCH  29  30
HETATM   30  C16 UNL     1       1.821   6.372  -3.513  1.00  0.00    -0.009 A 
HETATM   31  C17 UNL     1       3.304   6.386  -3.075  1.00  0.00     0.005 A 
HETATM   32  C18 UNL     1       2.577   7.621  -3.555  1.00  0.00     0.005 A 
ENDBRANCH  29  30
ENDBRANCH  28  29
ENDBRANCH   1  22
TORSDOF 6
ENDMDL
