MODEL 11
REMARK VINA RESULT: -8.052240043      3.166      5.110
REMARK  6 active torsions:
REMARK  status: ('A' for Active; 'I' for Inactive)
REMARK    1  A    between atoms: C3_6  and  C4_7 
REMARK    2  A    between atoms: C5_10  and  N4_11 
REMARK    3  A    between atoms: N4_11  and  C6_13 
REMARK    4  A    between atoms: C9_16  and  N5_17 
REMARK    5  A    between atoms: C14_28  and  C15_29 
REMARK    6  A    between atoms: C15_29  and  C16_30 
ROOT
HETATM    1  C4  UNL     1      -0.960   3.860  -3.969  1.00  0.00     0.102 A 
HETATM    2  N3  UNL     1      -0.150   3.962  -2.923  1.00  0.00    -0.188 N 
ATOM      3  H3  UNL     1       0.441   4.791  -2.853  1.00  0.00     0.184 HD
HETATM    4  C5  UNL     1      -0.059   3.044  -1.953  1.00  0.00     0.678 A 
HETATM    5  N6  UNL     1      -0.821   1.947  -2.018  1.00  0.00    -0.199 N 
ATOM      6  H6  UNL     1      -0.758   1.243  -1.283  1.00  0.00     0.183 HD
HETATM    7  C12 UNL     1      -1.662   1.766  -3.036  1.00  0.00     0.150 A 
HETATM    8  C13 UNL     1      -1.750   2.718  -4.032  1.00  0.00     0.160 A 
HETATM    9  F1  UNL     1      -2.589   2.571  -5.076  1.00  0.00    -0.202 F 
ENDROOT
BRANCH   4  10
HETATM   10  N4  UNL     1       0.853   3.230  -0.848  1.00  0.00    -0.221 N 
ATOM     11  H4  UNL     1       0.586   3.842  -0.076  1.00  0.00     0.178 HD
BRANCH  10  12
HETATM   12  C6  UNL     1       2.133   2.567  -0.814  1.00  0.00     0.099 C 
HETATM   13  C7  UNL     1       3.084   3.053  -1.865  1.00  0.00     0.027 C 
HETATM   14  C8  UNL     1       3.795   4.318  -1.406  1.00  0.00     0.035 C 
HETATM   15  C9  UNL     1       4.828   3.871  -0.380  1.00  0.00     0.183 C 
HETATM   16  C10 UNL     1       4.246   2.829   0.524  1.00  0.00     0.035 C 
HETATM   17  C11 UNL     1       2.742   2.804   0.537  1.00  0.00     0.027 C 
BRANCH  15  18
HETATM   18  N5  UNL     1       6.020   3.349  -0.988  1.00  0.00    -0.075 N 
ATOM     19  H53 UNL     1       6.586   4.098  -1.388  1.00  0.00     0.274 HD
ATOM     20  H52 UNL     1       6.673   3.009  -0.282  1.00  0.00     0.274 HD
ATOM     21  H51 UNL     1       5.823   2.629  -1.682  1.00  0.00     0.274 HD
ENDBRANCH  15  18
ENDBRANCH  10  12
ENDBRANCH   4  10
BRANCH   1  22
HETATM   22  C3  UNL     1      -1.084   4.845  -5.034  1.00  0.00     0.035 A 
HETATM   23  C2  UNL     1      -2.140   5.135  -5.870  1.00  0.00     0.123 A 
HETATM   24  N2  UNL     1      -1.757   6.147  -6.709  1.00  0.00    -0.309 N 
HETATM   25  N1  UNL     1      -0.508   6.489  -6.420  1.00  0.00    -0.300 N 
ATOM     26  H2  UNL     1      -2.335   6.569  -7.435  1.00  0.00     0.186 HD
HETATM   27  C1  UNL     1       0.303   7.528  -7.073  1.00  0.00     0.177 C 
HETATM   28  C14 UNL     1      -0.076   5.713  -5.406  1.00  0.00     0.042 A 
BRANCH  28  29
HETATM   29  C15 UNL     1       1.269   5.790  -4.795  1.00  0.00     0.064 C 
BRANCH  29  30
HETATM   30  C16 UNL     1       2.264   4.909  -5.475  1.00  0.00    -0.009 A 
HETATM   31  C17 UNL     1       3.354   5.727  -6.206  1.00  0.00     0.005 A 
HETATM   32  C18 UNL     1       3.665   4.761  -5.086  1.00  0.00     0.005 A 
ENDBRANCH  29  30
ENDBRANCH  28  29
ENDBRANCH   1  22
TORSDOF 6
ENDMDL
