MODEL 8
REMARK VINA RESULT: -6.006112799      1.456      1.655
REMARK  3 active torsions:
REMARK  status: ('A' for Active; 'I' for Inactive)
REMARK    1  A    between atoms: C1_2  and  O2_4 
REMARK    2  A    between atoms: O2_4  and  C2_5 
REMARK    3  A    between atoms: C2_5  and  C3_6 
ROOT
HETATM    1  C3  UNL     1      -4.937   3.976  14.591  1.00  0.00    -0.034 A 
HETATM    2  C4  UNL     1      -3.849   4.770  14.319  1.00  0.00     0.009 A 
HETATM    3  C5  UNL     1      -3.830   6.128  14.620  1.00  0.00     0.001 A 
HETATM    4  C6  UNL     1      -4.941   6.669  15.204  1.00  0.00     0.000 A 
HETATM    5  C7  UNL     1      -6.043   5.893  15.485  1.00  0.00     0.001 A 
HETATM    6  C8  UNL     1      -6.037   4.552  15.178  1.00  0.00     0.009 A 
ENDROOT
BRANCH   1   7
HETATM    7  C2  UNL     1      -4.889   2.536  14.243  1.00  0.00     0.218 C 
BRANCH   7   8
HETATM    8  O2  UNL     1      -5.585   1.836  15.249  1.00  0.00    -0.302 OA
BRANCH   8   9
HETATM    9  C1  UNL     1      -4.982   1.044  16.207  1.00  0.00     0.372 C 
HETATM   10  N1  UNL     1      -5.815   0.284  17.049  1.00  0.00    -0.032 NA
HETATM   11  O1  UNL     1      -3.729   1.058  16.260  1.00  0.00    -0.242 OA
ENDBRANCH   8   9
ENDBRANCH   7   8
ENDBRANCH   1   7
TORSDOF 3
ENDMDL
