MODEL 2
REMARK VINA RESULT: -6.182909541      0.065      1.433
REMARK  3 active torsions:
REMARK  status: ('A' for Active; 'I' for Inactive)
REMARK    1  A    between atoms: C1_2  and  O2_4 
REMARK    2  A    between atoms: O2_4  and  C2_5 
REMARK    3  A    between atoms: C2_5  and  C3_6 
ROOT
HETATM    1  C3  UNL     1      -5.333   4.057  15.942  1.00  0.00    -0.034 A 
HETATM    2  C4  UNL     1      -6.336   4.948  15.643  1.00  0.00     0.009 A 
HETATM    3  C5  UNL     1      -6.166   5.969  14.715  1.00  0.00     0.001 A 
HETATM    4  C6  UNL     1      -4.954   6.073  14.092  1.00  0.00     0.000 A 
HETATM    5  C7  UNL     1      -3.934   5.192  14.375  1.00  0.00     0.001 A 
HETATM    6  C8  UNL     1      -4.127   4.189  15.297  1.00  0.00     0.009 A 
ENDROOT
BRANCH   1   7
HETATM    7  C2  UNL     1      -5.583   2.992  16.942  1.00  0.00     0.218 C 
BRANCH   7   8
HETATM    8  O2  UNL     1      -4.662   1.954  16.691  1.00  0.00    -0.302 OA
BRANCH   8   9
HETATM    9  C1  UNL     1      -5.015   0.684  16.279  1.00  0.00     0.372 C 
HETATM   10  N1  UNL     1      -4.498   0.225  15.053  1.00  0.00    -0.032 NA
HETATM   11  O1  UNL     1      -5.773   0.025  17.029  1.00  0.00    -0.242 OA
ENDBRANCH   8   9
ENDBRANCH   7   8
ENDBRANCH   1   7
TORSDOF 3
ENDMDL
