MODEL 9
REMARK VINA RESULT: -5.982056992      1.238      1.883
REMARK  3 active torsions:
REMARK  status: ('A' for Active; 'I' for Inactive)
REMARK    1  A    between atoms: C1_2  and  O2_4 
REMARK    2  A    between atoms: O2_4  and  C2_5 
REMARK    3  A    between atoms: C2_5  and  C3_6 
ROOT
HETATM    1  C3  UNL     1      -5.432   4.364  15.456  1.00  0.00    -0.034 A 
HETATM    2  C4  UNL     1      -6.264   5.289  14.872  1.00  0.00     0.009 A 
HETATM    3  C5  UNL     1      -5.787   6.279  14.019  1.00  0.00     0.001 A 
HETATM    4  C6  UNL     1      -4.445   6.314  13.766  1.00  0.00     0.000 A 
HETATM    5  C7  UNL     1      -3.592   5.397  14.340  1.00  0.00     0.001 A 
HETATM    6  C8  UNL     1      -4.088   4.428  15.181  1.00  0.00     0.009 A 
ENDROOT
BRANCH   1   7
HETATM    7  C2  UNL     1      -6.008   3.337  16.355  1.00  0.00     0.218 C 
BRANCH   7   8
HETATM    8  O2  UNL     1      -5.754   2.077  15.774  1.00  0.00    -0.302 OA
BRANCH   8   9
HETATM    9  C1  UNL     1      -5.070   1.054  16.401  1.00  0.00     0.372 C 
HETATM   10  N1  UNL     1      -5.813   0.156  17.190  1.00  0.00    -0.032 NA
HETATM   11  O1  UNL     1      -3.830   0.996  16.222  1.00  0.00    -0.242 OA
ENDBRANCH   8   9
ENDBRANCH   7   8
ENDBRANCH   1   7
TORSDOF 3
ENDMDL
