MODEL 7
REMARK VINA RESULT: -6.019419576      1.464      2.133
REMARK  3 active torsions:
REMARK  status: ('A' for Active; 'I' for Inactive)
REMARK    1  A    between atoms: C1_2  and  O2_4 
REMARK    2  A    between atoms: O2_4  and  C2_5 
REMARK    3  A    between atoms: C2_5  and  C3_6 
ROOT
HETATM    1  C3  UNL     1      -4.920   3.940  14.592  1.00  0.00    -0.034 A 
HETATM    2  C4  UNL     1      -6.065   4.429  15.175  1.00  0.00     0.009 A 
HETATM    3  C5  UNL     1      -6.195   5.764  15.543  1.00  0.00     0.001 A 
HETATM    4  C6  UNL     1      -5.139   6.599  15.308  1.00  0.00     0.000 A 
HETATM    5  C7  UNL     1      -3.982   6.131  14.726  1.00  0.00     0.001 A 
HETATM    6  C8  UNL     1      -3.878   4.806  14.371  1.00  0.00     0.009 A 
ENDROOT
BRANCH   1   7
HETATM    7  C2  UNL     1      -4.850   2.506  14.226  1.00  0.00     0.218 C 
BRANCH   7   8
HETATM    8  O2  UNL     1      -5.561   1.785  15.207  1.00  0.00    -0.302 OA
BRANCH   8   9
HETATM    9  C1  UNL     1      -4.970   1.010  16.185  1.00  0.00     0.372 C 
HETATM   10  N1  UNL     1      -5.814   0.298  17.058  1.00  0.00    -0.032 NA
HETATM   11  O1  UNL     1      -3.717   0.993  16.228  1.00  0.00    -0.242 OA
ENDBRANCH   8   9
ENDBRANCH   7   8
ENDBRANCH   1   7
TORSDOF 3
ENDMDL
