MODEL 1
REMARK VINA RESULT: -6.184293062      0.000      0.000
REMARK  3 active torsions:
REMARK  status: ('A' for Active; 'I' for Inactive)
REMARK    1  A    between atoms: C1_2  and  O2_4 
REMARK    2  A    between atoms: O2_4  and  C2_5 
REMARK    3  A    between atoms: C2_5  and  C3_6 
ROOT
HETATM    1  C3  UNL     1      -5.382   4.046  15.998  1.00  0.00    -0.034 A 
HETATM    2  C4  UNL     1      -4.176   4.140  15.344  1.00  0.00     0.009 A 
HETATM    3  C5  UNL     1      -3.915   5.140  14.414  1.00  0.00     0.001 A 
HETATM    4  C6  UNL     1      -4.902   6.049  14.157  1.00  0.00     0.000 A 
HETATM    5  C7  UNL     1      -6.118   5.975  14.799  1.00  0.00     0.001 A 
HETATM    6  C8  UNL     1      -6.353   4.975  15.715  1.00  0.00     0.009 A 
ENDROOT
BRANCH   1   7
HETATM    7  C2  UNL     1      -5.592   2.954  16.976  1.00  0.00     0.218 C 
BRANCH   7   8
HETATM    8  O2  UNL     1      -4.665   1.935  16.677  1.00  0.00    -0.302 OA
BRANCH   8   9
HETATM    9  C1  UNL     1      -5.011   0.664  16.261  1.00  0.00     0.372 C 
HETATM   10  N1  UNL     1      -4.494   0.214  15.031  1.00  0.00    -0.032 NA
HETATM   11  O1  UNL     1      -5.764  -0.002  17.009  1.00  0.00    -0.242 OA
ENDBRANCH   8   9
ENDBRANCH   7   8
ENDBRANCH   1   7
TORSDOF 3
ENDMDL
