MODEL 5
REMARK VINA RESULT: -7.657437197      3.842      5.684
REMARK  6 active torsions:
REMARK  status: ('A' for Active; 'I' for Inactive)
REMARK    1  A    between atoms: N1_1  and  S1_4 
REMARK    2  A    between atoms: S1_4  and  C1_7 
REMARK    3  A    between atoms: C4_10  and  C5_11 
REMARK    4  A    between atoms: C5_11  and  O3_12 
REMARK    5  A    between atoms: C5_11  and  N2_14 
REMARK    6  A    between atoms: C8_17  and  C9_18 
ROOT
HETATM    1  C5  UNL     1      -4.130   4.650  10.555  1.00  0.00     0.148 C 
ENDROOT
BRANCH   1   2
HETATM    2  C4  UNL     1      -4.169   3.910  11.779  1.00  0.00     0.015 A 
HETATM    3  C3  UNL     1      -3.783   4.340  13.011  1.00  0.00     0.017 A 
HETATM    4  C2  UNL     1      -3.858   3.541  14.159  1.00  0.00     0.026 A 
HETATM    5  C1  UNL     1      -4.331   2.259  14.112  1.00  0.00     0.079 A 
HETATM    6  C18 UNL     1      -4.725   1.807  12.875  1.00  0.00     0.026 A 
HETATM    7  C17 UNL     1      -4.658   2.574  11.747  1.00  0.00     0.017 A 
BRANCH   5   8
HETATM    8  S1  UNL     1      -4.434   1.241  15.523  1.00  0.00     0.256 S 
HETATM    9  O1  UNL     1      -4.725  -0.156  15.048  1.00  0.00    -0.201 OA
HETATM   10  O2  UNL     1      -3.142   1.297  16.285  1.00  0.00    -0.201 OA
BRANCH   8  11
HETATM   11  N1  UNL     1      -5.726   1.737  16.536  1.00  0.00    -0.324 N 
ATOM     12  H12 UNL     1      -6.125   1.184  17.294  1.00  0.00     0.169 HD
ATOM     13  H11 UNL     1      -6.016   2.670  16.244  1.00  0.00     0.169 HD
ENDBRANCH   8  11
ENDBRANCH   5   8
ENDBRANCH   1   2
BRANCH   1  14
HETATM   14  O3  UNL     1      -3.761   3.984   9.474  1.00  0.00    -0.346 OA
ATOM     15  H3  UNL     1      -2.837   3.772   9.400  1.00  0.00     0.219 HD
ENDBRANCH   1  14
BRANCH   1  16
HETATM   16  N2  UNL     1      -4.422   5.977  10.313  1.00  0.00    -0.361 N 
HETATM   17  C6  UNL     1      -4.983   6.791  11.472  1.00  0.00     0.125 C 
HETATM   18  C7  UNL     1      -6.282   7.300  10.920  1.00  0.00     0.029 C 
HETATM   19  C8  UNL     1      -5.893   8.430   9.958  1.00  0.00     0.021 C 
HETATM   20  C15 UNL     1      -4.605   8.180   9.260  1.00  0.00     0.029 C 
HETATM   21  C16 UNL     1      -4.261   6.689   9.087  1.00  0.00     0.125 C 
BRANCH  19  22
HETATM   22  C9  UNL     1      -7.041   8.734   9.118  1.00  0.00    -0.054 A 
HETATM   23  C10 UNL     1      -7.124   9.935   8.456  1.00  0.00     0.007 A 
HETATM   24  C11 UNL     1      -8.204  10.265   7.648  1.00  0.00     0.001 A 
HETATM   25  C12 UNL     1      -9.217   9.366   7.506  1.00  0.00     0.000 A 
HETATM   26  C13 UNL     1      -9.172   8.151   8.152  1.00  0.00     0.001 A 
HETATM   27  C14 UNL     1      -8.075   7.848   8.957  1.00  0.00     0.007 A 
ENDBRANCH  19  22
ENDBRANCH   1  16
TORSDOF 6
ENDMDL
