MODEL 2
REMARK VINA RESULT: -7.940333186      4.556      7.632
REMARK  6 active torsions:
REMARK  status: ('A' for Active; 'I' for Inactive)
REMARK    1  A    between atoms: N1_1  and  S1_4 
REMARK    2  A    between atoms: S1_4  and  C1_7 
REMARK    3  A    between atoms: C4_10  and  C5_11 
REMARK    4  A    between atoms: C5_11  and  O3_12 
REMARK    5  A    between atoms: C5_11  and  N2_14 
REMARK    6  A    between atoms: C8_17  and  C9_18 
ROOT
HETATM    1  C5  UNL     1      -3.728   6.487  12.455  1.00  0.00     0.148 C 
ENDROOT
BRANCH   1   2
HETATM    2  C4  UNL     1      -4.739   6.723  11.470  1.00  0.00     0.015 A 
HETATM    3  C3  UNL     1      -5.970   7.267  11.671  1.00  0.00     0.017 A 
HETATM    4  C2  UNL     1      -6.899   7.461  10.640  1.00  0.00     0.026 A 
HETATM    5  C1  UNL     1      -6.622   7.109   9.348  1.00  0.00     0.079 A 
HETATM    6  C18 UNL     1      -5.382   6.557   9.126  1.00  0.00     0.026 A 
HETATM    7  C17 UNL     1      -4.467   6.363  10.121  1.00  0.00     0.017 A 
BRANCH   5   8
HETATM    8  S1  UNL     1      -7.758   7.337   8.046  1.00  0.00     0.256 S 
HETATM    9  O1  UNL     1      -8.108   5.975   7.514  1.00  0.00    -0.201 OA
HETATM   10  O2  UNL     1      -8.977   8.051   8.555  1.00  0.00    -0.201 OA
BRANCH   8  11
HETATM   11  N1  UNL     1      -7.048   8.239   6.772  1.00  0.00    -0.324 N 
ATOM     12  H12 UNL     1      -7.288   9.199   6.527  1.00  0.00     0.169 HD
ATOM     13  H11 UNL     1      -6.354   7.648   6.314  1.00  0.00     0.169 HD
ENDBRANCH   8  11
ENDBRANCH   5   8
ENDBRANCH   1   2
BRANCH   1  14
HETATM   14  O3  UNL     1      -2.883   7.478  12.683  1.00  0.00    -0.346 OA
ATOM     15  H3  UNL     1      -2.925   7.883  13.541  1.00  0.00     0.219 HD
ENDBRANCH   1  14
BRANCH   1  16
HETATM   16  N2  UNL     1      -3.487   5.367  13.224  1.00  0.00    -0.361 N 
HETATM   17  C6  UNL     1      -3.467   4.021  12.511  1.00  0.00     0.125 C 
HETATM   18  C7  UNL     1      -4.514   3.241  13.250  1.00  0.00     0.029 C 
HETATM   19  C8  UNL     1      -3.858   2.852  14.582  1.00  0.00     0.021 C 
HETATM   20  C15 UNL     1      -2.919   3.885  15.090  1.00  0.00     0.029 C 
HETATM   21  C16 UNL     1      -3.249   5.318  14.631  1.00  0.00     0.125 C 
BRANCH  19  22
HETATM   22  C9  UNL     1      -4.901   2.414  15.497  1.00  0.00    -0.054 A 
HETATM   23  C10 UNL     1      -4.800   1.208  16.147  1.00  0.00     0.007 A 
HETATM   24  C11 UNL     1      -5.774   0.752  17.025  1.00  0.00     0.001 A 
HETATM   25  C12 UNL     1      -6.870   1.529  17.249  1.00  0.00     0.000 A 
HETATM   26  C13 UNL     1      -7.011   2.743  16.618  1.00  0.00     0.001 A 
HETATM   27  C14 UNL     1      -6.016   3.175  15.742  1.00  0.00     0.007 A 
ENDBRANCH  19  22
ENDBRANCH   1  16
TORSDOF 6
ENDMDL
