MODEL 8
REMARK VINA RESULT: -7.485580710      1.725      2.377
REMARK  6 active torsions:
REMARK  status: ('A' for Active; 'I' for Inactive)
REMARK    1  A    between atoms: N1_1  and  S1_4 
REMARK    2  A    between atoms: S1_4  and  C1_7 
REMARK    3  A    between atoms: C4_10  and  C5_11 
REMARK    4  A    between atoms: C5_11  and  O3_12 
REMARK    5  A    between atoms: C5_11  and  N2_14 
REMARK    6  A    between atoms: C8_17  and  C9_18 
ROOT
HETATM    1  C5  UNL     1      -4.252   5.793  13.298  1.00  0.00     0.148 C 
ENDROOT
BRANCH   1   2
HETATM    2  C4  UNL     1      -4.754   4.801  14.198  1.00  0.00     0.015 A 
HETATM    3  C3  UNL     1      -5.937   4.823  14.869  1.00  0.00     0.017 A 
HETATM    4  C2  UNL     1      -6.347   3.801  15.735  1.00  0.00     0.026 A 
HETATM    5  C1  UNL     1      -5.569   2.699  15.962  1.00  0.00     0.079 A 
HETATM    6  C18 UNL     1      -4.369   2.659  15.293  1.00  0.00     0.026 A 
HETATM    7  C17 UNL     1      -3.957   3.648  14.446  1.00  0.00     0.017 A 
BRANCH   5   8
HETATM    8  S1  UNL     1      -6.052   1.412  17.035  1.00  0.00     0.256 S 
HETATM    9  O1  UNL     1      -7.327   0.830  16.490  1.00  0.00    -0.201 OA
HETATM   10  O2  UNL     1      -4.968   0.375  17.103  1.00  0.00    -0.201 OA
BRANCH   8  11
HETATM   11  N1  UNL     1      -6.372   2.019  18.606  1.00  0.00    -0.324 N 
ATOM     12  H12 UNL     1      -6.759   2.940  18.812  1.00  0.00     0.169 HD
ATOM     13  H11 UNL     1      -6.109   1.303  19.282  1.00  0.00     0.169 HD
ENDBRANCH   8  11
ENDBRANCH   5   8
ENDBRANCH   1   2
BRANCH   1  14
HETATM   14  O3  UNL     1      -5.039   6.127  12.289  1.00  0.00    -0.346 OA
ATOM     15  H3  UNL     1      -5.200   7.055  12.164  1.00  0.00     0.219 HD
ENDBRANCH   1  14
BRANCH   1  16
HETATM   16  N2  UNL     1      -3.053   6.476  13.312  1.00  0.00    -0.361 N 
HETATM   17  C6  UNL     1      -2.225   6.407  14.589  1.00  0.00     0.125 C 
HETATM   18  C7  UNL     1      -2.061   7.854  14.954  1.00  0.00     0.029 C 
HETATM   19  C8  UNL     1      -1.009   8.396  13.977  1.00  0.00     0.021 C 
HETATM   20  C15 UNL     1      -1.084   7.765  12.634  1.00  0.00     0.029 C 
HETATM   21  C16 UNL     1      -2.486   7.251  12.256  1.00  0.00     0.125 C 
BRANCH  19  22
HETATM   22  C9  UNL     1      -1.051   9.850  14.017  1.00  0.00    -0.054 A 
HETATM   23  C10 UNL     1      -0.097  10.558  14.707  1.00  0.00     0.007 A 
HETATM   24  C11 UNL     1      -0.104  11.945  14.773  1.00  0.00     0.001 A 
HETATM   25  C12 UNL     1      -1.092  12.627  14.130  1.00  0.00     0.000 A 
HETATM   26  C13 UNL     1      -2.066  11.956  13.428  1.00  0.00     0.001 A 
HETATM   27  C14 UNL     1      -2.034  10.563  13.380  1.00  0.00     0.007 A 
ENDBRANCH  19  22
ENDBRANCH   1  16
TORSDOF 6
ENDMDL
