MODEL 3
REMARK VINA RESULT: -7.810697869      3.125      5.082
REMARK  6 active torsions:
REMARK  status: ('A' for Active; 'I' for Inactive)
REMARK    1  A    between atoms: N1_1  and  S1_4 
REMARK    2  A    between atoms: S1_4  and  C1_7 
REMARK    3  A    between atoms: C4_10  and  C5_11 
REMARK    4  A    between atoms: C5_11  and  O3_12 
REMARK    5  A    between atoms: C5_11  and  N2_14 
REMARK    6  A    between atoms: C8_17  and  C9_18 
ROOT
HETATM    1  C5  UNL     1      -3.782   5.834  13.677  1.00  0.00     0.148 C 
ENDROOT
BRANCH   1   2
HETATM    2  C4  UNL     1      -4.360   4.751  14.412  1.00  0.00     0.015 A 
HETATM    3  C3  UNL     1      -5.657   4.624  14.804  1.00  0.00     0.017 A 
HETATM    4  C2  UNL     1      -6.135   3.522  15.524  1.00  0.00     0.026 A 
HETATM    5  C1  UNL     1      -5.314   2.488  15.884  1.00  0.00     0.079 A 
HETATM    6  C18 UNL     1      -4.000   2.599  15.497  1.00  0.00     0.026 A 
HETATM    7  C17 UNL     1      -3.520   3.668  14.795  1.00  0.00     0.017 A 
BRANCH   5   8
HETATM    8  S1  UNL     1      -5.880   1.105  16.781  1.00  0.00     0.256 S 
HETATM    9  O1  UNL     1      -5.443  -0.123  16.032  1.00  0.00    -0.201 OA
HETATM   10  O2  UNL     1      -5.304   1.129  18.168  1.00  0.00    -0.201 OA
BRANCH   8  11
HETATM   11  N1  UNL     1      -7.593   1.096  16.865  1.00  0.00    -0.324 N 
ATOM     12  H12 UNL     1      -8.185   0.284  16.693  1.00  0.00     0.169 HD
ATOM     13  H11 UNL     1      -7.903   2.035  17.113  1.00  0.00     0.169 HD
ENDBRANCH   8  11
ENDBRANCH   5   8
ENDBRANCH   1   2
BRANCH   1  14
HETATM   14  O3  UNL     1      -3.085   6.716  14.375  1.00  0.00    -0.346 OA
ATOM     15  H3  UNL     1      -2.200   6.465  14.613  1.00  0.00     0.219 HD
ENDBRANCH   1  14
BRANCH   1  16
HETATM   16  N2  UNL     1      -3.833   6.115  12.327  1.00  0.00    -0.361 N 
HETATM   17  C6  UNL     1      -3.273   7.456  11.871  1.00  0.00     0.125 C 
HETATM   18  C7  UNL     1      -4.442   8.078  11.164  1.00  0.00     0.029 C 
HETATM   19  C8  UNL     1      -4.530   7.348   9.817  1.00  0.00     0.021 C 
HETATM   20  C15 UNL     1      -4.133   5.919   9.905  1.00  0.00     0.029 C 
HETATM   21  C16 UNL     1      -4.357   5.285  11.291  1.00  0.00     0.125 C 
BRANCH  19  22
HETATM   22  C9  UNL     1      -5.830   7.628   9.227  1.00  0.00    -0.054 A 
HETATM   23  C10 UNL     1      -6.299   8.917   9.147  1.00  0.00     0.007 A 
HETATM   24  C11 UNL     1      -7.535   9.225   8.596  1.00  0.00     0.001 A 
HETATM   25  C12 UNL     1      -8.311   8.214   8.117  1.00  0.00     0.000 A 
HETATM   26  C13 UNL     1      -7.879   6.908   8.178  1.00  0.00     0.001 A 
HETATM   27  C14 UNL     1      -6.633   6.629   8.738  1.00  0.00     0.007 A 
ENDBRANCH  19  22
ENDBRANCH   1  16
TORSDOF 6
ENDMDL
