MODEL 9
REMARK VINA RESULT: -7.469451542      1.638      1.893
REMARK  6 active torsions:
REMARK  status: ('A' for Active; 'I' for Inactive)
REMARK    1  A    between atoms: N1_1  and  S1_4 
REMARK    2  A    between atoms: S1_4  and  C1_7 
REMARK    3  A    between atoms: C4_10  and  C5_11 
REMARK    4  A    between atoms: C5_11  and  O3_12 
REMARK    5  A    between atoms: C5_11  and  N2_14 
REMARK    6  A    between atoms: C8_17  and  C9_18 
ROOT
HETATM    1  C5  UNL     1      -4.165   4.567  12.596  1.00  0.00     0.148 C 
ENDROOT
BRANCH   1   2
HETATM    2  C4  UNL     1      -4.600   3.741  13.681  1.00  0.00     0.015 A 
HETATM    3  C3  UNL     1      -4.116   2.517  14.027  1.00  0.00     0.017 A 
HETATM    4  C2  UNL     1      -4.606   1.778  15.111  1.00  0.00     0.026 A 
HETATM    5  C1  UNL     1      -5.619   2.248  15.901  1.00  0.00     0.079 A 
HETATM    6  C18 UNL     1      -6.121   3.483  15.566  1.00  0.00     0.026 A 
HETATM    7  C17 UNL     1      -5.653   4.215  14.512  1.00  0.00     0.017 A 
BRANCH   5   8
HETATM    8  S1  UNL     1      -6.250   1.351  17.255  1.00  0.00     0.256 S 
HETATM    9  O1  UNL     1      -7.641   0.910  16.891  1.00  0.00    -0.201 OA
HETATM   10  O2  UNL     1      -5.365   0.172  17.540  1.00  0.00    -0.201 OA
BRANCH   8  11
HETATM   11  N1  UNL     1      -6.356   2.347  18.647  1.00  0.00    -0.324 N 
ATOM     12  H12 UNL     1      -6.898   2.132  19.484  1.00  0.00     0.169 HD
ATOM     13  H11 UNL     1      -5.787   3.177  18.486  1.00  0.00     0.169 HD
ENDBRANCH   8  11
ENDBRANCH   5   8
ENDBRANCH   1   2
BRANCH   1  14
HETATM   14  O3  UNL     1      -4.845   4.465  11.467  1.00  0.00    -0.346 OA
ATOM     15  H3  UNL     1      -4.985   5.270  10.982  1.00  0.00     0.219 HD
ENDBRANCH   1  14
BRANCH   1  16
HETATM   16  N2  UNL     1      -3.126   5.473  12.536  1.00  0.00    -0.361 N 
HETATM   17  C6  UNL     1      -2.279   5.650  13.790  1.00  0.00     0.125 C 
HETATM   18  C7  UNL     1      -2.402   7.120  14.066  1.00  0.00     0.029 C 
HETATM   19  C8  UNL     1      -1.497   7.799  13.030  1.00  0.00     0.021 C 
HETATM   20  C15 UNL     1      -1.468   7.084  11.727  1.00  0.00     0.029 C 
HETATM   21  C16 UNL     1      -2.745   6.279  11.421  1.00  0.00     0.125 C 
BRANCH  19  22
HETATM   22  C9  UNL     1      -1.828   9.215  12.988  1.00  0.00    -0.054 A 
HETATM   23  C10 UNL     1      -1.680  10.001  14.105  1.00  0.00     0.007 A 
HETATM   24  C11 UNL     1      -1.989  11.354  14.107  1.00  0.00     0.001 A 
HETATM   25  C12 UNL     1      -2.456  11.923  12.961  1.00  0.00     0.000 A 
HETATM   26  C13 UNL     1      -2.619  11.171  11.821  1.00  0.00     0.001 A 
HETATM   27  C14 UNL     1      -2.301   9.814  11.848  1.00  0.00     0.007 A 
ENDBRANCH  19  22
ENDBRANCH   1  16
TORSDOF 6
ENDMDL
