MODEL 19
REMARK VINA RESULT: -7.392380125      3.186      4.484
REMARK  7 active torsions:
REMARK  status: ('A' for Active; 'I' for Inactive)
REMARK    1  A    between atoms: N1_1  and  S1_4 
REMARK    2  A    between atoms: S1_4  and  C1_7 
REMARK    3  A    between atoms: C4_10  and  C5_11 
REMARK    4  A    between atoms: C5_11  and  O3_12 
REMARK    5  A    between atoms: C5_11  and  N2_14 
REMARK    6  A    between atoms: C8_17  and  O4_18 
REMARK    7  A    between atoms: C8_17  and  C9_20 
ROOT
HETATM    1  C5  UNL     1      -4.089   4.573  12.581  1.00  0.00     0.148 C 
ENDROOT
BRANCH   1   2
HETATM    2  C4  UNL     1      -4.652   3.758  13.627  1.00  0.00     0.015 A 
HETATM    3  C3  UNL     1      -4.102   2.515  13.979  1.00  0.00     0.017 A 
HETATM    4  C2  UNL     1      -4.599   1.741  14.995  1.00  0.00     0.026 A 
HETATM    5  C1  UNL     1      -5.673   2.140  15.737  1.00  0.00     0.079 A 
HETATM    6  C18 UNL     1      -6.237   3.346  15.427  1.00  0.00     0.026 A 
HETATM    7  C17 UNL     1      -5.733   4.147  14.385  1.00  0.00     0.017 A 
BRANCH   5   8
HETATM    8  S1  UNL     1      -6.275   1.096  16.988  1.00  0.00     0.256 S 
HETATM    9  O1  UNL     1      -5.583  -0.218  16.902  1.00  0.00    -0.201 OA
HETATM   10  O2  UNL     1      -7.771   0.881  16.875  1.00  0.00    -0.201 OA
BRANCH   8  11
HETATM   11  N1  UNL     1      -6.014   1.796  18.566  1.00  0.00    -0.324 N 
ATOM     12  H12 UNL     1      -5.109   1.838  19.034  1.00  0.00     0.169 HD
ATOM     13  H11 UNL     1      -6.898   2.149  18.936  1.00  0.00     0.169 HD
ENDBRANCH   8  11
ENDBRANCH   5   8
ENDBRANCH   1   2
BRANCH   1  14
HETATM   14  O3  UNL     1      -4.682   4.316  11.409  1.00  0.00    -0.346 OA
ATOM     15  H3  UNL     1      -4.043   4.042  10.762  1.00  0.00     0.219 HD
ENDBRANCH   1  14
BRANCH   1  16
HETATM   16  N2  UNL     1      -3.096   5.531  12.576  1.00  0.00    -0.361 N 
HETATM   17  C6  UNL     1      -1.701   5.046  12.664  1.00  0.00     0.128 C 
HETATM   18  C7  UNL     1      -1.029   6.041  13.596  1.00  0.00     0.062 C 
HETATM   19  C8  UNL     1      -0.748   7.251  12.709  1.00  0.00     0.088 C 
HETATM   20  C15 UNL     1      -1.979   7.633  11.982  1.00  0.00     0.062 C 
HETATM   21  C16 UNL     1      -3.250   6.930  12.451  1.00  0.00     0.128 C 
BRANCH  19  22
HETATM   22  O4  UNL     1       0.152   6.751  11.727  1.00  0.00    -0.385 OA
ATOM     23  H4  UNL     1      -0.186   7.099  10.911  1.00  0.00     0.211 HD
ENDBRANCH  19  22
BRANCH  19  24
HETATM   24  C9  UNL     1      -0.056   8.316  13.438  1.00  0.00    -0.024 A 
HETATM   25  C10 UNL     1      -0.609   8.872  14.601  1.00  0.00     0.010 A 
HETATM   26  C11 UNL     1      -0.004   9.866  15.306  1.00  0.00     0.001 A 
HETATM   27  C12 UNL     1       1.209  10.378  14.878  1.00  0.00     0.000 A 
HETATM   28  C13 UNL     1       1.781   9.853  13.740  1.00  0.00     0.001 A 
HETATM   29  C14 UNL     1       1.157   8.841  13.035  1.00  0.00     0.010 A 
ENDBRANCH  19  24
ENDBRANCH   1  16
TORSDOF 7
ENDMDL
