MODEL 3
REMARK VINA RESULT: -7.996015940      1.159      1.562
REMARK  7 active torsions:
REMARK  status: ('A' for Active; 'I' for Inactive)
REMARK    1  A    between atoms: N1_1  and  S1_4 
REMARK    2  A    between atoms: S1_4  and  C1_7 
REMARK    3  A    between atoms: C4_10  and  C5_11 
REMARK    4  A    between atoms: C5_11  and  O3_12 
REMARK    5  A    between atoms: C5_11  and  N2_14 
REMARK    6  A    between atoms: C8_17  and  O4_18 
REMARK    7  A    between atoms: C8_17  and  C9_20 
ROOT
HETATM    1  C5  UNL     1      -3.600   2.706  11.272  1.00  0.00     0.148 C 
ENDROOT
BRANCH   1   2
HETATM    2  C4  UNL     1      -4.192   2.408  12.551  1.00  0.00     0.015 A 
HETATM    3  C3  UNL     1      -4.002   1.173  13.190  1.00  0.00     0.017 A 
HETATM    4  C2  UNL     1      -4.525   0.883  14.423  1.00  0.00     0.026 A 
HETATM    5  C1  UNL     1      -5.271   1.793  15.114  1.00  0.00     0.079 A 
HETATM    6  C18 UNL     1      -5.479   3.010  14.527  1.00  0.00     0.026 A 
HETATM    7  C17 UNL     1      -4.946   3.315  13.261  1.00  0.00     0.017 A 
BRANCH   5   8
HETATM    8  S1  UNL     1      -5.934   1.350  16.657  1.00  0.00     0.256 S 
HETATM    9  O1  UNL     1      -4.934   0.541  17.404  1.00  0.00    -0.201 OA
HETATM   10  O2  UNL     1      -7.216   0.554  16.516  1.00  0.00    -0.201 OA
BRANCH   8  11
HETATM   11  N1  UNL     1      -6.356   2.767  17.586  1.00  0.00    -0.324 N 
ATOM     12  H12 UNL     1      -5.688   3.329  18.114  1.00  0.00     0.169 HD
ATOM     13  H11 UNL     1      -7.360   2.938  17.517  1.00  0.00     0.169 HD
ENDBRANCH   8  11
ENDBRANCH   5   8
ENDBRANCH   1   2
BRANCH   1  14
HETATM   14  O3  UNL     1      -4.478   2.497  10.283  1.00  0.00    -0.346 OA
ATOM     15  H3  UNL     1      -4.415   3.182   9.628  1.00  0.00     0.219 HD
ENDBRANCH   1  14
BRANCH   1  16
HETATM   16  N2  UNL     1      -2.348   3.151  10.904  1.00  0.00    -0.361 N 
HETATM   17  C6  UNL     1      -2.292   4.365  10.062  1.00  0.00     0.128 C 
HETATM   18  C7  UNL     1      -1.189   4.063   9.060  1.00  0.00     0.062 C 
HETATM   19  C8  UNL     1       0.099   4.320   9.836  1.00  0.00     0.088 C 
HETATM   20  C15 UNL     1       0.055   3.599  11.128  1.00  0.00     0.062 C 
HETATM   21  C16 UNL     1      -1.097   2.607  11.274  1.00  0.00     0.128 C 
BRANCH  19  22
HETATM   22  O4  UNL     1       0.035   5.705  10.154  1.00  0.00    -0.385 OA
ATOM     23  H4  UNL     1       0.606   5.791  10.908  1.00  0.00     0.211 HD
ENDBRANCH  19  22
BRANCH  19  24
HETATM   24  C9  UNL     1       1.288   4.113   9.007  1.00  0.00    -0.024 A 
HETATM   25  C10 UNL     1       1.186   3.995   7.613  1.00  0.00     0.010 A 
HETATM   26  C11 UNL     1       2.263   3.796   6.806  1.00  0.00     0.001 A 
HETATM   27  C12 UNL     1       3.530   3.695   7.356  1.00  0.00     0.000 A 
HETATM   28  C13 UNL     1       3.666   3.807   8.722  1.00  0.00     0.001 A 
HETATM   29  C14 UNL     1       2.564   4.012   9.530  1.00  0.00     0.010 A 
ENDBRANCH  19  24
ENDBRANCH   1  16
TORSDOF 7
ENDMDL
