MODEL 2
REMARK VINA RESULT: -8.028982976      3.592      9.083
REMARK  7 active torsions:
REMARK  status: ('A' for Active; 'I' for Inactive)
REMARK    1  A    between atoms: N1_1  and  S1_4 
REMARK    2  A    between atoms: S1_4  and  C1_7 
REMARK    3  A    between atoms: C4_10  and  C5_11 
REMARK    4  A    between atoms: C5_11  and  O3_12 
REMARK    5  A    between atoms: C5_11  and  N2_14 
REMARK    6  A    between atoms: C8_17  and  O4_18 
REMARK    7  A    between atoms: C8_17  and  C9_20 
ROOT
HETATM    1  C5  UNL     1      -2.837   3.743  10.656  1.00  0.00     0.148 C 
ENDROOT
BRANCH   1   2
HETATM    2  C4  UNL     1      -1.520   3.864  10.087  1.00  0.00     0.015 A 
HETATM    3  C3  UNL     1      -0.369   3.960  10.885  1.00  0.00     0.017 A 
HETATM    4  C2  UNL     1       0.896   4.038  10.363  1.00  0.00     0.026 A 
HETATM    5  C1  UNL     1       1.115   4.025   9.017  1.00  0.00     0.079 A 
HETATM    6  C18 UNL     1       0.020   3.932   8.203  1.00  0.00     0.026 A 
HETATM    7  C17 UNL     1      -1.282   3.851   8.730  1.00  0.00     0.017 A 
BRANCH   5   8
HETATM    8  S1  UNL     1       2.740   4.163   8.420  1.00  0.00     0.256 S 
HETATM    9  O1  UNL     1       2.917   3.235   7.271  1.00  0.00    -0.201 OA
HETATM   10  O2  UNL     1       3.765   3.837   9.488  1.00  0.00    -0.201 OA
BRANCH   8  11
HETATM   11  N1  UNL     1       3.085   5.798   7.914  1.00  0.00    -0.324 N 
ATOM     12  H12 UNL     1       2.445   6.380   7.372  1.00  0.00     0.169 HD
ATOM     13  H11 UNL     1       4.011   6.071   8.243  1.00  0.00     0.169 HD
ENDBRANCH   8  11
ENDBRANCH   5   8
ENDBRANCH   1   2
BRANCH   1  14
HETATM   14  O3  UNL     1      -3.775   3.809   9.703  1.00  0.00    -0.346 OA
ATOM     15  H3  UNL     1      -4.397   3.098   9.794  1.00  0.00     0.219 HD
ENDBRANCH   1  14
BRANCH   1  16
HETATM   16  N2  UNL     1      -3.283   3.575  11.951  1.00  0.00    -0.361 N 
HETATM   17  C6  UNL     1      -2.661   2.485  12.734  1.00  0.00     0.128 C 
HETATM   18  C7  UNL     1      -3.824   1.880  13.503  1.00  0.00     0.062 C 
HETATM   19  C8  UNL     1      -4.041   2.842  14.668  1.00  0.00     0.088 C 
HETATM   20  C15 UNL     1      -4.131   4.229  14.159  1.00  0.00     0.062 C 
HETATM   21  C16 UNL     1      -4.239   4.353  12.641  1.00  0.00     0.128 C 
BRANCH  19  22
HETATM   22  O4  UNL     1      -2.824   2.768  15.400  1.00  0.00    -0.385 OA
ATOM     23  H4  UNL     1      -2.423   1.964  15.095  1.00  0.00     0.211 HD
ENDBRANCH  19  22
BRANCH  19  24
HETATM   24  C9  UNL     1      -5.117   2.395  15.554  1.00  0.00    -0.024 A 
HETATM   25  C10 UNL     1      -5.043   1.159  16.214  1.00  0.00     0.010 A 
HETATM   26  C11 UNL     1      -6.022   0.702  17.042  1.00  0.00     0.001 A 
HETATM   27  C12 UNL     1      -7.157   1.464  17.258  1.00  0.00     0.000 A 
HETATM   28  C13 UNL     1      -7.261   2.684  16.626  1.00  0.00     0.001 A 
HETATM   29  C14 UNL     1      -6.258   3.138  15.790  1.00  0.00     0.010 A 
ENDBRANCH  19  24
ENDBRANCH   1  16
TORSDOF 7
ENDMDL
