MODEL 16
REMARK VINA RESULT: -7.560328666      4.081      5.513
REMARK  7 active torsions:
REMARK  status: ('A' for Active; 'I' for Inactive)
REMARK    1  A    between atoms: N1_1  and  S1_4 
REMARK    2  A    between atoms: S1_4  and  C1_7 
REMARK    3  A    between atoms: C4_10  and  C5_11 
REMARK    4  A    between atoms: C5_11  and  O3_12 
REMARK    5  A    between atoms: C5_11  and  N2_14 
REMARK    6  A    between atoms: C8_17  and  O4_18 
REMARK    7  A    between atoms: C8_17  and  C9_20 
ROOT
HETATM    1  C5  UNL     1      -4.318   5.384  13.038  1.00  0.00     0.148 C 
ENDROOT
BRANCH   1   2
HETATM    2  C4  UNL     1      -4.711   4.401  14.014  1.00  0.00     0.015 A 
HETATM    3  C3  UNL     1      -5.925   4.490  14.713  1.00  0.00     0.017 A 
HETATM    4  C2  UNL     1      -6.335   3.546  15.619  1.00  0.00     0.026 A 
HETATM    5  C1  UNL     1      -5.577   2.446  15.896  1.00  0.00     0.079 A 
HETATM    6  C18 UNL     1      -4.387   2.321  15.235  1.00  0.00     0.026 A 
HETATM    7  C17 UNL     1      -3.958   3.285  14.304  1.00  0.00     0.017 A 
BRANCH   5   8
HETATM    8  S1  UNL     1      -6.138   1.305  17.079  1.00  0.00     0.256 S 
HETATM    9  O1  UNL     1      -5.257   0.106  17.056  1.00  0.00    -0.201 OA
HETATM   10  O2  UNL     1      -7.569   0.878  16.822  1.00  0.00    -0.201 OA
BRANCH   8  11
HETATM   11  N1  UNL     1      -6.133   2.008  18.678  1.00  0.00    -0.324 N 
ATOM     12  H12 UNL     1      -5.297   2.134  19.249  1.00  0.00     0.169 HD
ATOM     13  H11 UNL     1      -7.084   2.267  18.942  1.00  0.00     0.169 HD
ENDBRANCH   8  11
ENDBRANCH   5   8
ENDBRANCH   1   2
BRANCH   1  14
HETATM   14  O3  UNL     1      -5.002   5.222  11.899  1.00  0.00    -0.346 OA
ATOM     15  H3  UNL     1      -5.937   5.253  12.061  1.00  0.00     0.219 HD
ENDBRANCH   1  14
BRANCH   1  16
HETATM   16  N2  UNL     1      -3.406   6.419  13.070  1.00  0.00    -0.361 N 
HETATM   17  C6  UNL     1      -2.344   6.341  14.096  1.00  0.00     0.128 C 
HETATM   18  C7  UNL     1      -2.213   7.771  14.594  1.00  0.00     0.062 C 
HETATM   19  C8  UNL     1      -1.379   8.464  13.520  1.00  0.00     0.088 C 
HETATM   20  C15 UNL     1      -1.962   8.195  12.186  1.00  0.00     0.062 C 
HETATM   21  C16 UNL     1      -3.337   7.534  12.204  1.00  0.00     0.128 C 
BRANCH  19  22
HETATM   22  O4  UNL     1      -0.137   7.773  13.555  1.00  0.00    -0.385 OA
ATOM     23  H4  UNL     1       0.019   7.538  12.648  1.00  0.00     0.211 HD
ENDBRANCH  19  22
BRANCH  19  24
HETATM   24  C9  UNL     1      -1.114   9.865  13.852  1.00  0.00    -0.024 A 
HETATM   25  C10 UNL     1      -0.032  10.221  14.671  1.00  0.00     0.010 A 
HETATM   26  C11 UNL     1       0.247  11.509  15.009  1.00  0.00     0.001 A 
HETATM   27  C12 UNL     1      -0.556  12.536  14.545  1.00  0.00     0.000 A 
HETATM   28  C13 UNL     1      -1.627  12.221  13.737  1.00  0.00     0.001 A 
HETATM   29  C14 UNL     1      -1.898  10.909  13.399  1.00  0.00     0.010 A 
ENDBRANCH  19  24
ENDBRANCH   1  16
TORSDOF 7
ENDMDL
