MODEL 1
REMARK VINA RESULT: -8.160248373      0.000      0.000
REMARK  7 active torsions:
REMARK  status: ('A' for Active; 'I' for Inactive)
REMARK    1  A    between atoms: N1_1  and  S1_4 
REMARK    2  A    between atoms: S1_4  and  C1_7 
REMARK    3  A    between atoms: C4_10  and  C5_11 
REMARK    4  A    between atoms: C5_11  and  O3_12 
REMARK    5  A    between atoms: C5_11  and  N2_14 
REMARK    6  A    between atoms: C8_17  and  O4_18 
REMARK    7  A    between atoms: C8_17  and  C9_20 
ROOT
HETATM    1  C5  UNL     1      -3.861   3.701  12.223  1.00  0.00     0.148 C 
ENDROOT
BRANCH   1   2
HETATM    2  C4  UNL     1      -4.492   3.102  13.371  1.00  0.00     0.015 A 
HETATM    3  C3  UNL     1      -4.103   1.846  13.864  1.00  0.00     0.017 A 
HETATM    4  C2  UNL     1      -4.664   1.275  14.977  1.00  0.00     0.026 A 
HETATM    5  C1  UNL     1      -5.648   1.904  15.683  1.00  0.00     0.079 A 
HETATM    6  C18 UNL     1      -6.055   3.131  15.237  1.00  0.00     0.026 A 
HETATM    7  C17 UNL     1      -5.484   3.724  14.095  1.00  0.00     0.017 A 
BRANCH   5   8
HETATM    8  S1  UNL     1      -6.341   1.111  17.063  1.00  0.00     0.256 S 
HETATM    9  O1  UNL     1      -5.712  -0.228  17.223  1.00  0.00    -0.201 OA
HETATM   10  O2  UNL     1      -7.842   0.945  16.928  1.00  0.00    -0.201 OA
BRANCH   8  11
HETATM   11  N1  UNL     1      -6.097   2.052  18.514  1.00  0.00    -0.324 N 
ATOM     12  H12 UNL     1      -6.440   1.786  19.437  1.00  0.00     0.169 HD
ATOM     13  H11 UNL     1      -5.567   2.895  18.291  1.00  0.00     0.169 HD
ENDBRANCH   8  11
ENDBRANCH   5   8
ENDBRANCH   1   2
BRANCH   1  14
HETATM   14  O3  UNL     1      -4.715   4.506  11.579  1.00  0.00    -0.346 OA
ATOM     15  H3  UNL     1      -4.594   4.441  10.639  1.00  0.00     0.219 HD
ENDBRANCH   1  14
BRANCH   1  16
HETATM   16  N2  UNL     1      -2.590   3.599  11.697  1.00  0.00    -0.361 N 
HETATM   17  C6  UNL     1      -1.632   4.667  12.056  1.00  0.00     0.128 C 
HETATM   18  C7  UNL     1      -0.875   4.926  10.764  1.00  0.00     0.062 C 
HETATM   19  C8  UNL     1       0.138   3.788  10.691  1.00  0.00     0.088 C 
HETATM   20  C15 UNL     1      -0.550   2.493  10.899  1.00  0.00     0.062 C 
HETATM   21  C16 UNL     1      -2.075   2.564  10.884  1.00  0.00     0.128 C 
BRANCH  19  22
HETATM   22  O4  UNL     1       0.958   3.988  11.836  1.00  0.00    -0.385 OA
ATOM     23  H4  UNL     1       1.321   3.127  12.009  1.00  0.00     0.211 HD
ENDBRANCH  19  22
BRANCH  19  24
HETATM   24  C9  UNL     1       0.998   3.894   9.510  1.00  0.00    -0.024 A 
HETATM   25  C10 UNL     1       2.393   3.970   9.636  1.00  0.00     0.010 A 
HETATM   26  C11 UNL     1       3.227   4.076   8.567  1.00  0.00     0.001 A 
HETATM   27  C12 UNL     1       2.708   4.119   7.285  1.00  0.00     0.000 A 
HETATM   28  C13 UNL     1       1.342   4.046   7.125  1.00  0.00     0.001 A 
HETATM   29  C14 UNL     1       0.505   3.936   8.220  1.00  0.00     0.010 A 
ENDBRANCH  19  24
ENDBRANCH   1  16
TORSDOF 7
ENDMDL
