MODEL 2
REMARK VINA RESULT: -7.976831096      0.291      1.334
REMARK  7 active torsions:
REMARK  status: ('A' for Active; 'I' for Inactive)
REMARK    1  A    between atoms: N1_1  and  S1_4 
REMARK    2  A    between atoms: S1_4  and  C1_7 
REMARK    3  A    between atoms: C4_10  and  C5_11 
REMARK    4  A    between atoms: C5_11  and  O3_12 
REMARK    5  A    between atoms: C5_11  and  N2_14 
REMARK    6  A    between atoms: N3_17  and  C8_18 
REMARK    7  A    between atoms: C8_18  and  C9_19 
ROOT
HETATM    1  C5  UNL     1      -4.198   5.531  13.473  1.00  0.00     0.148 C 
ENDROOT
BRANCH   1   2
HETATM    2  C4  UNL     1      -4.717   4.572  14.413  1.00  0.00     0.015 A 
HETATM    3  C3  UNL     1      -5.979   4.571  14.942  1.00  0.00     0.017 A 
HETATM    4  C2  UNL     1      -6.423   3.562  15.821  1.00  0.00     0.026 A 
HETATM    5  C1  UNL     1      -5.618   2.522  16.201  1.00  0.00     0.079 A 
HETATM    6  C18 UNL     1      -4.347   2.512  15.680  1.00  0.00     0.026 A 
HETATM    7  C17 UNL     1      -3.913   3.490  14.824  1.00  0.00     0.017 A 
BRANCH   5   8
HETATM    8  S1  UNL     1      -6.202   1.288  17.293  1.00  0.00     0.256 S 
HETATM    9  O1  UNL     1      -5.303   0.098  17.341  1.00  0.00    -0.201 OA
HETATM   10  O2  UNL     1      -7.601   0.936  16.885  1.00  0.00    -0.201 OA
BRANCH   8  11
HETATM   11  N1  UNL     1      -6.300   1.969  18.893  1.00  0.00    -0.324 N 
ATOM     12  H12 UNL     1      -5.904   1.547  19.734  1.00  0.00     0.169 HD
ATOM     13  H11 UNL     1      -6.816   2.847  18.839  1.00  0.00     0.169 HD
ENDBRANCH   8  11
ENDBRANCH   5   8
ENDBRANCH   1   2
BRANCH   1  14
HETATM   14  O3  UNL     1      -3.318   6.355  13.974  1.00  0.00    -0.346 OA
ATOM     15  H3  UNL     1      -3.671   7.202  14.221  1.00  0.00     0.219 HD
ENDBRANCH   1  14
BRANCH   1  16
HETATM   16  N2  UNL     1      -4.498   5.708  12.099  1.00  0.00    -0.358 N 
HETATM   17  C6  UNL     1      -4.152   4.858  11.021  1.00  0.00     0.155 C 
HETATM   18  C7  UNL     1      -4.255   5.455   9.649  1.00  0.00     0.292 C 
HETATM   19  N3  UNL     1      -5.335   6.398   9.538  1.00  0.00     0.095 N 
HETATM   20  C15 UNL     1      -4.964   7.460  10.505  1.00  0.00     0.292 C 
HETATM   21  C16 UNL     1      -5.304   6.915  11.832  1.00  0.00     0.155 C 
BRANCH  19  22
HETATM   22  C8  UNL     1      -5.378   7.034   8.254  1.00  0.00     0.311 C 
BRANCH  22  23
HETATM   23  C9  UNL     1      -6.644   7.748   7.991  1.00  0.00    -0.030 A 
HETATM   24  C10 UNL     1      -6.741   8.976   7.411  1.00  0.00     0.012 A 
HETATM   25  C11 UNL     1      -7.994   9.553   7.213  1.00  0.00     0.043 A 
HETATM   26  C12 UNL     1      -9.146   8.907   7.588  1.00  0.00     0.116 A 
HETATM   27  F1  UNL     1     -10.389   9.439   7.410  1.00  0.00    -0.206 F 
HETATM   28  C13 UNL     1      -9.060   7.653   8.180  1.00  0.00     0.043 A 
HETATM   29  C14 UNL     1      -7.813   7.113   8.362  1.00  0.00     0.012 A 
ENDBRANCH  22  23
ENDBRANCH  19  22
ENDBRANCH   1  16
TORSDOF 7
ENDMDL
