MODEL 3
REMARK VINA RESULT: -7.971443586      0.650      1.139
REMARK  7 active torsions:
REMARK  status: ('A' for Active; 'I' for Inactive)
REMARK    1  A    between atoms: N1_1  and  S1_4 
REMARK    2  A    between atoms: S1_4  and  C1_7 
REMARK    3  A    between atoms: C4_10  and  C5_11 
REMARK    4  A    between atoms: C5_11  and  O3_12 
REMARK    5  A    between atoms: C5_11  and  N2_14 
REMARK    6  A    between atoms: N3_17  and  C8_18 
REMARK    7  A    between atoms: C8_18  and  C9_19 
ROOT
HETATM    1  C5  UNL     1      -4.173   5.577  13.312  1.00  0.00     0.148 C 
ENDROOT
BRANCH   1   2
HETATM    2  C4  UNL     1      -4.659   4.573  14.223  1.00  0.00     0.015 A 
HETATM    3  C3  UNL     1      -5.925   4.503  14.737  1.00  0.00     0.017 A 
HETATM    4  C2  UNL     1      -6.334   3.454  15.585  1.00  0.00     0.026 A 
HETATM    5  C1  UNL     1      -5.487   2.440  15.948  1.00  0.00     0.079 A 
HETATM    6  C18 UNL     1      -4.212   2.498  15.440  1.00  0.00     0.026 A 
HETATM    7  C17 UNL     1      -3.812   3.516  14.615  1.00  0.00     0.017 A 
BRANCH   5   8
HETATM    8  S1  UNL     1      -6.028   1.154  17.001  1.00  0.00     0.256 S 
HETATM    9  O1  UNL     1      -5.569   1.340  18.409  1.00  0.00    -0.201 OA
HETATM   10  O2  UNL     1      -5.569  -0.147  16.414  1.00  0.00    -0.201 OA
BRANCH   8  11
HETATM   11  N1  UNL     1      -7.769   1.126  16.989  1.00  0.00    -0.324 N 
ATOM     12  H12 UNL     1      -8.352   0.679  17.697  1.00  0.00     0.169 HD
ATOM     13  H11 UNL     1      -8.094   1.627  16.161  1.00  0.00     0.169 HD
ENDBRANCH   8  11
ENDBRANCH   5   8
ENDBRANCH   1   2
BRANCH   1  14
HETATM   14  O3  UNL     1      -3.319   6.413  13.838  1.00  0.00    -0.346 OA
ATOM     15  H3  UNL     1      -2.746   6.835  13.209  1.00  0.00     0.219 HD
ENDBRANCH   1  14
BRANCH   1  16
HETATM   16  N2  UNL     1      -4.482   5.788  11.946  1.00  0.00    -0.358 N 
HETATM   17  C6  UNL     1      -3.917   5.139  10.821  1.00  0.00     0.155 C 
HETATM   18  C7  UNL     1      -4.138   5.804   9.495  1.00  0.00     0.292 C 
HETATM   19  N3  UNL     1      -5.414   6.462   9.413  1.00  0.00     0.095 N 
HETATM   20  C15 UNL     1      -5.333   7.499  10.470  1.00  0.00     0.292 C 
HETATM   21  C16 UNL     1      -5.554   6.782  11.739  1.00  0.00     0.155 C 
BRANCH  19  22
HETATM   22  C8  UNL     1      -5.587   7.172   8.180  1.00  0.00     0.311 C 
BRANCH  22  23
HETATM   23  C9  UNL     1      -6.937   7.748   8.015  1.00  0.00    -0.030 A 
HETATM   24  C10 UNL     1      -8.098   7.127   8.363  1.00  0.00     0.012 A 
HETATM   25  C11 UNL     1      -9.318   7.771   8.160  1.00  0.00     0.043 A 
HETATM   26  C12 UNL     1      -9.379   9.029   7.613  1.00  0.00     0.116 A 
HETATM   27  F1  UNL     1     -10.553   9.690   7.400  1.00  0.00    -0.206 F 
HETATM   28  C13 UNL     1      -8.202   9.673   7.255  1.00  0.00     0.043 A 
HETATM   29  C14 UNL     1      -7.019   9.013   7.466  1.00  0.00     0.012 A 
ENDBRANCH  22  23
ENDBRANCH  19  22
ENDBRANCH   1  16
TORSDOF 7
ENDMDL
