MODEL 4
REMARK VINA RESULT: -7.783126983      5.501      7.540
REMARK  7 active torsions:
REMARK  status: ('A' for Active; 'I' for Inactive)
REMARK    1  A    between atoms: N1_1  and  S1_4 
REMARK    2  A    between atoms: S1_4  and  C1_7 
REMARK    3  A    between atoms: C4_10  and  C5_11 
REMARK    4  A    between atoms: C5_11  and  O3_12 
REMARK    5  A    between atoms: C5_11  and  N2_14 
REMARK    6  A    between atoms: N3_17  and  C8_18 
REMARK    7  A    between atoms: C8_18  and  C9_19 
ROOT
HETATM    1  C5  UNL     1      -4.034   3.806  12.397  1.00  0.00     0.148 C 
ENDROOT
BRANCH   1   2
HETATM    2  C4  UNL     1      -4.600   3.232  13.590  1.00  0.00     0.015 A 
HETATM    3  C3  UNL     1      -5.570   3.799  14.371  1.00  0.00     0.017 A 
HETATM    4  C2  UNL     1      -6.106   3.144  15.497  1.00  0.00     0.026 A 
HETATM    5  C1  UNL     1      -5.687   1.897  15.882  1.00  0.00     0.079 A 
HETATM    6  C18 UNL     1      -4.712   1.316  15.108  1.00  0.00     0.026 A 
HETATM    7  C17 UNL     1      -4.190   1.950  14.012  1.00  0.00     0.017 A 
BRANCH   5   8
HETATM    8  S1  UNL     1      -6.374   1.113  17.284  1.00  0.00     0.256 S 
HETATM    9  O1  UNL     1      -5.584  -0.077  17.715  1.00  0.00    -0.201 OA
HETATM   10  O2  UNL     1      -7.800   0.774  16.971  1.00  0.00    -0.201 OA
BRANCH   8  11
HETATM   11  N1  UNL     1      -6.406   2.258  18.596  1.00  0.00    -0.324 N 
ATOM     12  H12 UNL     1      -7.231   2.492  19.149  1.00  0.00     0.169 HD
ATOM     13  H11 UNL     1      -5.468   2.644  18.710  1.00  0.00     0.169 HD
ENDBRANCH   8  11
ENDBRANCH   5   8
ENDBRANCH   1   2
BRANCH   1  14
HETATM   14  O3  UNL     1      -4.800   3.722  11.344  1.00  0.00    -0.346 OA
ATOM     15  H3  UNL     1      -4.422   4.092  10.554  1.00  0.00     0.219 HD
ENDBRANCH   1  14
BRANCH   1  16
HETATM   16  N2  UNL     1      -2.783   4.442  12.202  1.00  0.00    -0.358 N 
HETATM   17  C6  UNL     1      -2.457   5.801  12.431  1.00  0.00     0.155 C 
HETATM   18  C7  UNL     1      -1.192   6.293  11.795  1.00  0.00     0.292 C 
HETATM   19  N3  UNL     1      -0.171   5.282  11.741  1.00  0.00     0.095 N 
HETATM   20  C15 UNL     1      -0.773   4.234  10.880  1.00  0.00     0.292 C 
HETATM   21  C16 UNL     1      -1.726   3.517  11.747  1.00  0.00     0.155 C 
BRANCH  19  22
HETATM   22  C8  UNL     1       1.005   5.726  11.053  1.00  0.00     0.311 C 
BRANCH  22  23
HETATM   23  C9  UNL     1       2.112   6.100  11.957  1.00  0.00    -0.030 A 
HETATM   24  C10 UNL     1       3.058   5.241  12.428  1.00  0.00     0.012 A 
HETATM   25  C11 UNL     1       4.059   5.709  13.278  1.00  0.00     0.043 A 
HETATM   26  C12 UNL     1       4.117   7.028  13.656  1.00  0.00     0.116 A 
HETATM   27  F1  UNL     1       5.080   7.521  14.485  1.00  0.00    -0.206 F 
HETATM   28  C13 UNL     1       3.157   7.913  13.182  1.00  0.00     0.043 A 
HETATM   29  C14 UNL     1       2.186   7.422  12.348  1.00  0.00     0.012 A 
ENDBRANCH  22  23
ENDBRANCH  19  22
ENDBRANCH   1  16
TORSDOF 7
ENDMDL
