MODEL 1
REMARK VINA RESULT: -8.003997854      0.000      0.000
REMARK  7 active torsions:
REMARK  status: ('A' for Active; 'I' for Inactive)
REMARK    1  A    between atoms: N1_1  and  S1_4 
REMARK    2  A    between atoms: S1_4  and  C1_7 
REMARK    3  A    between atoms: C4_10  and  C5_11 
REMARK    4  A    between atoms: C5_11  and  O3_12 
REMARK    5  A    between atoms: C5_11  and  N2_14 
REMARK    6  A    between atoms: N3_17  and  C8_18 
REMARK    7  A    between atoms: C8_18  and  C9_19 
ROOT
HETATM    1  C5  UNL     1      -4.227   5.571  13.285  1.00  0.00     0.148 C 
ENDROOT
BRANCH   1   2
HETATM    2  C4  UNL     1      -4.619   4.508  14.173  1.00  0.00     0.015 A 
HETATM    3  C3  UNL     1      -3.796   3.536  14.674  1.00  0.00     0.017 A 
HETATM    4  C2  UNL     1      -4.254   2.559  15.581  1.00  0.00     0.026 A 
HETATM    5  C1  UNL     1      -5.552   2.522  16.017  1.00  0.00     0.079 A 
HETATM    6  C18 UNL     1      -6.390   3.490  15.521  1.00  0.00     0.026 A 
HETATM    7  C17 UNL     1      -5.949   4.442  14.640  1.00  0.00     0.017 A 
BRANCH   5   8
HETATM    8  S1  UNL     1      -6.085   1.296  17.143  1.00  0.00     0.256 S 
HETATM    9  O1  UNL     1      -5.038   0.263  17.398  1.00  0.00    -0.201 OA
HETATM   10  O2  UNL     1      -7.358   0.706  16.614  1.00  0.00    -0.201 OA
BRANCH   8  11
HETATM   11  N1  UNL     1      -6.477   2.068  18.654  1.00  0.00    -0.324 N 
ATOM     12  H12 UNL     1      -7.089   1.675  19.370  1.00  0.00     0.169 HD
ATOM     13  H11 UNL     1      -5.993   2.965  18.693  1.00  0.00     0.169 HD
ENDBRANCH   8  11
ENDBRANCH   5   8
ENDBRANCH   1   2
BRANCH   1  14
HETATM   14  O3  UNL     1      -3.464   6.477  13.835  1.00  0.00    -0.346 OA
ATOM     15  H3  UNL     1      -2.766   6.794  13.274  1.00  0.00     0.219 HD
ENDBRANCH   1  14
BRANCH   1  16
HETATM   16  N2  UNL     1      -4.542   5.775  11.919  1.00  0.00    -0.358 N 
HETATM   17  C6  UNL     1      -4.030   5.076  10.799  1.00  0.00     0.155 C 
HETATM   18  C7  UNL     1      -4.232   5.728   9.464  1.00  0.00     0.292 C 
HETATM   19  N3  UNL     1      -5.471   6.454   9.386  1.00  0.00     0.095 N 
HETATM   20  C15 UNL     1      -5.317   7.504  10.424  1.00  0.00     0.292 C 
HETATM   21  C16 UNL     1      -5.560   6.822  11.708  1.00  0.00     0.155 C 
BRANCH  19  22
HETATM   22  C8  UNL     1      -5.621   7.151   8.143  1.00  0.00     0.311 C 
BRANCH  22  23
HETATM   23  C9  UNL     1      -6.952   7.767   7.969  1.00  0.00    -0.030 A 
HETATM   24  C10 UNL     1      -8.132   7.192   8.334  1.00  0.00     0.012 A 
HETATM   25  C11 UNL     1      -9.330   7.871   8.120  1.00  0.00     0.043 A 
HETATM   26  C12 UNL     1      -9.352   9.119   7.546  1.00  0.00     0.116 A 
HETATM   27  F1  UNL     1     -10.504   9.813   7.322  1.00  0.00    -0.206 F 
HETATM   28  C13 UNL     1      -8.156   9.716   7.171  1.00  0.00     0.043 A 
HETATM   29  C14 UNL     1      -6.994   9.022   7.394  1.00  0.00     0.012 A 
ENDBRANCH  22  23
ENDBRANCH  19  22
ENDBRANCH   1  16
TORSDOF 7
ENDMDL
