MODEL 5
REMARK VINA RESULT: -7.257790866      3.437      4.666
REMARK  6 active torsions:
REMARK  status: ('A' for Active; 'I' for Inactive)
REMARK    1  A    between atoms: N1_1  and  S1_4 
REMARK    2  A    between atoms: S1_4  and  C1_7 
REMARK    3  A    between atoms: C4_10  and  C5_11 
REMARK    4  A    between atoms: C5_11  and  O3_12 
REMARK    5  A    between atoms: C5_11  and  N2_14 
REMARK    6  A    between atoms: C8_17  and  C9_18 
ROOT
HETATM    1  C5  UNL     1      16.953  23.689   4.265  1.00  0.00     0.148 C 
ENDROOT
BRANCH   1   2
HETATM    2  C4  UNL     1      16.720  24.626   5.320  1.00  0.00     0.015 A 
HETATM    3  C3  UNL     1      16.588  24.353   6.647  1.00  0.00     0.017 A 
HETATM    4  C2  UNL     1      16.360  25.341   7.613  1.00  0.00     0.026 A 
HETATM    5  C1  UNL     1      16.254  26.663   7.277  1.00  0.00     0.079 A 
HETATM    6  C18 UNL     1      16.385  26.958   5.941  1.00  0.00     0.026 A 
HETATM    7  C17 UNL     1      16.607  26.005   4.988  1.00  0.00     0.017 A 
BRANCH   5   8
HETATM    8  S1  UNL     1      15.969  27.914   8.458  1.00  0.00     0.256 S 
HETATM    9  O1  UNL     1      14.697  28.615   8.069  1.00  0.00    -0.201 OA
HETATM   10  O2  UNL     1      15.858  27.305   9.826  1.00  0.00    -0.201 OA
BRANCH   8  11
HETATM   11  N1  UNL     1      17.239  29.067   8.438  1.00  0.00    -0.324 N 
ATOM     12  H12 UNL     1      17.333  29.826   7.764  1.00  0.00     0.169 HD
ATOM     13  H11 UNL     1      17.870  28.856   9.210  1.00  0.00     0.169 HD
ENDBRANCH   8  11
ENDBRANCH   5   8
ENDBRANCH   1   2
BRANCH   1  14
HETATM   14  O3  UNL     1      17.808  24.058   3.326  1.00  0.00    -0.346 OA
ATOM     15  H3  UNL     1      17.839  23.518   2.544  1.00  0.00     0.219 HD
ENDBRANCH   1  14
BRANCH   1  16
HETATM   16  N2  UNL     1      16.419  22.433   4.062  1.00  0.00    -0.361 N 
HETATM   17  C6  UNL     1      15.723  21.771   5.245  1.00  0.00     0.125 C 
HETATM   18  C7  UNL     1      16.476  20.481   5.391  1.00  0.00     0.029 C 
HETATM   19  C8  UNL     1      15.970  19.591   4.246  1.00  0.00     0.021 C 
HETATM   20  C15 UNL     1      15.643  20.359   3.017  1.00  0.00     0.029 C 
HETATM   21  C16 UNL     1      16.440  21.667   2.858  1.00  0.00     0.125 C 
BRANCH  19  22
HETATM   22  C9  UNL     1      16.890  18.475   4.091  1.00  0.00    -0.054 A 
HETATM   23  C10 UNL     1      18.203  18.592   4.479  1.00  0.00     0.007 A 
HETATM   24  C11 UNL     1      19.113  17.552   4.344  1.00  0.00     0.001 A 
HETATM   25  C12 UNL     1      18.690  16.374   3.808  1.00  0.00     0.000 A 
HETATM   26  C13 UNL     1      17.383  16.216   3.407  1.00  0.00     0.001 A 
HETATM   27  C14 UNL     1      16.491  17.278   3.555  1.00  0.00     0.007 A 
ENDBRANCH  19  22
ENDBRANCH   1  16
TORSDOF 6
ENDMDL
