MODEL 9
REMARK VINA RESULT: -7.168494219      4.825      8.294
REMARK  6 active torsions:
REMARK  status: ('A' for Active; 'I' for Inactive)
REMARK    1  A    between atoms: N1_1  and  S1_4 
REMARK    2  A    between atoms: S1_4  and  C1_7 
REMARK    3  A    between atoms: C4_10  and  C5_11 
REMARK    4  A    between atoms: C5_11  and  O3_12 
REMARK    5  A    between atoms: C5_11  and  N2_14 
REMARK    6  A    between atoms: C8_17  and  C9_18 
ROOT
HETATM    1  C5  UNL     1      16.392  23.248   2.070  1.00  0.00     0.148 C 
ENDROOT
BRANCH   1   2
HETATM    2  C4  UNL     1      16.713  23.239   0.675  1.00  0.00     0.015 A 
HETATM    3  C3  UNL     1      17.863  22.794   0.100  1.00  0.00     0.017 A 
HETATM    4  C2  UNL     1      18.090  22.824  -1.282  1.00  0.00     0.026 A 
HETATM    5  C1  UNL     1      17.154  23.311  -2.153  1.00  0.00     0.079 A 
HETATM    6  C18 UNL     1      15.985  23.765  -1.589  1.00  0.00     0.026 A 
HETATM    7  C17 UNL     1      15.750  23.741  -0.244  1.00  0.00     0.017 A 
BRANCH   5   8
HETATM    8  S1  UNL     1      17.408  23.362  -3.876  1.00  0.00     0.256 S 
HETATM    9  O1  UNL     1      16.133  22.910  -4.531  1.00  0.00    -0.201 OA
HETATM   10  O2  UNL     1      17.768  24.759  -4.295  1.00  0.00    -0.201 OA
BRANCH   8  11
HETATM   11  N1  UNL     1      18.655  22.280  -4.338  1.00  0.00    -0.324 N 
ATOM     12  H12 UNL     1      19.636  22.532  -4.464  1.00  0.00     0.169 HD
ATOM     13  H11 UNL     1      18.243  21.355  -4.460  1.00  0.00     0.169 HD
ENDBRANCH   8  11
ENDBRANCH   5   8
ENDBRANCH   1   2
BRANCH   1  14
HETATM   14  O3  UNL     1      15.261  22.660   2.419  1.00  0.00    -0.346 OA
ATOM     15  H3  UNL     1      14.754  23.085   3.102  1.00  0.00     0.219 HD
ENDBRANCH   1  14
BRANCH   1  16
HETATM   16  N2  UNL     1      17.088  23.783   3.134  1.00  0.00    -0.361 N 
HETATM   17  C6  UNL     1      17.263  22.905   4.367  1.00  0.00     0.125 C 
HETATM   18  C7  UNL     1      16.660  23.741   5.457  1.00  0.00     0.029 C 
HETATM   19  C8  UNL     1      17.703  24.829   5.749  1.00  0.00     0.021 C 
HETATM   20  C15 UNL     1      18.451  25.256   4.538  1.00  0.00     0.029 C 
HETATM   21  C16 UNL     1      17.672  25.082   3.221  1.00  0.00     0.125 C 
BRANCH  19  22
HETATM   22  C9  UNL     1      17.063  25.882   6.522  1.00  0.00    -0.054 A 
HETATM   23  C10 UNL     1      16.913  25.758   7.883  1.00  0.00     0.007 A 
HETATM   24  C11 UNL     1      16.306  26.738   8.656  1.00  0.00     0.001 A 
HETATM   25  C12 UNL     1      15.841  27.862   8.045  1.00  0.00     0.000 A 
HETATM   26  C13 UNL     1      15.970  28.026   6.684  1.00  0.00     0.001 A 
HETATM   27  C14 UNL     1      16.585  27.025   5.933  1.00  0.00     0.007 A 
ENDBRANCH  19  22
ENDBRANCH   1  16
TORSDOF 6
ENDMDL
