MODEL 3
REMARK VINA RESULT: -7.332840084      3.395      5.116
REMARK  6 active torsions:
REMARK  status: ('A' for Active; 'I' for Inactive)
REMARK    1  A    between atoms: N1_1  and  S1_4 
REMARK    2  A    between atoms: S1_4  and  C1_7 
REMARK    3  A    between atoms: C4_10  and  C5_11 
REMARK    4  A    between atoms: C5_11  and  O3_12 
REMARK    5  A    between atoms: C5_11  and  N2_14 
REMARK    6  A    between atoms: C8_17  and  C9_18 
ROOT
HETATM    1  C5  UNL     1      16.456  23.225   4.755  1.00  0.00     0.148 C 
ENDROOT
BRANCH   1   2
HETATM    2  C4  UNL     1      16.356  24.292   5.703  1.00  0.00     0.015 A 
HETATM    3  C3  UNL     1      16.235  24.182   7.054  1.00  0.00     0.017 A 
HETATM    4  C2  UNL     1      16.143  25.289   7.908  1.00  0.00     0.026 A 
HETATM    5  C1  UNL     1      16.168  26.569   7.428  1.00  0.00     0.079 A 
HETATM    6  C18 UNL     1      16.289  26.700   6.065  1.00  0.00     0.026 A 
HETATM    7  C17 UNL     1      16.380  25.631   5.221  1.00  0.00     0.017 A 
BRANCH   5   8
HETATM    8  S1  UNL     1      16.054  27.965   8.466  1.00  0.00     0.256 S 
HETATM    9  O1  UNL     1      14.763  28.663   8.137  1.00  0.00    -0.201 OA
HETATM   10  O2  UNL     1      16.086  27.533   9.903  1.00  0.00    -0.201 OA
BRANCH   8  11
HETATM   11  N1  UNL     1      17.341  29.056   8.159  1.00  0.00    -0.324 N 
ATOM     12  H12 UNL     1      17.519  29.916   8.678  1.00  0.00     0.169 HD
ATOM     13  H11 UNL     1      17.884  28.692   7.377  1.00  0.00     0.169 HD
ENDBRANCH   8  11
ENDBRANCH   5   8
ENDBRANCH   1   2
BRANCH   1  14
HETATM   14  O3  UNL     1      16.557  23.573   3.483  1.00  0.00    -0.346 OA
ATOM     15  H3  UNL     1      15.752  23.832   3.049  1.00  0.00     0.219 HD
ENDBRANCH   1  14
BRANCH   1  16
HETATM   16  N2  UNL     1      16.466  21.860   4.957  1.00  0.00    -0.361 N 
HETATM   17  C6  UNL     1      17.823  21.189   5.128  1.00  0.00     0.125 C 
HETATM   18  C7  UNL     1      17.820  20.157   4.038  1.00  0.00     0.029 C 
HETATM   19  C8  UNL     1      16.899  19.040   4.547  1.00  0.00     0.021 C 
HETATM   20  C15 UNL     1      15.769  19.549   5.367  1.00  0.00     0.029 C 
HETATM   21  C16 UNL     1      15.339  20.988   5.025  1.00  0.00     0.125 C 
BRANCH  19  22
HETATM   22  C9  UNL     1      16.554  18.181   3.425  1.00  0.00    -0.054 A 
HETATM   23  C10 UNL     1      15.986  18.709   2.290  1.00  0.00     0.007 A 
HETATM   24  C11 UNL     1      15.639  17.924   1.199  1.00  0.00     0.001 A 
HETATM   25  C12 UNL     1      15.869  16.583   1.256  1.00  0.00     0.000 A 
HETATM   26  C13 UNL     1      16.436  16.014   2.374  1.00  0.00     0.001 A 
HETATM   27  C14 UNL     1      16.774  16.828   3.454  1.00  0.00     0.007 A 
ENDBRANCH  19  22
ENDBRANCH   1  16
TORSDOF 6
ENDMDL
