MODEL 18
REMARK VINA RESULT: -6.972878528      1.349      2.250
REMARK  6 active torsions:
REMARK  status: ('A' for Active; 'I' for Inactive)
REMARK    1  A    between atoms: N1_1  and  S1_4 
REMARK    2  A    between atoms: S1_4  and  C1_7 
REMARK    3  A    between atoms: C4_10  and  C5_11 
REMARK    4  A    between atoms: C5_11  and  O3_12 
REMARK    5  A    between atoms: C5_11  and  N2_14 
REMARK    6  A    between atoms: C8_17  and  C9_18 
ROOT
HETATM    1  C5  UNL     1      17.336  24.286   3.507  1.00  0.00     0.148 C 
ENDROOT
BRANCH   1   2
HETATM    2  C4  UNL     1      17.056  25.044   4.687  1.00  0.00     0.015 A 
HETATM    3  C3  UNL     1      16.979  24.579   5.964  1.00  0.00     0.017 A 
HETATM    4  C2  UNL     1      16.698  25.401   7.063  1.00  0.00     0.026 A 
HETATM    5  C1  UNL     1      16.481  26.744   6.918  1.00  0.00     0.079 A 
HETATM    6  C18 UNL     1      16.555  27.232   5.635  1.00  0.00     0.026 A 
HETATM    7  C17 UNL     1      16.828  26.443   4.555  1.00  0.00     0.017 A 
BRANCH   5   8
HETATM    8  S1  UNL     1      16.128  27.791   8.267  1.00  0.00     0.256 S 
HETATM    9  O1  UNL     1      14.758  28.366   8.040  1.00  0.00    -0.201 OA
HETATM   10  O2  UNL     1      16.183  27.007   9.546  1.00  0.00    -0.201 OA
BRANCH   8  11
HETATM   11  N1  UNL     1      17.246  29.090   8.335  1.00  0.00    -0.324 N 
ATOM     12  H12 UNL     1      17.006  30.062   8.526  1.00  0.00     0.169 HD
ATOM     13  H11 UNL     1      18.177  28.716   8.152  1.00  0.00     0.169 HD
ENDBRANCH   8  11
ENDBRANCH   5   8
ENDBRANCH   1   2
BRANCH   1  14
HETATM   14  O3  UNL     1      16.371  23.495   3.070  1.00  0.00    -0.346 OA
ATOM     15  H3  UNL     1      16.628  22.797   2.479  1.00  0.00     0.219 HD
ENDBRANCH   1  14
BRANCH   1  16
HETATM   16  N2  UNL     1      18.477  24.244   2.732  1.00  0.00    -0.361 N 
HETATM   17  C6  UNL     1      18.399  23.484   1.414  1.00  0.00     0.125 C 
HETATM   18  C7  UNL     1      19.497  22.470   1.551  1.00  0.00     0.029 C 
HETATM   19  C8  UNL     1      20.797  23.257   1.334  1.00  0.00     0.021 C 
HETATM   20  C15 UNL     1      20.727  24.647   1.853  1.00  0.00     0.029 C 
HETATM   21  C16 UNL     1      19.743  24.836   3.022  1.00  0.00     0.125 C 
BRANCH  19  22
HETATM   22  C9  UNL     1      21.909  22.443   1.800  1.00  0.00    -0.054 A 
HETATM   23  C10 UNL     1      23.195  22.730   1.412  1.00  0.00     0.007 A 
HETATM   24  C11 UNL     1      24.283  21.976   1.831  1.00  0.00     0.001 A 
HETATM   25  C12 UNL     1      24.068  20.914   2.656  1.00  0.00     0.000 A 
HETATM   26  C13 UNL     1      22.795  20.593   3.068  1.00  0.00     0.001 A 
HETATM   27  C14 UNL     1      21.722  21.368   2.631  1.00  0.00     0.007 A 
ENDBRANCH  19  22
ENDBRANCH   1  16
TORSDOF 6
ENDMDL
