MODEL 1
REMARK VINA RESULT: -7.561854761      0.000      0.000
REMARK  6 active torsions:
REMARK  status: ('A' for Active; 'I' for Inactive)
REMARK    1  A    between atoms: N1_1  and  S1_4 
REMARK    2  A    between atoms: S1_4  and  C1_7 
REMARK    3  A    between atoms: C4_10  and  C5_11 
REMARK    4  A    between atoms: C5_11  and  O3_12 
REMARK    5  A    between atoms: C5_11  and  N2_14 
REMARK    6  A    between atoms: C8_17  and  C9_18 
ROOT
HETATM    1  C5  UNL     1      16.586  23.343   4.307  1.00  0.00     0.148 C 
ENDROOT
BRANCH   1   2
HETATM    2  C4  UNL     1      16.527  24.474   5.182  1.00  0.00     0.015 A 
HETATM    3  C3  UNL     1      16.612  25.787   4.835  1.00  0.00     0.017 A 
HETATM    4  C2  UNL     1      16.544  26.831   5.766  1.00  0.00     0.026 A 
HETATM    5  C1  UNL     1      16.384  26.591   7.103  1.00  0.00     0.079 A 
HETATM    6  C18 UNL     1      16.296  25.270   7.472  1.00  0.00     0.026 A 
HETATM    7  C17 UNL     1      16.361  24.242   6.576  1.00  0.00     0.017 A 
BRANCH   5   8
HETATM    8  S1  UNL     1      16.297  27.870   8.284  1.00  0.00     0.256 S 
HETATM    9  O1  UNL     1      14.881  28.375   8.294  1.00  0.00    -0.201 OA
HETATM   10  O2  UNL     1      16.694  27.343   9.633  1.00  0.00    -0.201 OA
BRANCH   8  11
HETATM   11  N1  UNL     1      17.323  29.173   7.846  1.00  0.00    -0.324 N 
ATOM     12  H12 UNL     1      17.322  30.094   8.283  1.00  0.00     0.169 HD
ATOM     13  H11 UNL     1      17.921  28.860   7.081  1.00  0.00     0.169 HD
ENDBRANCH   8  11
ENDBRANCH   5   8
ENDBRANCH   1   2
BRANCH   1  14
HETATM   14  O3  UNL     1      15.432  22.779   3.993  1.00  0.00    -0.346 OA
ATOM     15  H3  UNL     1      14.762  22.779   4.667  1.00  0.00     0.219 HD
ENDBRANCH   1  14
BRANCH   1  16
HETATM   16  N2  UNL     1      17.677  22.732   3.722  1.00  0.00    -0.361 N 
HETATM   17  C6  UNL     1      18.570  21.889   4.623  1.00  0.00     0.125 C 
HETATM   18  C7  UNL     1      19.917  22.525   4.439  1.00  0.00     0.029 C 
HETATM   19  C8  UNL     1      20.398  22.051   3.061  1.00  0.00     0.021 C 
HETATM   20  C15 UNL     1      19.290  21.891   2.084  1.00  0.00     0.029 C 
HETATM   21  C16 UNL     1      18.074  22.797   2.353  1.00  0.00     0.125 C 
BRANCH  19  22
HETATM   22  C9  UNL     1      21.512  22.892   2.649  1.00  0.00    -0.054 A 
HETATM   23  C10 UNL     1      22.590  22.351   1.990  1.00  0.00     0.007 A 
HETATM   24  C11 UNL     1      23.673  23.118   1.585  1.00  0.00     0.001 A 
HETATM   25  C12 UNL     1      23.669  24.454   1.850  1.00  0.00     0.000 A 
HETATM   26  C13 UNL     1      22.609  25.035   2.508  1.00  0.00     0.001 A 
HETATM   27  C14 UNL     1      21.534  24.240   2.903  1.00  0.00     0.007 A 
ENDBRANCH  19  22
ENDBRANCH   1  16
TORSDOF 6
ENDMDL
