MODEL 14
REMARK VINA RESULT: -7.052287785      1.534      1.929
REMARK  6 active torsions:
REMARK  status: ('A' for Active; 'I' for Inactive)
REMARK    1  A    between atoms: N1_1  and  S1_4 
REMARK    2  A    between atoms: S1_4  and  C1_7 
REMARK    3  A    between atoms: C4_10  and  C5_11 
REMARK    4  A    between atoms: C5_11  and  O3_12 
REMARK    5  A    between atoms: C5_11  and  N2_14 
REMARK    6  A    between atoms: C8_17  and  C9_18 
ROOT
HETATM    1  C5  UNL     1      16.483  22.784   2.996  1.00  0.00     0.148 C 
ENDROOT
BRANCH   1   2
HETATM    2  C4  UNL     1      16.405  23.425   4.273  1.00  0.00     0.015 A 
HETATM    3  C3  UNL     1      15.687  23.016   5.354  1.00  0.00     0.017 A 
HETATM    4  C2  UNL     1      15.671  23.711   6.570  1.00  0.00     0.026 A 
HETATM    5  C1  UNL     1      16.388  24.862   6.748  1.00  0.00     0.079 A 
HETATM    6  C18 UNL     1      17.120  25.290   5.666  1.00  0.00     0.026 A 
HETATM    7  C17 UNL     1      17.145  24.623   4.475  1.00  0.00     0.017 A 
BRANCH   5   8
HETATM    8  S1  UNL     1      16.387  25.749   8.249  1.00  0.00     0.256 S 
HETATM    9  O1  UNL     1      15.445  25.044   9.185  1.00  0.00    -0.201 OA
HETATM   10  O2  UNL     1      17.778  25.795   8.812  1.00  0.00    -0.201 OA
BRANCH   8  11
HETATM   11  N1  UNL     1      15.804  27.344   8.011  1.00  0.00    -0.324 N 
ATOM     12  H12 UNL     1      15.856  28.097   8.697  1.00  0.00     0.169 HD
ATOM     13  H11 UNL     1      15.405  27.399   7.074  1.00  0.00     0.169 HD
ENDBRANCH   8  11
ENDBRANCH   5   8
ENDBRANCH   1   2
BRANCH   1  14
HETATM   14  O3  UNL     1      15.336  22.419   2.447  1.00  0.00    -0.346 OA
ATOM     15  H3  UNL     1      15.244  22.572   1.513  1.00  0.00     0.219 HD
ENDBRANCH   1  14
BRANCH   1  16
HETATM   16  N2  UNL     1      17.586  22.478   2.225  1.00  0.00    -0.361 N 
HETATM   17  C6  UNL     1      18.447  21.304   2.673  1.00  0.00     0.125 C 
HETATM   18  C7  UNL     1      19.803  21.929   2.824  1.00  0.00     0.029 C 
HETATM   19  C8  UNL     1      20.321  22.113   1.391  1.00  0.00     0.021 C 
HETATM   20  C15 UNL     1      19.240  22.428   0.420  1.00  0.00     0.029 C 
HETATM   21  C16 UNL     1      18.024  23.141   1.039  1.00  0.00     0.125 C 
BRANCH  19  22
HETATM   22  C9  UNL     1      21.452  23.028   1.425  1.00  0.00    -0.054 A 
HETATM   23  C10 UNL     1      22.416  22.983   0.447  1.00  0.00     0.007 A 
HETATM   24  C11 UNL     1      23.512  23.835   0.446  1.00  0.00     0.001 A 
HETATM   25  C12 UNL     1      23.636  24.748   1.449  1.00  0.00     0.000 A 
HETATM   26  C13 UNL     1      22.692  24.825   2.447  1.00  0.00     0.001 A 
HETATM   27  C14 UNL     1      21.602  23.957   2.423  1.00  0.00     0.007 A 
ENDBRANCH  19  22
ENDBRANCH   1  16
TORSDOF 6
ENDMDL
