MODEL 4
REMARK VINA RESULT: -7.287394546      1.410      2.051
REMARK  6 active torsions:
REMARK  status: ('A' for Active; 'I' for Inactive)
REMARK    1  A    between atoms: N1_1  and  S1_4 
REMARK    2  A    between atoms: S1_4  and  C1_7 
REMARK    3  A    between atoms: C4_10  and  C5_11 
REMARK    4  A    between atoms: C5_11  and  O3_12 
REMARK    5  A    between atoms: C5_11  and  N2_14 
REMARK    6  A    between atoms: C8_17  and  C9_18 
ROOT
HETATM    1  C5  UNL     1      17.509  24.471   3.312  1.00  0.00     0.148 C 
ENDROOT
BRANCH   1   2
HETATM    2  C4  UNL     1      17.174  25.094   4.557  1.00  0.00     0.015 A 
HETATM    3  C3  UNL     1      17.030  24.488   5.766  1.00  0.00     0.017 A 
HETATM    4  C2  UNL     1      16.699  25.182   6.937  1.00  0.00     0.026 A 
HETATM    5  C1  UNL     1      16.498  26.535   6.936  1.00  0.00     0.079 A 
HETATM    6  C18 UNL     1      16.640  27.165   5.723  1.00  0.00     0.026 A 
HETATM    7  C17 UNL     1      16.962  26.501   4.574  1.00  0.00     0.017 A 
BRANCH   5   8
HETATM    8  S1  UNL     1      16.085  27.426   8.377  1.00  0.00     0.256 S 
HETATM    9  O1  UNL     1      15.566  26.435   9.382  1.00  0.00    -0.201 OA
HETATM   10  O2  UNL     1      17.298  28.141   8.896  1.00  0.00    -0.201 OA
BRANCH   8  11
HETATM   11  N1  UNL     1      14.838  28.558   8.053  1.00  0.00    -0.324 N 
ATOM     12  H12 UNL     1      14.774  29.138   7.216  1.00  0.00     0.169 HD
ATOM     13  H11 UNL     1      14.186  28.544   8.837  1.00  0.00     0.169 HD
ENDBRANCH   8  11
ENDBRANCH   5   8
ENDBRANCH   1   2
BRANCH   1  14
HETATM   14  O3  UNL     1      16.638  24.615   2.328  1.00  0.00    -0.346 OA
ATOM     15  H3  UNL     1      16.497  25.500   2.011  1.00  0.00     0.219 HD
ENDBRANCH   1  14
BRANCH   1  16
HETATM   16  N2  UNL     1      18.618  23.728   2.965  1.00  0.00    -0.361 N 
HETATM   17  C6  UNL     1      19.656  23.473   4.051  1.00  0.00     0.125 C 
HETATM   18  C7  UNL     1      20.911  24.030   3.444  1.00  0.00     0.029 C 
HETATM   19  C8  UNL     1      21.347  22.990   2.403  1.00  0.00     0.021 C 
HETATM   20  C15 UNL     1      20.200  22.314   1.742  1.00  0.00     0.029 C 
HETATM   21  C16 UNL     1      18.914  23.160   1.689  1.00  0.00     0.125 C 
BRANCH  19  22
HETATM   22  C9  UNL     1      22.333  23.604   1.527  1.00  0.00    -0.054 A 
HETATM   23  C10 UNL     1      23.254  24.494   2.025  1.00  0.00     0.007 A 
HETATM   24  C11 UNL     1      24.208  25.104   1.223  1.00  0.00     0.001 A 
HETATM   25  C12 UNL     1      24.233  24.810  -0.107  1.00  0.00     0.000 A 
HETATM   26  C13 UNL     1      23.328  23.924  -0.647  1.00  0.00     0.001 A 
HETATM   27  C14 UNL     1      22.381  23.327   0.184  1.00  0.00     0.007 A 
ENDBRANCH  19  22
ENDBRANCH   1  16
TORSDOF 6
ENDMDL
