MODEL 4
REMARK VINA RESULT: -7.534120196      0.730      1.603
REMARK  7 active torsions:
REMARK  status: ('A' for Active; 'I' for Inactive)
REMARK    1  A    between atoms: N1_1  and  S1_4 
REMARK    2  A    between atoms: S1_4  and  C1_7 
REMARK    3  A    between atoms: C4_10  and  C5_11 
REMARK    4  A    between atoms: C5_11  and  O3_12 
REMARK    5  A    between atoms: C5_11  and  N2_14 
REMARK    6  A    between atoms: C8_17  and  O4_18 
REMARK    7  A    between atoms: C8_17  and  C9_20 
ROOT
HETATM    1  C5  UNL     1      18.913  23.982   1.967  1.00  0.00     0.148 C 
ENDROOT
BRANCH   1   2
HETATM    2  C4  UNL     1      20.291  24.169   1.592  1.00  0.00     0.015 A 
HETATM    3  C3  UNL     1      20.706  24.158   0.251  1.00  0.00     0.017 A 
HETATM    4  C2  UNL     1      22.005  24.371  -0.130  1.00  0.00     0.026 A 
HETATM    5  C1  UNL     1      22.988  24.611   0.786  1.00  0.00     0.079 A 
HETATM    6  C18 UNL     1      22.625  24.631   2.104  1.00  0.00     0.026 A 
HETATM    7  C17 UNL     1      21.294  24.414   2.504  1.00  0.00     0.017 A 
BRANCH   5   8
HETATM    8  S1  UNL     1      24.621  24.838   0.240  1.00  0.00     0.256 S 
HETATM    9  O1  UNL     1      24.679  24.611  -1.229  1.00  0.00    -0.201 OA
HETATM   10  O2  UNL     1      25.585  23.894   0.931  1.00  0.00    -0.201 OA
BRANCH   8  11
HETATM   11  N1  UNL     1      25.186  26.448   0.610  1.00  0.00    -0.324 N 
ATOM     12  H12 UNL     1      24.695  27.304   0.351  1.00  0.00     0.169 HD
ATOM     13  H11 UNL     1      26.070  26.394   1.117  1.00  0.00     0.169 HD
ENDBRANCH   8  11
ENDBRANCH   5   8
ENDBRANCH   1   2
BRANCH   1  14
HETATM   14  O3  UNL     1      18.239  23.351   0.998  1.00  0.00    -0.346 OA
ATOM     15  H3  UNL     1      17.409  23.781   0.831  1.00  0.00     0.219 HD
ENDBRANCH   1  14
BRANCH   1  16
HETATM   16  N2  UNL     1      18.200  24.319   3.098  1.00  0.00    -0.361 N 
HETATM   17  C6  UNL     1      16.830  24.838   2.894  1.00  0.00     0.128 C 
HETATM   18  C7  UNL     1      16.710  25.961   3.911  1.00  0.00     0.062 C 
HETATM   19  C8  UNL     1      16.439  25.241   5.229  1.00  0.00     0.088 C 
HETATM   20  C15 UNL     1      17.438  24.167   5.426  1.00  0.00     0.062 C 
HETATM   21  C16 UNL     1      18.608  24.187   4.445  1.00  0.00     0.128 C 
BRANCH  19  22
HETATM   22  O4  UNL     1      15.195  24.588   5.010  1.00  0.00    -0.385 OA
ATOM     23  H4  UNL     1      14.549  25.251   5.221  1.00  0.00     0.211 HD
ENDBRANCH  19  22
BRANCH  19  24
HETATM   24  C9  UNL     1      16.254  26.180   6.338  1.00  0.00    -0.024 A 
HETATM   25  C10 UNL     1      16.130  27.558   6.105  1.00  0.00     0.010 A 
HETATM   26  C11 UNL     1      15.964  28.465   7.105  1.00  0.00     0.001 A 
HETATM   27  C12 UNL     1      15.916  28.042   8.422  1.00  0.00     0.000 A 
HETATM   28  C13 UNL     1      16.033  26.695   8.686  1.00  0.00     0.001 A 
HETATM   29  C14 UNL     1      16.199  25.784   7.661  1.00  0.00     0.010 A 
ENDBRANCH  19  24
ENDBRANCH   1  16
TORSDOF 7
ENDMDL
