MODEL 2
REMARK VINA RESULT: -7.628186497      3.556      8.543
REMARK  7 active torsions:
REMARK  status: ('A' for Active; 'I' for Inactive)
REMARK    1  A    between atoms: N1_1  and  S1_4 
REMARK    2  A    between atoms: S1_4  and  C1_7 
REMARK    3  A    between atoms: C4_10  and  C5_11 
REMARK    4  A    between atoms: C5_11  and  O3_12 
REMARK    5  A    between atoms: C5_11  and  N2_14 
REMARK    6  A    between atoms: C8_17  and  O4_18 
REMARK    7  A    between atoms: C8_17  and  C9_20 
ROOT
HETATM    1  C5  UNL     1      16.960  24.202   3.594  1.00  0.00     0.148 C 
ENDROOT
BRANCH   1   2
HETATM    2  C4  UNL     1      16.628  25.069   4.695  1.00  0.00     0.015 A 
HETATM    3  C3  UNL     1      16.411  24.577   5.991  1.00  0.00     0.017 A 
HETATM    4  C2  UNL     1      16.131  25.387   7.060  1.00  0.00     0.026 A 
HETATM    5  C1  UNL     1      16.046  26.743   6.925  1.00  0.00     0.079 A 
HETATM    6  C18 UNL     1      16.251  27.263   5.678  1.00  0.00     0.026 A 
HETATM    7  C17 UNL     1      16.539  26.438   4.575  1.00  0.00     0.017 A 
BRANCH   5   8
HETATM    8  S1  UNL     1      15.653  27.711   8.313  1.00  0.00     0.256 S 
HETATM    9  O1  UNL     1      15.473  26.822   9.492  1.00  0.00    -0.201 OA
HETATM   10  O2  UNL     1      14.390  28.520   8.100  1.00  0.00    -0.201 OA
BRANCH   8  11
HETATM   11  N1  UNL     1      16.913  28.875   8.640  1.00  0.00    -0.324 N 
ATOM     12  H12 UNL     1      17.874  28.631   8.877  1.00  0.00     0.169 HD
ATOM     13  H11 UNL     1      16.537  29.820   8.557  1.00  0.00     0.169 HD
ENDBRANCH   8  11
ENDBRANCH   5   8
ENDBRANCH   1   2
BRANCH   1  14
HETATM   14  O3  UNL     1      15.862  23.608   3.110  1.00  0.00    -0.346 OA
ATOM     15  H3  UNL     1      15.877  22.676   3.291  1.00  0.00     0.219 HD
ENDBRANCH   1  14
BRANCH   1  16
HETATM   16  N2  UNL     1      18.153  23.894   2.975  1.00  0.00    -0.361 N 
HETATM   17  C6  UNL     1      19.320  23.663   3.854  1.00  0.00     0.128 C 
HETATM   18  C7  UNL     1      20.468  24.338   3.121  1.00  0.00     0.062 C 
HETATM   19  C8  UNL     1      20.855  23.339   2.035  1.00  0.00     0.088 C 
HETATM   20  C15 UNL     1      19.647  22.917   1.291  1.00  0.00     0.062 C 
HETATM   21  C16 UNL     1      18.389  23.728   1.592  1.00  0.00     0.128 C 
BRANCH  19  22
HETATM   22  O4  UNL     1      21.289  22.196   2.763  1.00  0.00    -0.385 OA
ATOM     23  H4  UNL     1      22.235  22.219   2.679  1.00  0.00     0.211 HD
ENDBRANCH  19  22
BRANCH  19  24
HETATM   24  C9  UNL     1      21.989  23.809   1.237  1.00  0.00    -0.024 A 
HETATM   25  C10 UNL     1      23.017  24.568   1.818  1.00  0.00     0.010 A 
HETATM   26  C11 UNL     1      24.084  25.029   1.113  1.00  0.00     0.001 A 
HETATM   27  C12 UNL     1      24.188  24.762  -0.241  1.00  0.00     0.000 A 
HETATM   28  C13 UNL     1      23.197  24.019  -0.843  1.00  0.00     0.001 A 
HETATM   29  C14 UNL     1      22.118  23.553  -0.115  1.00  0.00     0.010 A 
ENDBRANCH  19  24
ENDBRANCH   1  16
TORSDOF 7
ENDMDL
