MODEL 1
REMARK VINA RESULT: -7.672361755      0.000      0.000
REMARK  7 active torsions:
REMARK  status: ('A' for Active; 'I' for Inactive)
REMARK    1  A    between atoms: N1_1  and  S1_4 
REMARK    2  A    between atoms: S1_4  and  C1_7 
REMARK    3  A    between atoms: C4_10  and  C5_11 
REMARK    4  A    between atoms: C5_11  and  O3_12 
REMARK    5  A    between atoms: C5_11  and  N2_14 
REMARK    6  A    between atoms: C8_17  and  O4_18 
REMARK    7  A    between atoms: C8_17  and  C9_20 
ROOT
HETATM    1  C5  UNL     1      18.987  24.095   2.057  1.00  0.00     0.148 C 
ENDROOT
BRANCH   1   2
HETATM    2  C4  UNL     1      20.351  24.351   1.671  1.00  0.00     0.015 A 
HETATM    3  C3  UNL     1      21.361  24.584   2.617  1.00  0.00     0.017 A 
HETATM    4  C2  UNL     1      22.671  24.792   2.273  1.00  0.00     0.026 A 
HETATM    5  C1  UNL     1      23.077  24.783   0.970  1.00  0.00     0.079 A 
HETATM    6  C18 UNL     1      22.124  24.558   0.017  1.00  0.00     0.026 A 
HETATM    7  C17 UNL     1      20.776  24.344   0.362  1.00  0.00     0.017 A 
BRANCH   5   8
HETATM    8  S1  UNL     1      24.746  25.089   0.599  1.00  0.00     0.256 S 
HETATM    9  O1  UNL     1      25.590  24.060   1.266  1.00  0.00    -0.201 OA
HETATM   10  O2  UNL     1      25.185  26.466   1.054  1.00  0.00    -0.201 OA
BRANCH   8  11
HETATM   11  N1  UNL     1      25.021  25.049  -1.124  1.00  0.00    -0.324 N 
ATOM     12  H12 UNL     1      24.553  24.410  -1.767  1.00  0.00     0.169 HD
ATOM     13  H11 UNL     1      25.714  25.754  -1.378  1.00  0.00     0.169 HD
ENDBRANCH   8  11
ENDBRANCH   5   8
ENDBRANCH   1   2
BRANCH   1  14
HETATM   14  O3  UNL     1      18.354  23.381   1.118  1.00  0.00    -0.346 OA
ATOM     15  H3  UNL     1      17.478  23.718   0.974  1.00  0.00     0.219 HD
ENDBRANCH   1  14
BRANCH   1  16
HETATM   16  N2  UNL     1      18.253  24.437   3.174  1.00  0.00    -0.361 N 
HETATM   17  C6  UNL     1      16.884  24.948   2.943  1.00  0.00     0.128 C 
HETATM   18  C7  UNL     1      16.743  26.077   3.951  1.00  0.00     0.062 C 
HETATM   19  C8  UNL     1      16.453  25.366   5.269  1.00  0.00     0.088 C 
HETATM   20  C15 UNL     1      17.454  24.298   5.490  1.00  0.00     0.062 C 
HETATM   21  C16 UNL     1      18.639  24.316   4.529  1.00  0.00     0.128 C 
BRANCH  19  22
HETATM   22  O4  UNL     1      15.215  24.705   5.034  1.00  0.00    -0.385 OA
ATOM     23  H4  UNL     1      14.732  24.833   5.842  1.00  0.00     0.211 HD
ENDBRANCH  19  22
BRANCH  19  24
HETATM   24  C9  UNL     1      16.245  26.311   6.368  1.00  0.00    -0.024 A 
HETATM   25  C10 UNL     1      16.200  25.873   7.700  1.00  0.00     0.010 A 
HETATM   26  C11 UNL     1      16.004  26.716   8.750  1.00  0.00     0.001 A 
HETATM   27  C12 UNL     1      15.831  28.071   8.527  1.00  0.00     0.000 A 
HETATM   28  C13 UNL     1      15.871  28.535   7.230  1.00  0.00     0.001 A 
HETATM   29  C14 UNL     1      16.074  27.669   6.173  1.00  0.00     0.010 A 
ENDBRANCH  19  24
ENDBRANCH   1  16
TORSDOF 7
ENDMDL
