MODEL 3
REMARK VINA RESULT: -7.608788051      5.361      8.974
REMARK  7 active torsions:
REMARK  status: ('A' for Active; 'I' for Inactive)
REMARK    1  A    between atoms: N1_1  and  S1_4 
REMARK    2  A    between atoms: S1_4  and  C1_7 
REMARK    3  A    between atoms: C4_10  and  C5_11 
REMARK    4  A    between atoms: C5_11  and  O3_12 
REMARK    5  A    between atoms: C5_11  and  N2_14 
REMARK    6  A    between atoms: C8_17  and  O4_18 
REMARK    7  A    between atoms: C8_17  and  C9_20 
ROOT
HETATM    1  C5  UNL     1      16.456  23.494   4.410  1.00  0.00     0.148 C 
ENDROOT
BRANCH   1   2
HETATM    2  C4  UNL     1      16.243  24.581   5.331  1.00  0.00     0.015 A 
HETATM    3  C3  UNL     1      16.053  24.365   6.705  1.00  0.00     0.017 A 
HETATM    4  C2  UNL     1      15.886  25.386   7.604  1.00  0.00     0.026 A 
HETATM    5  C1  UNL     1      15.894  26.693   7.210  1.00  0.00     0.079 A 
HETATM    6  C18 UNL     1      16.077  26.946   5.879  1.00  0.00     0.026 A 
HETATM    7  C17 UNL     1      16.250  25.904   4.950  1.00  0.00     0.017 A 
BRANCH   5   8
HETATM    8  S1  UNL     1      15.641  27.938   8.394  1.00  0.00     0.256 S 
HETATM    9  O1  UNL     1      15.550  27.317   9.743  1.00  0.00    -0.201 OA
HETATM   10  O2  UNL     1      14.378  28.730   8.122  1.00  0.00    -0.201 OA
BRANCH   8  11
HETATM   11  N1  UNL     1      16.945  29.100   8.369  1.00  0.00    -0.324 N 
ATOM     12  H12 UNL     1      16.821  30.100   8.210  1.00  0.00     0.169 HD
ATOM     13  H11 UNL     1      17.832  28.624   8.535  1.00  0.00     0.169 HD
ENDBRANCH   8  11
ENDBRANCH   5   8
ENDBRANCH   1   2
BRANCH   1  14
HETATM   14  O3  UNL     1      16.042  23.826   3.181  1.00  0.00    -0.346 OA
ATOM     15  H3  UNL     1      15.472  24.585   3.212  1.00  0.00     0.219 HD
ENDBRANCH   1  14
BRANCH   1  16
HETATM   16  N2  UNL     1      16.992  22.233   4.563  1.00  0.00    -0.361 N 
HETATM   17  C6  UNL     1      18.338  22.005   3.992  1.00  0.00     0.128 C 
HETATM   18  C7  UNL     1      18.246  20.613   3.388  1.00  0.00     0.062 C 
HETATM   19  C8  UNL     1      18.395  19.678   4.585  1.00  0.00     0.088 C 
HETATM   20  C15 UNL     1      17.456  20.084   5.655  1.00  0.00     0.062 C 
HETATM   21  C16 UNL     1      16.425  21.132   5.244  1.00  0.00     0.128 C 
BRANCH  19  22
HETATM   22  O4  UNL     1      19.700  19.960   5.077  1.00  0.00    -0.385 OA
ATOM     23  H4  UNL     1      19.923  20.788   4.669  1.00  0.00     0.211 HD
ENDBRANCH  19  22
BRANCH  19  24
HETATM   24  C9  UNL     1      18.369  18.270   4.186  1.00  0.00    -0.024 A 
HETATM   25  C10 UNL     1      17.219  17.700   3.619  1.00  0.00     0.010 A 
HETATM   26  C11 UNL     1      17.150  16.395   3.240  1.00  0.00     0.001 A 
HETATM   27  C12 UNL     1      18.243  15.565   3.415  1.00  0.00     0.000 A 
HETATM   28  C13 UNL     1      19.389  16.092   3.968  1.00  0.00     0.001 A 
HETATM   29  C14 UNL     1      19.448  17.420   4.347  1.00  0.00     0.010 A 
ENDBRANCH  19  24
ENDBRANCH   1  16
TORSDOF 7
ENDMDL
