MODEL 5
REMARK VINA RESULT: -7.532109293      3.631      8.671
REMARK  7 active torsions:
REMARK  status: ('A' for Active; 'I' for Inactive)
REMARK    1  A    between atoms: N1_1  and  S1_4 
REMARK    2  A    between atoms: S1_4  and  C1_7 
REMARK    3  A    between atoms: C4_10  and  C5_11 
REMARK    4  A    between atoms: C5_11  and  O3_12 
REMARK    5  A    between atoms: C5_11  and  N2_14 
REMARK    6  A    between atoms: C8_17  and  O4_18 
REMARK    7  A    between atoms: C8_17  and  C9_20 
ROOT
HETATM    1  C5  UNL     1      17.450  24.867   3.129  1.00  0.00     0.148 C 
ENDROOT
BRANCH   1   2
HETATM    2  C4  UNL     1      17.101  25.455   4.396  1.00  0.00     0.015 A 
HETATM    3  C3  UNL     1      16.423  26.681   4.487  1.00  0.00     0.017 A 
HETATM    4  C2  UNL     1      16.048  27.239   5.681  1.00  0.00     0.026 A 
HETATM    5  C1  UNL     1      16.315  26.627   6.871  1.00  0.00     0.079 A 
HETATM    6  C18 UNL     1      16.973  25.429   6.826  1.00  0.00     0.026 A 
HETATM    7  C17 UNL     1      17.362  24.849   5.605  1.00  0.00     0.017 A 
BRANCH   5   8
HETATM    8  S1  UNL     1      15.844  27.405   8.350  1.00  0.00     0.256 S 
HETATM    9  O1  UNL     1      17.025  28.096   8.935  1.00  0.00    -0.201 OA
HETATM   10  O2  UNL     1      15.292  26.417   9.359  1.00  0.00    -0.201 OA
BRANCH   8  11
HETATM   11  N1  UNL     1      14.566  28.561   8.070  1.00  0.00    -0.324 N 
ATOM     12  H12 UNL     1      14.075  28.672   7.182  1.00  0.00     0.169 HD
ATOM     13  H11 UNL     1      14.393  29.096   8.921  1.00  0.00     0.169 HD
ENDBRANCH   8  11
ENDBRANCH   5   8
ENDBRANCH   1   2
BRANCH   1  14
HETATM   14  O3  UNL     1      16.357  24.660   2.384  1.00  0.00    -0.346 OA
ATOM     15  H3  UNL     1      16.311  25.287   1.673  1.00  0.00     0.219 HD
ENDBRANCH   1  14
BRANCH   1  16
HETATM   16  N2  UNL     1      18.658  24.501   2.571  1.00  0.00    -0.361 N 
HETATM   17  C6  UNL     1      18.671  23.262   1.763  1.00  0.00     0.128 C 
HETATM   18  C7  UNL     1      19.983  22.594   2.144  1.00  0.00     0.062 C 
HETATM   19  C8  UNL     1      21.034  23.350   1.336  1.00  0.00     0.088 C 
HETATM   20  C15 UNL     1      20.860  24.807   1.533  1.00  0.00     0.062 C 
HETATM   21  C16 UNL     1      19.885  25.197   2.641  1.00  0.00     0.128 C 
BRANCH  19  22
HETATM   22  O4  UNL     1      20.677  23.089  -0.016  1.00  0.00    -0.385 OA
ATOM     23  H4  UNL     1      20.944  23.875  -0.478  1.00  0.00     0.211 HD
ENDBRANCH  19  22
BRANCH  19  24
HETATM   24  C9  UNL     1      22.379  22.813   1.548  1.00  0.00    -0.024 A 
HETATM   25  C10 UNL     1      23.517  23.592   1.289  1.00  0.00     0.010 A 
HETATM   26  C11 UNL     1      24.785  23.130   1.467  1.00  0.00     0.001 A 
HETATM   27  C12 UNL     1      24.995  21.838   1.915  1.00  0.00     0.000 A 
HETATM   28  C13 UNL     1      23.899  21.047   2.181  1.00  0.00     0.001 A 
HETATM   29  C14 UNL     1      22.616  21.528   1.999  1.00  0.00     0.010 A 
ENDBRANCH  19  24
ENDBRANCH   1  16
TORSDOF 7
ENDMDL
