MODEL 5
REMARK VINA RESULT: -7.339489121      4.918      6.526
REMARK  7 active torsions:
REMARK  status: ('A' for Active; 'I' for Inactive)
REMARK    1  A    between atoms: N1_1  and  S1_4 
REMARK    2  A    between atoms: S1_4  and  C1_7 
REMARK    3  A    between atoms: C4_10  and  C5_11 
REMARK    4  A    between atoms: C5_11  and  O3_12 
REMARK    5  A    between atoms: C5_11  and  N2_14 
REMARK    6  A    between atoms: N3_17  and  C8_18 
REMARK    7  A    between atoms: C8_18  and  C9_19 
ROOT
HETATM    1  C5  UNL     1      16.538  24.114   3.788  1.00  0.00     0.148 C 
ENDROOT
BRANCH   1   2
HETATM    2  C4  UNL     1      16.264  24.958   4.923  1.00  0.00     0.015 A 
HETATM    3  C3  UNL     1      16.270  24.566   6.233  1.00  0.00     0.017 A 
HETATM    4  C2  UNL     1      16.040  25.472   7.288  1.00  0.00     0.026 A 
HETATM    5  C1  UNL     1      15.795  26.801   7.066  1.00  0.00     0.079 A 
HETATM    6  C18 UNL     1      15.785  27.208   5.754  1.00  0.00     0.026 A 
HETATM    7  C17 UNL     1      16.009  26.331   4.727  1.00  0.00     0.017 A 
BRANCH   5   8
HETATM    8  S1  UNL     1      15.514  27.897   8.399  1.00  0.00     0.256 S 
HETATM    9  O1  UNL     1      15.430  27.189   9.709  1.00  0.00    -0.201 OA
HETATM   10  O2  UNL     1      14.278  28.689   8.092  1.00  0.00    -0.201 OA
BRANCH   8  11
HETATM   11  N1  UNL     1      16.834  29.031   8.469  1.00  0.00    -0.324 N 
ATOM     12  H12 UNL     1      17.053  29.625   9.268  1.00  0.00     0.169 HD
ATOM     13  H11 UNL     1      17.338  28.994   7.582  1.00  0.00     0.169 HD
ENDBRANCH   8  11
ENDBRANCH   5   8
ENDBRANCH   1   2
BRANCH   1  14
HETATM   14  O3  UNL     1      17.403  24.610   2.945  1.00  0.00    -0.346 OA
ATOM     15  H3  UNL     1      17.095  24.650   2.047  1.00  0.00     0.219 HD
ENDBRANCH   1  14
BRANCH   1  16
HETATM   16  N2  UNL     1      16.014  22.840   3.458  1.00  0.00    -0.358 N 
HETATM   17  C6  UNL     1      15.411  21.900   4.329  1.00  0.00     0.155 C 
HETATM   18  C7  UNL     1      15.290  20.499   3.808  1.00  0.00     0.292 C 
HETATM   19  N3  UNL     1      15.057  20.456   2.390  1.00  0.00     0.095 N 
HETATM   20  C15 UNL     1      16.278  21.083   1.824  1.00  0.00     0.292 C 
HETATM   21  C16 UNL     1      16.097  22.533   2.017  1.00  0.00     0.155 C 
BRANCH  19  22
HETATM   22  C8  UNL     1      15.031  19.118   1.878  1.00  0.00     0.311 C 
BRANCH  22  23
HETATM   23  C9  UNL     1      13.909  18.861   0.953  1.00  0.00    -0.030 A 
HETATM   24  C10 UNL     1      12.842  19.689   0.772  1.00  0.00     0.012 A 
HETATM   25  C11 UNL     1      11.840  19.341  -0.132  1.00  0.00     0.043 A 
HETATM   26  C12 UNL     1      11.901  18.174  -0.854  1.00  0.00     0.116 A 
HETATM   27  F1  UNL     1      10.941  17.801  -1.746  1.00  0.00    -0.206 F 
HETATM   28  C13 UNL     1      12.985  17.323  -0.678  1.00  0.00     0.043 A 
HETATM   29  C14 UNL     1      13.954  17.692   0.218  1.00  0.00     0.012 A 
ENDBRANCH  22  23
ENDBRANCH  19  22
ENDBRANCH   1  16
TORSDOF 7
ENDMDL
