MODEL 8
REMARK VINA RESULT: -7.278379043      5.307      9.507
REMARK  7 active torsions:
REMARK  status: ('A' for Active; 'I' for Inactive)
REMARK    1  A    between atoms: N1_1  and  S1_4 
REMARK    2  A    between atoms: S1_4  and  C1_7 
REMARK    3  A    between atoms: C4_10  and  C5_11 
REMARK    4  A    between atoms: C5_11  and  O3_12 
REMARK    5  A    between atoms: C5_11  and  N2_14 
REMARK    6  A    between atoms: N3_17  and  C8_18 
REMARK    7  A    between atoms: C8_18  and  C9_19 
ROOT
HETATM    1  C5  UNL     1      19.397  21.375   3.950  1.00  0.00     0.148 C 
ENDROOT
BRANCH   1   2
HETATM    2  C4  UNL     1      19.268  19.955   4.154  1.00  0.00     0.015 A 
HETATM    3  C3  UNL     1      18.092  19.268   4.283  1.00  0.00     0.017 A 
HETATM    4  C2  UNL     1      18.055  17.867   4.429  1.00  0.00     0.026 A 
HETATM    5  C1  UNL     1      19.194  17.106   4.453  1.00  0.00     0.079 A 
HETATM    6  C18 UNL     1      20.382  17.784   4.327  1.00  0.00     0.026 A 
HETATM    7  C17 UNL     1      20.422  19.146   4.184  1.00  0.00     0.017 A 
BRANCH   5   8
HETATM    8  S1  UNL     1      19.110  15.370   4.636  1.00  0.00     0.256 S 
HETATM    9  O1  UNL     1      17.727  14.844   4.445  1.00  0.00    -0.201 OA
HETATM   10  O2  UNL     1      19.679  15.020   5.978  1.00  0.00    -0.201 OA
BRANCH   8  11
HETATM   11  N1  UNL     1      20.148  14.639   3.443  1.00  0.00    -0.324 N 
ATOM     12  H12 UNL     1      19.826  14.076   2.655  1.00  0.00     0.169 HD
ATOM     13  H11 UNL     1      21.114  14.871   3.671  1.00  0.00     0.169 HD
ENDBRANCH   8  11
ENDBRANCH   5   8
ENDBRANCH   1   2
BRANCH   1  14
HETATM   14  O3  UNL     1      20.543  21.745   3.445  1.00  0.00    -0.346 OA
ATOM     15  H3  UNL     1      20.918  22.518   3.849  1.00  0.00     0.219 HD
ENDBRANCH   1  14
BRANCH   1  16
HETATM   16  N2  UNL     1      18.474  22.417   4.214  1.00  0.00    -0.358 N 
HETATM   17  C6  UNL     1      17.064  22.378   4.082  1.00  0.00     0.155 C 
HETATM   18  C7  UNL     1      16.366  23.705   4.058  1.00  0.00     0.292 C 
HETATM   19  N3  UNL     1      17.009  24.682   4.894  1.00  0.00     0.095 N 
HETATM   20  C15 UNL     1      18.353  24.827   4.280  1.00  0.00     0.292 C 
HETATM   21  C16 UNL     1      19.114  23.646   4.724  1.00  0.00     0.155 C 
BRANCH  19  22
HETATM   22  C8  UNL     1      16.395  25.974   4.801  1.00  0.00     0.311 C 
BRANCH  22  23
HETATM   23  C9  UNL     1      16.106  26.586   6.114  1.00  0.00    -0.030 A 
HETATM   24  C10 UNL     1      15.699  27.872   6.302  1.00  0.00     0.012 A 
HETATM   25  C11 UNL     1      15.455  28.341   7.592  1.00  0.00     0.043 A 
HETATM   26  C12 UNL     1      15.617  27.531   8.689  1.00  0.00     0.116 A 
HETATM   27  F1  UNL     1      15.388  27.955   9.965  1.00  0.00    -0.206 F 
HETATM   28  C13 UNL     1      16.032  26.218   8.510  1.00  0.00     0.043 A 
HETATM   29  C14 UNL     1      16.263  25.787   7.229  1.00  0.00     0.012 A 
ENDBRANCH  22  23
ENDBRANCH  19  22
ENDBRANCH   1  16
TORSDOF 7
ENDMDL
