MODEL 4
REMARK VINA RESULT: -7.340105612      1.134      1.515
REMARK  7 active torsions:
REMARK  status: ('A' for Active; 'I' for Inactive)
REMARK    1  A    between atoms: N1_1  and  S1_4 
REMARK    2  A    between atoms: S1_4  and  C1_7 
REMARK    3  A    between atoms: C4_10  and  C5_11 
REMARK    4  A    between atoms: C5_11  and  O3_12 
REMARK    5  A    between atoms: C5_11  and  N2_14 
REMARK    6  A    between atoms: N3_17  and  C8_18 
REMARK    7  A    between atoms: C8_18  and  C9_19 
ROOT
HETATM    1  C5  UNL     1      16.988  24.504   3.590  1.00  0.00     0.148 C 
ENDROOT
BRANCH   1   2
HETATM    2  C4  UNL     1      16.611  25.235   4.773  1.00  0.00     0.015 A 
HETATM    3  C3  UNL     1      16.711  24.783   6.060  1.00  0.00     0.017 A 
HETATM    4  C2  UNL     1      16.366  25.585   7.166  1.00  0.00     0.026 A 
HETATM    5  C1  UNL     1      15.908  26.868   7.020  1.00  0.00     0.079 A 
HETATM    6  C18 UNL     1      15.801  27.334   5.733  1.00  0.00     0.026 A 
HETATM    7  C17 UNL     1      16.136  26.558   4.655  1.00  0.00     0.017 A 
BRANCH   5   8
HETATM    8  S1  UNL     1      15.489  27.835   8.414  1.00  0.00     0.256 S 
HETATM    9  O1  UNL     1      15.326  27.014   9.649  1.00  0.00    -0.201 OA
HETATM   10  O2  UNL     1      14.257  28.620   8.078  1.00  0.00    -0.201 OA
BRANCH   8  11
HETATM   11  N1  UNL     1      16.763  28.992   8.686  1.00  0.00    -0.324 N 
ATOM     12  H12 UNL     1      16.648  29.888   9.160  1.00  0.00     0.169 HD
ATOM     13  H11 UNL     1      17.627  28.617   8.294  1.00  0.00     0.169 HD
ENDBRANCH   8  11
ENDBRANCH   5   8
ENDBRANCH   1   2
BRANCH   1  14
HETATM   14  O3  UNL     1      16.191  24.681   2.572  1.00  0.00    -0.346 OA
ATOM     15  H3  UNL     1      16.031  23.897   2.059  1.00  0.00     0.219 HD
ENDBRANCH   1  14
BRANCH   1  16
HETATM   16  N2  UNL     1      18.084  23.633   3.373  1.00  0.00    -0.358 N 
HETATM   17  C6  UNL     1      19.424  23.984   3.078  1.00  0.00     0.155 C 
HETATM   18  C7  UNL     1      20.288  22.889   2.527  1.00  0.00     0.292 C 
HETATM   19  N3  UNL     1      19.958  21.600   3.071  1.00  0.00     0.095 N 
HETATM   20  C15 UNL     1      18.559  21.387   2.625  1.00  0.00     0.292 C 
HETATM   21  C16 UNL     1      17.733  22.208   3.529  1.00  0.00     0.155 C 
BRANCH  19  22
HETATM   22  C8  UNL     1      20.723  20.543   2.479  1.00  0.00     0.311 C 
BRANCH  22  23
HETATM   23  C9  UNL     1      22.066  20.380   3.073  1.00  0.00    -0.030 A 
HETATM   24  C10 UNL     1      22.323  19.769   4.263  1.00  0.00     0.012 A 
HETATM   25  C11 UNL     1      23.635  19.675   4.725  1.00  0.00     0.043 A 
HETATM   26  C12 UNL     1      24.686  20.186   4.003  1.00  0.00     0.116 A 
HETATM   27  F1  UNL     1      25.981  20.112   4.422  1.00  0.00    -0.206 F 
HETATM   28  C13 UNL     1      24.435  20.811   2.788  1.00  0.00     0.043 A 
HETATM   29  C14 UNL     1      23.135  20.889   2.362  1.00  0.00     0.012 A 
ENDBRANCH  22  23
ENDBRANCH  19  22
ENDBRANCH   1  16
TORSDOF 7
ENDMDL
