MODEL 6
REMARK VINA RESULT: -7.323311299      1.908      2.598
REMARK  7 active torsions:
REMARK  status: ('A' for Active; 'I' for Inactive)
REMARK    1  A    between atoms: N1_1  and  S1_4 
REMARK    2  A    between atoms: S1_4  and  C1_7 
REMARK    3  A    between atoms: C4_10  and  C5_11 
REMARK    4  A    between atoms: C5_11  and  O3_12 
REMARK    5  A    between atoms: C5_11  and  N2_14 
REMARK    6  A    between atoms: N3_17  and  C8_18 
REMARK    7  A    between atoms: C8_18  and  C9_19 
ROOT
HETATM    1  C5  UNL     1      17.116  24.881   3.399  1.00  0.00     0.148 C 
ENDROOT
BRANCH   1   2
HETATM    2  C4  UNL     1      16.710  25.511   4.629  1.00  0.00     0.015 A 
HETATM    3  C3  UNL     1      16.873  24.995   5.886  1.00  0.00     0.017 A 
HETATM    4  C2  UNL     1      16.492  25.703   7.043  1.00  0.00     0.026 A 
HETATM    5  C1  UNL     1      15.933  26.952   6.981  1.00  0.00     0.079 A 
HETATM    6  C18 UNL     1      15.762  27.482   5.726  1.00  0.00     0.026 A 
HETATM    7  C17 UNL     1      16.132  26.797   4.599  1.00  0.00     0.017 A 
BRANCH   5   8
HETATM    8  S1  UNL     1      15.472  27.802   8.438  1.00  0.00     0.256 S 
HETATM    9  O1  UNL     1      15.299  26.884   9.601  1.00  0.00    -0.201 OA
HETATM   10  O2  UNL     1      14.233  28.591   8.138  1.00  0.00    -0.201 OA
BRANCH   8  11
HETATM   11  N1  UNL     1      16.721  28.952   8.824  1.00  0.00    -0.324 N 
ATOM     12  H12 UNL     1      16.586  29.798   9.378  1.00  0.00     0.169 HD
ATOM     13  H11 UNL     1      17.594  28.634   8.403  1.00  0.00     0.169 HD
ENDBRANCH   8  11
ENDBRANCH   5   8
ENDBRANCH   1   2
BRANCH   1  14
HETATM   14  O3  UNL     1      16.129  24.572   2.602  1.00  0.00    -0.346 OA
ATOM     15  H3  UNL     1      16.240  24.872   1.708  1.00  0.00     0.219 HD
ENDBRANCH   1  14
BRANCH   1  16
HETATM   16  N2  UNL     1      18.413  24.553   2.933  1.00  0.00    -0.358 N 
HETATM   17  C6  UNL     1      19.551  25.394   2.879  1.00  0.00     0.155 C 
HETATM   18  C7  UNL     1      20.676  24.926   2.005  1.00  0.00     0.292 C 
HETATM   19  N3  UNL     1      20.807  23.495   1.992  1.00  0.00     0.095 N 
HETATM   20  C15 UNL     1      19.519  23.039   1.413  1.00  0.00     0.292 C 
HETATM   21  C16 UNL     1      18.539  23.145   2.509  1.00  0.00     0.155 C 
BRANCH  19  22
HETATM   22  C8  UNL     1      21.823  23.044   1.088  1.00  0.00     0.311 C 
BRANCH  22  23
HETATM   23  C9  UNL     1      22.881  22.245   1.740  1.00  0.00    -0.030 A 
HETATM   24  C10 UNL     1      22.668  21.112   2.464  1.00  0.00     0.012 A 
HETATM   25  C11 UNL     1      23.747  20.439   3.035  1.00  0.00     0.043 A 
HETATM   26  C12 UNL     1      25.034  20.893   2.882  1.00  0.00     0.116 A 
HETATM   27  F1  UNL     1      26.114  20.263   3.424  1.00  0.00    -0.206 F 
HETATM   28  C13 UNL     1      25.264  22.048   2.144  1.00  0.00     0.043 A 
HETATM   29  C14 UNL     1      24.182  22.687   1.597  1.00  0.00     0.012 A 
ENDBRANCH  22  23
ENDBRANCH  19  22
ENDBRANCH   1  16
TORSDOF 7
ENDMDL
