MODEL 7
REMARK VINA RESULT: -7.300674496      3.633      4.407
REMARK  7 active torsions:
REMARK  status: ('A' for Active; 'I' for Inactive)
REMARK    1  A    between atoms: N1_1  and  S1_4 
REMARK    2  A    between atoms: S1_4  and  C1_7 
REMARK    3  A    between atoms: C4_10  and  C5_11 
REMARK    4  A    between atoms: C5_11  and  O3_12 
REMARK    5  A    between atoms: C5_11  and  N2_14 
REMARK    6  A    between atoms: N3_17  and  C8_18 
REMARK    7  A    between atoms: C8_18  and  C9_19 
ROOT
HETATM    1  C5  UNL     1      15.186  22.240   3.235  1.00  0.00     0.148 C 
ENDROOT
BRANCH   1   2
HETATM    2  C4  UNL     1      15.467  23.043   4.397  1.00  0.00     0.015 A 
HETATM    3  C3  UNL     1      16.514  23.914   4.535  1.00  0.00     0.017 A 
HETATM    4  C2  UNL     1      16.687  24.702   5.690  1.00  0.00     0.026 A 
HETATM    5  C1  UNL     1      15.819  24.643   6.749  1.00  0.00     0.079 A 
HETATM    6  C18 UNL     1      14.765  23.771   6.624  1.00  0.00     0.026 A 
HETATM    7  C17 UNL     1      14.592  23.005   5.502  1.00  0.00     0.017 A 
BRANCH   5   8
HETATM    8  S1  UNL     1      16.065  25.635   8.167  1.00  0.00     0.256 S 
HETATM    9  O1  UNL     1      17.472  25.585   8.659  1.00  0.00    -0.201 OA
HETATM   10  O2  UNL     1      15.075  25.204   9.207  1.00  0.00    -0.201 OA
BRANCH   8  11
HETATM   11  N1  UNL     1      15.681  27.284   7.759  1.00  0.00    -0.324 N 
ATOM     12  H12 UNL     1      16.358  28.046   7.708  1.00  0.00     0.169 HD
ATOM     13  H11 UNL     1      14.678  27.348   7.585  1.00  0.00     0.169 HD
ENDBRANCH   8  11
ENDBRANCH   5   8
ENDBRANCH   1   2
BRANCH   1  14
HETATM   14  O3  UNL     1      14.651  22.899   2.242  1.00  0.00    -0.346 OA
ATOM     15  H3  UNL     1      14.877  22.563   1.383  1.00  0.00     0.219 HD
ENDBRANCH   1  14
BRANCH   1  16
HETATM   16  N2  UNL     1      15.402  20.858   3.014  1.00  0.00    -0.358 N 
HETATM   17  C6  UNL     1      15.160  20.123   1.828  1.00  0.00     0.155 C 
HETATM   18  C7  UNL     1      15.113  18.631   1.973  1.00  0.00     0.292 C 
HETATM   19  N3  UNL     1      16.020  18.146   2.978  1.00  0.00     0.095 N 
HETATM   20  C15 UNL     1      15.516  18.773   4.225  1.00  0.00     0.292 C 
HETATM   21  C16 UNL     1      15.989  20.168   4.179  1.00  0.00     0.155 C 
BRANCH  19  22
HETATM   22  C8  UNL     1      15.910  16.731   3.179  1.00  0.00     0.311 C 
BRANCH  22  23
HETATM   23  C9  UNL     1      17.140  16.114   3.717  1.00  0.00    -0.030 A 
HETATM   24  C10 UNL     1      18.276  16.793   4.041  1.00  0.00     0.012 A 
HETATM   25  C11 UNL     1      19.378  16.101   4.542  1.00  0.00     0.043 A 
HETATM   26  C12 UNL     1      19.347  14.740   4.721  1.00  0.00     0.116 A 
HETATM   27  F1  UNL     1      20.404  14.031   5.209  1.00  0.00    -0.206 F 
HETATM   28  C13 UNL     1      18.194  14.038   4.395  1.00  0.00     0.043 A 
HETATM   29  C14 UNL     1      17.128  14.746   3.904  1.00  0.00     0.012 A 
ENDBRANCH  22  23
ENDBRANCH  19  22
ENDBRANCH   1  16
TORSDOF 7
ENDMDL
