MODEL 1
REMARK VINA RESULT: -7.505047088      0.000      0.000
REMARK  7 active torsions:
REMARK  status: ('A' for Active; 'I' for Inactive)
REMARK    1  A    between atoms: N1_1  and  S1_4 
REMARK    2  A    between atoms: S1_4  and  C1_7 
REMARK    3  A    between atoms: C4_10  and  C5_11 
REMARK    4  A    between atoms: C5_11  and  O3_12 
REMARK    5  A    between atoms: C5_11  and  N2_14 
REMARK    6  A    between atoms: N3_17  and  C8_18 
REMARK    7  A    between atoms: C8_18  and  C9_19 
ROOT
HETATM    1  C5  UNL     1      16.010  23.397   4.626  1.00  0.00     0.148 C 
ENDROOT
BRANCH   1   2
HETATM    2  C4  UNL     1      15.918  24.533   5.507  1.00  0.00     0.015 A 
HETATM    3  C3  UNL     1      15.889  25.846   5.122  1.00  0.00     0.017 A 
HETATM    4  C2  UNL     1      15.747  26.896   6.051  1.00  0.00     0.026 A 
HETATM    5  C1  UNL     1      15.630  26.668   7.396  1.00  0.00     0.079 A 
HETATM    6  C18 UNL     1      15.660  25.355   7.797  1.00  0.00     0.026 A 
HETATM    7  C17 UNL     1      15.797  24.331   6.897  1.00  0.00     0.017 A 
BRANCH   5   8
HETATM    8  S1  UNL     1      15.455  27.996   8.520  1.00  0.00     0.256 S 
HETATM    9  O1  UNL     1      15.416  27.539   9.939  1.00  0.00    -0.201 OA
HETATM   10  O2  UNL     1      14.231  28.770   8.130  1.00  0.00    -0.201 OA
BRANCH   8  11
HETATM   11  N1  UNL     1      16.813  29.069   8.322  1.00  0.00    -0.324 N 
ATOM     12  H12 UNL     1      16.795  29.944   7.799  1.00  0.00     0.169 HD
ATOM     13  H11 UNL     1      17.612  28.671   8.816  1.00  0.00     0.169 HD
ENDBRANCH   8  11
ENDBRANCH   5   8
ENDBRANCH   1   2
BRANCH   1  14
HETATM   14  O3  UNL     1      14.869  23.022   4.113  1.00  0.00    -0.346 OA
ATOM     15  H3  UNL     1      14.790  22.084   3.980  1.00  0.00     0.219 HD
ENDBRANCH   1  14
BRANCH   1  16
HETATM   16  N2  UNL     1      17.141  22.638   4.239  1.00  0.00    -0.358 N 
HETATM   17  C6  UNL     1      18.143  22.994   3.302  1.00  0.00     0.155 C 
HETATM   18  C7  UNL     1      19.005  21.874   2.801  1.00  0.00     0.292 C 
HETATM   19  N3  UNL     1      19.245  20.871   3.803  1.00  0.00     0.095 N 
HETATM   20  C15 UNL     1      17.887  20.347   4.094  1.00  0.00     0.292 C 
HETATM   21  C16 UNL     1      17.258  21.357   4.963  1.00  0.00     0.155 C 
BRANCH  19  22
HETATM   22  C8  UNL     1      19.994  19.759   3.297  1.00  0.00     0.311 C 
BRANCH  22  23
HETATM   23  C9  UNL     1      21.421  19.787   3.677  1.00  0.00    -0.030 A 
HETATM   24  C10 UNL     1      21.932  19.274   4.830  1.00  0.00     0.012 A 
HETATM   25  C11 UNL     1      23.301  19.359   5.081  1.00  0.00     0.043 A 
HETATM   26  C12 UNL     1      24.156  19.952   4.186  1.00  0.00     0.116 A 
HETATM   27  F1  UNL     1      25.500  20.053   4.397  1.00  0.00    -0.206 F 
HETATM   28  C13 UNL     1      23.647  20.478   3.006  1.00  0.00     0.043 A 
HETATM   29  C14 UNL     1      22.297  20.380   2.788  1.00  0.00     0.012 A 
ENDBRANCH  22  23
ENDBRANCH  19  22
ENDBRANCH   1  16
TORSDOF 7
ENDMDL
