MODEL 14
REMARK VINA RESULT: -7.150740488      1.546      1.902
REMARK  7 active torsions:
REMARK  status: ('A' for Active; 'I' for Inactive)
REMARK    1  A    between atoms: N1_1  and  S1_4 
REMARK    2  A    between atoms: S1_4  and  C1_7 
REMARK    3  A    between atoms: C4_10  and  C5_11 
REMARK    4  A    between atoms: C5_11  and  O3_12 
REMARK    5  A    between atoms: C5_11  and  N2_14 
REMARK    6  A    between atoms: N3_17  and  C8_18 
REMARK    7  A    between atoms: C8_18  and  C9_19 
ROOT
HETATM    1  C5  UNL     1      17.097  24.715   3.491  1.00  0.00     0.148 C 
ENDROOT
BRANCH   1   2
HETATM    2  C4  UNL     1      16.726  25.514   4.630  1.00  0.00     0.015 A 
HETATM    3  C3  UNL     1      16.169  26.763   4.586  1.00  0.00     0.017 A 
HETATM    4  C2  UNL     1      15.787  27.456   5.752  1.00  0.00     0.026 A 
HETATM    5  C1  UNL     1      15.954  26.923   7.003  1.00  0.00     0.079 A 
HETATM    6  C18 UNL     1      16.514  25.670   7.062  1.00  0.00     0.026 A 
HETATM    7  C17 UNL     1      16.885  24.993   5.931  1.00  0.00     0.017 A 
BRANCH   5   8
HETATM    8  S1  UNL     1      15.469  27.811   8.428  1.00  0.00     0.256 S 
HETATM    9  O1  UNL     1      15.285  26.926   9.615  1.00  0.00    -0.201 OA
HETATM   10  O2  UNL     1      14.231  28.585   8.090  1.00  0.00    -0.201 OA
BRANCH   8  11
HETATM   11  N1  UNL     1      16.707  28.979   8.798  1.00  0.00    -0.324 N 
ATOM     12  H12 UNL     1      17.226  29.023   9.676  1.00  0.00     0.169 HD
ATOM     13  H11 UNL     1      16.817  29.598   7.994  1.00  0.00     0.169 HD
ENDBRANCH   8  11
ENDBRANCH   5   8
ENDBRANCH   1   2
BRANCH   1  14
HETATM   14  O3  UNL     1      16.220  24.714   2.525  1.00  0.00    -0.346 OA
ATOM     15  H3  UNL     1      16.365  25.381   1.863  1.00  0.00     0.219 HD
ENDBRANCH   1  14
BRANCH   1  16
HETATM   16  N2  UNL     1      18.262  23.939   3.268  1.00  0.00    -0.358 N 
HETATM   17  C6  UNL     1      19.605  24.386   3.226  1.00  0.00     0.155 C 
HETATM   18  C7  UNL     1      20.595  23.446   2.606  1.00  0.00     0.292 C 
HETATM   19  N3  UNL     1      20.277  22.066   2.855  1.00  0.00     0.095 N 
HETATM   20  C15 UNL     1      18.960  21.894   2.192  1.00  0.00     0.292 C 
HETATM   21  C16 UNL     1      17.979  22.499   3.111  1.00  0.00     0.155 C 
BRANCH  19  22
HETATM   22  C8  UNL     1      21.172  21.168   2.187  1.00  0.00     0.311 C 
BRANCH  22  23
HETATM   23  C9  UNL     1      21.588  20.021   3.021  1.00  0.00    -0.030 A 
HETATM   24  C10 UNL     1      20.908  18.846   3.126  1.00  0.00     0.012 A 
HETATM   25  C11 UNL     1      21.398  17.831   3.946  1.00  0.00     0.043 A 
HETATM   26  C12 UNL     1      22.563  17.987   4.657  1.00  0.00     0.116 A 
HETATM   27  F1  UNL     1      23.073  17.018   5.469  1.00  0.00    -0.206 F 
HETATM   28  C13 UNL     1      23.265  19.181   4.557  1.00  0.00     0.043 A 
HETATM   29  C14 UNL     1      22.756  20.160   3.743  1.00  0.00     0.012 A 
ENDBRANCH  22  23
ENDBRANCH  19  22
ENDBRANCH   1  16
TORSDOF 7
ENDMDL
