MODEL 1
REMARK VINA RESULT: -9.514905079      0.000      0.000
REMARK  5 active torsions:
REMARK  status: ('A' for Active; 'I' for Inactive)
REMARK       I    between atoms: C1_2  and  N1_3 
REMARK    1  A    between atoms: C1_2  and  C12_20 
REMARK    2  A    between atoms: N1_3  and  C2_5 
REMARK    3  A    between atoms: C9_13  and  C10_14 
REMARK    4  A    between atoms: C12_20  and  C13_22 
REMARK    5  A    between atoms: C13_22  and  C14_23 
ROOT
HETATM    1  C2  UNL     1     -52.163 100.123  20.895  1.00  0.00     0.177 C 
HETATM    2  C3  UNL     1     -53.208 100.957  20.205  1.00  0.00     0.045 C 
HETATM    3  C4  UNL     1     -53.943 100.080  19.221  1.00  0.00     0.078 C 
HETATM    4  S1  UNL     1     -55.290  99.268  20.154  1.00  0.00    -0.143 SA
HETATM    5  C5  UNL     1     -54.632  97.734  20.816  1.00  0.00     0.150 C 
HETATM    6  C6  UNL     1     -55.164  96.589  19.970  1.00  0.00     0.036 C 
HETATM    7  C7  UNL     1     -54.524  95.276  20.206  1.00  0.00     0.005 C 
HETATM    8  C8  UNL     1     -53.021  95.373  20.076  1.00  0.00     0.037 C 
HETATM    9  C9  UNL     1     -52.564  96.407  21.127  1.00  0.00     0.189 C 
HETATM   10  N2  UNL     1     -53.168  97.679  20.813  1.00  0.00    -0.322 N 
HETATM   11  C11 UNL     1     -52.278  98.687  20.509  1.00  0.00     0.244 C 
HETATM   12  O4  UNL     1     -51.339  98.306  19.715  1.00  0.00    -0.271 OA
ENDROOT
BRANCH   1  13
HETATM   13  N1  UNL     1     -50.870 100.658  20.530  1.00  0.00    -0.347 N 
HETATM   14  C1  UNL     1     -50.183 101.605  21.371  1.00  0.00     0.233 C 
HETATM   15  O1  UNL     1     -50.763 101.928  22.419  1.00  0.00    -0.272 OA
ATOM     16  H1  UNL     1     -50.434 100.358  19.657  1.00  0.00     0.163 HD
BRANCH  14  17
HETATM   17  C12 UNL     1     -48.873 102.153  21.001  1.00  0.00     0.154 C 
HETATM   18  S2  UNL     1     -47.816 101.927  22.498  1.00  0.00    -0.082 SA
BRANCH  17  19
HETATM   19  C13 UNL     1     -48.164 101.471  19.897  1.00  0.00     0.064 C 
BRANCH  19  20
HETATM   20  C14 UNL     1     -47.828 102.263  18.714  1.00  0.00    -0.057 A 
HETATM   21  C15 UNL     1     -46.700 101.966  17.938  1.00  0.00     0.007 A 
HETATM   22  C16 UNL     1     -46.394 102.683  16.805  1.00  0.00     0.001 A 
HETATM   23  C17 UNL     1     -47.194 103.724  16.395  1.00  0.00     0.000 A 
HETATM   24  C18 UNL     1     -48.308 104.035  17.141  1.00  0.00     0.001 A 
HETATM   25  C19 UNL     1     -48.610 103.300  18.289  1.00  0.00     0.007 A 
ENDBRANCH  19  20
ENDBRANCH  17  19
ENDBRANCH  14  17
ENDBRANCH   1  13
BRANCH   9  26
HETATM   26  C10 UNL     1     -51.176  96.361  21.473  1.00  0.00     0.197 C 
HETATM   27  O2  UNL     1     -50.703  96.808  22.536  1.00  0.00    -0.646 OA
HETATM   28  O3  UNL     1     -50.240  95.790  20.601  1.00  0.00    -0.646 OA
ENDBRANCH   9  26
TORSDOF 5
ENDMDL
