MODEL 3
REMARK VINA RESULT: -9.090518955      3.136      4.816
REMARK  5 active torsions:
REMARK  status: ('A' for Active; 'I' for Inactive)
REMARK       I    between atoms: C1_2  and  N1_3 
REMARK    1  A    between atoms: C1_2  and  C12_20 
REMARK    2  A    between atoms: N1_3  and  C2_5 
REMARK    3  A    between atoms: C9_13  and  C10_14 
REMARK    4  A    between atoms: C12_20  and  C13_22 
REMARK    5  A    between atoms: C13_22  and  C14_23 
ROOT
HETATM    1  C2  UNL     1     -52.027  98.097  21.097  1.00  0.00     0.177 C 
HETATM    2  C3  UNL     1     -52.136  97.483  22.466  1.00  0.00     0.045 C 
HETATM    3  C4  UNL     1     -53.331  98.085  23.165  1.00  0.00     0.078 C 
HETATM    4  S1  UNL     1     -54.781  97.087  22.666  1.00  0.00    -0.143 SA
HETATM    5  C5  UNL     1     -55.453  97.831  21.175  1.00  0.00     0.150 C 
HETATM    6  C6  UNL     1     -56.705  98.602  21.558  1.00  0.00     0.036 C 
HETATM    7  C7  UNL     1     -57.247  99.492  20.507  1.00  0.00     0.005 C 
HETATM    8  C8  UNL     1     -56.185 100.435  19.991  1.00  0.00     0.037 C 
HETATM    9  C9  UNL     1     -55.053  99.546  19.433  1.00  0.00     0.189 C 
HETATM   10  N2  UNL     1     -54.522  98.747  20.512  1.00  0.00    -0.322 N 
HETATM   11  C11 UNL     1     -53.196  98.978  20.807  1.00  0.00     0.244 C 
HETATM   12  O4  UNL     1     -52.899 100.230  20.844  1.00  0.00    -0.271 OA
ENDROOT
BRANCH   1  13
HETATM   13  N1  UNL     1     -50.789  98.844  21.054  1.00  0.00    -0.347 N 
HETATM   14  C1  UNL     1     -49.650  98.368  20.310  1.00  0.00     0.233 C 
HETATM   15  O1  UNL     1     -49.797  97.290  19.714  1.00  0.00    -0.272 OA
ATOM     16  H1  UNL     1     -50.721  99.727  21.560  1.00  0.00     0.163 HD
BRANCH  14  17
HETATM   17  C12 UNL     1     -48.391  99.122  20.267  1.00  0.00     0.154 C 
HETATM   18  S2  UNL     1     -48.719 100.542  19.134  1.00  0.00    -0.082 SA
BRANCH  17  19
HETATM   19  C13 UNL     1     -47.939  99.716  21.543  1.00  0.00     0.064 C 
BRANCH  19  20
HETATM   20  C14 UNL     1     -46.547  99.498  21.938  1.00  0.00    -0.057 A 
HETATM   21  C15 UNL     1     -46.049  99.995  23.149  1.00  0.00     0.007 A 
HETATM   22  C16 UNL     1     -44.752  99.766  23.544  1.00  0.00     0.001 A 
HETATM   23  C17 UNL     1     -43.895  99.036  22.755  1.00  0.00     0.000 A 
HETATM   24  C18 UNL     1     -44.361  98.537  21.559  1.00  0.00     0.001 A 
HETATM   25  C19 UNL     1     -45.680  98.774  21.168  1.00  0.00     0.007 A 
ENDBRANCH  19  20
ENDBRANCH  17  19
ENDBRANCH  14  17
ENDBRANCH   1  13
BRANCH   9  26
HETATM   26  C10 UNL     1     -54.147 100.193  18.534  1.00  0.00     0.197 C 
HETATM   27  O2  UNL     1     -54.030 101.429  18.426  1.00  0.00    -0.646 OA
HETATM   28  O3  UNL     1     -53.313  99.442  17.697  1.00  0.00    -0.646 OA
ENDBRANCH   9  26
TORSDOF 5
ENDMDL
