MODEL 2
REMARK VINA RESULT: -9.244478732      2.298      7.475
REMARK  5 active torsions:
REMARK  status: ('A' for Active; 'I' for Inactive)
REMARK       I    between atoms: C1_2  and  N1_3 
REMARK    1  A    between atoms: C1_2  and  C12_20 
REMARK    2  A    between atoms: N1_3  and  C2_5 
REMARK    3  A    between atoms: C9_13  and  C10_14 
REMARK    4  A    between atoms: C12_20  and  C13_22 
REMARK    5  A    between atoms: C13_22  and  C14_23 
ROOT
HETATM    1  C2  UNL     1     -51.021 101.392  18.590  1.00  0.00     0.177 C 
HETATM    2  C3  UNL     1     -50.844 102.856  18.290  1.00  0.00     0.045 C 
HETATM    3  C4  UNL     1     -49.748 103.395  19.177  1.00  0.00     0.078 C 
HETATM    4  S1  UNL     1     -48.172 103.084  18.303  1.00  0.00    -0.143 SA
HETATM    5  C5  UNL     1     -47.591 101.461  18.810  1.00  0.00     0.150 C 
HETATM    6  C6  UNL     1     -46.459 101.655  19.804  1.00  0.00     0.036 C 
HETATM    7  C7  UNL     1     -46.032 100.435  20.525  1.00  0.00     0.005 C 
HETATM    8  C8  UNL     1     -47.207  99.757  21.190  1.00  0.00     0.037 C 
HETATM    9  C9  UNL     1     -48.202  99.413  20.061  1.00  0.00     0.189 C 
HETATM   10  N2  UNL     1     -48.631 100.641  19.436  1.00  0.00    -0.322 N 
HETATM   11  C11 UNL     1     -49.979 100.907  19.542  1.00  0.00     0.244 C 
HETATM   12  O4  UNL     1     -50.443 100.693  20.723  1.00  0.00    -0.271 OA
ENDROOT
BRANCH   1  13
HETATM   13  N1  UNL     1     -52.348 101.219  19.138  1.00  0.00    -0.347 N 
HETATM   14  C1  UNL     1     -53.249 100.218  18.625  1.00  0.00     0.233 C 
HETATM   15  O1  UNL     1     -52.819  99.520  17.695  1.00  0.00    -0.272 OA
ATOM     16  H1  UNL     1     -52.653 101.819  19.905  1.00  0.00     0.163 HD
BRANCH  14  17
HETATM   17  C12 UNL     1     -54.598 100.044  19.177  1.00  0.00     0.154 C 
HETATM   18  S2  UNL     1     -55.597 101.414  18.447  1.00  0.00    -0.082 SA
BRANCH  17  19
HETATM   19  C13 UNL     1     -55.299  98.793  18.816  1.00  0.00     0.064 C 
BRANCH  19  20
HETATM   20  C14 UNL     1     -55.395  97.750  19.837  1.00  0.00    -0.057 A 
HETATM   21  C15 UNL     1     -56.064  97.978  21.047  1.00  0.00     0.007 A 
HETATM   22  C16 UNL     1     -56.189  96.994  21.999  1.00  0.00     0.001 A 
HETATM   23  C17 UNL     1     -55.657  95.743  21.791  1.00  0.00     0.000 A 
HETATM   24  C18 UNL     1     -54.996  95.494  20.610  1.00  0.00     0.001 A 
HETATM   25  C19 UNL     1     -54.875  96.500  19.649  1.00  0.00     0.007 A 
ENDBRANCH  19  20
ENDBRANCH  17  19
ENDBRANCH  14  17
ENDBRANCH   1  13
BRANCH   9  26
HETATM   26  C10 UNL     1     -49.178  98.417  20.383  1.00  0.00     0.197 C 
HETATM   27  O2  UNL     1     -49.715  97.665  19.546  1.00  0.00    -0.646 OA
HETATM   28  O3  UNL     1     -49.598  98.228  21.706  1.00  0.00    -0.646 OA
ENDBRANCH   9  26
TORSDOF 5
ENDMDL
