MODEL 4
REMARK VINA RESULT: -7.049467407      3.061      4.237
REMARK  3 active torsions:
REMARK  status: ('A' for Active; 'I' for Inactive)
REMARK       I    between atoms: C1_2  and  N3_6 
REMARK    1  A    between atoms: N3_6  and  C2_8 
REMARK    2  A    between atoms: C4_10  and  C5_11 
REMARK    3  A    between atoms: C11_20  and  C12_21 
ROOT
HETATM    1  C2  UNL     1       3.488  17.190  10.314  1.00  0.00     0.035 A 
HETATM    2  C3  UNL     1       4.529  16.540  10.991  1.00  0.00     0.037 A 
HETATM    3  C4  UNL     1       5.098  15.377  10.544  1.00  0.00    -0.051 A 
HETATM    4  C10 UNL     1       4.602  14.845   9.370  1.00  0.00     0.023 A 
HETATM    5  C11 UNL     1       3.589  15.417   8.650  1.00  0.00     0.050 A 
HETATM    6  C13 UNL     1       3.055  16.585   9.153  1.00  0.00     0.045 A 
ENDROOT
BRANCH   3   7
HETATM    7  C5  UNL     1       6.220  14.733  11.312  1.00  0.00     0.022 C 
HETATM    8  C6  UNL     1       6.037  15.192  12.732  1.00  0.00     0.037 C 
HETATM    9  C7  UNL     1       6.575  14.194  13.759  1.00  0.00     0.233 C 
HETATM   10  N4  UNL     1       5.814  12.965  13.482  1.00  0.00    -0.075 N 
HETATM   11  C8  UNL     1       6.353  12.382  12.281  1.00  0.00     0.233 C 
ATOM     12  H42 UNL     1       5.805  12.316  14.270  1.00  0.00     0.277 HD
ATOM     13  H41 UNL     1       4.807  13.123  13.430  1.00  0.00     0.277 HD
HETATM   14  C9  UNL     1       6.247  13.284  11.083  1.00  0.00     0.037 C 
ENDBRANCH   3   7
BRANCH   1  15
HETATM   15  N3  UNL     1       3.033  18.423  10.833  1.00  0.00    -0.331 N 
HETATM   16  C1  UNL     1       2.076  19.211  10.159  1.00  0.00     0.186 C 
HETATM   17  N1  UNL     1       2.348  20.598   9.865  1.00  0.00    -0.064 NA
HETATM   18  N2  UNL     1       0.949  18.683   9.801  1.00  0.00    -0.373 N 
ATOM     19  H22 UNL     1       0.257  19.253   9.314  1.00  0.00     0.158 HD
ATOM     20  H21 UNL     1       0.757  17.704  10.008  1.00  0.00     0.158 HD
ATOM     21  H3  UNL     1       3.407  18.753  11.721  1.00  0.00     0.168 HD
ENDBRANCH   1  15
BRANCH   5  22
HETATM   22  C12 UNL     1       3.115  14.799   7.386  1.00  0.00     0.417 C 
HETATM   23  F1  UNL     1       3.599  15.529   6.310  1.00  0.00    -0.166 F 
HETATM   24  F2  UNL     1       1.747  14.788   7.315  1.00  0.00    -0.166 F 
HETATM   25  F3  UNL     1       3.670  13.526   7.261  1.00  0.00    -0.166 F 
ENDBRANCH   5  22
TORSDOF 3
ENDMDL
