MODEL 17
REMARK VINA RESULT: -6.538692233      3.519      4.643
REMARK  3 active torsions:
REMARK  status: ('A' for Active; 'I' for Inactive)
REMARK       I    between atoms: C1_2  and  N3_6 
REMARK    1  A    between atoms: N3_6  and  C2_8 
REMARK    2  A    between atoms: C4_10  and  C5_11 
REMARK    3  A    between atoms: C11_20  and  C12_21 
ROOT
HETATM    1  C2  UNL     1       5.406  13.905  10.133  1.00  0.00     0.035 A 
HETATM    2  C3  UNL     1       4.951  13.772   8.815  1.00  0.00     0.037 A 
HETATM    3  C4  UNL     1       3.973  14.568   8.280  1.00  0.00    -0.051 A 
HETATM    4  C10 UNL     1       3.431  15.537   9.101  1.00  0.00     0.023 A 
HETATM    5  C11 UNL     1       3.820  15.731  10.399  1.00  0.00     0.050 A 
HETATM    6  C13 UNL     1       4.806  14.896  10.881  1.00  0.00     0.045 A 
ENDROOT
BRANCH   3   7
HETATM    7  C5  UNL     1       3.535  14.381   6.852  1.00  0.00     0.022 C 
HETATM    8  C6  UNL     1       4.585  13.503   6.232  1.00  0.00     0.037 C 
HETATM    9  C7  UNL     1       4.048  12.648   5.083  1.00  0.00     0.233 C 
HETATM   10  N4  UNL     1       2.977  11.855   5.708  1.00  0.00    -0.075 N 
HETATM   11  C8  UNL     1       1.848  12.728   5.901  1.00  0.00     0.233 C 
ATOM     12  H42 UNL     1       2.744  11.014   5.180  1.00  0.00     0.277 HD
ATOM     13  H41 UNL     1       3.274  11.394   6.569  1.00  0.00     0.277 HD
HETATM   14  C9  UNL     1       2.149  13.902   6.789  1.00  0.00     0.037 C 
ENDBRANCH   3   7
BRANCH   1  15
HETATM   15  N3  UNL     1       6.472  13.076  10.550  1.00  0.00    -0.331 N 
HETATM   16  C1  UNL     1       6.355  12.203  11.653  1.00  0.00     0.186 C 
HETATM   17  N1  UNL     1       7.317  12.250  12.727  1.00  0.00    -0.064 NA
HETATM   18  N2  UNL     1       5.376  11.357  11.698  1.00  0.00    -0.373 N 
ATOM     19  H22 UNL     1       5.291  10.726  12.495  1.00  0.00     0.158 HD
ATOM     20  H21 UNL     1       4.695  11.324  10.939  1.00  0.00     0.158 HD
ATOM     21  H3  UNL     1       7.353  13.109  10.038  1.00  0.00     0.168 HD
ENDBRANCH   1  15
BRANCH   5  22
HETATM   22  C12 UNL     1       3.205  16.803  11.222  1.00  0.00     0.417 C 
HETATM   23  F1  UNL     1       2.289  16.238  12.099  1.00  0.00    -0.166 F 
HETATM   24  F2  UNL     1       2.544  17.717  10.443  1.00  0.00    -0.166 F 
HETATM   25  F3  UNL     1       4.185  17.388  12.021  1.00  0.00    -0.166 F 
ENDBRANCH   5  22
TORSDOF 3
ENDMDL
