MODEL 6
REMARK VINA RESULT: -7.035845968      1.853      5.249
REMARK  3 active torsions:
REMARK  status: ('A' for Active; 'I' for Inactive)
REMARK       I    between atoms: C1_2  and  N3_6 
REMARK    1  A    between atoms: N3_6  and  C2_8 
REMARK    2  A    between atoms: C4_10  and  C5_11 
REMARK    3  A    between atoms: C11_20  and  C12_21 
ROOT
HETATM    1  C2  UNL     1       4.272  15.880   8.629  1.00  0.00     0.035 A 
HETATM    2  C3  UNL     1       3.483  16.921   9.136  1.00  0.00     0.037 A 
HETATM    3  C4  UNL     1       3.420  17.227  10.470  1.00  0.00    -0.051 A 
HETATM    4  C10 UNL     1       4.180  16.457  11.328  1.00  0.00     0.023 A 
HETATM    5  C11 UNL     1       4.976  15.425  10.913  1.00  0.00     0.050 A 
HETATM    6  C13 UNL     1       4.994  15.163   9.559  1.00  0.00     0.045 A 
ENDROOT
BRANCH   3   7
HETATM    7  C5  UNL     1       2.561  18.365  10.951  1.00  0.00     0.022 C 
HETATM    8  C6  UNL     1       3.522  19.479  11.260  1.00  0.00     0.037 C 
HETATM    9  C7  UNL     1       2.902  20.867  11.098  1.00  0.00     0.233 C 
HETATM   10  N4  UNL     1       2.472  20.896   9.691  1.00  0.00    -0.075 N 
HETATM   11  C8  UNL     1       1.282  20.092   9.585  1.00  0.00     0.233 C 
ATOM     12  H42 UNL     1       2.346  21.843   9.333  1.00  0.00     0.277 HD
ATOM     13  H41 UNL     1       3.206  20.606   9.045  1.00  0.00     0.277 HD
HETATM   14  C9  UNL     1       1.495  18.659   9.986  1.00  0.00     0.037 C 
ENDBRANCH   3   7
BRANCH   1  15
HETATM   15  N3  UNL     1       4.314  15.708   7.227  1.00  0.00    -0.331 N 
HETATM   16  C1  UNL     1       3.596  14.681   6.576  1.00  0.00     0.186 C 
HETATM   17  N1  UNL     1       4.273  13.768   5.686  1.00  0.00    -0.064 NA
HETATM   18  N2  UNL     1       2.324  14.559   6.784  1.00  0.00    -0.373 N 
ATOM     19  H22 UNL     1       1.805  13.818   6.314  1.00  0.00     0.158 HD
ATOM     20  H21 UNL     1       1.846  15.204   7.413  1.00  0.00     0.158 HD
ATOM     21  H3  UNL     1       4.880  16.345   6.667  1.00  0.00     0.168 HD
ENDBRANCH   1  15
BRANCH   5  22
HETATM   22  C12 UNL     1       5.779  14.647  11.890  1.00  0.00     0.417 C 
HETATM   23  F1  UNL     1       4.926  13.927  12.714  1.00  0.00    -0.166 F 
HETATM   24  F2  UNL     1       6.543  15.468  12.677  1.00  0.00    -0.166 F 
HETATM   25  F3  UNL     1       6.539  13.698  11.208  1.00  0.00    -0.166 F 
ENDBRANCH   5  22
TORSDOF 3
ENDMDL
