MODEL 5
REMARK VINA RESULT: -7.038240460      3.602      4.490
REMARK  3 active torsions:
REMARK  status: ('A' for Active; 'I' for Inactive)
REMARK       I    between atoms: C1_2  and  N3_6 
REMARK    1  A    between atoms: N3_6  and  C2_8 
REMARK    2  A    between atoms: C4_10  and  C5_11 
REMARK    3  A    between atoms: C11_20  and  C12_21 
ROOT
HETATM    1  C2  UNL     1       5.247  15.080  10.770  1.00  0.00     0.035 A 
HETATM    2  C3  UNL     1       4.947  14.642   9.474  1.00  0.00     0.037 A 
HETATM    3  C4  UNL     1       4.165  15.360   8.608  1.00  0.00    -0.051 A 
HETATM    4  C10 UNL     1       3.665  16.565   9.061  1.00  0.00     0.023 A 
HETATM    5  C11 UNL     1       3.912  17.062  10.312  1.00  0.00     0.050 A 
HETATM    6  C13 UNL     1       4.704  16.292  11.139  1.00  0.00     0.045 A 
ENDROOT
BRANCH   3   7
HETATM    7  C5  UNL     1       3.886  14.839   7.223  1.00  0.00     0.022 C 
HETATM    8  C6  UNL     1       5.041  13.930   6.907  1.00  0.00     0.037 C 
HETATM    9  C7  UNL     1       4.672  12.811   5.931  1.00  0.00     0.233 C 
HETATM   10  N4  UNL     1       3.586  12.092   6.618  1.00  0.00    -0.075 N 
HETATM   11  C8  UNL     1       2.398  12.899   6.512  1.00  0.00     0.233 C 
ATOM     12  H42 UNL     1       3.455  11.143   6.270  1.00  0.00     0.277 HD
ATOM     13  H41 UNL     1       3.817  11.850   7.582  1.00  0.00     0.277 HD
HETATM   14  C9  UNL     1       2.542  14.255   7.144  1.00  0.00     0.037 C 
ENDBRANCH   3   7
BRANCH   1  15
HETATM   15  N3  UNL     1       6.126  14.289  11.546  1.00  0.00    -0.331 N 
HETATM   16  C1  UNL     1       5.700  13.624  12.715  1.00  0.00     0.186 C 
HETATM   17  N1  UNL     1       6.404  13.814  13.961  1.00  0.00    -0.064 NA
HETATM   18  N2  UNL     1       4.670  12.841  12.667  1.00  0.00    -0.373 N 
ATOM     19  H22 UNL     1       4.362  12.360  13.512  1.00  0.00     0.158 HD
ATOM     20  H21 UNL     1       4.173  12.707  11.787  1.00  0.00     0.158 HD
ATOM     21  H3  UNL     1       7.097  14.197  11.251  1.00  0.00     0.168 HD
ENDBRANCH   1  15
BRANCH   5  22
HETATM   22  C12 UNL     1       3.356  18.373  10.729  1.00  0.00     0.417 C 
HETATM   23  F1  UNL     1       3.931  19.379   9.965  1.00  0.00    -0.166 F 
HETATM   24  F2  UNL     1       3.621  18.634  12.048  1.00  0.00    -0.166 F 
HETATM   25  F3  UNL     1       1.993  18.408  10.437  1.00  0.00    -0.166 F 
ENDBRANCH   5  22
TORSDOF 3
ENDMDL
