MODEL 3
REMARK VINA RESULT: -7.092869961      3.421      4.634
REMARK  3 active torsions:
REMARK  status: ('A' for Active; 'I' for Inactive)
REMARK       I    between atoms: C1_2  and  N3_6 
REMARK    1  A    between atoms: N3_6  and  C2_8 
REMARK    2  A    between atoms: C4_10  and  C5_11 
REMARK    3  A    between atoms: C11_20  and  C12_21 
ROOT
HETATM    1  C2  UNL     1       4.870  13.403  11.086  1.00  0.00     0.035 A 
HETATM    2  C3  UNL     1       5.161  13.397   9.716  1.00  0.00     0.037 A 
HETATM    3  C4  UNL     1       4.791  14.409   8.870  1.00  0.00    -0.051 A 
HETATM    4  C10 UNL     1       4.101  15.470   9.422  1.00  0.00     0.023 A 
HETATM    5  C11 UNL     1       3.778  15.552  10.749  1.00  0.00     0.050 A 
HETATM    6  C13 UNL     1       4.175  14.501  11.549  1.00  0.00     0.045 A 
ENDROOT
BRANCH   3   7
HETATM    7  C5  UNL     1       5.144  14.347   7.408  1.00  0.00     0.022 C 
HETATM    8  C6  UNL     1       5.147  12.882   7.067  1.00  0.00     0.037 C 
HETATM    9  C7  UNL     1       4.800  12.607   5.603  1.00  0.00     0.233 C 
HETATM   10  N4  UNL     1       3.462  13.199   5.444  1.00  0.00    -0.075 N 
HETATM   11  C8  UNL     1       3.625  14.629   5.383  1.00  0.00     0.233 C 
ATOM     12  H42 UNL     1       2.953  12.823   4.644  1.00  0.00     0.277 HD
ATOM     13  H41 UNL     1       2.807  12.905   6.169  1.00  0.00     0.277 HD
HETATM   14  C9  UNL     1       4.255  15.208   6.619  1.00  0.00     0.037 C 
ENDBRANCH   3   7
BRANCH   1  15
HETATM   15  N3  UNL     1       5.368  12.339  11.871  1.00  0.00    -0.331 N 
HETATM   16  C1  UNL     1       6.620  12.408  12.518  1.00  0.00     0.186 C 
HETATM   17  N1  UNL     1       7.604  11.371  12.316  1.00  0.00    -0.064 NA
HETATM   18  N2  UNL     1       6.885  13.409  13.295  1.00  0.00    -0.373 N 
ATOM     19  H22 UNL     1       7.790  13.459  13.762  1.00  0.00     0.158 HD
ATOM     20  H21 UNL     1       6.190  14.142  13.437  1.00  0.00     0.158 HD
ATOM     21  H3  UNL     1       4.805  11.496  11.974  1.00  0.00     0.168 HD
ENDBRANCH   1  15
BRANCH   5  22
HETATM   22  C12 UNL     1       3.048  16.731  11.279  1.00  0.00     0.417 C 
HETATM   23  F1  UNL     1       2.053  16.301  12.146  1.00  0.00    -0.166 F 
HETATM   24  F2  UNL     1       2.457  17.449  10.273  1.00  0.00    -0.166 F 
HETATM   25  F3  UNL     1       3.917  17.501  12.050  1.00  0.00    -0.166 F 
ENDBRANCH   5  22
TORSDOF 3
ENDMDL
