MODEL 1
REMARK VINA RESULT: -7.914786513      0.000      0.000
REMARK  3 active torsions:
REMARK  status: ('A' for Active; 'I' for Inactive)
REMARK       I    between atoms: C1_2  and  N3_6 
REMARK    1  A    between atoms: N3_6  and  C2_8 
REMARK    2  A    between atoms: C4_10  and  C5_11 
REMARK    3  A    between atoms: C11_20  and  C12_21 
ROOT
HETATM    1  C2  UNL     1       3.156  17.154  10.835  1.00  0.00     0.035 A 
HETATM    2  C3  UNL     1       3.796  16.881   9.619  1.00  0.00     0.037 A 
HETATM    3  C4  UNL     1       4.142  15.615   9.227  1.00  0.00    -0.051 A 
HETATM    4  C10 UNL     1       3.832  14.582  10.090  1.00  0.00     0.023 A 
HETATM    5  C11 UNL     1       3.208  14.766  11.294  1.00  0.00     0.050 A 
HETATM    6  C13 UNL     1       2.888  16.063  11.634  1.00  0.00     0.045 A 
ENDROOT
BRANCH   3   7
HETATM    7  C5  UNL     1       4.820  15.385   7.903  1.00  0.00     0.022 C 
HETATM    8  C6  UNL     1       5.734  14.213   8.129  1.00  0.00     0.037 C 
HETATM    9  C7  UNL     1       5.983  13.395   6.861  1.00  0.00     0.233 C 
HETATM   10  N4  UNL     1       4.637  12.962   6.455  1.00  0.00    -0.075 N 
HETATM   11  C8  UNL     1       3.973  14.100   5.874  1.00  0.00     0.233 C 
ATOM     12  H42 UNL     1       4.649  12.151   5.836  1.00  0.00     0.277 HD
ATOM     13  H41 UNL     1       4.107  12.540   7.217  1.00  0.00     0.277 HD
HETATM   14  C9  UNL     1       3.832  15.256   6.825  1.00  0.00     0.037 C 
ENDBRANCH   3   7
BRANCH   1  15
HETATM   15  N3  UNL     1       2.781  18.492  11.096  1.00  0.00    -0.331 N 
HETATM   16  C1  UNL     1       2.000  19.242  10.192  1.00  0.00     0.186 C 
HETATM   17  N1  UNL     1       2.455  20.532   9.730  1.00  0.00    -0.064 NA
HETATM   18  N2  UNL     1       0.871  18.767   9.773  1.00  0.00    -0.373 N 
ATOM     19  H22 UNL     1       0.307  19.309   9.119  1.00  0.00     0.158 HD
ATOM     20  H21 UNL     1       0.550  17.855  10.099  1.00  0.00     0.158 HD
ATOM     21  H3  UNL     1       3.084  18.928  11.966  1.00  0.00     0.168 HD
ENDBRANCH   1  15
BRANCH   5  22
HETATM   22  C12 UNL     1       2.891  13.607  12.167  1.00  0.00     0.417 C 
HETATM   23  F1  UNL     1       2.602  12.504  11.376  1.00  0.00    -0.166 F 
HETATM   24  F2  UNL     1       1.803  13.860  12.961  1.00  0.00    -0.166 F 
HETATM   25  F3  UNL     1       4.024  13.262  12.902  1.00  0.00    -0.166 F 
ENDBRANCH   5  22
TORSDOF 3
ENDMDL
