MODEL 15
REMARK VINA RESULT: -8.625893636      1.493      1.976
REMARK  6 active torsions:
REMARK  status: ('A' for Active; 'I' for Inactive)
REMARK       I    between atoms: C1_2  and  N1_3 
REMARK    1  A    between atoms: C1_2  and  C9_16 
REMARK    2  A    between atoms: N1_3  and  C2_5 
REMARK    3  A    between atoms: C5_8  and  O2_9 
REMARK    4  A    between atoms: O2_9  and  C6_10 
REMARK    5  A    between atoms: C13_20  and  C14_21 
REMARK    6  A    between atoms: C14_21  and  N2_22 
ROOT
HETATM    1  O1  UNL     1      23.417  42.035  53.578  1.00  0.00    -0.267 OA
HETATM    2  C1  UNL     1      23.060  43.223  53.650  1.00  0.00     0.256 C 
HETATM    3  N1  UNL     1      21.737  43.559  53.294  1.00  0.00    -0.323 N 
ATOM      4  H1  UNL     1      21.498  44.548  53.374  1.00  0.00     0.169 HD
ENDROOT
BRANCH   2   5
HETATM    5  C9  UNL     1      24.053  44.216  54.110  1.00  0.00     0.032 A 
HETATM    6  C10 UNL     1      23.847  45.004  55.205  1.00  0.00     0.017 A 
HETATM    7  C11 UNL     1      24.808  45.938  55.628  1.00  0.00     0.002 A 
HETATM    8  C12 UNL     1      25.987  46.080  54.942  1.00  0.00     0.009 A 
HETATM    9  C13 UNL     1      26.209  45.299  53.844  1.00  0.00    -0.029 A 
HETATM   10  C19 UNL     1      25.245  44.371  53.430  1.00  0.00     0.026 A 
BRANCH   9  11
HETATM   11  C14 UNL     1      27.424  45.357  53.031  1.00  0.00     0.311 C 
BRANCH  11  12
HETATM   12  N2  UNL     1      27.262  45.540  51.638  1.00  0.00     0.096 N 
HETATM   13  C15 UNL     1      28.407  45.005  50.885  1.00  0.00     0.299 C 
HETATM   14  C16 UNL     1      28.191  45.258  49.419  1.00  0.00     0.198 C 
HETATM   15  O3  UNL     1      27.955  46.587  49.127  1.00  0.00    -0.388 OA
HETATM   16  C17 UNL     1      26.879  47.077  49.861  1.00  0.00     0.198 C 
HETATM   17  C18 UNL     1      27.279  46.981  51.333  1.00  0.00     0.299 C 
ENDBRANCH  11  12
ENDBRANCH   9  11
ENDBRANCH   2   5
BRANCH   3  18
HETATM   18  C2  UNL     1      20.711  42.728  52.847  1.00  0.00     0.035 A 
HETATM   19  C3  UNL     1      20.803  41.962  51.732  1.00  0.00     0.032 A 
HETATM   20  C4  UNL     1      19.713  41.161  51.370  1.00  0.00     0.039 A 
HETATM   21  C5  UNL     1      18.542  41.099  52.079  1.00  0.00     0.078 A 
HETATM   22  C7  UNL     1      18.465  41.881  53.207  1.00  0.00     0.039 A 
HETATM   23  C8  UNL     1      19.539  42.683  53.581  1.00  0.00     0.032 A 
BRANCH  21  24
HETATM   24  O2  UNL     1      17.493  40.287  51.674  1.00  0.00    -0.255 OA
BRANCH  24  25
HETATM   25  C6  UNL     1      17.642  38.871  51.813  1.00  0.00     0.530 C 
HETATM   26  F1  UNL     1      16.492  38.418  52.419  1.00  0.00    -0.144 F 
HETATM   27  F2  UNL     1      17.731  38.309  50.559  1.00  0.00    -0.144 F 
HETATM   28  F3  UNL     1      18.746  38.637  52.582  1.00  0.00    -0.144 F 
ENDBRANCH  24  25
ENDBRANCH  21  24
ENDBRANCH   3  18
TORSDOF 6
ENDMDL
