MODEL 2
REMARK VINA RESULT: -9.222737543      3.312      8.781
REMARK  14 active torsions:
REMARK  status: ('A' for Active; 'I' for Inactive)
REMARK    1  A    between atoms: N1_1  and  C1_4 
REMARK    2  A    between atoms: N5_15  and  C6_16 
REMARK    3  A    between atoms: C7_18  and  C8_19 
REMARK    4  A    between atoms: C8_19  and  O2_20 
REMARK    5  A    between atoms: O2_20  and  P1_21 
REMARK    6  A    between atoms: P1_21  and  O5_24 
REMARK    7  A    between atoms: O5_24  and  P2_25 
REMARK    8  A    between atoms: P2_25  and  O8_28 
REMARK    9  A    between atoms: O8_28  and  C9_29 
REMARK   10  A    between atoms: C9_29  and  C10_30 
REMARK   11  A    between atoms: C12_35  and  O9_36 
REMARK   12  A    between atoms: C13_38  and  O10_39 
REMARK   13  A    between atoms: C14_41  and  O11_42 
REMARK   14  A    between atoms: C15_44  and  O12_45 
ROOT
HETATM    1  C6  UNL     1      -3.538  -0.587  -9.068  1.00  0.00     0.262 C 
HETATM    2  O1  UNL     1      -4.706  -0.883  -9.684  1.00  0.00    -0.353 OA
HETATM    3  C7  UNL     1      -5.536   0.078  -9.284  1.00  0.00     0.180 C 
HETATM    4  C14 UNL     1      -4.839   1.372  -9.597  1.00  0.00     0.182 C 
HETATM    5  C15 UNL     1      -3.424   0.973  -9.095  1.00  0.00     0.198 C 
ENDROOT
BRANCH   3   6
HETATM    6  C8  UNL     1      -6.957   0.148  -9.738  1.00  0.00     0.216 C 
BRANCH   6   7
HETATM    7  O2  UNL     1      -7.426  -0.969 -10.358  1.00  0.00    -0.287 OA
BRANCH   7   8
HETATM    8  P1  UNL     1      -9.078  -0.901 -10.208  1.00  0.00     0.417 P 
HETATM    9  O3  UNL     1      -9.706  -0.562  -8.681  1.00  0.00    -0.624 OA
HETATM   10  O4  UNL     1     -10.058  -0.766 -11.528  1.00  0.00    -0.624 OA
BRANCH   8  11
HETATM   11  O5  UNL     1      -9.314  -2.338 -10.043  1.00  0.00    -0.180 OA
BRANCH  11  12
HETATM   12  P2  UNL     1      -9.748  -3.202  -8.826  1.00  0.00     0.417 P 
HETATM   13  O6  UNL     1     -11.302  -3.309  -9.317  1.00  0.00    -0.624 OA
HETATM   14  O7  UNL     1      -8.681  -4.423  -9.509  1.00  0.00    -0.624 OA
BRANCH  12  15
HETATM   15  O8  UNL     1      -9.876  -4.348  -7.801  1.00  0.00    -0.287 OA
BRANCH  15  16
HETATM   16  C9  UNL     1      -8.804  -5.180  -7.528  1.00  0.00     0.217 C 
BRANCH  16  17
HETATM   17  C10 UNL     1      -8.836  -5.105  -5.964  1.00  0.00     0.241 C 
HETATM   18  N6  UNL     1      -7.612  -5.511  -5.388  1.00  0.00    -0.064 N 
HETATM   19  C11 UNL     1      -7.604  -4.705  -4.154  1.00  0.00     0.267 C 
ATOM     20  H62 UNL     1      -7.501  -6.517  -5.256  1.00  0.00     0.277 HD
ATOM     21  H61 UNL     1      -6.791  -5.409  -5.984  1.00  0.00     0.277 HD
HETATM   22  C12 UNL     1      -8.159  -3.375  -4.594  1.00  0.00     0.174 C 
HETATM   23  C13 UNL     1      -9.288  -3.793  -5.522  1.00  0.00     0.181 C 
BRANCH  22  24
HETATM   24  O9  UNL     1      -8.716  -2.642  -3.567  1.00  0.00    -0.391 OA
ATOM     25  H9  UNL     1      -8.745  -1.708  -3.737  1.00  0.00     0.210 HD
ENDBRANCH  22  24
BRANCH  23  26
HETATM   26  O10 UNL     1     -10.528  -3.780  -4.899  1.00  0.00    -0.391 OA
ATOM     27  H10 UNL     1     -11.120  -3.099  -5.197  1.00  0.00     0.210 HD
ENDBRANCH  23  26
ENDBRANCH  16  17
ENDBRANCH  15  16
ENDBRANCH  12  15
ENDBRANCH  11  12
ENDBRANCH   8  11
ENDBRANCH   7   8
ENDBRANCH   6   7
ENDBRANCH   3   6
BRANCH   4  28
HETATM   28  O11 UNL     1      -5.404   2.420  -8.896  1.00  0.00    -0.390 OA
ATOM     29  H11 UNL     1      -4.749   2.879  -8.383  1.00  0.00     0.210 HD
ENDBRANCH   4  28
BRANCH   1  30
HETATM   30  N5  UNL     1      -2.323  -1.129  -9.716  1.00  0.00    -0.297 N 
HETATM   31  C3  UNL     1      -2.211  -2.423  -9.999  1.00  0.00     0.142 A 
HETATM   32  N3  UNL     1      -2.854  -3.498  -9.536  1.00  0.00    -0.336 N 
HETATM   33  C4  UNL     1      -1.291  -2.548 -11.017  1.00  0.00     0.122 A 
HETATM   34  C2  UNL     1      -2.542  -4.682 -10.088  1.00  0.00     0.183 A 
ATOM     35  H3  UNL     1      -3.552  -3.422  -8.796  1.00  0.00     0.168 HD
HETATM   36  N2  UNL     1      -1.690  -4.774 -11.075  1.00  0.00    -0.337 N 
HETATM   37  C1  UNL     1      -1.026  -3.788 -11.617  1.00  0.00     0.131 A 
ATOM     38  H2  UNL     1      -1.527  -5.704 -11.458  1.00  0.00     0.168 HD
HETATM   39  N4  UNL     1      -0.841  -1.273 -11.308  1.00  0.00    -0.346 N 
HETATM   40  C5  UNL     1      -1.504  -0.436 -10.414  1.00  0.00     0.188 A 
ATOM     41  H4  UNL     1      -0.168  -1.003 -12.025  1.00  0.00     0.167 HD
BRANCH  37  42
HETATM   42  N1  UNL     1      -0.145  -3.718 -12.672  1.00  0.00    -0.383 N 
ATOM     43  H12 UNL     1      -0.579  -3.866 -13.582  1.00  0.00     0.157 HD
ATOM     44  H11 UNL     1       0.862  -3.568 -12.727  1.00  0.00     0.157 HD
ENDBRANCH  37  42
ENDBRANCH   1  30
BRANCH   5  45
HETATM   45  O12 UNL     1      -3.335   1.536  -7.795  1.00  0.00    -0.388 OA
ATOM     46  H12 UNL     1      -2.473   1.888  -7.607  1.00  0.00     0.210 HD
ENDBRANCH   5  45
TORSDOF 14
ENDMDL
