MODEL 3
REMARK VINA RESULT: -9.119049069      3.242      8.653
REMARK  14 active torsions:
REMARK  status: ('A' for Active; 'I' for Inactive)
REMARK    1  A    between atoms: N1_1  and  C1_4 
REMARK    2  A    between atoms: N5_15  and  C6_16 
REMARK    3  A    between atoms: C7_18  and  C8_19 
REMARK    4  A    between atoms: C8_19  and  O2_20 
REMARK    5  A    between atoms: O2_20  and  P1_21 
REMARK    6  A    between atoms: P1_21  and  O5_24 
REMARK    7  A    between atoms: O5_24  and  P2_25 
REMARK    8  A    between atoms: P2_25  and  O8_28 
REMARK    9  A    between atoms: O8_28  and  C9_29 
REMARK   10  A    between atoms: C9_29  and  C10_30 
REMARK   11  A    between atoms: C12_35  and  O9_36 
REMARK   12  A    between atoms: C13_38  and  O10_39 
REMARK   13  A    between atoms: C14_41  and  O11_42 
REMARK   14  A    between atoms: C15_44  and  O12_45 
ROOT
HETATM    1  C6  UNL     1      -3.512  -0.601  -9.070  1.00  0.00     0.262 C 
HETATM    2  O1  UNL     1      -4.682  -0.904  -9.679  1.00  0.00    -0.353 OA
HETATM    3  C7  UNL     1      -5.513   0.056  -9.279  1.00  0.00     0.180 C 
HETATM    4  C14 UNL     1      -4.822   1.351  -9.601  1.00  0.00     0.182 C 
HETATM    5  C15 UNL     1      -3.403   0.959  -9.104  1.00  0.00     0.198 C 
ENDROOT
BRANCH   3   6
HETATM    6  C8  UNL     1      -6.936   0.119  -9.726  1.00  0.00     0.216 C 
BRANCH   6   7
HETATM    7  O2  UNL     1      -7.409  -1.008 -10.325  1.00  0.00    -0.287 OA
BRANCH   7   8
HETATM    8  P1  UNL     1      -9.062  -0.924 -10.188  1.00  0.00     0.417 P 
HETATM    9  O3  UNL     1      -9.701  -0.637  -8.655  1.00  0.00    -0.624 OA
HETATM   10  O4  UNL     1     -10.027  -0.726 -11.511  1.00  0.00    -0.624 OA
BRANCH   8  11
HETATM   11  O5  UNL     1      -9.318  -2.363 -10.081  1.00  0.00    -0.180 OA
BRANCH  11  12
HETATM   12  P2  UNL     1      -9.696  -3.280  -8.885  1.00  0.00     0.417 P 
HETATM   13  O6  UNL     1     -11.292  -3.255  -9.227  1.00  0.00    -0.624 OA
HETATM   14  O7  UNL     1      -8.784  -4.516  -9.744  1.00  0.00    -0.624 OA
BRANCH  12  15
HETATM   15  O8  UNL     1      -9.807  -4.485  -7.926  1.00  0.00    -0.287 OA
BRANCH  15  16
HETATM   16  C9  UNL     1      -9.575  -4.336  -6.570  1.00  0.00     0.217 C 
BRANCH  16  17
HETATM   17  C10 UNL     1      -8.012  -4.428  -6.583  1.00  0.00     0.241 C 
HETATM   18  N6  UNL     1      -7.434  -3.822  -5.446  1.00  0.00    -0.064 N 
HETATM   19  C11 UNL     1      -6.207  -4.624  -5.296  1.00  0.00     0.267 C 
ATOM     20  H62 UNL     1      -7.294  -2.814  -5.508  1.00  0.00     0.277 HD
ATOM     21  H61 UNL     1      -8.032  -3.777  -4.621  1.00  0.00     0.277 HD
HETATM   22  C12 UNL     1      -6.656  -6.027  -5.615  1.00  0.00     0.174 C 
HETATM   23  C13 UNL     1      -7.579  -5.802  -6.802  1.00  0.00     0.181 C 
BRANCH  22  24
HETATM   24  O9  UNL     1      -5.634  -6.852  -6.035  1.00  0.00    -0.391 OA
ATOM     25  H9  UNL     1      -5.858  -7.775  -6.015  1.00  0.00     0.210 HD
ENDBRANCH  22  24
BRANCH  23  26
HETATM   26  O10 UNL     1      -6.955  -6.032  -8.020  1.00  0.00    -0.391 OA
ATOM     27  H10 UNL     1      -7.144  -6.876  -8.414  1.00  0.00     0.210 HD
ENDBRANCH  23  26
ENDBRANCH  16  17
ENDBRANCH  15  16
ENDBRANCH  12  15
ENDBRANCH  11  12
ENDBRANCH   8  11
ENDBRANCH   7   8
ENDBRANCH   6   7
ENDBRANCH   3   6
BRANCH   4  28
HETATM   28  O11 UNL     1      -5.388   2.400  -8.901  1.00  0.00    -0.390 OA
ATOM     29  H11 UNL     1      -6.211   2.665  -9.293  1.00  0.00     0.210 HD
ENDBRANCH   4  28
BRANCH   1  30
HETATM   30  N5  UNL     1      -2.298  -1.142  -9.722  1.00  0.00    -0.297 N 
HETATM   31  C3  UNL     1      -2.193  -2.432 -10.023  1.00  0.00     0.142 A 
HETATM   32  N3  UNL     1      -2.844  -3.509  -9.578  1.00  0.00    -0.336 N 
HETATM   33  C4  UNL     1      -1.271  -2.548 -11.040  1.00  0.00     0.122 A 
HETATM   34  C2  UNL     1      -2.538  -4.687 -10.146  1.00  0.00     0.183 A 
ATOM     35  H3  UNL     1      -3.544  -3.439  -8.839  1.00  0.00     0.168 HD
HETATM   36  N2  UNL     1      -1.684  -4.770 -11.131  1.00  0.00    -0.337 N 
HETATM   37  C1  UNL     1      -1.012  -3.781 -11.657  1.00  0.00     0.131 A 
ATOM     38  H2  UNL     1      -1.525  -5.696 -11.527  1.00  0.00     0.168 HD
HETATM   39  N4  UNL     1      -0.812  -1.272 -11.311  1.00  0.00    -0.346 N 
HETATM   40  C5  UNL     1      -1.473  -0.444 -10.407  1.00  0.00     0.188 A 
ATOM     41  H4  UNL     1      -0.134  -0.996 -12.022  1.00  0.00     0.167 HD
BRANCH  37  42
HETATM   42  N1  UNL     1      -0.126  -3.702 -12.708  1.00  0.00    -0.383 N 
ATOM     43  H12 UNL     1       0.765  -4.164 -12.531  1.00  0.00     0.157 HD
ATOM     44  H11 UNL     1      -0.172  -3.256 -13.624  1.00  0.00     0.157 HD
ENDBRANCH  37  42
ENDBRANCH   1  30
BRANCH   5  45
HETATM   45  O12 UNL     1      -3.310   1.528  -7.807  1.00  0.00    -0.388 OA
ATOM     46  H12 UNL     1      -2.787   2.321  -7.792  1.00  0.00     0.210 HD
ENDBRANCH   5  45
TORSDOF 14
ENDMDL
