MODEL 1
REMARK VINA RESULT: -9.286689791      0.000      0.000
REMARK  14 active torsions:
REMARK  status: ('A' for Active; 'I' for Inactive)
REMARK    1  A    between atoms: N1_1  and  C1_4 
REMARK    2  A    between atoms: N5_15  and  C6_16 
REMARK    3  A    between atoms: C7_18  and  C8_19 
REMARK    4  A    between atoms: C8_19  and  O2_20 
REMARK    5  A    between atoms: O2_20  and  P1_21 
REMARK    6  A    between atoms: P1_21  and  O5_24 
REMARK    7  A    between atoms: O5_24  and  P2_25 
REMARK    8  A    between atoms: P2_25  and  O8_28 
REMARK    9  A    between atoms: O8_28  and  C9_29 
REMARK   10  A    between atoms: C9_29  and  C10_30 
REMARK   11  A    between atoms: C12_35  and  O9_36 
REMARK   12  A    between atoms: C13_38  and  O10_39 
REMARK   13  A    between atoms: C14_41  and  O11_42 
REMARK   14  A    between atoms: C15_44  and  O12_45 
ROOT
HETATM    1  C6  UNL     1      -7.164  -5.401  -4.585  1.00  0.00     0.262 C 
HETATM    2  O1  UNL     1      -7.708  -4.338  -5.220  1.00  0.00    -0.353 OA
HETATM    3  C7  UNL     1      -7.222  -4.416  -6.457  1.00  0.00     0.180 C 
HETATM    4  C14 UNL     1      -7.538  -5.807  -6.931  1.00  0.00     0.182 C 
HETATM    5  C15 UNL     1      -7.146  -6.563  -5.631  1.00  0.00     0.198 C 
ENDROOT
BRANCH   3   6
HETATM    6  C8  UNL     1      -7.577  -3.429  -7.520  1.00  0.00     0.216 C 
BRANCH   6   7
HETATM    7  O2  UNL     1      -8.832  -2.907  -7.435  1.00  0.00    -0.287 OA
BRANCH   7   8
HETATM    8  P1  UNL     1      -9.586  -3.331  -8.852  1.00  0.00     0.417 P 
HETATM    9  O3  UNL     1      -8.759  -4.367  -9.893  1.00  0.00    -0.624 OA
HETATM   10  O4  UNL     1     -11.204  -3.096  -9.070  1.00  0.00    -0.624 OA
BRANCH   8  11
HETATM   11  O5  UNL     1      -9.198  -2.153  -9.633  1.00  0.00    -0.180 OA
BRANCH  11  12
HETATM   12  P2  UNL     1      -8.128  -1.048  -9.412  1.00  0.00     0.417 P 
HETATM   13  O6  UNL     1      -7.902  -0.794 -11.009  1.00  0.00    -0.624 OA
HETATM   14  O7  UNL     1      -9.449  -0.126  -8.706  1.00  0.00    -0.624 OA
BRANCH  12  15
HETATM   15  O8  UNL     1      -7.418   0.256  -8.990  1.00  0.00    -0.287 OA
BRANCH  15  16
HETATM   16  C9  UNL     1      -7.253   1.297  -9.888  1.00  0.00     0.217 C 
BRANCH  16  17
HETATM   17  C10 UNL     1      -5.792   1.711  -9.506  1.00  0.00     0.241 C 
HETATM   18  N6  UNL     1      -5.401   1.186  -8.253  1.00  0.00    -0.064 N 
HETATM   19  C11 UNL     1      -3.948   1.045  -8.452  1.00  0.00     0.267 C 
ATOM     20  H62 UNL     1      -5.682   1.735  -7.441  1.00  0.00     0.277 HD
ATOM     21  H61 UNL     1      -5.889   0.340  -7.961  1.00  0.00     0.277 HD
HETATM   22  C12 UNL     1      -3.828   0.554  -9.871  1.00  0.00     0.174 C 
HETATM   23  C13 UNL     1      -4.869   1.397 -10.589  1.00  0.00     0.181 C 
BRANCH  22  24
HETATM   24  O9  UNL     1      -2.605   0.826 -10.448  1.00  0.00    -0.391 OA
ATOM     25  H9  UNL     1      -2.121   0.048 -10.699  1.00  0.00     0.210 HD
ENDBRANCH  22  24
BRANCH  23  26
HETATM   26  O10 UNL     1      -4.320   2.500 -11.228  1.00  0.00    -0.391 OA
ATOM     27  H10 UNL     1      -3.459   2.359 -11.602  1.00  0.00     0.210 HD
ENDBRANCH  23  26
ENDBRANCH  16  17
ENDBRANCH  15  16
ENDBRANCH  12  15
ENDBRANCH  11  12
ENDBRANCH   8  11
ENDBRANCH   7   8
ENDBRANCH   6   7
ENDBRANCH   3   6
BRANCH   4  28
HETATM   28  O11 UNL     1      -6.767  -6.143  -8.026  1.00  0.00    -0.390 OA
ATOM     29  H11 UNL     1      -7.306  -6.491  -8.728  1.00  0.00     0.210 HD
ENDBRANCH   4  28
BRANCH   1  30
HETATM   30  N5  UNL     1      -7.909  -5.884  -3.401  1.00  0.00    -0.297 N 
HETATM   31  C3  UNL     1      -9.236  -5.822  -3.348  1.00  0.00     0.142 A 
HETATM   32  N3  UNL     1     -10.124  -5.098  -4.033  1.00  0.00    -0.336 N 
HETATM   33  C4  UNL     1      -9.662  -6.772  -2.446  1.00  0.00     0.122 A 
HETATM   34  C2  UNL     1     -11.423  -5.324  -3.779  1.00  0.00     0.183 A 
ATOM     35  H3  UNL     1      -9.828  -4.403  -4.719  1.00  0.00     0.168 HD
HETATM   36  N2  UNL     1     -11.806  -6.251  -2.942  1.00  0.00    -0.337 N 
HETATM   37  C1  UNL     1     -11.025  -7.030  -2.242  1.00  0.00     0.131 A 
ATOM     38  H2  UNL     1     -12.810  -6.380  -2.824  1.00  0.00     0.168 HD
HETATM   39  N4  UNL     1      -8.527  -7.383  -1.944  1.00  0.00    -0.346 N 
HETATM   40  C5  UNL     1      -7.458  -6.737  -2.560  1.00  0.00     0.188 A 
ATOM     41  H4  UNL     1      -8.482  -8.145  -1.267  1.00  0.00     0.167 HD
BRANCH  37  42
HETATM   42  N1  UNL     1     -11.271  -8.066  -1.370  1.00  0.00    -0.383 N 
ATOM     43  H12 UNL     1     -11.951  -7.840  -0.644  1.00  0.00     0.157 HD
ATOM     44  H11 UNL     1     -10.895  -9.010  -1.289  1.00  0.00     0.157 HD
ENDBRANCH  37  42
ENDBRANCH   1  30
BRANCH   5  45
HETATM   45  O12 UNL     1      -5.838  -7.051  -5.884  1.00  0.00    -0.388 OA
ATOM     46  H12 UNL     1      -5.803  -7.999  -5.926  1.00  0.00     0.210 HD
ENDBRANCH   5  45
TORSDOF 14
ENDMDL
