MODEL 4
REMARK VINA RESULT: -9.104516683      3.249      8.110
REMARK  14 active torsions:
REMARK  status: ('A' for Active; 'I' for Inactive)
REMARK    1  A    between atoms: N1_1  and  C1_4 
REMARK    2  A    between atoms: N5_15  and  C6_16 
REMARK    3  A    between atoms: C7_18  and  C8_19 
REMARK    4  A    between atoms: C8_19  and  O2_20 
REMARK    5  A    between atoms: O2_20  and  P1_21 
REMARK    6  A    between atoms: P1_21  and  O5_24 
REMARK    7  A    between atoms: O5_24  and  P2_25 
REMARK    8  A    between atoms: P2_25  and  O8_28 
REMARK    9  A    between atoms: O8_28  and  C9_29 
REMARK   10  A    between atoms: C9_29  and  C10_30 
REMARK   11  A    between atoms: C12_35  and  O9_36 
REMARK   12  A    between atoms: C13_38  and  O10_39 
REMARK   13  A    between atoms: C14_41  and  O11_42 
REMARK   14  A    between atoms: C15_44  and  O12_45 
ROOT
HETATM    1  C6  UNL     1      -3.972  -0.786  -8.911  1.00  0.00     0.262 C 
HETATM    2  O1  UNL     1      -5.117  -1.062  -9.576  1.00  0.00    -0.353 OA
HETATM    3  C7  UNL     1      -5.773   0.097  -9.588  1.00  0.00     0.180 C 
HETATM    4  C14 UNL     1      -4.809   1.102 -10.153  1.00  0.00     0.182 C 
HETATM    5  C15 UNL     1      -3.550   0.651  -9.363  1.00  0.00     0.198 C 
ENDROOT
BRANCH   3   6
HETATM    6  C8  UNL     1      -7.106   0.255 -10.241  1.00  0.00     0.216 C 
BRANCH   6   7
HETATM    7  O2  UNL     1      -7.620  -0.876 -10.797  1.00  0.00    -0.287 OA
BRANCH   7   8
HETATM    8  P1  UNL     1      -9.236  -0.865 -10.414  1.00  0.00     0.417 P 
HETATM    9  O3  UNL     1      -9.655  -0.501  -8.823  1.00  0.00    -0.624 OA
HETATM   10  O4  UNL     1     -10.398  -0.811 -11.584  1.00  0.00    -0.624 OA
BRANCH   8  11
HETATM   11  O5  UNL     1      -9.385  -2.304 -10.179  1.00  0.00    -0.180 OA
BRANCH  11  12
HETATM   12  P2  UNL     1      -9.782  -3.131  -8.924  1.00  0.00     0.417 P 
HETATM   13  O6  UNL     1     -11.358  -3.218  -9.344  1.00  0.00    -0.624 OA
HETATM   14  O7  UNL     1      -8.770  -4.388  -9.622  1.00  0.00    -0.624 OA
BRANCH  12  15
HETATM   15  O8  UNL     1      -9.887  -4.250  -7.866  1.00  0.00    -0.287 OA
BRANCH  15  16
HETATM   16  C9  UNL     1      -8.831  -5.117  -7.643  1.00  0.00     0.217 C 
BRANCH  16  17
HETATM   17  C10 UNL     1      -8.819  -5.077  -6.077  1.00  0.00     0.241 C 
HETATM   18  N6  UNL     1      -7.569  -5.468  -5.546  1.00  0.00    -0.064 N 
HETATM   19  C11 UNL     1      -7.544  -4.689  -4.295  1.00  0.00     0.267 C 
ATOM     20  H62 UNL     1      -7.431  -6.473  -5.441  1.00  0.00     0.277 HD
ATOM     21  H61 UNL     1      -6.769  -5.333  -6.163  1.00  0.00     0.277 HD
HETATM   22  C12 UNL     1      -8.141  -3.363  -4.687  1.00  0.00     0.174 C 
HETATM   23  C13 UNL     1      -9.288  -3.786  -5.591  1.00  0.00     0.181 C 
BRANCH  22  24
HETATM   24  O9  UNL     1      -8.685  -2.667  -3.628  1.00  0.00    -0.391 OA
ATOM     25  H9  UNL     1      -8.294  -1.811  -3.494  1.00  0.00     0.210 HD
ENDBRANCH  22  24
BRANCH  23  26
HETATM   26  O10 UNL     1     -10.509  -3.817  -4.933  1.00  0.00    -0.391 OA
ATOM     27  H10 UNL     1     -10.610  -4.528  -4.311  1.00  0.00     0.210 HD
ENDBRANCH  23  26
ENDBRANCH  16  17
ENDBRANCH  15  16
ENDBRANCH  12  15
ENDBRANCH  11  12
ENDBRANCH   8  11
ENDBRANCH   7   8
ENDBRANCH   6   7
ENDBRANCH   3   6
BRANCH   4  28
HETATM   28  O11 UNL     1      -5.215   2.391  -9.867  1.00  0.00    -0.390 OA
ATOM     29  H11 UNL     1      -4.958   2.641  -8.987  1.00  0.00     0.210 HD
ENDBRANCH   4  28
BRANCH   1  30
HETATM   30  N5  UNL     1      -2.837  -1.690  -9.198  1.00  0.00    -0.297 N 
HETATM   31  C3  UNL     1      -2.903  -2.990  -8.927  1.00  0.00     0.142 A 
HETATM   32  N3  UNL     1      -3.698  -3.694  -8.118  1.00  0.00    -0.336 N 
HETATM   33  C4  UNL     1      -1.996  -3.632  -9.742  1.00  0.00     0.122 A 
HETATM   34  C2  UNL     1      -3.548  -5.028  -8.123  1.00  0.00     0.183 A 
ATOM     35  H3  UNL     1      -4.389  -3.237  -7.522  1.00  0.00     0.168 HD
HETATM   36  N2  UNL     1      -2.704  -5.619  -8.926  1.00  0.00    -0.337 N 
HETATM   37  C1  UNL     1      -1.901  -5.031  -9.772  1.00  0.00     0.131 A 
ATOM     38  H2  UNL     1      -2.668  -6.638  -8.890  1.00  0.00     0.168 HD
HETATM   39  N4  UNL     1      -1.367  -2.653 -10.489  1.00  0.00    -0.346 N 
HETATM   40  C5  UNL     1      -1.918  -1.449 -10.056  1.00  0.00     0.188 A 
ATOM     41  H4  UNL     1      -0.652  -2.784 -11.204  1.00  0.00     0.167 HD
BRANCH  37  42
HETATM   42  N1  UNL     1      -1.003  -5.507 -10.700  1.00  0.00    -0.383 N 
ATOM     43  H12 UNL     1      -0.075  -5.690 -10.319  1.00  0.00     0.157 HD
ATOM     44  H11 UNL     1      -1.071  -5.696 -11.699  1.00  0.00     0.157 HD
ENDBRANCH  37  42
ENDBRANCH   1  30
BRANCH   5  45
HETATM   45  O12 UNL     1      -3.465   1.562  -8.277  1.00  0.00    -0.388 OA
ATOM     46  H12 UNL     1      -4.135   2.234  -8.312  1.00  0.00     0.210 HD
ENDBRANCH   5  45
TORSDOF 14
ENDMDL
