MODEL 2
REMARK VINA RESULT: -8.821765667      1.168      1.892
REMARK  12 active torsions:
REMARK  status: ('A' for Active; 'I' for Inactive)
REMARK    1  A    between atoms: N5_13  and  C6_14 
REMARK    2  A    between atoms: C7_16  and  C8_17 
REMARK    3  A    between atoms: C8_17  and  O2_18 
REMARK    4  A    between atoms: O2_18  and  P1_19 
REMARK    5  A    between atoms: P1_19  and  O5_22 
REMARK    6  A    between atoms: O5_22  and  P2_23 
REMARK    7  A    between atoms: P2_23  and  O8_26 
REMARK    8  A    between atoms: O8_26  and  C9_27 
REMARK    9  A    between atoms: C9_27  and  C10_28 
REMARK   10  A    between atoms: C12_30  and  O9_31 
REMARK   11  A    between atoms: C14_37  and  O10_38 
REMARK   12  A    between atoms: C15_40  and  O11_41 
ROOT
HETATM    1  C6  UNL     1      -9.194  -0.792  10.746  1.00  0.00     0.262 C 
HETATM    2  O1  UNL     1     -10.177  -0.255   9.958  1.00  0.00    -0.353 OA
HETATM    3  C7  UNL     1     -11.300  -1.064  10.050  1.00  0.00     0.180 C 
HETATM    4  C14 UNL     1     -11.238  -1.693  11.438  1.00  0.00     0.182 C 
HETATM    5  C15 UNL     1      -9.746  -1.906  11.573  1.00  0.00     0.198 C 
ENDROOT
BRANCH   3   6
HETATM    6  C8  UNL     1     -12.508  -0.203   9.939  1.00  0.00     0.216 C 
BRANCH   6   7
HETATM    7  O2  UNL     1     -12.996   0.224  11.160  1.00  0.00    -0.287 OA
BRANCH   7   8
HETATM    8  P1  UNL     1     -14.591   0.716  11.017  1.00  0.00     0.417 P 
HETATM    9  O3  UNL     1     -15.663  -0.029  10.106  1.00  0.00    -0.624 OA
HETATM   10  O4  UNL     1     -14.890  -0.025  12.326  1.00  0.00    -0.624 OA
BRANCH   8  11
HETATM   11  O5  UNL     1     -14.947   2.176  11.754  1.00  0.00    -0.180 OA
BRANCH  11  12
HETATM   12  P2  UNL     1     -15.394   3.246  10.573  1.00  0.00     0.417 P 
HETATM   13  O6  UNL     1     -16.875   2.923  10.719  1.00  0.00    -0.624 OA
HETATM   14  O7  UNL     1     -15.751   4.831  11.064  1.00  0.00    -0.624 OA
BRANCH  12  15
HETATM   15  O8  UNL     1     -15.266   2.862   9.039  1.00  0.00    -0.287 OA
BRANCH  15  16
HETATM   16  C9  UNL     1     -14.147   3.094   8.307  1.00  0.00     0.214 C 
BRANCH  16  17
HETATM   17  C10 UNL     1     -14.515   3.898   7.076  1.00  0.00     0.212 C 
HETATM   18  C11 UNL     1     -14.025   5.329   7.178  1.00  0.00     0.068 C 
HETATM   19  C12 UNL     1     -14.838   6.003   6.097  1.00  0.00     0.145 C 
HETATM   20  C13 UNL     1     -16.152   5.291   6.198  1.00  0.00     0.264 C 
HETATM   21  N6  UNL     1     -15.947   4.091   6.986  1.00  0.00    -0.066 N 
ATOM     22  H62 UNL     1     -16.441   3.278   6.618  1.00  0.00     0.277 HD
ATOM     23  H61 UNL     1     -16.410   4.120   7.895  1.00  0.00     0.277 HD
BRANCH  19  24
HETATM   24  O9  UNL     1     -14.213   5.806   4.869  1.00  0.00    -0.394 OA
ATOM     25  H9  UNL     1     -14.868   5.569   4.222  1.00  0.00     0.210 HD
ENDBRANCH  19  24
ENDBRANCH  16  17
ENDBRANCH  15  16
ENDBRANCH  12  15
ENDBRANCH  11  12
ENDBRANCH   8  11
ENDBRANCH   7   8
ENDBRANCH   6   7
ENDBRANCH   3   6
BRANCH   4  26
HETATM   26  O10 UNL     1     -11.923  -2.913  11.350  1.00  0.00    -0.390 OA
ATOM     27  H10 UNL     1     -12.288  -3.078  12.212  1.00  0.00     0.210 HD
ENDBRANCH   4  26
BRANCH   1  28
HETATM   28  N5  UNL     1      -8.562   0.226  11.567  1.00  0.00    -0.297 N 
HETATM   29  C3  UNL     1      -7.471   0.090  12.343  1.00  0.00     0.142 A 
HETATM   30  N3  UNL     1      -6.653  -0.941  12.608  1.00  0.00    -0.336 N 
HETATM   31  C4  UNL     1      -7.191   1.300  12.967  1.00  0.00     0.119 A 
HETATM   32  C2  UNL     1      -5.610  -0.796  13.445  1.00  0.00     0.183 A 
ATOM     33  H3  UNL     1      -6.825  -1.845  12.169  1.00  0.00     0.168 HD
HETATM   34  N2  UNL     1      -5.344   0.389  14.049  1.00  0.00    -0.339 N 
HETATM   35  C1  UNL     1      -6.125   1.459  13.825  1.00  0.00     0.148 A 
ATOM     36  H2  UNL     1      -4.544   0.469  14.677  1.00  0.00     0.167 HD
HETATM   37  N1  UNL     1      -5.812   2.680  14.479  1.00  0.00    -0.080 NA
HETATM   38  N4  UNL     1      -8.124   2.150  12.554  1.00  0.00    -0.346 N 
HETATM   39  C5  UNL     1      -8.958   1.498  11.703  1.00  0.00     0.188 A 
ATOM     40  H4  UNL     1      -8.202   3.129  12.829  1.00  0.00     0.167 HD
ENDBRANCH   1  28
BRANCH   5  41
HETATM   41  O11 UNL     1      -9.383  -3.162  11.091  1.00  0.00    -0.388 OA
ATOM     42  H11 UNL     1      -9.978  -3.485  10.424  1.00  0.00     0.210 HD
ENDBRANCH   5  41
TORSDOF 12
ENDMDL
