MODEL 3
REMARK VINA RESULT: -8.775321762      1.416      1.706
REMARK  12 active torsions:
REMARK  status: ('A' for Active; 'I' for Inactive)
REMARK    1  A    between atoms: N5_13  and  C6_14 
REMARK    2  A    between atoms: C7_16  and  C8_17 
REMARK    3  A    between atoms: C8_17  and  O2_18 
REMARK    4  A    between atoms: O2_18  and  P1_19 
REMARK    5  A    between atoms: P1_19  and  O5_22 
REMARK    6  A    between atoms: O5_22  and  P2_23 
REMARK    7  A    between atoms: P2_23  and  O8_26 
REMARK    8  A    between atoms: O8_26  and  C9_27 
REMARK    9  A    between atoms: C9_27  and  C10_28 
REMARK   10  A    between atoms: C12_30  and  O9_31 
REMARK   11  A    between atoms: C14_37  and  O10_38 
REMARK   12  A    between atoms: C15_40  and  O11_41 
ROOT
HETATM    1  C6  UNL     1      -9.170  -0.917  10.765  1.00  0.00     0.262 C 
HETATM    2  O1  UNL     1      -9.983  -0.052  10.083  1.00  0.00    -0.353 OA
HETATM    3  C7  UNL     1     -11.283  -0.533  10.147  1.00  0.00     0.180 C 
HETATM    4  C14 UNL     1     -11.369  -1.305  11.459  1.00  0.00     0.182 C 
HETATM    5  C15 UNL     1      -9.989  -1.925  11.500  1.00  0.00     0.198 C 
ENDROOT
BRANCH   3   6
HETATM    6  C8  UNL     1     -12.211   0.629  10.182  1.00  0.00     0.216 C 
BRANCH   6   7
HETATM    7  O2  UNL     1     -12.913   0.739  11.367  1.00  0.00    -0.287 OA
BRANCH   7   8
HETATM    8  P1  UNL     1     -14.560   0.615  11.089  1.00  0.00     0.417 P 
HETATM    9  O3  UNL     1     -15.196  -0.329   9.976  1.00  0.00    -0.624 OA
HETATM   10  O4  UNL     1     -14.638  -0.372  12.259  1.00  0.00    -0.624 OA
BRANCH   8  11
HETATM   11  O5  UNL     1     -15.503   1.707  11.939  1.00  0.00    -0.180 OA
BRANCH  11  12
HETATM   12  P2  UNL     1     -15.525   3.127  11.090  1.00  0.00     0.417 P 
HETATM   13  O6  UNL     1     -16.388   2.550   9.976  1.00  0.00    -0.624 OA
HETATM   14  O7  UNL     1     -16.790   4.208  11.430  1.00  0.00    -0.624 OA
BRANCH  12  15
HETATM   15  O8  UNL     1     -14.297   3.550  10.180  1.00  0.00    -0.287 OA
BRANCH  15  16
HETATM   16  C9  UNL     1     -14.202   4.763   9.578  1.00  0.00     0.214 C 
BRANCH  16  17
HETATM   17  C10 UNL     1     -14.369   4.589   8.082  1.00  0.00     0.212 C 
HETATM   18  C11 UNL     1     -13.888   5.808   7.321  1.00  0.00     0.068 C 
HETATM   19  C12 UNL     1     -14.519   5.586   5.965  1.00  0.00     0.145 C 
HETATM   20  C13 UNL     1     -15.839   4.977   6.326  1.00  0.00     0.264 C 
HETATM   21  N6  UNL     1     -15.769   4.552   7.711  1.00  0.00    -0.066 N 
ATOM     22  H62 UNL     1     -16.207   3.647   7.879  1.00  0.00     0.277 HD
ATOM     23  H61 UNL     1     -16.365   5.099   8.333  1.00  0.00     0.277 HD
BRANCH  19  24
HETATM   24  O9  UNL     1     -13.714   4.725   5.226  1.00  0.00    -0.394 OA
ATOM     25  H9  UNL     1     -13.650   3.893   5.680  1.00  0.00     0.210 HD
ENDBRANCH  19  24
ENDBRANCH  16  17
ENDBRANCH  15  16
ENDBRANCH  12  15
ENDBRANCH  11  12
ENDBRANCH   8  11
ENDBRANCH   7   8
ENDBRANCH   6   7
ENDBRANCH   3   6
BRANCH   4  26
HETATM   26  O10 UNL     1     -12.363  -2.277  11.282  1.00  0.00    -0.390 OA
ATOM     27  H10 UNL     1     -13.109  -1.994  11.798  1.00  0.00     0.210 HD
ENDBRANCH   4  26
BRANCH   1  28
HETATM   28  N5  UNL     1      -8.268  -0.205  11.654  1.00  0.00    -0.297 N 
HETATM   29  C3  UNL     1      -8.219   1.119  11.880  1.00  0.00     0.142 A 
HETATM   30  N3  UNL     1      -8.924   2.160  11.409  1.00  0.00    -0.336 N 
HETATM   31  C4  UNL     1      -7.213   1.397  12.798  1.00  0.00     0.119 A 
HETATM   32  C2  UNL     1      -8.657   3.415  11.816  1.00  0.00     0.183 A 
ATOM     33  H3  UNL     1      -9.671   1.998  10.735  1.00  0.00     0.168 HD
HETATM   34  N2  UNL     1      -7.673   3.676  12.713  1.00  0.00    -0.339 N 
HETATM   35  C1  UNL     1      -6.932   2.677  13.221  1.00  0.00     0.148 A 
ATOM     36  H2  UNL     1      -7.495   4.638  13.003  1.00  0.00     0.167 HD
HETATM   37  N1  UNL     1      -5.911   2.995  14.155  1.00  0.00    -0.080 NA
HETATM   38  N4  UNL     1      -6.669   0.226  13.111  1.00  0.00    -0.346 N 
HETATM   39  C5  UNL     1      -7.310  -0.748  12.416  1.00  0.00     0.188 A 
ATOM     40  H4  UNL     1      -5.899   0.083  13.764  1.00  0.00     0.167 HD
ENDBRANCH   1  28
BRANCH   5  41
HETATM   41  O11 UNL     1      -9.993  -3.172  10.877  1.00  0.00    -0.388 OA
ATOM     42  H11 UNL     1     -10.617  -3.774  11.265  1.00  0.00     0.210 HD
ENDBRANCH   5  41
TORSDOF 12
ENDMDL
