MODEL 1
REMARK VINA RESULT: -8.920777803      0.000      0.000
REMARK  12 active torsions:
REMARK  status: ('A' for Active; 'I' for Inactive)
REMARK    1  A    between atoms: N5_13  and  C6_14 
REMARK    2  A    between atoms: C7_16  and  C8_17 
REMARK    3  A    between atoms: C8_17  and  O2_18 
REMARK    4  A    between atoms: O2_18  and  P1_19 
REMARK    5  A    between atoms: P1_19  and  O5_22 
REMARK    6  A    between atoms: O5_22  and  P2_23 
REMARK    7  A    between atoms: P2_23  and  O8_26 
REMARK    8  A    between atoms: O8_26  and  C9_27 
REMARK    9  A    between atoms: C9_27  and  C10_28 
REMARK   10  A    between atoms: C12_30  and  O9_31 
REMARK   11  A    between atoms: C14_37  and  O10_38 
REMARK   12  A    between atoms: C15_40  and  O11_41 
ROOT
HETATM    1  C6  UNL     1     -10.359  -1.602  10.445  1.00  0.00     0.262 C 
HETATM    2  O1  UNL     1     -10.820  -0.416   9.937  1.00  0.00    -0.353 OA
HETATM    3  C7  UNL     1     -12.202  -0.400  10.054  1.00  0.00     0.180 C 
HETATM    4  C14 UNL     1     -12.520  -1.262  11.272  1.00  0.00     0.182 C 
HETATM    5  C15 UNL     1     -11.466  -2.337  11.125  1.00  0.00     0.198 C 
ENDROOT
BRANCH   3   6
HETATM    6  C8  UNL     1     -12.636   1.001  10.300  1.00  0.00     0.216 C 
BRANCH   6   7
HETATM    7  O2  UNL     1     -13.450   1.142  11.407  1.00  0.00    -0.287 OA
BRANCH   7   8
HETATM    8  P1  UNL     1     -15.056   1.260  10.946  1.00  0.00     0.417 P 
HETATM    9  O3  UNL     1     -15.800   0.167  10.059  1.00  0.00    -0.624 OA
HETATM   10  O4  UNL     1     -15.446   0.703  12.320  1.00  0.00    -0.624 OA
BRANCH   8  11
HETATM   11  O5  UNL     1     -15.792   2.717  11.320  1.00  0.00    -0.180 OA
BRANCH  11  12
HETATM   12  P2  UNL     1     -15.237   3.854  10.254  1.00  0.00     0.417 P 
HETATM   13  O6  UNL     1     -16.193   4.926  10.765  1.00  0.00    -0.624 OA
HETATM   14  O7  UNL     1     -13.953   4.836  10.774  1.00  0.00    -0.624 OA
BRANCH  12  15
HETATM   15  O8  UNL     1     -15.730   3.864   8.747  1.00  0.00    -0.287 OA
BRANCH  15  16
HETATM   16  C9  UNL     1     -14.989   3.372   7.721  1.00  0.00     0.214 C 
BRANCH  16  17
HETATM   17  C10 UNL     1     -15.075   4.324   6.545  1.00  0.00     0.212 C 
HETATM   18  C11 UNL     1     -14.259   5.579   6.782  1.00  0.00     0.068 C 
HETATM   19  C12 UNL     1     -14.816   6.505   5.726  1.00  0.00     0.145 C 
HETATM   20  C13 UNL     1     -16.267   6.134   5.712  1.00  0.00     0.264 C 
HETATM   21  N6  UNL     1     -16.409   4.869   6.408  1.00  0.00    -0.066 N 
ATOM     22  H62 UNL     1     -17.062   4.230   5.955  1.00  0.00     0.277 HD
ATOM     23  H61 UNL     1     -16.905   4.950   7.296  1.00  0.00     0.277 HD
BRANCH  19  24
HETATM   24  O9  UNL     1     -14.183   6.243   4.513  1.00  0.00    -0.394 OA
ATOM     25  H9  UNL     1     -14.360   6.956   3.911  1.00  0.00     0.210 HD
ENDBRANCH  19  24
ENDBRANCH  16  17
ENDBRANCH  15  16
ENDBRANCH  12  15
ENDBRANCH  11  12
ENDBRANCH   8  11
ENDBRANCH   7   8
ENDBRANCH   6   7
ENDBRANCH   3   6
BRANCH   4  26
HETATM   26  O10 UNL     1     -13.808  -1.776  11.067  1.00  0.00    -0.390 OA
ATOM     27  H10 UNL     1     -14.376  -1.330  11.685  1.00  0.00     0.210 HD
ENDBRANCH   4  26
BRANCH   1  28
HETATM   28  N5  UNL     1      -9.228  -1.393  11.331  1.00  0.00    -0.297 N 
HETATM   29  C3  UNL     1      -8.491  -0.276  11.468  1.00  0.00     0.142 A 
HETATM   30  N3  UNL     1      -8.537   0.934  10.889  1.00  0.00    -0.336 N 
HETATM   31  C4  UNL     1      -7.499  -0.487  12.419  1.00  0.00     0.119 A 
HETATM   32  C2  UNL     1      -7.655   1.893  11.222  1.00  0.00     0.183 A 
ATOM     33  H3  UNL     1      -9.251   1.129  10.187  1.00  0.00     0.168 HD
HETATM   34  N2  UNL     1      -6.690   1.677  12.152  1.00  0.00    -0.339 N 
HETATM   35  C1  UNL     1      -6.591   0.487  12.768  1.00  0.00     0.148 A 
ATOM     36  H2  UNL     1      -6.036   2.425  12.385  1.00  0.00     0.167 HD
HETATM   37  N1  UNL     1      -5.566   0.304  13.733  1.00  0.00    -0.080 NA
HETATM   38  N4  UNL     1      -7.657  -1.737  12.841  1.00  0.00    -0.346 N 
HETATM   39  C5  UNL     1      -8.707  -2.288  12.180  1.00  0.00     0.188 A 
ATOM     40  H4  UNL     1      -7.085  -2.204  13.544  1.00  0.00     0.167 HD
ENDBRANCH   1  28
BRANCH   5  41
HETATM   41  O11 UNL     1     -11.951  -3.400  10.365  1.00  0.00    -0.388 OA
ATOM     42  H11 UNL     1     -12.413  -4.044  10.888  1.00  0.00     0.210 HD
ENDBRANCH   5  41
TORSDOF 12
ENDMDL
