MODEL 6
REMARK VINA RESULT: -5.666187052      0.717      3.951
REMARK  4 active torsions:
REMARK  status: ('A' for Active; 'I' for Inactive)
REMARK    1  A    between atoms: C1_2  and  C2_4 
REMARK    2  A    between atoms: C2_4  and  C3_5 
REMARK    3  A    between atoms: C3_5  and  O3_6 
REMARK    4  A    between atoms: C3_5  and  C4_8 
ROOT
HETATM    1  C3  UNL     1      10.668  31.706   1.868  1.00  0.00     0.228 C 
ENDROOT
BRANCH   1   2
HETATM    2  C2  UNL     1      11.245  32.533   2.973  1.00  0.00     0.156 C 
BRANCH   2   3
HETATM    3  C1  UNL     1      12.487  33.240   2.660  1.00  0.00     0.175 C 
HETATM    4  O1  UNL     1      13.335  32.621   1.962  1.00  0.00    -0.648 OA
HETATM    5  O2  UNL     1      12.812  34.514   3.056  1.00  0.00    -0.648 OA
ENDBRANCH   2   3
ENDBRANCH   1   2
BRANCH   1   6
HETATM    6  O3  UNL     1      11.556  30.611   1.721  1.00  0.00    -0.384 OA
ATOM      7  H3  UNL     1      12.311  30.963   1.263  1.00  0.00     0.210 HD
ENDBRANCH   1   6
BRANCH   1   8
HETATM    8  C4  UNL     1       9.345  31.141   2.175  1.00  0.00     0.203 C 
HETATM    9  O4  UNL     1       8.982  30.032   1.686  1.00  0.00    -0.646 OA
HETATM   10  O5  UNL     1       8.396  31.746   3.001  1.00  0.00    -0.646 OA
ENDBRANCH   1   8
TORSDOF 4
ENDMDL
