MODEL 20
REMARK VINA RESULT: -4.019251978      9.951     10.538
REMARK  4 active torsions:
REMARK  status: ('A' for Active; 'I' for Inactive)
REMARK    1  A    between atoms: C1_2  and  C2_4 
REMARK    2  A    between atoms: C2_4  and  C3_5 
REMARK    3  A    between atoms: C3_5  and  O3_6 
REMARK    4  A    between atoms: C3_5  and  C4_8 
ROOT
HETATM    1  C3  UNL     1       5.830  39.454  -1.212  1.00  0.00     0.228 C 
ENDROOT
BRANCH   1   2
HETATM    2  C2  UNL     1       4.704  40.354  -1.612  1.00  0.00     0.156 C 
BRANCH   2   3
HETATM    3  C1  UNL     1       3.772  39.810  -2.600  1.00  0.00     0.175 C 
HETATM    4  O1  UNL     1       3.979  40.112  -3.806  1.00  0.00    -0.648 OA
HETATM    5  O2  UNL     1       2.694  39.003  -2.333  1.00  0.00    -0.648 OA
ENDBRANCH   2   3
ENDBRANCH   1   2
BRANCH   1   6
HETATM    6  O3  UNL     1       5.236  38.181  -1.017  1.00  0.00    -0.384 OA
ATOM      7  H3  UNL     1       4.678  38.048  -1.775  1.00  0.00     0.210 HD
ENDBRANCH   1   6
BRANCH   1   8
HETATM    8  C4  UNL     1       6.858  39.288  -2.250  1.00  0.00     0.203 C 
HETATM    9  O4  UNL     1       7.651  40.231  -2.538  1.00  0.00    -0.646 OA
HETATM   10  O5  UNL     1       7.055  38.122  -2.992  1.00  0.00    -0.646 OA
ENDBRANCH   1   8
TORSDOF 4
ENDMDL
