MODEL 8
REMARK VINA RESULT: -5.650780877      0.944      4.199
REMARK  4 active torsions:
REMARK  status: ('A' for Active; 'I' for Inactive)
REMARK    1  A    between atoms: C1_2  and  C2_4 
REMARK    2  A    between atoms: C2_4  and  C3_5 
REMARK    3  A    between atoms: C3_5  and  O3_6 
REMARK    4  A    between atoms: C3_5  and  C4_8 
ROOT
HETATM    1  C3  UNL     1      10.237  31.966   2.975  1.00  0.00     0.228 C 
ENDROOT
BRANCH   1   2
HETATM    2  C2  UNL     1      11.508  31.825   2.200  1.00  0.00     0.156 C 
BRANCH   2   3
HETATM    3  C1  UNL     1      12.532  32.836   2.463  1.00  0.00     0.175 C 
HETATM    4  O1  UNL     1      13.641  32.690   1.881  1.00  0.00    -0.648 OA
HETATM    5  O2  UNL     1      12.395  33.928   3.284  1.00  0.00    -0.648 OA
ENDBRANCH   2   3
ENDBRANCH   1   2
BRANCH   1   6
HETATM    6  O3  UNL     1       9.814  33.301   2.755  1.00  0.00    -0.384 OA
ATOM      7  H3  UNL     1       9.463  33.309   1.872  1.00  0.00     0.210 HD
ENDBRANCH   1   6
BRANCH   1   8
HETATM    8  C4  UNL     1       9.151  31.094   2.504  1.00  0.00     0.203 C 
HETATM    9  O4  UNL     1       8.321  30.591   3.316  1.00  0.00    -0.646 OA
HETATM   10  O5  UNL     1       8.935  30.747   1.169  1.00  0.00    -0.646 OA
ENDBRANCH   1   8
TORSDOF 4
ENDMDL
