MODEL 5
REMARK VINA RESULT: -5.667290264      1.023      4.233
REMARK  4 active torsions:
REMARK  status: ('A' for Active; 'I' for Inactive)
REMARK    1  A    between atoms: C1_2  and  C2_4 
REMARK    2  A    between atoms: C2_4  and  C3_5 
REMARK    3  A    between atoms: C3_5  and  O3_6 
REMARK    4  A    between atoms: C3_5  and  C4_8 
ROOT
HETATM    1  C3  UNL     1      10.322  32.033   2.904  1.00  0.00     0.228 C 
ENDROOT
BRANCH   1   2
HETATM    2  C2  UNL     1      11.595  31.978   2.121  1.00  0.00     0.156 C 
BRANCH   2   3
HETATM    3  C1  UNL     1      12.614  32.961   2.489  1.00  0.00     0.175 C 
HETATM    4  O1  UNL     1      12.287  33.829   3.342  1.00  0.00    -0.648 OA
HETATM    5  O2  UNL     1      13.892  33.022   1.991  1.00  0.00    -0.648 OA
ENDBRANCH   2   3
ENDBRANCH   1   2
BRANCH   1   6
HETATM    6  O3  UNL     1       9.752  33.295   2.597  1.00  0.00    -0.384 OA
ATOM      7  H3  UNL     1       9.285  33.165   1.780  1.00  0.00     0.210 HD
ENDBRANCH   1   6
BRANCH   1   8
HETATM    8  C4  UNL     1       9.336  31.016   2.512  1.00  0.00     0.203 C 
HETATM    9  O4  UNL     1       9.085  30.788   1.293  1.00  0.00    -0.646 OA
HETATM   10  O5  UNL     1       8.606  30.231   3.407  1.00  0.00    -0.646 OA
ENDBRANCH   1   8
TORSDOF 4
ENDMDL
