MODEL 3
REMARK VINA RESULT: -5.805556879      0.714      4.026
REMARK  4 active torsions:
REMARK  status: ('A' for Active; 'I' for Inactive)
REMARK    1  A    between atoms: C1_2  and  C2_4 
REMARK    2  A    between atoms: C2_4  and  C3_5 
REMARK    3  A    between atoms: C3_5  and  O3_6 
REMARK    4  A    between atoms: C3_5  and  C4_8 
ROOT
HETATM    1  C3  UNL     1      10.617  31.722   1.844  1.00  0.00     0.228 C 
ENDROOT
BRANCH   1   2
HETATM    2  C2  UNL     1      11.123  32.682   2.873  1.00  0.00     0.156 C 
BRANCH   2   3
HETATM    3  C1  UNL     1      12.462  33.223   2.638  1.00  0.00     0.175 C 
HETATM    4  O1  UNL     1      12.721  34.345   3.150  1.00  0.00    -0.648 OA
HETATM    5  O2  UNL     1      13.460  32.619   1.913  1.00  0.00    -0.648 OA
ENDBRANCH   2   3
ENDBRANCH   1   2
BRANCH   1   6
HETATM    6  O3  UNL     1      11.581  30.683   1.800  1.00  0.00    -0.384 OA
ATOM      7  H3  UNL     1      11.543  30.272   2.656  1.00  0.00     0.210 HD
ENDBRANCH   1   6
BRANCH   1   8
HETATM    8  C4  UNL     1       9.334  31.095   2.192  1.00  0.00     0.203 C 
HETATM    9  O4  UNL     1       9.021  29.956   1.739  1.00  0.00    -0.646 OA
HETATM   10  O5  UNL     1       8.370  31.669   3.024  1.00  0.00    -0.646 OA
ENDBRANCH   1   8
TORSDOF 4
ENDMDL
