MODEL 11
REMARK VINA RESULT: -6.768400002      1.644      6.224
REMARK  12 active torsions:
REMARK  status: ('A' for Active; 'I' for Inactive)
REMARK    1  A    between atoms: C1_2  and  C2_4 
REMARK    2  A    between atoms: N1_9  and  C6_10 
REMARK    3  A    between atoms: C6_10  and  C7_11 
REMARK    4  A    between atoms: C7_11  and  O4_12 
REMARK    5  A    between atoms: C7_11  and  C8_14 
REMARK    6  A    between atoms: C8_14  and  O5_15 
REMARK    7  A    between atoms: C8_14  and  C9_17 
REMARK    8  A    between atoms: C9_17  and  O6_18 
REMARK    9  A    between atoms: C9_17  and  C10_20 
REMARK   10  A    between atoms: C10_20  and  O7_21 
REMARK   11  A    between atoms: C10_20  and  C11_23 
REMARK   12  A    between atoms: C11_23  and  O8_24 
ROOT
HETATM    1  C7  UNL     1      85.614 -31.208  -0.148  1.00  0.00     0.167 C 
ENDROOT
BRANCH   1   2
HETATM    2  C6  UNL     1      85.387 -29.851   0.455  1.00  0.00     0.161 C 
BRANCH   2   3
HETATM    3  N1  UNL     1      85.281 -29.825   1.882  1.00  0.00    -0.335 N 
HETATM    4  C2  UNL     1      84.442 -30.665   2.683  1.00  0.00     0.188 C 
HETATM    5  C3  UNL     1      84.710 -30.305   4.094  1.00  0.00     0.045 C 
HETATM    6  C4  UNL     1      86.081 -29.681   4.093  1.00  0.00     0.105 C 
HETATM    7  C5  UNL     1      86.003 -28.967   2.762  1.00  0.00     0.220 C 
HETATM    8  O3  UNL     1      86.449 -27.857   2.421  1.00  0.00    -0.273 OA
BRANCH   4   9
HETATM    9  C1  UNL     1      83.006 -30.554   2.329  1.00  0.00     0.196 C 
HETATM   10  O1  UNL     1      82.262 -29.800   2.985  1.00  0.00    -0.646 OA
HETATM   11  O2  UNL     1      82.506 -31.277   1.286  1.00  0.00    -0.646 OA
ENDBRANCH   4   9
ENDBRANCH   2   3
ENDBRANCH   1   2
BRANCH   1  12
HETATM   12  O4  UNL     1      84.413 -31.557  -0.818  1.00  0.00    -0.391 OA
ATOM     13  H4  UNL     1      84.667 -32.067  -1.577  1.00  0.00     0.210 HD
ENDBRANCH   1  12
BRANCH   1  14
HETATM   14  C8  UNL     1      86.651 -31.131  -1.247  1.00  0.00     0.179 C 
BRANCH  14  15
HETATM   15  O5  UNL     1      86.354 -31.919  -2.347  1.00  0.00    -0.390 OA
ATOM     16  H5  UNL     1      85.795 -32.659  -2.144  1.00  0.00     0.210 HD
ENDBRANCH  14  15
BRANCH  14  17
HETATM   17  C9  UNL     1      86.840 -29.711  -1.733  1.00  0.00     0.180 C 
BRANCH  17  18
HETATM   18  O6  UNL     1      85.656 -29.215  -2.272  1.00  0.00    -0.390 OA
ATOM     19  H6  UNL     1      85.795 -28.912  -3.161  1.00  0.00     0.210 HD
ENDBRANCH  17  18
BRANCH  17  20
HETATM   20  C10 UNL     1      87.918 -29.727  -2.807  1.00  0.00     0.173 C 
BRANCH  20  21
HETATM   21  O7  UNL     1      88.897 -30.669  -2.526  1.00  0.00    -0.391 OA
ATOM     22  H7  UNL     1      88.854 -31.402  -3.128  1.00  0.00     0.210 HD
ENDBRANCH  20  21
BRANCH  20  23
HETATM   23  C11 UNL     1      88.609 -28.382  -2.899  1.00  0.00     0.198 C 
BRANCH  23  24
HETATM   24  O8  UNL     1      87.678 -27.405  -2.569  1.00  0.00    -0.398 OA
ATOM     25  H8  UNL     1      87.934 -26.603  -3.007  1.00  0.00     0.209 HD
ENDBRANCH  23  24
ENDBRANCH  20  23
ENDBRANCH  17  20
ENDBRANCH  14  17
ENDBRANCH   1  14
TORSDOF 12
ENDMDL
