MODEL 16
REMARK VINA RESULT: -6.262774292      1.682      5.926
REMARK  12 active torsions:
REMARK  status: ('A' for Active; 'I' for Inactive)
REMARK    1  A    between atoms: C1_2  and  C2_4 
REMARK    2  A    between atoms: N1_9  and  C6_10 
REMARK    3  A    between atoms: C6_10  and  C7_11 
REMARK    4  A    between atoms: C7_11  and  O4_12 
REMARK    5  A    between atoms: C7_11  and  C8_14 
REMARK    6  A    between atoms: C8_14  and  O5_15 
REMARK    7  A    between atoms: C8_14  and  C9_17 
REMARK    8  A    between atoms: C9_17  and  O6_18 
REMARK    9  A    between atoms: C9_17  and  C10_20 
REMARK   10  A    between atoms: C10_20  and  O7_21 
REMARK   11  A    between atoms: C10_20  and  C11_23 
REMARK   12  A    between atoms: C11_23  and  O8_24 
ROOT
HETATM    1  C7  UNL     1      85.965 -28.686  -0.605  1.00  0.00     0.167 C 
ENDROOT
BRANCH   1   2
HETATM    2  C6  UNL     1      86.047 -29.783   0.419  1.00  0.00     0.161 C 
BRANCH   2   3
HETATM    3  N1  UNL     1      84.811 -30.112   1.062  1.00  0.00    -0.335 N 
HETATM    4  C2  UNL     1      84.330 -29.567   2.296  1.00  0.00     0.188 C 
HETATM    5  C3  UNL     1      82.998 -30.170   2.531  1.00  0.00     0.045 C 
HETATM    6  C4  UNL     1      82.510 -30.600   1.172  1.00  0.00     0.105 C 
HETATM    7  C5  UNL     1      83.834 -31.032   0.583  1.00  0.00     0.220 C 
HETATM    8  O3  UNL     1      84.102 -31.983  -0.173  1.00  0.00    -0.273 OA
BRANCH   4   9
HETATM    9  C1  UNL     1      85.262 -29.787   3.428  1.00  0.00     0.196 C 
HETATM   10  O1  UNL     1      85.146 -30.804   4.140  1.00  0.00    -0.646 OA
HETATM   11  O2  UNL     1      86.243 -28.875   3.686  1.00  0.00    -0.646 OA
ENDBRANCH   4   9
ENDBRANCH   2   3
ENDBRANCH   1   2
BRANCH   1  12
HETATM   12  O4  UNL     1      87.060 -27.818  -0.351  1.00  0.00    -0.391 OA
ATOM     13  H4  UNL     1      87.028 -27.144  -1.019  1.00  0.00     0.210 HD
ENDBRANCH   1  12
BRANCH   1  14
HETATM   14  C8  UNL     1      86.232 -29.236  -1.989  1.00  0.00     0.179 C 
BRANCH  14  15
HETATM   15  O5  UNL     1      86.288 -28.262  -2.972  1.00  0.00    -0.390 OA
ATOM     16  H5  UNL     1      85.434 -27.958  -3.255  1.00  0.00     0.210 HD
ENDBRANCH  14  15
BRANCH  14  17
HETATM   17  C9  UNL     1      87.527 -30.016  -2.037  1.00  0.00     0.180 C 
BRANCH  17  18
HETATM   18  O6  UNL     1      88.483 -29.333  -2.784  1.00  0.00    -0.390 OA
ATOM     19  H6  UNL     1      89.265 -29.179  -2.267  1.00  0.00     0.210 HD
ENDBRANCH  17  18
BRANCH  17  20
HETATM   20  C10 UNL     1      87.237 -31.358  -2.690  1.00  0.00     0.173 C 
BRANCH  20  21
HETATM   21  O7  UNL     1      86.144 -31.980  -2.104  1.00  0.00    -0.391 OA
ATOM     22  H7  UNL     1      85.371 -31.908  -2.650  1.00  0.00     0.210 HD
ENDBRANCH  20  21
BRANCH  20  23
HETATM   23  C11 UNL     1      88.417 -32.298  -2.541  1.00  0.00     0.198 C 
BRANCH  23  24
HETATM   24  O8  UNL     1      87.999 -33.564  -2.928  1.00  0.00    -0.398 OA
ATOM     25  H8  UNL     1      88.402 -34.193  -2.342  1.00  0.00     0.209 HD
ENDBRANCH  23  24
ENDBRANCH  20  23
ENDBRANCH  17  20
ENDBRANCH  14  17
ENDBRANCH   1  14
TORSDOF 12
ENDMDL
