MODEL 13
REMARK VINA RESULT: -6.499802989      1.881      6.140
REMARK  12 active torsions:
REMARK  status: ('A' for Active; 'I' for Inactive)
REMARK    1  A    between atoms: C1_2  and  C2_4 
REMARK    2  A    between atoms: N1_9  and  C6_10 
REMARK    3  A    between atoms: C6_10  and  C7_11 
REMARK    4  A    between atoms: C7_11  and  O4_12 
REMARK    5  A    between atoms: C7_11  and  C8_14 
REMARK    6  A    between atoms: C8_14  and  O5_15 
REMARK    7  A    between atoms: C8_14  and  C9_17 
REMARK    8  A    between atoms: C9_17  and  O6_18 
REMARK    9  A    between atoms: C9_17  and  C10_20 
REMARK   10  A    between atoms: C10_20  and  O7_21 
REMARK   11  A    between atoms: C10_20  and  C11_23 
REMARK   12  A    between atoms: C11_23  and  O8_24 
ROOT
HETATM    1  C7  UNL     1      85.119 -31.350   0.093  1.00  0.00     0.167 C 
ENDROOT
BRANCH   1   2
HETATM    2  C6  UNL     1      84.476 -30.185   0.790  1.00  0.00     0.161 C 
BRANCH   2   3
HETATM    3  N1  UNL     1      84.915 -29.957   2.134  1.00  0.00    -0.335 N 
HETATM    4  C2  UNL     1      84.485 -30.675   3.296  1.00  0.00     0.188 C 
HETATM    5  C3  UNL     1      85.246 -30.118   4.438  1.00  0.00     0.045 C 
HETATM    6  C4  UNL     1      86.480 -29.500   3.834  1.00  0.00     0.105 C 
HETATM    7  C5  UNL     1      85.867 -28.982   2.552  1.00  0.00     0.220 C 
HETATM    8  O3  UNL     1      86.091 -27.931   1.924  1.00  0.00    -0.273 OA
BRANCH   4   9
HETATM    9  C1  UNL     1      83.019 -30.615   3.504  1.00  0.00     0.196 C 
HETATM   10  O1  UNL     1      82.306 -29.958   2.721  1.00  0.00    -0.646 OA
HETATM   11  O2  UNL     1      82.455 -31.281   4.553  1.00  0.00    -0.646 OA
ENDBRANCH   4   9
ENDBRANCH   2   3
ENDBRANCH   1   2
BRANCH   1  12
HETATM   12  O4  UNL     1      84.095 -31.986  -0.655  1.00  0.00    -0.391 OA
ATOM     13  H4  UNL     1      84.407 -32.034  -1.550  1.00  0.00     0.210 HD
ENDBRANCH   1  12
BRANCH   1  14
HETATM   14  C8  UNL     1      86.102 -30.864  -0.950  1.00  0.00     0.179 C 
BRANCH  14  15
HETATM   15  O5  UNL     1      86.076 -31.600  -2.122  1.00  0.00    -0.390 OA
ATOM     16  H5  UNL     1      86.464 -32.463  -2.038  1.00  0.00     0.210 HD
ENDBRANCH  14  15
BRANCH  14  17
HETATM   17  C9  UNL     1      85.859 -29.415  -1.308  1.00  0.00     0.180 C 
BRANCH  17  18
HETATM   18  O6  UNL     1      85.249 -29.314  -2.555  1.00  0.00    -0.390 OA
ATOM     19  H6  UNL     1      84.364 -29.658  -2.524  1.00  0.00     0.210 HD
ENDBRANCH  17  18
BRANCH  17  20
HETATM   20  C10 UNL     1      87.209 -28.713  -1.346  1.00  0.00     0.173 C 
BRANCH  20  21
HETATM   21  O7  UNL     1      87.166 -27.500  -0.675  1.00  0.00    -0.391 OA
ATOM     22  H7  UNL     1      86.391 -27.003  -0.907  1.00  0.00     0.210 HD
ENDBRANCH  20  21
BRANCH  20  23
HETATM   23  C11 UNL     1      87.624 -28.418  -2.774  1.00  0.00     0.198 C 
BRANCH  23  24
HETATM   24  O8  UNL     1      88.089 -29.602  -3.331  1.00  0.00    -0.398 OA
ATOM     25  H8  UNL     1      87.393 -29.962  -3.867  1.00  0.00     0.209 HD
ENDBRANCH  23  24
ENDBRANCH  20  23
ENDBRANCH  17  20
ENDBRANCH  14  17
ENDBRANCH   1  14
TORSDOF 12
ENDMDL
