MODEL 7
REMARK VINA RESULT: -7.745295066      1.262      2.360
REMARK  12 active torsions:
REMARK  status: ('A' for Active; 'I' for Inactive)
REMARK    1  A    between atoms: C1_2  and  C2_4 
REMARK    2  A    between atoms: N1_9  and  C6_10 
REMARK    3  A    between atoms: C6_10  and  C7_11 
REMARK    4  A    between atoms: C7_11  and  O4_12 
REMARK    5  A    between atoms: C7_11  and  C8_14 
REMARK    6  A    between atoms: C8_14  and  O5_15 
REMARK    7  A    between atoms: C8_14  and  C9_17 
REMARK    8  A    between atoms: C9_17  and  O6_18 
REMARK    9  A    between atoms: C9_17  and  C10_20 
REMARK   10  A    between atoms: C10_20  and  O7_21 
REMARK   11  A    between atoms: C10_20  and  C11_23 
REMARK   12  A    between atoms: C11_23  and  O8_24 
ROOT
HETATM    1  C7  UNL     1      84.871 -30.316   0.367  1.00  0.00     0.167 C 
ENDROOT
BRANCH   1   2
HETATM    2  C6  UNL     1      86.112 -29.513   0.104  1.00  0.00     0.161 C 
BRANCH   2   3
HETATM    3  N1  UNL     1      86.764 -29.785  -1.142  1.00  0.00    -0.335 N 
HETATM    4  C2  UNL     1      87.413 -28.823  -1.982  1.00  0.00     0.188 C 
HETATM    5  C3  UNL     1      87.977 -29.577  -3.125  1.00  0.00     0.045 C 
HETATM    6  C4  UNL     1      88.127 -30.993  -2.634  1.00  0.00     0.105 C 
HETATM    7  C5  UNL     1      86.894 -31.061  -1.761  1.00  0.00     0.220 C 
HETATM    8  O3  UNL     1      86.101 -32.000  -1.567  1.00  0.00    -0.273 OA
BRANCH   4   9
HETATM    9  C1  UNL     1      86.512 -27.727  -2.411  1.00  0.00     0.196 C 
HETATM   10  O1  UNL     1      85.397 -27.995  -2.899  1.00  0.00    -0.646 OA
HETATM   11  O2  UNL     1      86.907 -26.429  -2.268  1.00  0.00    -0.646 OA
ENDBRANCH   4   9
ENDBRANCH   2   3
ENDBRANCH   1   2
BRANCH   1  12
HETATM   12  O4  UNL     1      85.298 -31.534   0.958  1.00  0.00    -0.391 OA
ATOM     13  H4  UNL     1      84.664 -31.741   1.634  1.00  0.00     0.210 HD
ENDBRANCH   1  12
BRANCH   1  14
HETATM   14  C8  UNL     1      84.030 -29.653   1.436  1.00  0.00     0.179 C 
BRANCH  14  15
HETATM   15  O5  UNL     1      82.672 -29.890   1.301  1.00  0.00    -0.390 OA
ATOM     16  H5  UNL     1      82.155 -29.099   1.204  1.00  0.00     0.210 HD
ENDBRANCH  14  15
BRANCH  14  17
HETATM   17  C9  UNL     1      84.441 -30.097   2.822  1.00  0.00     0.180 C 
BRANCH  17  18
HETATM   18  O6  UNL     1      83.363 -30.026   3.699  1.00  0.00    -0.390 OA
ATOM     19  H6  UNL     1      83.623 -30.297   4.572  1.00  0.00     0.210 HD
ENDBRANCH  17  18
BRANCH  17  20
HETATM   20  C10 UNL     1      85.545 -29.165   3.299  1.00  0.00     0.173 C 
BRANCH  20  21
HETATM   21  O7  UNL     1      85.930 -29.463   4.598  1.00  0.00    -0.391 OA
ATOM     22  H7  UNL     1      86.482 -28.780   4.961  1.00  0.00     0.210 HD
ENDBRANCH  20  21
BRANCH  20  23
HETATM   23  C11 UNL     1      85.077 -27.724   3.293  1.00  0.00     0.198 C 
BRANCH  23  24
HETATM   24  O8  UNL     1      84.743 -27.383   4.597  1.00  0.00    -0.398 OA
ATOM     25  H8  UNL     1      83.799 -27.450   4.680  1.00  0.00     0.209 HD
ENDBRANCH  23  24
ENDBRANCH  20  23
ENDBRANCH  17  20
ENDBRANCH  14  17
ENDBRANCH   1  14
TORSDOF 12
ENDMDL
