MODEL 5
REMARK VINA RESULT: -7.829181711      1.304      2.532
REMARK  12 active torsions:
REMARK  status: ('A' for Active; 'I' for Inactive)
REMARK    1  A    between atoms: C1_2  and  C2_4 
REMARK    2  A    between atoms: N1_9  and  C6_10 
REMARK    3  A    between atoms: C6_10  and  C7_11 
REMARK    4  A    between atoms: C7_11  and  O4_12 
REMARK    5  A    between atoms: C7_11  and  C8_14 
REMARK    6  A    between atoms: C8_14  and  O5_15 
REMARK    7  A    between atoms: C8_14  and  C9_17 
REMARK    8  A    between atoms: C9_17  and  O6_18 
REMARK    9  A    between atoms: C9_17  and  C10_20 
REMARK   10  A    between atoms: C10_20  and  O7_21 
REMARK   11  A    between atoms: C10_20  and  C11_23 
REMARK   12  A    between atoms: C11_23  and  O8_24 
ROOT
HETATM    1  C7  UNL     1      85.830 -29.653   0.930  1.00  0.00     0.167 C 
ENDROOT
BRANCH   1   2
HETATM    2  C6  UNL     1      85.468 -29.964  -0.494  1.00  0.00     0.161 C 
BRANCH   2   3
HETATM    3  N1  UNL     1      86.563 -29.967  -1.418  1.00  0.00    -0.335 N 
HETATM    4  C2  UNL     1      87.337 -28.829  -1.813  1.00  0.00     0.188 C 
HETATM    5  C3  UNL     1      88.379 -29.331  -2.739  1.00  0.00     0.045 C 
HETATM    6  C4  UNL     1      88.530 -30.794  -2.414  1.00  0.00     0.105 C 
HETATM    7  C5  UNL     1      87.084 -31.106  -2.098  1.00  0.00     0.220 C 
HETATM    8  O3  UNL     1      86.411 -32.122  -2.345  1.00  0.00    -0.273 OA
BRANCH   4   9
HETATM    9  C1  UNL     1      86.516 -27.749  -2.411  1.00  0.00     0.196 C 
HETATM   10  O1  UNL     1      86.884 -26.562  -2.315  1.00  0.00    -0.646 OA
HETATM   11  O2  UNL     1      85.360 -28.059  -3.065  1.00  0.00    -0.646 OA
ENDBRANCH   4   9
ENDBRANCH   2   3
ENDBRANCH   1   2
BRANCH   1  12
HETATM   12  O4  UNL     1      86.383 -28.346   0.927  1.00  0.00    -0.391 OA
ATOM     13  H4  UNL     1      87.309 -28.446   0.741  1.00  0.00     0.210 HD
ENDBRANCH   1  12
BRANCH   1  14
HETATM   14  C8  UNL     1      84.583 -29.534   1.778  1.00  0.00     0.179 C 
BRANCH  14  15
HETATM   15  O5  UNL     1      83.462 -30.107   1.200  1.00  0.00    -0.390 OA
ATOM     16  H5  UNL     1      83.208 -30.931   1.598  1.00  0.00     0.210 HD
ENDBRANCH  14  15
BRANCH  14  17
HETATM   17  C9  UNL     1      84.775 -30.163   3.139  1.00  0.00     0.180 C 
BRANCH  17  18
HETATM   18  O6  UNL     1      83.602 -30.083   3.886  1.00  0.00    -0.390 OA
ATOM     19  H6  UNL     1      83.769 -29.677   4.729  1.00  0.00     0.210 HD
ENDBRANCH  17  18
BRANCH  17  20
HETATM   20  C10 UNL     1      85.882 -29.401   3.852  1.00  0.00     0.173 C 
BRANCH  20  21
HETATM   21  O7  UNL     1      86.163 -29.958   5.091  1.00  0.00    -0.391 OA
ATOM     22  H7  UNL     1      86.659 -30.763   5.003  1.00  0.00     0.210 HD
ENDBRANCH  20  21
BRANCH  20  23
HETATM   23  C11 UNL     1      85.477 -27.960   4.094  1.00  0.00     0.198 C 
BRANCH  23  24
HETATM   24  O8  UNL     1      86.336 -27.435   5.050  1.00  0.00    -0.398 OA
ATOM     25  H8  UNL     1      86.072 -27.779   5.895  1.00  0.00     0.209 HD
ENDBRANCH  23  24
ENDBRANCH  20  23
ENDBRANCH  17  20
ENDBRANCH  14  17
ENDBRANCH   1  14
TORSDOF 12
ENDMDL
