MODEL 3
REMARK VINA RESULT: -7.937774857      1.242      2.571
REMARK  12 active torsions:
REMARK  status: ('A' for Active; 'I' for Inactive)
REMARK    1  A    between atoms: C1_2  and  C2_4 
REMARK    2  A    between atoms: N1_9  and  C6_10 
REMARK    3  A    between atoms: C6_10  and  C7_11 
REMARK    4  A    between atoms: C7_11  and  O4_12 
REMARK    5  A    between atoms: C7_11  and  C8_14 
REMARK    6  A    between atoms: C8_14  and  O5_15 
REMARK    7  A    between atoms: C8_14  and  C9_17 
REMARK    8  A    between atoms: C9_17  and  O6_18 
REMARK    9  A    between atoms: C9_17  and  C10_20 
REMARK   10  A    between atoms: C10_20  and  O7_21 
REMARK   11  A    between atoms: C10_20  and  C11_23 
REMARK   12  A    between atoms: C11_23  and  O8_24 
ROOT
HETATM    1  C7  UNL     1      84.716 -30.322   0.211  1.00  0.00     0.167 C 
ENDROOT
BRANCH   1   2
HETATM    2  C6  UNL     1      86.009 -29.568   0.079  1.00  0.00     0.161 C 
BRANCH   2   3
HETATM    3  N1  UNL     1      86.725 -29.788  -1.141  1.00  0.00    -0.335 N 
HETATM    4  C2  UNL     1      87.397 -28.791  -1.918  1.00  0.00     0.188 C 
HETATM    5  C3  UNL     1      88.029 -29.499  -3.055  1.00  0.00     0.045 C 
HETATM    6  C4  UNL     1      88.180 -30.927  -2.602  1.00  0.00     0.105 C 
HETATM    7  C5  UNL     1      86.907 -31.043  -1.793  1.00  0.00     0.220 C 
HETATM    8  O3  UNL     1      86.122 -31.999  -1.667  1.00  0.00    -0.273 OA
BRANCH   4   9
HETATM    9  C1  UNL     1      86.499 -27.696  -2.356  1.00  0.00     0.196 C 
HETATM   10  O1  UNL     1      86.885 -26.512  -2.290  1.00  0.00    -0.646 OA
HETATM   11  O2  UNL     1      85.255 -27.988  -2.831  1.00  0.00    -0.646 OA
ENDBRANCH   4   9
ENDBRANCH   2   3
ENDBRANCH   1   2
BRANCH   1  12
HETATM   12  O4  UNL     1      85.041 -31.575   0.794  1.00  0.00    -0.391 OA
ATOM     13  H4  UNL     1      84.516 -32.225   0.342  1.00  0.00     0.210 HD
ENDBRANCH   1  12
BRANCH   1  14
HETATM   14  C8  UNL     1      83.816 -29.654   1.227  1.00  0.00     0.179 C 
BRANCH  14  15
HETATM   15  O5  UNL     1      82.471 -29.721   0.906  1.00  0.00    -0.390 OA
ATOM     16  H5  UNL     1      82.096 -28.885   0.659  1.00  0.00     0.210 HD
ENDBRANCH  14  15
BRANCH  14  17
HETATM   17  C9  UNL     1      83.994 -30.252   2.604  1.00  0.00     0.180 C 
BRANCH  17  18
HETATM   18  O6  UNL     1      82.790 -30.768   3.074  1.00  0.00    -0.390 OA
ATOM     19  H6  UNL     1      82.945 -31.428   3.739  1.00  0.00     0.210 HD
ENDBRANCH  17  18
BRANCH  17  20
HETATM   20  C10 UNL     1      84.468 -29.145   3.534  1.00  0.00     0.173 C 
BRANCH  20  21
HETATM   21  O7  UNL     1      84.427 -27.907   2.908  1.00  0.00    -0.391 OA
ATOM     22  H7  UNL     1      83.677 -27.400   3.193  1.00  0.00     0.210 HD
ENDBRANCH  20  21
BRANCH  20  23
HETATM   23  C11 UNL     1      85.901 -29.378   3.966  1.00  0.00     0.198 C 
BRANCH  23  24
HETATM   24  O8  UNL     1      86.306 -28.272   4.702  1.00  0.00    -0.398 OA
ATOM     25  H8  UNL     1      86.143 -28.460   5.619  1.00  0.00     0.209 HD
ENDBRANCH  23  24
ENDBRANCH  20  23
ENDBRANCH  17  20
ENDBRANCH  14  17
ENDBRANCH   1  14
TORSDOF 12
ENDMDL
