MODEL 6
REMARK VINA RESULT: -7.771391120      1.165      2.107
REMARK  12 active torsions:
REMARK  status: ('A' for Active; 'I' for Inactive)
REMARK    1  A    between atoms: C1_2  and  C2_4 
REMARK    2  A    between atoms: N1_9  and  C6_10 
REMARK    3  A    between atoms: C6_10  and  C7_11 
REMARK    4  A    between atoms: C7_11  and  O4_12 
REMARK    5  A    between atoms: C7_11  and  C8_14 
REMARK    6  A    between atoms: C8_14  and  O5_15 
REMARK    7  A    between atoms: C8_14  and  C9_17 
REMARK    8  A    between atoms: C9_17  and  O6_18 
REMARK    9  A    between atoms: C9_17  and  C10_20 
REMARK   10  A    between atoms: C10_20  and  O7_21 
REMARK   11  A    between atoms: C10_20  and  C11_23 
REMARK   12  A    between atoms: C11_23  and  O8_24 
ROOT
HETATM    1  C7  UNL     1      84.697 -29.890  -0.264  1.00  0.00     0.167 C 
ENDROOT
BRANCH   1   2
HETATM    2  C6  UNL     1      86.187 -29.784  -0.100  1.00  0.00     0.161 C 
BRANCH   2   3
HETATM    3  N1  UNL     1      86.945 -29.883  -1.311  1.00  0.00    -0.335 N 
HETATM    4  C2  UNL     1      87.547 -28.796  -2.021  1.00  0.00     0.188 C 
HETATM    5  C3  UNL     1      88.260 -29.391  -3.175  1.00  0.00     0.045 C 
HETATM    6  C4  UNL     1      88.520 -30.823  -2.787  1.00  0.00     0.105 C 
HETATM    7  C5  UNL     1      87.245 -31.084  -2.017  1.00  0.00     0.220 C 
HETATM    8  O3  UNL     1      86.539 -32.107  -1.958  1.00  0.00    -0.273 OA
BRANCH   4   9
HETATM    9  C1  UNL     1      86.570 -27.758  -2.428  1.00  0.00     0.196 C 
HETATM   10  O1  UNL     1      86.837 -26.552  -2.256  1.00  0.00    -0.646 OA
HETATM   11  O2  UNL     1      85.384 -28.127  -2.991  1.00  0.00    -0.646 OA
ENDBRANCH   4   9
ENDBRANCH   2   3
ENDBRANCH   1   2
BRANCH   1  12
HETATM   12  O4  UNL     1      84.476 -30.625  -1.458  1.00  0.00    -0.391 OA
ATOM     13  H4  UNL     1      84.164 -31.482  -1.192  1.00  0.00     0.210 HD
ENDBRANCH   1  12
BRANCH   1  14
HETATM   14  C8  UNL     1      84.107 -30.757   0.827  1.00  0.00     0.179 C 
BRANCH  14  15
HETATM   15  O5  UNL     1      84.996 -31.685   1.341  1.00  0.00    -0.390 OA
ATOM     16  H5  UNL     1      85.225 -31.530   2.250  1.00  0.00     0.210 HD
ENDBRANCH  14  15
BRANCH  14  17
HETATM   17  C9  UNL     1      83.590 -29.924   1.979  1.00  0.00     0.180 C 
BRANCH  17  18
HETATM   18  O6  UNL     1      84.053 -28.615   1.884  1.00  0.00    -0.390 OA
ATOM     19  H6  UNL     1      84.745 -28.551   1.236  1.00  0.00     0.210 HD
ENDBRANCH  17  18
BRANCH  17  20
HETATM   20  C10 UNL     1      84.098 -30.549   3.269  1.00  0.00     0.173 C 
BRANCH  20  21
HETATM   21  O7  UNL     1      83.057 -30.807   4.150  1.00  0.00    -0.391 OA
ATOM     22  H7  UNL     1      82.695 -30.004   4.502  1.00  0.00     0.210 HD
ENDBRANCH  20  21
BRANCH  20  23
HETATM   23  C11 UNL     1      85.060 -29.617   3.978  1.00  0.00     0.198 C 
BRANCH  23  24
HETATM   24  O8  UNL     1      86.301 -29.748   3.369  1.00  0.00    -0.398 OA
ATOM     25  H8  UNL     1      86.905 -29.168   3.817  1.00  0.00     0.209 HD
ENDBRANCH  23  24
ENDBRANCH  20  23
ENDBRANCH  17  20
ENDBRANCH  14  17
ENDBRANCH   1  14
TORSDOF 12
ENDMDL
