MODEL 8
REMARK VINA RESULT: -7.400113938      1.694      2.878
REMARK  12 active torsions:
REMARK  status: ('A' for Active; 'I' for Inactive)
REMARK    1  A    between atoms: C1_2  and  C2_4 
REMARK    2  A    between atoms: N1_9  and  C6_10 
REMARK    3  A    between atoms: C6_10  and  C7_11 
REMARK    4  A    between atoms: C7_11  and  O4_12 
REMARK    5  A    between atoms: C7_11  and  C8_14 
REMARK    6  A    between atoms: C8_14  and  O5_15 
REMARK    7  A    between atoms: C8_14  and  C9_17 
REMARK    8  A    between atoms: C9_17  and  O6_18 
REMARK    9  A    between atoms: C9_17  and  C10_20 
REMARK   10  A    between atoms: C10_20  and  O7_21 
REMARK   11  A    between atoms: C10_20  and  C11_23 
REMARK   12  A    between atoms: C11_23  and  O8_24 
ROOT
HETATM    1  C7  UNL     1      84.754 -30.088   1.447  1.00  0.00     0.167 C 
ENDROOT
BRANCH   1   2
HETATM    2  C6  UNL     1      85.151 -29.214   0.291  1.00  0.00     0.161 C 
BRANCH   2   3
HETATM    3  N1  UNL     1      85.921 -29.859  -0.729  1.00  0.00    -0.335 N 
HETATM    4  C2  UNL     1      86.921 -29.243  -1.549  1.00  0.00     0.188 C 
HETATM    5  C3  UNL     1      87.471 -30.312  -2.414  1.00  0.00     0.045 C 
HETATM    6  C4  UNL     1      87.182 -31.600  -1.690  1.00  0.00     0.105 C 
HETATM    7  C5  UNL     1      85.839 -31.232  -1.101  1.00  0.00     0.220 C 
HETATM    8  O3  UNL     1      84.818 -31.925  -0.938  1.00  0.00    -0.273 OA
BRANCH   4   9
HETATM    9  C1  UNL     1      86.403 -28.091  -2.325  1.00  0.00     0.196 C 
HETATM   10  O1  UNL     1      85.443 -28.247  -3.104  1.00  0.00    -0.646 OA
HETATM   11  O2  UNL     1      86.980 -26.863  -2.182  1.00  0.00    -0.646 OA
ENDBRANCH   4   9
ENDBRANCH   2   3
ENDBRANCH   1   2
BRANCH   1  12
HETATM   12  O4  UNL     1      85.908 -30.836   1.798  1.00  0.00    -0.391 OA
ATOM     13  H4  UNL     1      85.650 -31.408   2.511  1.00  0.00     0.210 HD
ENDBRANCH   1  12
BRANCH   1  14
HETATM   14  C8  UNL     1      84.463 -29.246   2.670  1.00  0.00     0.179 C 
BRANCH  14  15
HETATM   15  O5  UNL     1      83.412 -29.723   3.435  1.00  0.00    -0.390 OA
ATOM     16  H5  UNL     1      83.213 -30.639   3.279  1.00  0.00     0.210 HD
ENDBRANCH  14  15
BRANCH  14  17
HETATM   17  C9  UNL     1      85.675 -29.133   3.568  1.00  0.00     0.180 C 
BRANCH  17  18
HETATM   18  O6  UNL     1      85.544 -29.966   4.675  1.00  0.00    -0.390 OA
ATOM     19  H6  UNL     1      84.737 -30.466   4.624  1.00  0.00     0.210 HD
ENDBRANCH  17  18
BRANCH  17  20
HETATM   20  C10 UNL     1      85.777 -27.688   4.031  1.00  0.00     0.173 C 
BRANCH  20  21
HETATM   21  O7  UNL     1      84.651 -27.305   4.744  1.00  0.00    -0.391 OA
ATOM     22  H7  UNL     1      83.990 -26.931   4.174  1.00  0.00     0.210 HD
ENDBRANCH  20  21
BRANCH  20  23
HETATM   23  C11 UNL     1      85.894 -26.748   2.847  1.00  0.00     0.198 C 
BRANCH  23  24
HETATM   24  O8  UNL     1      87.228 -26.379   2.732  1.00  0.00    -0.398 OA
ATOM     25  H8  UNL     1      87.722 -26.878   3.371  1.00  0.00     0.209 HD
ENDBRANCH  23  24
ENDBRANCH  20  23
ENDBRANCH  17  20
ENDBRANCH  14  17
ENDBRANCH   1  14
TORSDOF 12
ENDMDL
