MODEL 11
REMARK VINA RESULT: -6.849932443      1.830      6.125
REMARK  12 active torsions:
REMARK  status: ('A' for Active; 'I' for Inactive)
REMARK    1  A    between atoms: C1_2  and  C2_4 
REMARK    2  A    between atoms: N1_9  and  C6_10 
REMARK    3  A    between atoms: C6_10  and  C7_11 
REMARK    4  A    between atoms: C7_11  and  O4_12 
REMARK    5  A    between atoms: C7_11  and  C8_14 
REMARK    6  A    between atoms: C8_14  and  O5_15 
REMARK    7  A    between atoms: C8_14  and  C9_17 
REMARK    8  A    between atoms: C9_17  and  O6_18 
REMARK    9  A    between atoms: C9_17  and  C10_20 
REMARK   10  A    between atoms: C10_20  and  O7_21 
REMARK   11  A    between atoms: C10_20  and  C11_23 
REMARK   12  A    between atoms: C11_23  and  O8_24 
ROOT
HETATM    1  C7  UNL     1      54.061  12.987  81.846  1.00  0.00     0.167 C 
ENDROOT
BRANCH   1   2
HETATM    2  C6  UNL     1      53.219  13.704  82.863  1.00  0.00     0.161 C 
BRANCH   2   3
HETATM    3  N1  UNL     1      53.371  15.128  82.889  1.00  0.00    -0.335 N 
HETATM    4  C2  UNL     1      52.648  16.069  82.087  1.00  0.00     0.188 C 
HETATM    5  C3  UNL     1      53.111  17.414  82.500  1.00  0.00     0.045 C 
HETATM    6  C4  UNL     1      53.656  17.239  83.893  1.00  0.00     0.105 C 
HETATM    7  C5  UNL     1      54.259  15.862  83.727  1.00  0.00     0.220 C 
HETATM    8  O3  UNL     1      55.311  15.387  84.193  1.00  0.00    -0.273 OA
BRANCH   4   9
HETATM    9  C1  UNL     1      52.808  15.833  80.633  1.00  0.00     0.196 C 
HETATM   10  O1  UNL     1      51.855  15.382  79.968  1.00  0.00    -0.646 OA
HETATM   11  O2  UNL     1      53.998  16.112  80.026  1.00  0.00    -0.646 OA
ENDBRANCH   4   9
ENDBRANCH   2   3
ENDBRANCH   1   2
BRANCH   1  12
HETATM   12  O4  UNL     1      55.285  12.671  82.490  1.00  0.00    -0.391 OA
ATOM     13  H4  UNL     1      55.087  12.584  83.415  1.00  0.00     0.210 HD
ENDBRANCH   1  12
BRANCH   1  14
HETATM   14  C8  UNL     1      53.452  11.644  81.510  1.00  0.00     0.179 C 
BRANCH  14  15
HETATM   15  O5  UNL     1      52.499  11.223  82.422  1.00  0.00    -0.390 OA
ATOM     16  H5  UNL     1      51.695  10.917  82.019  1.00  0.00     0.210 HD
ENDBRANCH  14  15
BRANCH  14  17
HETATM   17  C9  UNL     1      52.811  11.651  80.141  1.00  0.00     0.180 C 
BRANCH  17  18
HETATM   18  O6  UNL     1      51.771  12.575  80.091  1.00  0.00    -0.390 OA
ATOM     19  H6  UNL     1      51.553  12.786  79.191  1.00  0.00     0.210 HD
ENDBRANCH  17  18
BRANCH  17  20
HETATM   20  C10 UNL     1      52.263  10.257  79.877  1.00  0.00     0.173 C 
BRANCH  20  21
HETATM   21  O7  UNL     1      52.853   9.685  78.759  1.00  0.00    -0.391 OA
ATOM     22  H7  UNL     1      52.244   9.123  78.295  1.00  0.00     0.210 HD
ENDBRANCH  20  21
BRANCH  20  23
HETATM   23  C11 UNL     1      50.770  10.303  79.617  1.00  0.00     0.198 C 
BRANCH  23  24
HETATM   24  O8  UNL     1      50.138  10.549  80.829  1.00  0.00    -0.398 OA
ATOM     25  H8  UNL     1      49.347  11.042  80.647  1.00  0.00     0.209 HD
ENDBRANCH  23  24
ENDBRANCH  20  23
ENDBRANCH  17  20
ENDBRANCH  14  17
ENDBRANCH   1  14
TORSDOF 12
ENDMDL
