MODEL 16
REMARK VINA RESULT: -6.767696876      1.965      6.209
REMARK  12 active torsions:
REMARK  status: ('A' for Active; 'I' for Inactive)
REMARK    1  A    between atoms: C1_2  and  C2_4 
REMARK    2  A    between atoms: N1_9  and  C6_10 
REMARK    3  A    between atoms: C6_10  and  C7_11 
REMARK    4  A    between atoms: C7_11  and  O4_12 
REMARK    5  A    between atoms: C7_11  and  C8_14 
REMARK    6  A    between atoms: C8_14  and  O5_15 
REMARK    7  A    between atoms: C8_14  and  C9_17 
REMARK    8  A    between atoms: C9_17  and  O6_18 
REMARK    9  A    between atoms: C9_17  and  C10_20 
REMARK   10  A    between atoms: C10_20  and  O7_21 
REMARK   11  A    between atoms: C10_20  and  C11_23 
REMARK   12  A    between atoms: C11_23  and  O8_24 
ROOT
HETATM    1  C7  UNL     1      51.814  13.459  81.430  1.00  0.00     0.167 C 
ENDROOT
BRANCH   1   2
HETATM    2  C6  UNL     1      52.735  14.585  81.057  1.00  0.00     0.161 C 
BRANCH   2   3
HETATM    3  N1  UNL     1      53.073  15.478  82.124  1.00  0.00    -0.335 N 
HETATM    4  C2  UNL     1      54.377  15.671  82.683  1.00  0.00     0.188 C 
HETATM    5  C3  UNL     1      54.239  16.721  83.718  1.00  0.00     0.045 C 
HETATM    6  C4  UNL     1      53.002  17.493  83.342  1.00  0.00     0.105 C 
HETATM    7  C5  UNL     1      52.173  16.345  82.810  1.00  0.00     0.220 C 
HETATM    8  O3  UNL     1      50.952  16.126  82.907  1.00  0.00    -0.273 OA
BRANCH   4   9
HETATM    9  C1  UNL     1      54.969  14.420  83.215  1.00  0.00     0.196 C 
HETATM   10  O1  UNL     1      55.937  13.893  82.631  1.00  0.00    -0.646 OA
HETATM   11  O2  UNL     1      54.454  13.851  84.342  1.00  0.00    -0.646 OA
ENDBRANCH   4   9
ENDBRANCH   2   3
ENDBRANCH   1   2
BRANCH   1  12
HETATM   12  O4  UNL     1      50.934  13.279  80.331  1.00  0.00    -0.391 OA
ATOM     13  H4  UNL     1      50.900  14.112  79.875  1.00  0.00     0.210 HD
ENDBRANCH   1  12
BRANCH   1  14
HETATM   14  C8  UNL     1      52.580  12.157  81.517  1.00  0.00     0.179 C 
BRANCH  14  15
HETATM   15  O5  UNL     1      53.018  11.855  82.796  1.00  0.00    -0.390 OA
ATOM     16  H5  UNL     1      53.738  12.399  83.089  1.00  0.00     0.210 HD
ENDBRANCH  14  15
BRANCH  14  17
HETATM   17  C9  UNL     1      51.751  10.991  81.025  1.00  0.00     0.180 C 
BRANCH  17  18
HETATM   18  O6  UNL     1      51.276  10.240  82.096  1.00  0.00    -0.390 OA
ATOM     19  H6  UNL     1      51.998   9.861  82.585  1.00  0.00     0.210 HD
ENDBRANCH  17  18
BRANCH  17  20
HETATM   20  C10 UNL     1      52.645  10.121  80.153  1.00  0.00     0.173 C 
BRANCH  20  21
HETATM   21  O7  UNL     1      53.913  10.668  80.026  1.00  0.00    -0.391 OA
ATOM     22  H7  UNL     1      54.026  11.418  80.598  1.00  0.00     0.210 HD
ENDBRANCH  20  21
BRANCH  20  23
HETATM   23  C11 UNL     1      52.074   9.991  78.755  1.00  0.00     0.198 C 
BRANCH  23  24
HETATM   24  O8  UNL     1      50.884  10.705  78.717  1.00  0.00    -0.398 OA
ATOM     25  H8  UNL     1      50.693  10.997  79.601  1.00  0.00     0.209 HD
ENDBRANCH  23  24
ENDBRANCH  20  23
ENDBRANCH  17  20
ENDBRANCH  14  17
ENDBRANCH   1  14
TORSDOF 12
ENDMDL
