MODEL 3
REMARK VINA RESULT: -7.490330008      2.364      8.629
REMARK  17 active torsions:
REMARK  status: ('A' for Active; 'I' for Inactive)
REMARK       I    between atoms: C2_2  and  N1_4 
REMARK    1  A    between atoms: N1_4  and  C3_6 
REMARK    2  A    between atoms: C4_7  and  O2_8 
REMARK    3  A    between atoms: O2_8  and  C5_9 
REMARK    4  A    between atoms: C6_10  and  O3_11 
REMARK    5  A    between atoms: C7_13  and  N2_14 
REMARK       I    between atoms: N2_14  and  C8_16 
REMARK    6  A    between atoms: C10_19  and  O5_20 
REMARK    7  A    between atoms: O5_20  and  C11_21 
REMARK    8  A    between atoms: C12_22  and  C13_23 
REMARK    9  A    between atoms: C13_23  and  O6_24 
REMARK   10  A    between atoms: C15_28  and  N3_29 
REMARK   11  A    between atoms: C19_35  and  O8_36 
REMARK   12  A    between atoms: C20_39  and  C21_40 
REMARK   13  A    between atoms: C21_40  and  O10_41 
REMARK   14  A    between atoms: C22_44  and  C23_45 
REMARK   15  A    between atoms: C23_45  and  O12_46 
REMARK   16  A    between atoms: C24_48  and  O13_49 
REMARK   17  A    between atoms: C25_51  and  O14_52 
ROOT
HETATM    1  C5  UNL     1      20.936  -3.821 -12.048  1.00  0.00     0.186 C 
HETATM    2  C6  UNL     1      20.800  -3.703 -13.573  1.00  0.00     0.177 C 
HETATM    3  C7  UNL     1      20.458  -5.080 -14.166  1.00  0.00     0.170 C 
HETATM    4  C10 UNL     1      19.181  -5.600 -13.531  1.00  0.00     0.286 C 
HETATM    5  O9  UNL     1      18.729  -4.662 -12.577  1.00  0.00    -0.349 OA
HETATM    6  C20 UNL     1      19.747  -4.619 -11.586  1.00  0.00     0.180 C 
ENDROOT
BRANCH   1   7
HETATM    7  O2  UNL     1      22.103  -4.500 -11.834  1.00  0.00    -0.348 OA
BRANCH   7   8
HETATM    8  C4  UNL     1      22.991  -3.949 -10.949  1.00  0.00     0.286 C 
HETATM    9  C3  UNL     1      24.382  -4.436 -11.240  1.00  0.00     0.170 C 
HETATM   10  C25 UNL     1      25.431  -3.458 -10.723  1.00  0.00     0.177 C 
HETATM   11  C24 UNL     1      24.886  -2.694  -9.544  1.00  0.00     0.180 C 
HETATM   12  C22 UNL     1      23.570  -2.049  -9.917  1.00  0.00     0.179 C 
HETATM   13  O11 UNL     1      23.056  -2.543 -11.101  1.00  0.00    -0.349 OA
BRANCH   9  14
HETATM   14  N1  UNL     1      24.560  -5.744 -10.665  1.00  0.00    -0.349 N 
HETATM   15  C2  UNL     1      25.339  -6.722 -11.357  1.00  0.00     0.214 C 
HETATM   16  C1  UNL     1      25.555  -8.088 -10.809  1.00  0.00     0.117 C 
HETATM   17  O1  UNL     1      25.857  -6.390 -12.476  1.00  0.00    -0.274 OA
ATOM     18  H1  UNL     1      24.131  -5.972  -9.768  1.00  0.00     0.163 HD
ENDBRANCH   9  14
BRANCH  10  19
HETATM   19  O14 UNL     1      26.585  -4.141 -10.393  1.00  0.00    -0.391 OA
ATOM     20  H14 UNL     1      26.875  -3.883  -9.525  1.00  0.00     0.210 HD
ENDBRANCH  10  19
BRANCH  11  21
HETATM   21  O13 UNL     1      24.758  -3.529  -8.420  1.00  0.00    -0.390 OA
ATOM     22  H13 UNL     1      25.565  -3.993  -8.232  1.00  0.00     0.210 HD
ENDBRANCH  11  21
BRANCH  12  23
HETATM   23  C23 UNL     1      23.755  -0.548  -9.960  1.00  0.00     0.198 C 
BRANCH  23  24
HETATM   24  O12 UNL     1      24.489  -0.149  -8.845  1.00  0.00    -0.398 OA
ATOM     25  H12 UNL     1      25.180   0.440  -9.124  1.00  0.00     0.209 HD
ENDBRANCH  23  24
ENDBRANCH  12  23
ENDBRANCH   7   8
ENDBRANCH   1   7
BRANCH   2  26
HETATM   26  O3  UNL     1      22.022  -3.308 -14.072  1.00  0.00    -0.391 OA
ATOM     27  H3  UNL     1      22.215  -3.853 -14.826  1.00  0.00     0.210 HD
ENDBRANCH   2  26
BRANCH   6  28
HETATM   28  C21 UNL     1      19.157  -4.043 -10.302  1.00  0.00     0.198 C 
BRANCH  28  29
HETATM   29  O10 UNL     1      20.119  -3.247  -9.687  1.00  0.00    -0.398 OA
ATOM     30  H10 UNL     1      20.191  -3.504  -8.776  1.00  0.00     0.209 HD
ENDBRANCH  28  29
ENDBRANCH   6  28
BRANCH   3  31
HETATM   31  N2  UNL     1      21.551  -6.013 -14.008  1.00  0.00    -0.349 N 
HETATM   32  C8  UNL     1      22.468  -6.226 -15.067  1.00  0.00     0.214 C 
HETATM   33  C9  UNL     1      23.587  -7.201 -14.858  1.00  0.00     0.117 C 
HETATM   34  O4  UNL     1      22.374  -5.618 -16.187  1.00  0.00    -0.274 OA
ATOM     35  H2  UNL     1      21.663  -6.521 -13.131  1.00  0.00     0.163 HD
ENDBRANCH   3  31
BRANCH   4  36
HETATM   36  O5  UNL     1      18.217  -5.911 -14.446  1.00  0.00    -0.351 OA
BRANCH  36  37
HETATM   37  C11 UNL     1      17.900  -7.239 -14.582  1.00  0.00     0.164 C 
HETATM   38  C12 UNL     1      16.422  -7.424 -14.489  1.00  0.00     0.073 C 
HETATM   39  C14 UNL     1      16.166  -8.421 -13.381  1.00  0.00     0.166 C 
HETATM   40  O7  UNL     1      15.156  -7.997 -12.500  1.00  0.00    -0.314 OA
HETATM   41  C18 UNL     1      17.384  -8.357 -12.480  1.00  0.00     0.146 C 
HETATM   42  C15 UNL     1      15.710  -7.147 -11.562  1.00  0.00     0.217 C 
HETATM   43  N4  UNL     1      16.976  -7.344 -11.543  1.00  0.00    -0.347 N 
ATOM     44  H4  UNL     1      17.620  -6.840 -10.933  1.00  0.00     0.163 HD
HETATM   45  C19 UNL     1      18.518  -7.949 -13.374  1.00  0.00     0.173 C 
BRANCH  38  46
HETATM   46  C13 UNL     1      15.837  -7.992 -15.763  1.00  0.00     0.174 C 
BRANCH  46  47
HETATM   47  O6  UNL     1      15.107  -7.032 -16.460  1.00  0.00    -0.400 OA
ATOM     48  H6  UNL     1      15.610  -6.668 -17.179  1.00  0.00     0.209 HD
ENDBRANCH  46  47
ENDBRANCH  38  46
BRANCH  42  49
HETATM   49  N3  UNL     1      15.017  -6.192 -10.731  1.00  0.00    -0.356 N 
HETATM   50  C16 UNL     1      15.675  -4.996 -10.241  1.00  0.00     0.152 C 
HETATM   51  C17 UNL     1      13.638  -6.396 -10.357  1.00  0.00     0.152 C 
ENDBRANCH  42  49
BRANCH  45  52
HETATM   52  O8  UNL     1      19.154  -9.136 -13.780  1.00  0.00    -0.391 OA
ATOM     53  H8  UNL     1      18.703  -9.891 -13.420  1.00  0.00     0.210 HD
ENDBRANCH  45  52
ENDBRANCH  36  37
ENDBRANCH   4  36
TORSDOF 17
ENDMDL
