MODEL 1
REMARK VINA RESULT: -7.564431879      0.000      0.000
REMARK  17 active torsions:
REMARK  status: ('A' for Active; 'I' for Inactive)
REMARK       I    between atoms: C2_2  and  N1_4 
REMARK    1  A    between atoms: N1_4  and  C3_6 
REMARK    2  A    between atoms: C4_7  and  O2_8 
REMARK    3  A    between atoms: O2_8  and  C5_9 
REMARK    4  A    between atoms: C6_10  and  O3_11 
REMARK    5  A    between atoms: C7_13  and  N2_14 
REMARK       I    between atoms: N2_14  and  C8_16 
REMARK    6  A    between atoms: C10_19  and  O5_20 
REMARK    7  A    between atoms: O5_20  and  C11_21 
REMARK    8  A    between atoms: C12_22  and  C13_23 
REMARK    9  A    between atoms: C13_23  and  O6_24 
REMARK   10  A    between atoms: C15_28  and  N3_29 
REMARK   11  A    between atoms: C19_35  and  O8_36 
REMARK   12  A    between atoms: C20_39  and  C21_40 
REMARK   13  A    between atoms: C21_40  and  O10_41 
REMARK   14  A    between atoms: C22_44  and  C23_45 
REMARK   15  A    between atoms: C23_45  and  O12_46 
REMARK   16  A    between atoms: C24_48  and  O13_49 
REMARK   17  A    between atoms: C25_51  and  O14_52 
ROOT
HETATM    1  C5  UNL     1      18.879  -5.897 -12.069  1.00  0.00     0.186 C 
HETATM    2  C6  UNL     1      20.362  -6.199 -11.809  1.00  0.00     0.177 C 
HETATM    3  C7  UNL     1      21.204  -4.952 -12.127  1.00  0.00     0.170 C 
HETATM    4  C10 UNL     1      20.717  -3.787 -11.286  1.00  0.00     0.286 C 
HETATM    5  O9  UNL     1      19.626  -4.215 -10.498  1.00  0.00    -0.349 OA
HETATM    6  C20 UNL     1      18.610  -4.563 -11.427  1.00  0.00     0.180 C 
ENDROOT
BRANCH   1   7
HETATM    7  O2  UNL     1      18.751  -5.828 -13.428  1.00  0.00    -0.348 OA
BRANCH   7   8
HETATM    8  C4  UNL     1      17.875  -6.702 -14.015  1.00  0.00     0.286 C 
HETATM    9  C3  UNL     1      17.018  -7.357 -12.970  1.00  0.00     0.170 C 
HETATM   10  C25 UNL     1      15.699  -7.846 -13.559  1.00  0.00     0.177 C 
HETATM   11  C24 UNL     1      15.877  -8.163 -15.022  1.00  0.00     0.180 C 
HETATM   12  C22 UNL     1      16.468  -6.969 -15.736  1.00  0.00     0.179 C 
HETATM   13  O11 UNL     1      16.965  -6.023 -14.861  1.00  0.00    -0.349 OA
BRANCH   9  14
HETATM   14  N1  UNL     1      17.750  -8.437 -12.361  1.00  0.00    -0.349 N 
HETATM   15  C2  UNL     1      17.499  -8.784 -10.997  1.00  0.00     0.214 C 
HETATM   16  C1  UNL     1      18.226  -9.890 -10.319  1.00  0.00     0.117 C 
HETATM   17  O1  UNL     1      16.619  -8.109 -10.363  1.00  0.00    -0.274 OA
ATOM     18  H1  UNL     1      18.445  -8.953 -12.900  1.00  0.00     0.163 HD
ENDBRANCH   9  14
BRANCH  10  19
HETATM   19  O14 UNL     1      15.251  -8.946 -12.854  1.00  0.00    -0.391 OA
ATOM     20  H14 UNL     1      14.633  -9.437 -13.383  1.00  0.00     0.210 HD
ENDBRANCH  10  19
BRANCH  11  21
HETATM   21  O13 UNL     1      16.662  -9.316 -15.195  1.00  0.00    -0.390 OA
ATOM     22  H13 UNL     1      16.143 -10.058 -15.482  1.00  0.00     0.210 HD
ENDBRANCH  11  21
BRANCH  12  23
HETATM   23  C23 UNL     1      15.426  -6.390 -16.669  1.00  0.00     0.198 C 
BRANCH  23  24
HETATM   24  O12 UNL     1      15.563  -5.004 -16.698  1.00  0.00    -0.398 OA
ATOM     25  H12 UNL     1      14.987  -4.651 -17.366  1.00  0.00     0.209 HD
ENDBRANCH  23  24
ENDBRANCH  12  23
ENDBRANCH   7   8
ENDBRANCH   1   7
BRANCH   2  26
HETATM   26  O3  UNL     1      20.740  -7.208 -12.669  1.00  0.00    -0.391 OA
ATOM     27  H3  UNL     1      21.593  -7.520 -12.391  1.00  0.00     0.210 HD
ENDBRANCH   2  26
BRANCH   6  28
HETATM   28  C21 UNL     1      17.264  -4.556 -10.707  1.00  0.00     0.198 C 
BRANCH  28  29
HETATM   29  O10 UNL     1      17.343  -5.400  -9.604  1.00  0.00    -0.398 OA
ATOM     30  H10 UNL     1      16.883  -6.206  -9.803  1.00  0.00     0.209 HD
ENDBRANCH  28  29
ENDBRANCH   6  28
BRANCH   3  31
HETATM   31  N2  UNL     1      21.179  -4.640 -13.538  1.00  0.00    -0.349 N 
HETATM   32  C8  UNL     1      22.223  -3.880 -14.122  1.00  0.00     0.214 C 
HETATM   33  C9  UNL     1      22.155  -3.582 -15.589  1.00  0.00     0.117 C 
HETATM   34  O4  UNL     1      23.213  -3.444 -13.443  1.00  0.00    -0.274 OA
ATOM     35  H2  UNL     1      20.406  -4.968 -14.117  1.00  0.00     0.163 HD
ENDBRANCH   3  31
BRANCH   4  36
HETATM   36  O5  UNL     1      21.706  -3.220 -10.534  1.00  0.00    -0.351 OA
BRANCH  36  37
HETATM   37  C11 UNL     1      21.602  -1.874 -10.291  1.00  0.00     0.164 C 
HETATM   38  C12 UNL     1      22.857  -1.181 -10.705  1.00  0.00     0.073 C 
HETATM   39  C14 UNL     1      23.369  -0.426  -9.498  1.00  0.00     0.166 C 
HETATM   40  O7  UNL     1      24.744  -0.628  -9.283  1.00  0.00    -0.314 OA
HETATM   41  C18 UNL     1      22.778  -1.131  -8.293  1.00  0.00     0.146 C 
HETATM   42  C15 UNL     1      24.917  -1.805  -8.580  1.00  0.00     0.217 C 
HETATM   43  N4  UNL     1      23.806  -2.099  -8.013  1.00  0.00    -0.347 N 
ATOM     44  H4  UNL     1      23.666  -2.925  -7.431  1.00  0.00     0.163 HD
HETATM   45  C19 UNL     1      21.486  -1.724  -8.771  1.00  0.00     0.173 C 
BRANCH  38  46
HETATM   46  C13 UNL     1      22.616  -0.174 -11.808  1.00  0.00     0.174 C 
BRANCH  46  47
HETATM   47  O6  UNL     1      21.799  -0.700 -12.807  1.00  0.00    -0.400 OA
ATOM     48  H6  UNL     1      20.882  -0.664 -12.561  1.00  0.00     0.209 HD
ENDBRANCH  46  47
ENDBRANCH  38  46
BRANCH  42  49
HETATM   49  N3  UNL     1      26.122  -2.594  -8.478  1.00  0.00    -0.356 N 
HETATM   50  C16 UNL     1      26.139  -4.000  -8.828  1.00  0.00     0.152 C 
HETATM   51  C17 UNL     1      27.357  -2.003  -8.020  1.00  0.00     0.152 C 
ENDBRANCH  42  49
BRANCH  45  52
HETATM   52  O8  UNL     1      20.478  -0.798  -8.449  1.00  0.00    -0.391 OA
ATOM     53  H8  UNL     1      19.995  -1.090  -7.685  1.00  0.00     0.210 HD
ENDBRANCH  45  52
ENDBRANCH  36  37
ENDBRANCH   4  36
TORSDOF 17
ENDMDL
