MODEL 2
REMARK VINA RESULT: -7.499199329      4.408      9.084
REMARK  17 active torsions:
REMARK  status: ('A' for Active; 'I' for Inactive)
REMARK       I    between atoms: C2_2  and  N1_4 
REMARK    1  A    between atoms: N1_4  and  C3_6 
REMARK    2  A    between atoms: C4_7  and  O2_8 
REMARK    3  A    between atoms: O2_8  and  C5_9 
REMARK    4  A    between atoms: C6_10  and  O3_11 
REMARK    5  A    between atoms: C7_13  and  N2_14 
REMARK       I    between atoms: N2_14  and  C8_16 
REMARK    6  A    between atoms: C10_19  and  O5_20 
REMARK    7  A    between atoms: O5_20  and  C11_21 
REMARK    8  A    between atoms: C12_22  and  C13_23 
REMARK    9  A    between atoms: C13_23  and  O6_24 
REMARK   10  A    between atoms: C15_28  and  N3_29 
REMARK   11  A    between atoms: C19_35  and  O8_36 
REMARK   12  A    between atoms: C20_39  and  C21_40 
REMARK   13  A    between atoms: C21_40  and  O10_41 
REMARK   14  A    between atoms: C22_44  and  C23_45 
REMARK   15  A    between atoms: C23_45  and  O12_46 
REMARK   16  A    between atoms: C24_48  and  O13_49 
REMARK   17  A    between atoms: C25_51  and  O14_52 
ROOT
HETATM    1  C5  UNL     1      21.660  -4.051 -15.210  1.00  0.00     0.186 C 
HETATM    2  C6  UNL     1      20.427  -3.487 -14.489  1.00  0.00     0.177 C 
HETATM    3  C7  UNL     1      19.208  -4.377 -14.786  1.00  0.00     0.170 C 
HETATM    4  C10 UNL     1      19.504  -5.800 -14.353  1.00  0.00     0.286 C 
HETATM    5  O9  UNL     1      20.818  -5.858 -13.839  1.00  0.00    -0.349 OA
HETATM    6  C20 UNL     1      21.661  -5.530 -14.935  1.00  0.00     0.180 C 
ENDROOT
BRANCH   1   7
HETATM    7  O2  UNL     1      21.459  -3.793 -16.538  1.00  0.00    -0.348 OA
BRANCH   7   8
HETATM    8  C4  UNL     1      22.478  -3.175 -17.213  1.00  0.00     0.286 C 
HETATM    9  C3  UNL     1      22.055  -1.799 -17.643  1.00  0.00     0.170 C 
HETATM   10  C25 UNL     1      23.259  -0.887 -17.847  1.00  0.00     0.177 C 
HETATM   11  C24 UNL     1      24.466  -1.705 -18.226  1.00  0.00     0.180 C 
HETATM   12  C22 UNL     1      24.684  -2.798 -17.205  1.00  0.00     0.179 C 
HETATM   13  O11 UNL     1      23.596  -2.967 -16.371  1.00  0.00    -0.349 OA
BRANCH   9  14
HETATM   14  N1  UNL     1      21.265  -1.896 -18.843  1.00  0.00    -0.349 N 
HETATM   15  C2  UNL     1      19.847  -1.723 -18.775  1.00  0.00     0.214 C 
HETATM   16  C1  UNL     1      18.984  -1.813 -19.982  1.00  0.00     0.117 C 
HETATM   17  O1  UNL     1      19.331  -1.484 -17.632  1.00  0.00    -0.274 OA
ATOM     18  H1  UNL     1      21.714  -2.089 -19.738  1.00  0.00     0.163 HD
ENDBRANCH   9  14
BRANCH  10  19
HETATM   19  O14 UNL     1      22.969   0.063 -18.807  1.00  0.00    -0.391 OA
ATOM     20  H14 UNL     1      23.625   0.036 -19.494  1.00  0.00     0.210 HD
ENDBRANCH  10  19
BRANCH  11  21
HETATM   21  O13 UNL     1      24.332  -2.224 -19.526  1.00  0.00    -0.390 OA
ATOM     22  H13 UNL     1      24.792  -1.694 -20.167  1.00  0.00     0.210 HD
ENDBRANCH  11  21
BRANCH  12  23
HETATM   23  C23 UNL     1      25.952  -2.503 -16.434  1.00  0.00     0.198 C 
BRANCH  23  24
HETATM   24  O12 UNL     1      25.747  -2.804 -15.090  1.00  0.00    -0.398 OA
ATOM     25  H12 UNL     1      25.137  -2.175 -14.721  1.00  0.00     0.209 HD
ENDBRANCH  23  24
ENDBRANCH  12  23
ENDBRANCH   7   8
ENDBRANCH   1   7
BRANCH   2  26
HETATM   26  O3  UNL     1      20.181  -2.231 -15.001  1.00  0.00    -0.391 OA
ATOM     27  H3  UNL     1      19.258  -2.046 -14.878  1.00  0.00     0.210 HD
ENDBRANCH   2  26
BRANCH   6  28
HETATM   28  C21 UNL     1      23.070  -6.038 -14.640  1.00  0.00     0.198 C 
BRANCH  28  29
HETATM   29  O10 UNL     1      23.875  -4.953 -14.305  1.00  0.00    -0.398 OA
ATOM     30  H10 UNL     1      24.764  -5.261 -14.180  1.00  0.00     0.209 HD
ENDBRANCH  28  29
ENDBRANCH   6  28
BRANCH   3  31
HETATM   31  N2  UNL     1      18.828  -4.310 -16.179  1.00  0.00    -0.349 N 
HETATM   32  C8  UNL     1      17.462  -4.361 -16.552  1.00  0.00     0.214 C 
HETATM   33  C9  UNL     1      17.115  -4.287 -18.008  1.00  0.00     0.117 C 
HETATM   34  O4  UNL     1      16.522  -4.468 -15.693  1.00  0.00    -0.274 OA
ATOM     35  H2  UNL     1      19.546  -4.226 -16.898  1.00  0.00     0.163 HD
ENDBRANCH   3  31
BRANCH   4  36
HETATM   36  O5  UNL     1      18.584  -6.295 -13.474  1.00  0.00    -0.351 OA
BRANCH  36  37
HETATM   37  C11 UNL     1      18.132  -7.569 -13.705  1.00  0.00     0.164 C 
HETATM   38  C12 UNL     1      16.652  -7.558 -13.899  1.00  0.00     0.073 C 
HETATM   39  C14 UNL     1      16.062  -8.518 -12.890  1.00  0.00     0.166 C 
HETATM   40  O7  UNL     1      14.965  -7.969 -12.204  1.00  0.00    -0.314 OA
HETATM   41  C18 UNL     1      17.084  -8.617 -11.773  1.00  0.00     0.146 C 
HETATM   42  C15 UNL     1      15.433  -7.202 -11.154  1.00  0.00     0.217 C 
HETATM   43  N4  UNL     1      16.636  -7.563 -10.901  1.00  0.00    -0.347 N 
ATOM     44  H4  UNL     1      17.211  -7.151 -10.166  1.00  0.00     0.163 HD
HETATM   45  C19 UNL     1      18.411  -8.358 -12.423  1.00  0.00     0.173 C 
BRANCH  38  46
HETATM   46  C13 UNL     1      16.254  -8.040 -15.278  1.00  0.00     0.174 C 
BRANCH  46  47
HETATM   47  O6  UNL     1      15.329  -7.183 -15.869  1.00  0.00    -0.400 OA
ATOM     48  H6  UNL     1      14.447  -7.360 -15.562  1.00  0.00     0.209 HD
ENDBRANCH  46  47
ENDBRANCH  38  46
BRANCH  42  49
HETATM   49  N3  UNL     1      14.722  -6.167 -10.442  1.00  0.00    -0.356 N 
HETATM   50  C16 UNL     1      13.315  -6.299 -10.118  1.00  0.00     0.152 C 
HETATM   51  C17 UNL     1      15.394  -4.959 -10.024  1.00  0.00     0.152 C 
ENDBRANCH  42  49
BRANCH  45  52
HETATM   52  O8  UNL     1      18.955  -9.618 -12.735  1.00  0.00    -0.391 OA
ATOM     53  H8  UNL     1      19.136 -10.104 -11.940  1.00  0.00     0.210 HD
ENDBRANCH  45  52
ENDBRANCH  36  37
ENDBRANCH   4  36
TORSDOF 17
ENDMDL
