MODEL 1
REMARK VINA RESULT: -6.437334961      0.000      0.000
REMARK  10 active torsions:
REMARK  status: ('A' for Active; 'I' for Inactive)
REMARK    1  A    between atoms: O1_1  and  C1_3 
REMARK    2  A    between atoms: C1_3  and  C2_4 
REMARK    3  A    between atoms: C3_6  and  O3_7 
REMARK    4  A    between atoms: O3_7  and  C4_8 
REMARK    5  A    between atoms: C8_15  and  C9_16 
REMARK    6  A    between atoms: C9_16  and  O4_17 
REMARK    7  A    between atoms: C10_19  and  O5_20 
REMARK    8  A    between atoms: C11_22  and  O6_23 
REMARK    9  A    between atoms: C12_25  and  O7_26 
REMARK   10  A    between atoms: C13_28  and  O8_29 
ROOT
HETATM    1  C2  UNL     1       3.734  21.926   3.313  1.00  0.00     0.179 C 
HETATM    2  O2  UNL     1       2.859  22.397   4.282  1.00  0.00    -0.348 OA
HETATM    3  C3  UNL     1       3.479  23.069   5.303  1.00  0.00     0.292 C 
HETATM    4  C11 UNL     1       4.177  24.338   4.909  1.00  0.00     0.204 C 
HETATM    5  C12 UNL     1       4.979  24.070   3.656  1.00  0.00     0.183 C 
HETATM    6  C13 UNL     1       5.091  22.582   3.396  1.00  0.00     0.180 C 
ENDROOT
BRANCH   3   7
HETATM    7  O3  UNL     1       2.567  23.253   6.334  1.00  0.00    -0.349 OA
BRANCH   7   8
HETATM    8  C4  UNL     1       2.642  22.260   7.308  1.00  0.00     0.186 C 
HETATM    9  C5  UNL     1       1.955  22.761   8.525  1.00  0.00     0.248 A 
HETATM   10  N1  UNL     1       1.728  21.882   9.655  1.00  0.00    -0.060 N 
HETATM   11  C6  UNL     1       2.668  22.978   9.719  1.00  0.00     0.220 A 
ATOM     12  H12 UNL     1       0.920  21.574  10.196  1.00  0.00     0.278 HD
ATOM     13  H11 UNL     1       1.761  20.876   9.820  1.00  0.00     0.278 HD
HETATM   14  C7  UNL     1       4.131  22.717   9.779  1.00  0.00     0.044 C 
HETATM   15  C8  UNL     1       4.468  21.556   8.887  1.00  0.00     0.042 C 
HETATM   16  C10 UNL     1       4.077  21.894   7.488  1.00  0.00     0.155 C 
BRANCH  15  17
HETATM   17  C9  UNL     1       5.999  21.428   8.904  1.00  0.00     0.171 C 
BRANCH  17  18
HETATM   18  O4  UNL     1       6.531  22.096   7.790  1.00  0.00    -0.400 OA
ATOM     19  H4  UNL     1       6.321  23.020   7.849  1.00  0.00     0.209 HD
ENDBRANCH  17  18
ENDBRANCH  15  17
BRANCH  16  20
HETATM   20  O5  UNL     1       4.434  20.813   6.671  1.00  0.00    -0.392 OA
ATOM     21  H5  UNL     1       4.100  19.993   7.016  1.00  0.00     0.210 HD
ENDBRANCH  16  20
ENDBRANCH   7   8
ENDBRANCH   3   7
BRANCH   4  22
HETATM   22  O6  UNL     1       3.327  25.385   4.654  1.00  0.00    -0.388 OA
ATOM     23  H6  UNL     1       3.701  26.238   4.838  1.00  0.00     0.210 HD
ENDBRANCH   4  22
BRANCH   1  24
HETATM   24  C1  UNL     1       3.931  20.445   3.562  1.00  0.00     0.198 C 
BRANCH  24  25
HETATM   25  O1  UNL     1       5.219  20.203   4.029  1.00  0.00    -0.398 OA
ATOM     26  H1  UNL     1       5.194  19.951   4.945  1.00  0.00     0.209 HD
ENDBRANCH  24  25
ENDBRANCH   1  24
BRANCH   5  27
HETATM   27  O7  UNL     1       6.248  24.661   3.729  1.00  0.00    -0.390 OA
ATOM     28  H7  UNL     1       6.801  24.379   3.010  1.00  0.00     0.210 HD
ENDBRANCH   5  27
BRANCH   6  29
HETATM   29  O8  UNL     1       5.708  22.395   2.160  1.00  0.00    -0.390 OA
ATOM     30  H8  UNL     1       5.607  21.477   1.937  1.00  0.00     0.210 HD
ENDBRANCH   6  29
TORSDOF 10
ENDMDL
