MODEL 15
REMARK VINA RESULT: -6.010822508      2.598      5.927
REMARK  10 active torsions:
REMARK  status: ('A' for Active; 'I' for Inactive)
REMARK    1  A    between atoms: O1_1  and  C1_3 
REMARK    2  A    between atoms: C1_3  and  C2_4 
REMARK    3  A    between atoms: C3_6  and  O3_7 
REMARK    4  A    between atoms: O3_7  and  C4_8 
REMARK    5  A    between atoms: C8_15  and  C9_16 
REMARK    6  A    between atoms: C9_16  and  O4_17 
REMARK    7  A    between atoms: C10_19  and  O5_20 
REMARK    8  A    between atoms: C11_22  and  O6_23 
REMARK    9  A    between atoms: C12_25  and  O7_26 
REMARK   10  A    between atoms: C13_28  and  O8_29 
ROOT
HETATM    1  C2  UNL     1       3.885  22.167   9.470  1.00  0.00     0.179 C 
HETATM    2  O2  UNL     1       3.249  22.930   8.501  1.00  0.00    -0.348 OA
HETATM    3  C3  UNL     1       3.054  22.266   7.319  1.00  0.00     0.292 C 
HETATM    4  C11 UNL     1       2.141  21.077   7.390  1.00  0.00     0.204 C 
HETATM    5  C12 UNL     1       2.522  20.257   8.601  1.00  0.00     0.183 C 
HETATM    6  C13 UNL     1       3.866  20.693   9.146  1.00  0.00     0.180 C 
ENDROOT
BRANCH   3   7
HETATM    7  O3  UNL     1       2.671  23.184   6.350  1.00  0.00    -0.349 OA
BRANCH   7   8
HETATM    8  C4  UNL     1       3.025  22.793   5.061  1.00  0.00     0.186 C 
HETATM    9  C5  UNL     1       4.494  22.583   5.035  1.00  0.00     0.248 A 
HETATM   10  N1  UNL     1       5.134  22.013   3.866  1.00  0.00    -0.060 N 
HETATM   11  C6  UNL     1       5.325  23.395   4.241  1.00  0.00     0.220 A 
ATOM     12  H12 UNL     1       5.737  21.213   3.676  1.00  0.00     0.278 HD
ATOM     13  H11 UNL     1       4.827  21.514   3.031  1.00  0.00     0.278 HD
HETATM   14  C7  UNL     1       4.744  24.488   3.418  1.00  0.00     0.044 C 
HETATM   15  C8  UNL     1       3.384  24.077   2.929  1.00  0.00     0.042 C 
HETATM   16  C10 UNL     1       2.507  23.816   4.107  1.00  0.00     0.155 C 
BRANCH  15  17
HETATM   17  C9  UNL     1       2.800  25.296   2.199  1.00  0.00     0.171 C 
BRANCH  17  18
HETATM   18  O4  UNL     1       3.125  26.461   2.911  1.00  0.00    -0.400 OA
ATOM     19  H4  UNL     1       3.451  27.117   2.305  1.00  0.00     0.209 HD
ENDBRANCH  17  18
ENDBRANCH  15  17
BRANCH  16  20
HETATM   20  O5  UNL     1       1.237  23.470   3.627  1.00  0.00    -0.392 OA
ATOM     21  H5  UNL     1       1.016  23.964   2.845  1.00  0.00     0.210 HD
ENDBRANCH  16  20
ENDBRANCH   7   8
ENDBRANCH   3   7
BRANCH   4  22
HETATM   22  O6  UNL     1       0.812  21.402   7.497  1.00  0.00    -0.388 OA
ATOM     23  H6  UNL     1       0.231  20.651   7.515  1.00  0.00     0.210 HD
ENDBRANCH   4  22
BRANCH   1  24
HETATM   24  C1  UNL     1       5.336  22.603   9.510  1.00  0.00     0.198 C 
BRANCH  24  25
HETATM   25  O1  UNL     1       6.169  21.523   9.237  1.00  0.00    -0.398 OA
ATOM     26  H1  UNL     1       6.585  21.636   8.390  1.00  0.00     0.209 HD
ENDBRANCH  24  25
ENDBRANCH   1  24
BRANCH   5  27
HETATM   27  O7  UNL     1       2.522  18.886   8.307  1.00  0.00    -0.390 OA
ATOM     28  H7  UNL     1       3.397  18.520   8.374  1.00  0.00     0.210 HD
ENDBRANCH   5  27
BRANCH   6  29
HETATM   29  O8  UNL     1       4.100  20.012  10.340  1.00  0.00    -0.390 OA
ATOM     30  H8  UNL     1       4.128  19.086  10.129  1.00  0.00     0.210 HD
ENDBRANCH   6  29
TORSDOF 10
ENDMDL
