MODEL 2
REMARK VINA RESULT: -6.352473486      3.490      6.361
REMARK  10 active torsions:
REMARK  status: ('A' for Active; 'I' for Inactive)
REMARK    1  A    between atoms: O1_1  and  C1_3 
REMARK    2  A    between atoms: C1_3  and  C2_4 
REMARK    3  A    between atoms: C3_6  and  O3_7 
REMARK    4  A    between atoms: O3_7  and  C4_8 
REMARK    5  A    between atoms: C8_15  and  C9_16 
REMARK    6  A    between atoms: C9_16  and  O4_17 
REMARK    7  A    between atoms: C10_19  and  O5_20 
REMARK    8  A    between atoms: C11_22  and  O6_23 
REMARK    9  A    between atoms: C12_25  and  O7_26 
REMARK   10  A    between atoms: C13_28  and  O8_29 
ROOT
HETATM    1  C2  UNL     1       3.241  22.821   5.084  1.00  0.00     0.179 C 
HETATM    2  O2  UNL     1       4.181  21.862   4.735  1.00  0.00    -0.348 OA
HETATM    3  C3  UNL     1       4.230  21.602   3.391  1.00  0.00     0.292 C 
HETATM    4  C11 UNL     1       4.663  22.751   2.527  1.00  0.00     0.204 C 
HETATM    5  C12 UNL     1       3.920  23.989   2.977  1.00  0.00     0.183 C 
HETATM    6  C13 UNL     1       2.773  23.625   3.895  1.00  0.00     0.180 C 
ENDROOT
BRANCH   3   7
HETATM    7  O3  UNL     1       4.989  20.457   3.185  1.00  0.00    -0.349 OA
BRANCH   7   8
HETATM    8  C4  UNL     1       5.055  20.083   1.845  1.00  0.00     0.186 C 
HETATM    9  C5  UNL     1       4.028  19.037   1.611  1.00  0.00     0.248 A 
HETATM   10  N1  UNL     1       3.750  18.569   0.268  1.00  0.00    -0.060 N 
HETATM   11  C6  UNL     1       4.400  17.730   1.248  1.00  0.00     0.220 A 
ATOM     12  H12 UNL     1       2.926  18.499  -0.329  1.00  0.00     0.278 HD
ATOM     13  H11 UNL     1       3.956  18.889  -0.678  1.00  0.00     0.278 HD
HETATM   14  C7  UNL     1       5.835  17.369   1.101  1.00  0.00     0.044 C 
HETATM   15  C8  UNL     1       6.596  18.554   0.577  1.00  0.00     0.042 C 
HETATM   16  C10 UNL     1       6.460  19.680   1.545  1.00  0.00     0.155 C 
BRANCH  15  17
HETATM   17  C9  UNL     1       8.078  18.148   0.572  1.00  0.00     0.171 C 
BRANCH  17  18
HETATM   18  O4  UNL     1       8.763  18.905  -0.391  1.00  0.00    -0.400 OA
ATOM     19  H4  UNL     1       9.682  18.953  -0.156  1.00  0.00     0.209 HD
ENDBRANCH  17  18
ENDBRANCH  15  17
BRANCH  16  20
HETATM   20  O5  UNL     1       7.207  20.759   1.055  1.00  0.00    -0.392 OA
ATOM     21  H5  UNL     1       8.107  20.723   1.357  1.00  0.00     0.210 HD
ENDBRANCH  16  20
ENDBRANCH   7   8
ENDBRANCH   3   7
BRANCH   4  22
HETATM   22  O6  UNL     1       6.008  23.016   2.587  1.00  0.00    -0.388 OA
ATOM     23  H6  UNL     1       6.295  23.691   1.984  1.00  0.00     0.210 HD
ENDBRANCH   4  22
BRANCH   1  24
HETATM   24  C1  UNL     1       2.036  22.092   5.642  1.00  0.00     0.198 C 
BRANCH  24  25
HETATM   25  O1  UNL     1       0.976  22.159   4.742  1.00  0.00    -0.398 OA
ATOM     26  H1  UNL     1       0.893  21.337   4.272  1.00  0.00     0.209 HD
ENDBRANCH  24  25
ENDBRANCH   1  24
BRANCH   5  27
HETATM   27  O7  UNL     1       3.467  24.735   1.880  1.00  0.00    -0.390 OA
ATOM     28  H7  UNL     1       2.528  24.877   1.926  1.00  0.00     0.210 HD
ENDBRANCH   5  27
BRANCH   6  29
HETATM   29  O8  UNL     1       2.217  24.802   4.395  1.00  0.00    -0.390 OA
ATOM     30  H8  UNL     1       1.634  25.139   3.725  1.00  0.00     0.210 HD
ENDBRANCH   6  29
TORSDOF 10
ENDMDL
