MODEL 3
REMARK VINA RESULT: -6.298387885      3.041      5.392
REMARK  10 active torsions:
REMARK  status: ('A' for Active; 'I' for Inactive)
REMARK    1  A    between atoms: O1_1  and  C1_3 
REMARK    2  A    between atoms: C1_3  and  C2_4 
REMARK    3  A    between atoms: C3_6  and  O3_7 
REMARK    4  A    between atoms: O3_7  and  C4_8 
REMARK    5  A    between atoms: C8_15  and  C9_16 
REMARK    6  A    between atoms: C9_16  and  O4_17 
REMARK    7  A    between atoms: C10_19  and  O5_20 
REMARK    8  A    between atoms: C11_22  and  O6_23 
REMARK    9  A    between atoms: C12_25  and  O7_26 
REMARK   10  A    between atoms: C13_28  and  O8_29 
ROOT
HETATM    1  C2  UNL     1       4.145  17.253   3.466  1.00  0.00     0.179 C 
HETATM    2  O2  UNL     1       3.515  18.467   3.230  1.00  0.00    -0.348 OA
HETATM    3  C3  UNL     1       4.311  19.556   3.473  1.00  0.00     0.292 C 
HETATM    4  C11 UNL     1       5.516  19.685   2.588  1.00  0.00     0.204 C 
HETATM    5  C12 UNL     1       6.186  18.332   2.497  1.00  0.00     0.183 C 
HETATM    6  C13 UNL     1       5.645  17.392   3.555  1.00  0.00     0.180 C 
ENDROOT
BRANCH   3   7
HETATM    7  O3  UNL     1       3.518  20.696   3.474  1.00  0.00    -0.349 OA
BRANCH   7   8
HETATM    8  C4  UNL     1       4.237  21.857   3.750  1.00  0.00     0.186 C 
HETATM    9  C5  UNL     1       4.042  22.185   5.184  1.00  0.00     0.248 A 
HETATM   10  N1  UNL     1       4.802  23.253   5.803  1.00  0.00    -0.060 N 
HETATM   11  C6  UNL     1       3.381  23.365   5.571  1.00  0.00     0.220 A 
ATOM     12  H12 UNL     1       5.425  23.342   6.606  1.00  0.00     0.278 HD
ATOM     13  H11 UNL     1       5.630  23.798   5.565  1.00  0.00     0.278 HD
HETATM   14  C7  UNL     1       2.854  24.303   4.544  1.00  0.00     0.044 C 
HETATM   15  C8  UNL     1       3.760  24.293   3.346  1.00  0.00     0.042 C 
HETATM   16  C10 UNL     1       3.803  22.911   2.787  1.00  0.00     0.155 C 
BRANCH  15  17
HETATM   17  C9  UNL     1       3.089  25.182   2.288  1.00  0.00     0.171 C 
BRANCH  17  18
HETATM   18  O4  UNL     1       3.061  26.508   2.747  1.00  0.00    -0.400 OA
ATOM     19  H4  UNL     1       2.808  26.516   3.663  1.00  0.00     0.209 HD
ENDBRANCH  17  18
ENDBRANCH  15  17
BRANCH  16  20
HETATM   20  O5  UNL     1       4.624  22.934   1.652  1.00  0.00    -0.392 OA
ATOM     21  H5  UNL     1       4.623  22.095   1.206  1.00  0.00     0.210 HD
ENDBRANCH  16  20
ENDBRANCH   7   8
ENDBRANCH   3   7
BRANCH   4  22
HETATM   22  O6  UNL     1       5.228  20.103   1.313  1.00  0.00    -0.388 OA
ATOM     23  H6  UNL     1       5.431  21.017   1.152  1.00  0.00     0.210 HD
ENDBRANCH   4  22
BRANCH   1  24
HETATM   24  C1  UNL     1       3.657  16.742   4.805  1.00  0.00     0.198 C 
BRANCH  24  25
HETATM   25  O1  UNL     1       4.666  16.852   5.758  1.00  0.00    -0.398 OA
ATOM     26  H1  UNL     1       4.428  17.496   6.414  1.00  0.00     0.209 HD
ENDBRANCH  24  25
ENDBRANCH   1  24
BRANCH   5  27
HETATM   27  O7  UNL     1       7.579  18.447   2.595  1.00  0.00    -0.390 OA
ATOM     28  H7  UNL     1       8.017  17.820   2.032  1.00  0.00     0.210 HD
ENDBRANCH   5  27
BRANCH   6  29
HETATM   29  O8  UNL     1       6.184  16.125   3.335  1.00  0.00    -0.390 OA
ATOM     30  H8  UNL     1       7.069  16.252   3.015  1.00  0.00     0.210 HD
ENDBRANCH   6  29
TORSDOF 10
ENDMDL
