MODEL 1
REMARK VINA RESULT: -11.224796184      0.000      0.000
REMARK  6 active torsions:
REMARK  status: ('A' for Active; 'I' for Inactive)
REMARK    1  A    between atoms: N1_4  and  C4_5 
REMARK    2  A    between atoms: C6_7  and  N2_8 
REMARK       I    between atoms: N2_8  and  C7_10 
REMARK    3  A    between atoms: C7_10  and  C8_12 
REMARK    4  A    between atoms: C15_19  and  N3_20 
REMARK    5  A    between atoms: N3_20  and  C16_22 
REMARK    6  A    between atoms: C22_32  and  C23_33 
ROOT
HETATM    1  N2  UNL     1      35.894   3.857 -39.884  1.00  0.00    -0.323 N 
ATOM      2  H2  UNL     1      36.579   3.992 -40.627  1.00  0.00     0.169 HD
HETATM    3  C7  UNL     1      36.021   2.781 -39.012  1.00  0.00     0.256 C 
HETATM    4  O1  UNL     1      35.152   2.593 -38.092  1.00  0.00    -0.267 OA
ENDROOT
BRANCH   3   5
HETATM    5  C8  UNL     1      37.108   1.822 -39.058  1.00  0.00     0.032 A 
HETATM    6  C9  UNL     1      38.355   2.036 -39.573  1.00  0.00     0.017 A 
HETATM    7  C10 UNL     1      39.332   1.026 -39.584  1.00  0.00     0.009 A 
HETATM    8  C11 UNL     1      39.086  -0.236 -39.073  1.00  0.00    -0.050 A 
HETATM    9  C12 UNL     1      37.834  -0.438 -38.554  1.00  0.00    -0.049 A 
HETATM   10  C20 UNL     1      39.877  -1.516 -38.982  1.00  0.00     0.064 C 
HETATM   11  C13 UNL     1      36.876   0.531 -38.538  1.00  0.00     0.024 A 
HETATM   12  C14 UNL     1      37.807  -1.845 -38.020  1.00  0.00     0.064 C 
HETATM   13  C15 UNL     1      38.711  -2.536 -38.975  1.00  0.00     0.090 C 
BRANCH  13  14
HETATM   14  N3  UNL     1      39.220  -3.787 -38.543  1.00  0.00    -0.383 N 
ATOM     15  H3  UNL     1      39.706  -4.346 -39.243  1.00  0.00     0.160 HD
BRANCH  14  16
HETATM   16  C16 UNL     1      39.128  -4.341 -37.247  1.00  0.00     0.059 A 
HETATM   17  C17 UNL     1      38.102  -5.158 -36.838  1.00  0.00     0.119 A 
HETATM   18  N4  UNL     1      38.051  -5.651 -35.565  1.00  0.00    -0.360 N 
HETATM   19  C18 UNL     1      38.999  -5.353 -34.684  1.00  0.00     0.180 A 
ATOM     20  H4  UNL     1      37.277  -6.254 -35.288  1.00  0.00     0.166 HD
HETATM   21  N5  UNL     1      40.010  -4.559 -35.056  1.00  0.00    -0.360 N 
HETATM   22  C19 UNL     1      40.089  -4.049 -36.317  1.00  0.00     0.119 A 
ATOM     23  H5  UNL     1      40.739  -4.329 -34.379  1.00  0.00     0.166 HD
ENDBRANCH  14  16
ENDBRANCH  13  14
ENDBRANCH   3   5
BRANCH   1  24
HETATM   24  C6  UNL     1      34.811   4.769 -39.742  1.00  0.00     0.037 A 
HETATM   25  C5  UNL     1      34.348   5.503 -40.823  1.00  0.00     0.059 A 
HETATM   26  C4  UNL     1      33.314   6.406 -40.724  1.00  0.00     0.042 A 
HETATM   27  C24 UNL     1      32.697   6.597 -39.479  1.00  0.00     0.046 A 
HETATM   28  C22 UNL     1      33.123   5.899 -38.407  1.00  0.00     0.052 A 
HETATM   29  C21 UNL     1      34.171   4.997 -38.550  1.00  0.00     0.046 A 
BRANCH  26  30
HETATM   30  N1  UNL     1      32.834   7.146 -41.852  1.00  0.00    -0.317 N 
HETATM   31  C3  UNL     1      31.782   8.005 -41.815  1.00  0.00     0.122 A 
HETATM   32  C2  UNL     1      31.579   8.535 -43.069  1.00  0.00     0.022 A 
HETATM   33  C1  UNL     1      30.523   9.514 -43.442  1.00  0.00     0.069 C 
HETATM   34  N6  UNL     1      32.510   7.996 -43.859  1.00  0.00    -0.354 N 
HETATM   35  C25 UNL     1      33.264   7.157 -43.114  1.00  0.00     0.188 A 
ATOM     36  H6  UNL     1      32.631   8.184 -44.854  1.00  0.00     0.166 HD
ENDBRANCH  26  30
BRANCH  28  37
HETATM   37  C23 UNL     1      32.462   6.100 -37.071  1.00  0.00     0.417 C 
HETATM   38  F1  UNL     1      33.403   6.119 -36.082  1.00  0.00    -0.166 F 
HETATM   39  F2  UNL     1      31.758   7.284 -37.103  1.00  0.00    -0.166 F 
HETATM   40  F3  UNL     1      31.514   5.096 -36.905  1.00  0.00    -0.166 F 
ENDBRANCH  28  37
ENDBRANCH   1  24
TORSDOF 6
ENDMDL
