MODEL 4
REMARK VINA RESULT: -10.600063274      4.040     11.434
REMARK  6 active torsions:
REMARK  status: ('A' for Active; 'I' for Inactive)
REMARK    1  A    between atoms: N1_4  and  C4_5 
REMARK    2  A    between atoms: C6_7  and  N2_8 
REMARK       I    between atoms: N2_8  and  C7_10 
REMARK    3  A    between atoms: C7_10  and  C8_12 
REMARK    4  A    between atoms: C15_19  and  N3_20 
REMARK    5  A    between atoms: N3_20  and  C16_22 
REMARK    6  A    between atoms: C22_32  and  C23_33 
ROOT
HETATM    1  N2  UNL     1      37.077   2.362 -39.944  1.00  0.00    -0.323 N 
ATOM      2  H2  UNL     1      37.452   3.120 -40.513  1.00  0.00     0.169 HD
HETATM    3  C7  UNL     1      35.953   2.577 -39.154  1.00  0.00     0.256 C 
HETATM    4  O1  UNL     1      35.492   1.636 -38.420  1.00  0.00    -0.267 OA
ENDROOT
BRANCH   3   5
HETATM    5  C8  UNL     1      35.227   3.831 -39.100  1.00  0.00     0.032 A 
HETATM    6  C9  UNL     1      34.779   4.460 -37.973  1.00  0.00     0.017 A 
HETATM    7  C10 UNL     1      34.065   5.668 -38.035  1.00  0.00     0.009 A 
HETATM    8  C11 UNL     1      33.779   6.289 -39.239  1.00  0.00    -0.050 A 
HETATM    9  C12 UNL     1      34.237   5.652 -40.364  1.00  0.00    -0.049 A 
HETATM   10  C20 UNL     1      33.015   7.524 -39.641  1.00  0.00     0.064 C 
HETATM   11  C13 UNL     1      34.929   4.479 -40.318  1.00  0.00     0.024 A 
HETATM   12  C14 UNL     1      33.859   6.517 -41.536  1.00  0.00     0.064 C 
HETATM   13  C15 UNL     1      32.577   7.100 -41.065  1.00  0.00     0.090 C 
BRANCH  13  14
HETATM   14  N3  UNL     1      32.139   8.259 -41.755  1.00  0.00    -0.383 N 
ATOM     15  H3  UNL     1      32.691   9.105 -41.619  1.00  0.00     0.160 HD
BRANCH  14  16
HETATM   16  C16 UNL     1      31.022   8.367 -42.613  1.00  0.00     0.059 A 
HETATM   17  C17 UNL     1      31.051   9.008 -43.827  1.00  0.00     0.119 A 
HETATM   18  N4  UNL     1      29.934   9.101 -44.609  1.00  0.00    -0.360 N 
HETATM   19  C18 UNL     1      28.784   8.568 -44.213  1.00  0.00     0.180 A 
ATOM     20  H4  UNL     1      29.984   9.585 -45.505  1.00  0.00     0.166 HD
HETATM   21  N5  UNL     1      28.727   7.938 -43.033  1.00  0.00    -0.360 N 
HETATM   22  C19 UNL     1      29.823   7.830 -42.229  1.00  0.00     0.119 A 
ATOM     23  H5  UNL     1      27.844   7.529 -42.729  1.00  0.00     0.166 HD
ENDBRANCH  14  16
ENDBRANCH  13  14
ENDBRANCH   3   5
BRANCH   1  24
HETATM   24  C6  UNL     1      37.706   1.085 -39.960  1.00  0.00     0.037 A 
HETATM   25  C5  UNL     1      37.398   0.149 -40.935  1.00  0.00     0.059 A 
HETATM   26  C4  UNL     1      37.972  -1.101 -40.977  1.00  0.00     0.042 A 
HETATM   27  C24 UNL     1      38.910  -1.450 -39.994  1.00  0.00     0.046 A 
HETATM   28  C22 UNL     1      39.232  -0.563 -39.031  1.00  0.00     0.052 A 
HETATM   29  C21 UNL     1      38.628   0.689 -39.025  1.00  0.00     0.046 A 
BRANCH  26  30
HETATM   30  N1  UNL     1      37.659  -2.054 -41.999  1.00  0.00    -0.317 N 
HETATM   31  C3  UNL     1      38.102  -3.338 -42.014  1.00  0.00     0.122 A 
HETATM   32  C2  UNL     1      37.629  -3.973 -43.140  1.00  0.00     0.022 A 
HETATM   33  C1  UNL     1      37.892  -5.386 -43.520  1.00  0.00     0.069 C 
HETATM   34  N6  UNL     1      36.901  -3.070 -43.801  1.00  0.00    -0.354 N 
HETATM   35  C25 UNL     1      36.925  -1.912 -43.103  1.00  0.00     0.188 A 
ATOM     36  H6  UNL     1      36.411  -3.227 -44.682  1.00  0.00     0.166 HD
ENDBRANCH  26  30
BRANCH  28  37
HETATM   37  C23 UNL     1      40.239  -0.934 -37.977  1.00  0.00     0.417 C 
HETATM   38  F1  UNL     1      39.723  -0.699 -36.735  1.00  0.00    -0.166 F 
HETATM   39  F2  UNL     1      40.566  -2.263 -38.131  1.00  0.00    -0.166 F 
HETATM   40  F3  UNL     1      41.406  -0.221 -38.228  1.00  0.00    -0.166 F 
ENDBRANCH  28  37
ENDBRANCH   1  24
TORSDOF 6
ENDMDL
