MODEL 16
REMARK VINA RESULT: -9.548299427      1.600      1.906
REMARK  6 active torsions:
REMARK  status: ('A' for Active; 'I' for Inactive)
REMARK    1  A    between atoms: N1_4  and  C4_5 
REMARK    2  A    between atoms: C6_7  and  N2_8 
REMARK       I    between atoms: N2_8  and  C7_10 
REMARK    3  A    between atoms: C7_10  and  C8_12 
REMARK    4  A    between atoms: C15_19  and  N3_20 
REMARK    5  A    between atoms: N3_20  and  C16_22 
REMARK    6  A    between atoms: C22_32  and  C23_33 
ROOT
HETATM    1  N2  UNL     1      36.503   3.029 -38.414  1.00  0.00    -0.323 N 
ATOM      2  H2  UNL     1      36.992   3.174 -37.531  1.00  0.00     0.169 HD
HETATM    3  C7  UNL     1      36.848   1.958 -39.230  1.00  0.00     0.256 C 
HETATM    4  O1  UNL     1      36.253   1.785 -40.350  1.00  0.00    -0.267 OA
ENDROOT
BRANCH   3   5
HETATM    5  C8  UNL     1      37.863   0.977 -38.897  1.00  0.00     0.032 A 
HETATM    6  C9  UNL     1      39.214   1.140 -39.010  1.00  0.00     0.017 A 
HETATM    7  C10 UNL     1      40.112   0.112 -38.675  1.00  0.00     0.009 A 
HETATM    8  C11 UNL     1      39.678  -1.119 -38.213  1.00  0.00    -0.050 A 
HETATM    9  C12 UNL     1      38.320  -1.269 -38.099  1.00  0.00    -0.049 A 
HETATM   10  C20 UNL     1      40.358  -2.408 -37.829  1.00  0.00     0.064 C 
HETATM   11  C13 UNL     1      37.437  -0.282 -38.422  1.00  0.00     0.024 A 
HETATM   12  C14 UNL     1      38.082  -2.647 -37.542  1.00  0.00     0.064 C 
HETATM   13  C15 UNL     1      39.212  -3.402 -38.141  1.00  0.00     0.090 C 
BRANCH  13  14
HETATM   14  N3  UNL     1      39.521  -4.640 -37.521  1.00  0.00    -0.383 N 
ATOM     15  H3  UNL     1      40.248  -5.201 -37.963  1.00  0.00     0.160 HD
BRANCH  14  16
HETATM   16  C16 UNL     1      38.929  -5.178 -36.357  1.00  0.00     0.059 A 
HETATM   17  C17 UNL     1      39.348  -4.885 -35.082  1.00  0.00     0.119 A 
HETATM   18  N4  UNL     1      38.752  -5.450 -33.990  1.00  0.00    -0.360 N 
HETATM   19  C18 UNL     1      37.743  -6.303 -34.134  1.00  0.00     0.180 A 
ATOM     20  H4  UNL     1      39.085  -5.216 -33.055  1.00  0.00     0.166 HD
HETATM   21  N5  UNL     1      37.315  -6.607 -35.365  1.00  0.00    -0.360 N 
HETATM   22  C19 UNL     1      37.890  -6.061 -36.475  1.00  0.00     0.119 A 
ATOM     23  H5  UNL     1      36.540  -7.261 -35.476  1.00  0.00     0.166 HD
ENDBRANCH  14  16
ENDBRANCH  13  14
ENDBRANCH   3   5
BRANCH   1  24
HETATM   24  C6  UNL     1      35.468   3.924 -38.806  1.00  0.00     0.037 A 
HETATM   25  C5  UNL     1      35.329   4.320 -40.128  1.00  0.00     0.059 A 
HETATM   26  C4  UNL     1      34.352   5.195 -40.545  1.00  0.00     0.042 A 
HETATM   27  C24 UNL     1      33.455   5.713 -39.599  1.00  0.00     0.046 A 
HETATM   28  C22 UNL     1      33.563   5.349 -38.305  1.00  0.00     0.052 A 
HETATM   29  C21 UNL     1      34.565   4.462 -37.925  1.00  0.00     0.046 A 
BRANCH  26  30
HETATM   30  N1  UNL     1      34.206   5.583 -41.916  1.00  0.00    -0.317 N 
HETATM   31  C3  UNL     1      34.521   6.811 -42.403  1.00  0.00     0.122 A 
HETATM   32  C2  UNL     1      34.248   6.853 -43.752  1.00  0.00     0.022 A 
HETATM   33  C1  UNL     1      34.455   8.021 -44.648  1.00  0.00     0.069 C 
HETATM   34  N6  UNL     1      33.771   5.649 -44.075  1.00  0.00    -0.354 N 
HETATM   35  C25 UNL     1      33.749   4.887 -42.957  1.00  0.00     0.188 A 
ATOM     36  H6  UNL     1      33.473   5.354 -45.004  1.00  0.00     0.166 HD
ENDBRANCH  26  30
BRANCH  28  37
HETATM   37  C23 UNL     1      32.602   5.900 -37.288  1.00  0.00     0.417 C 
HETATM   38  F1  UNL     1      33.189   5.925 -36.056  1.00  0.00    -0.166 F 
HETATM   39  F2  UNL     1      32.227   7.166 -37.680  1.00  0.00    -0.166 F 
HETATM   40  F3  UNL     1      31.445   5.130 -37.327  1.00  0.00    -0.166 F 
ENDBRANCH  28  37
ENDBRANCH   1  24
TORSDOF 6
ENDMDL
