MODEL 5
REMARK VINA RESULT: -10.585989422      3.744     11.964
REMARK  6 active torsions:
REMARK  status: ('A' for Active; 'I' for Inactive)
REMARK    1  A    between atoms: N1_4  and  C4_5 
REMARK    2  A    between atoms: C6_7  and  N2_8 
REMARK       I    between atoms: N2_8  and  C7_10 
REMARK    3  A    between atoms: C7_10  and  C8_12 
REMARK    4  A    between atoms: C15_19  and  N3_20 
REMARK    5  A    between atoms: N3_20  and  C16_22 
REMARK    6  A    between atoms: C22_32  and  C23_33 
ROOT
HETATM    1  N2  UNL     1      35.731   1.022 -39.087  1.00  0.00    -0.323 N 
ATOM      2  H2  UNL     1      34.728   0.884 -38.964  1.00  0.00     0.169 HD
HETATM    3  C7  UNL     1      36.247   2.310 -39.182  1.00  0.00     0.256 C 
HETATM    4  O1  UNL     1      37.501   2.488 -39.361  1.00  0.00    -0.267 OA
ENDROOT
BRANCH   3   5
HETATM    5  C8  UNL     1      35.446   3.515 -39.083  1.00  0.00     0.032 A 
HETATM    6  C9  UNL     1      34.886   4.022 -37.945  1.00  0.00     0.017 A 
HETATM    7  C10 UNL     1      34.109   5.193 -37.964  1.00  0.00     0.009 A 
HETATM    8  C11 UNL     1      33.870   5.895 -39.133  1.00  0.00    -0.050 A 
HETATM    9  C12 UNL     1      34.442   5.380 -40.267  1.00  0.00    -0.049 A 
HETATM   10  C20 UNL     1      33.065   7.118 -39.490  1.00  0.00     0.064 C 
HETATM   11  C13 UNL     1      35.196   4.245 -40.264  1.00  0.00     0.024 A 
HETATM   12  C14 UNL     1      34.096   6.318 -41.392  1.00  0.00     0.064 C 
HETATM   13  C15 UNL     1      32.752   6.792 -40.972  1.00  0.00     0.090 C 
BRANCH  13  14
HETATM   14  N3  UNL     1      32.296   7.980 -41.599  1.00  0.00    -0.383 N 
ATOM     15  H3  UNL     1      32.824   8.829 -41.402  1.00  0.00     0.160 HD
BRANCH  14  16
HETATM   16  C16 UNL     1      31.190   8.112 -42.467  1.00  0.00     0.059 A 
HETATM   17  C17 UNL     1      31.268   8.659 -43.724  1.00  0.00     0.119 A 
HETATM   18  N4  UNL     1      30.162   8.782 -44.516  1.00  0.00    -0.360 N 
HETATM   19  C18 UNL     1      28.973   8.371 -44.088  1.00  0.00     0.180 A 
ATOM     20  H4  UNL     1      30.248   9.194 -45.445  1.00  0.00     0.166 HD
HETATM   21  N5  UNL     1      28.868   7.835 -42.866  1.00  0.00    -0.360 N 
HETATM   22  C19 UNL     1      29.952   7.700 -42.051  1.00  0.00     0.119 A 
ATOM     23  H5  UNL     1      27.955   7.520 -42.537  1.00  0.00     0.166 HD
ENDBRANCH  14  16
ENDBRANCH  13  14
ENDBRANCH   3   5
BRANCH   1  24
HETATM   24  C6  UNL     1      36.598  -0.104 -39.162  1.00  0.00     0.037 A 
HETATM   25  C5  UNL     1      37.152  -0.657 -38.018  1.00  0.00     0.059 A 
HETATM   26  C4  UNL     1      38.007  -1.735 -38.049  1.00  0.00     0.042 A 
HETATM   27  C24 UNL     1      38.336  -2.304 -39.288  1.00  0.00     0.046 A 
HETATM   28  C22 UNL     1      37.815  -1.791 -40.420  1.00  0.00     0.052 A 
HETATM   29  C21 UNL     1      36.956  -0.700 -40.345  1.00  0.00     0.046 A 
BRANCH  26  30
HETATM   30  N1  UNL     1      38.559  -2.309 -36.859  1.00  0.00    -0.317 N 
HETATM   31  C3  UNL     1      38.467  -3.622 -36.525  1.00  0.00     0.122 A 
HETATM   32  C2  UNL     1      39.091  -3.833 -35.316  1.00  0.00     0.022 A 
HETATM   33  C1  UNL     1      39.206  -5.136 -34.609  1.00  0.00     0.069 C 
HETATM   34  N6  UNL     1      39.559  -2.646 -34.924  1.00  0.00    -0.354 N 
HETATM   35  C25 UNL     1      39.232  -1.729 -35.864  1.00  0.00     0.188 A 
ATOM     36  H6  UNL     1      40.075  -2.461 -34.064  1.00  0.00     0.166 HD
ENDBRANCH  26  30
BRANCH  28  37
HETATM   37  C23 UNL     1      38.165  -2.400 -41.750  1.00  0.00     0.417 C 
HETATM   38  F1  UNL     1      39.293  -1.815 -42.250  1.00  0.00    -0.166 F 
HETATM   39  F2  UNL     1      38.348  -3.754 -41.578  1.00  0.00    -0.166 F 
HETATM   40  F3  UNL     1      37.063  -2.266 -42.587  1.00  0.00    -0.166 F 
ENDBRANCH  28  37
ENDBRANCH   1  24
TORSDOF 6
ENDMDL
