MODEL 7
REMARK VINA RESULT: -10.334418515      3.852     11.280
REMARK  6 active torsions:
REMARK  status: ('A' for Active; 'I' for Inactive)
REMARK    1  A    between atoms: N1_4  and  C4_5 
REMARK    2  A    between atoms: C6_7  and  N2_8 
REMARK       I    between atoms: N2_8  and  C7_10 
REMARK    3  A    between atoms: C7_10  and  C8_12 
REMARK    4  A    between atoms: C15_19  and  N3_20 
REMARK    5  A    between atoms: N3_20  and  C16_22 
REMARK    6  A    between atoms: C22_32  and  C23_33 
ROOT
HETATM    1  N2  UNL     1      35.758   1.036 -39.049  1.00  0.00    -0.323 N 
ATOM      2  H2  UNL     1      34.764   0.890 -38.876  1.00  0.00     0.169 HD
HETATM    3  C7  UNL     1      36.254   2.326 -39.198  1.00  0.00     0.256 C 
HETATM    4  O1  UNL     1      37.496   2.515 -39.439  1.00  0.00    -0.267 OA
ENDROOT
BRANCH   3   5
HETATM    5  C8  UNL     1      35.444   3.525 -39.090  1.00  0.00     0.032 A 
HETATM    6  C9  UNL     1      34.872   4.015 -37.951  1.00  0.00     0.017 A 
HETATM    7  C10 UNL     1      34.087   5.180 -37.962  1.00  0.00     0.009 A 
HETATM    8  C11 UNL     1      33.852   5.895 -39.124  1.00  0.00    -0.050 A 
HETATM    9  C12 UNL     1      34.435   5.397 -40.260  1.00  0.00    -0.049 A 
HETATM   10  C20 UNL     1      33.040   7.116 -39.473  1.00  0.00     0.064 C 
HETATM   11  C13 UNL     1      35.197   4.267 -40.265  1.00  0.00     0.024 A 
HETATM   12  C14 UNL     1      34.090   6.345 -41.376  1.00  0.00     0.064 C 
HETATM   13  C15 UNL     1      32.740   6.805 -40.960  1.00  0.00     0.090 C 
BRANCH  13  14
HETATM   14  N3  UNL     1      32.281   7.997 -41.576  1.00  0.00    -0.383 N 
ATOM     15  H3  UNL     1      32.797   8.849 -41.360  1.00  0.00     0.160 HD
BRANCH  14  16
HETATM   16  C16 UNL     1      31.185   8.130 -42.458  1.00  0.00     0.059 A 
HETATM   17  C17 UNL     1      31.282   8.665 -43.719  1.00  0.00     0.119 A 
HETATM   18  N4  UNL     1      30.185   8.790 -44.524  1.00  0.00    -0.360 N 
HETATM   19  C18 UNL     1      28.989   8.392 -44.106  1.00  0.00     0.180 A 
ATOM     20  H4  UNL     1      30.286   9.193 -45.456  1.00  0.00     0.166 HD
HETATM   21  N5  UNL     1      28.866   7.868 -42.881  1.00  0.00    -0.360 N 
HETATM   22  C19 UNL     1      29.940   7.732 -42.053  1.00  0.00     0.119 A 
ATOM     23  H5  UNL     1      27.947   7.563 -42.559  1.00  0.00     0.166 HD
ENDBRANCH  14  16
ENDBRANCH  13  14
ENDBRANCH   3   5
BRANCH   1  24
HETATM   24  C6  UNL     1      36.635  -0.082 -39.138  1.00  0.00     0.037 A 
HETATM   25  C5  UNL     1      36.905  -0.685 -40.357  1.00  0.00     0.059 A 
HETATM   26  C4  UNL     1      37.735  -1.776 -40.482  1.00  0.00     0.042 A 
HETATM   27  C24 UNL     1      38.336  -2.307 -39.332  1.00  0.00     0.046 A 
HETATM   28  C22 UNL     1      38.095  -1.745 -38.130  1.00  0.00     0.052 A 
HETATM   29  C21 UNL     1      37.250  -0.643 -38.047  1.00  0.00     0.046 A 
BRANCH  26  30
HETATM   30  N1  UNL     1      38.019  -2.379 -41.749  1.00  0.00    -0.317 N 
HETATM   31  C3  UNL     1      37.941  -1.734 -42.941  1.00  0.00     0.122 A 
HETATM   32  C2  UNL     1      38.265  -2.606 -43.957  1.00  0.00     0.022 A 
HETATM   33  C1  UNL     1      38.296  -2.283 -45.408  1.00  0.00     0.069 C 
HETATM   34  N6  UNL     1      38.539  -3.775 -43.373  1.00  0.00    -0.354 N 
HETATM   35  C25 UNL     1      38.388  -3.628 -42.037  1.00  0.00     0.188 A 
ATOM     36  H6  UNL     1      38.815  -4.632 -43.852  1.00  0.00     0.166 HD
ENDBRANCH  26  30
BRANCH  28  37
HETATM   37  C23 UNL     1      38.740  -2.310 -36.895  1.00  0.00     0.417 C 
HETATM   38  F1  UNL     1      38.761  -1.369 -35.906  1.00  0.00    -0.166 F 
HETATM   39  F2  UNL     1      38.030  -3.423 -36.500  1.00  0.00    -0.166 F 
HETATM   40  F3  UNL     1      40.006  -2.768 -37.242  1.00  0.00    -0.166 F 
ENDBRANCH  28  37
ENDBRANCH   1  24
TORSDOF 6
ENDMDL
