MODEL 6
REMARK VINA RESULT: -10.349827019      0.935      1.209
REMARK  6 active torsions:
REMARK  status: ('A' for Active; 'I' for Inactive)
REMARK    1  A    between atoms: N1_4  and  C4_5 
REMARK    2  A    between atoms: C6_7  and  N2_8 
REMARK       I    between atoms: N2_8  and  C7_10 
REMARK    3  A    between atoms: C7_10  and  C8_12 
REMARK    4  A    between atoms: C15_19  and  N3_20 
REMARK    5  A    between atoms: N3_20  and  C16_22 
REMARK    6  A    between atoms: C22_32  and  C23_33 
ROOT
HETATM    1  N2  UNL     1      36.041   3.395 -39.895  1.00  0.00    -0.323 N 
ATOM      2  H2  UNL     1      36.726   3.503 -40.642  1.00  0.00     0.169 HD
HETATM    3  C7  UNL     1      36.059   2.256 -39.097  1.00  0.00     0.256 C 
HETATM    4  O1  UNL     1      35.186   2.104 -38.173  1.00  0.00    -0.267 OA
ENDROOT
BRANCH   3   5
HETATM    5  C8  UNL     1      37.030   1.187 -39.229  1.00  0.00     0.032 A 
HETATM    6  C9  UNL     1      37.680   0.821 -40.373  1.00  0.00     0.017 A 
HETATM    7  C10 UNL     1      38.593  -0.247 -40.393  1.00  0.00     0.009 A 
HETATM    8  C11 UNL     1      38.884  -0.984 -39.258  1.00  0.00    -0.050 A 
HETATM    9  C12 UNL     1      38.230  -0.604 -38.115  1.00  0.00    -0.049 A 
HETATM   10  C20 UNL     1      39.749  -2.183 -38.964  1.00  0.00     0.064 C 
HETATM   11  C13 UNL     1      37.341   0.428 -38.080  1.00  0.00     0.024 A 
HETATM   12  C14 UNL     1      38.729  -1.499 -37.012  1.00  0.00     0.064 C 
HETATM   13  C15 UNL     1      38.977  -2.762 -37.753  1.00  0.00     0.090 C 
BRANCH  13  14
HETATM   14  N3  UNL     1      39.817  -3.701 -37.101  1.00  0.00    -0.383 N 
ATOM     15  H3  UNL     1      40.814  -3.638 -37.307  1.00  0.00     0.160 HD
BRANCH  14  16
HETATM   16  C16 UNL     1      39.422  -4.712 -36.198  1.00  0.00     0.059 A 
HETATM   17  C17 UNL     1      39.132  -6.001 -36.575  1.00  0.00     0.119 A 
HETATM   18  N4  UNL     1      38.735  -6.936 -35.662  1.00  0.00    -0.360 N 
HETATM   19  C18 UNL     1      38.621  -6.622 -34.376  1.00  0.00     0.180 A 
ATOM     20  H4  UNL     1      38.524  -7.885 -35.970  1.00  0.00     0.166 HD
HETATM   21  N5  UNL     1      38.897  -5.374 -33.981  1.00  0.00    -0.360 N 
HETATM   22  C19 UNL     1      39.293  -4.417 -34.868  1.00  0.00     0.119 A 
ATOM     23  H5  UNL     1      38.808  -5.132 -32.994  1.00  0.00     0.166 HD
ENDBRANCH  14  16
ENDBRANCH  13  14
ENDBRANCH   3   5
BRANCH   1  24
HETATM   24  C6  UNL     1      35.069   4.410 -39.670  1.00  0.00     0.037 A 
HETATM   25  C5  UNL     1      34.575   5.172 -40.719  1.00  0.00     0.059 A 
HETATM   26  C4  UNL     1      33.647   6.172 -40.541  1.00  0.00     0.042 A 
HETATM   27  C24 UNL     1      33.176   6.439 -39.248  1.00  0.00     0.046 A 
HETATM   28  C22 UNL     1      33.635   5.718 -38.206  1.00  0.00     0.052 A 
HETATM   29  C21 UNL     1      34.573   4.715 -38.428  1.00  0.00     0.046 A 
BRANCH  26  30
HETATM   30  N1  UNL     1      33.132   6.940 -41.634  1.00  0.00    -0.317 N 
HETATM   31  C3  UNL     1      32.071   7.784 -41.547  1.00  0.00     0.122 A 
HETATM   32  C2  UNL     1      31.832   8.350 -42.779  1.00  0.00     0.022 A 
HETATM   33  C1  UNL     1      30.757   9.326 -43.098  1.00  0.00     0.069 C 
HETATM   34  N6  UNL     1      32.751   7.846 -43.607  1.00  0.00    -0.354 N 
HETATM   35  C25 UNL     1      33.533   6.994 -42.905  1.00  0.00     0.188 A 
ATOM     36  H6  UNL     1      32.847   8.066 -44.598  1.00  0.00     0.166 HD
ENDBRANCH  26  30
BRANCH  28  37
HETATM   37  C23 UNL     1      33.130   6.000 -36.818  1.00  0.00     0.417 C 
HETATM   38  F1  UNL     1      32.102   6.897 -36.867  1.00  0.00    -0.166 F 
HETATM   39  F2  UNL     1      32.721   4.814 -36.249  1.00  0.00    -0.166 F 
HETATM   40  F3  UNL     1      34.204   6.441 -36.051  1.00  0.00    -0.166 F 
ENDBRANCH  28  37
ENDBRANCH   1  24
TORSDOF 6
ENDMDL
