MODEL 4
REMARK VINA RESULT: -7.022171594      9.074     13.004
REMARK  4 active torsions:
REMARK  status: ('A' for Active; 'I' for Inactive)
REMARK    1  A    between atoms: C5_5  and  C6_6 
REMARK       I    between atoms: C6_6  and  N1_8 
REMARK    2  A    between atoms: N1_8  and  C7_10 
REMARK    3  A    between atoms: C11_16  and  C12_17 
REMARK    4  A    between atoms: C12_17  and  N3_18 
ROOT
HETATM    1  C7  UNL     1     -11.621  10.838  15.126  1.00  0.00     0.037 A 
HETATM    2  C8  UNL     1     -12.893  10.348  15.145  1.00  0.00     0.032 A 
HETATM    3  C9  UNL     1     -13.357   9.365  14.297  1.00  0.00     0.034 A 
HETATM    4  C10 UNL     1     -12.487   8.824  13.353  1.00  0.00     0.060 A 
HETATM    5  N2  UNL     1     -12.622   7.883  12.410  1.00  0.00    -0.343 N 
ATOM      6  H2  UNL     1     -13.478   7.362  12.219  1.00  0.00     0.167 HD
HETATM    7  C11 UNL     1     -11.462   7.730  11.754  1.00  0.00     0.111 A 
HETATM    8  N4  UNL     1     -10.596   8.592  12.303  1.00  0.00    -0.343 N 
ATOM      9  H4  UNL     1      -9.625   8.706  12.013  1.00  0.00     0.167 HD
HETATM   10  C18 UNL     1     -11.197   9.293  13.304  1.00  0.00     0.062 A 
HETATM   11  C19 UNL     1     -10.780  10.266  14.162  1.00  0.00     0.061 A 
ENDROOT
BRANCH   1  12
HETATM   12  N1  UNL     1     -11.095  11.854  15.981  1.00  0.00    -0.323 N 
HETATM   13  C6  UNL     1     -10.225  11.680  17.057  1.00  0.00     0.256 C 
HETATM   14  O1  UNL     1      -9.827  10.536  17.360  1.00  0.00    -0.267 OA
ATOM     15  H1  UNL     1     -11.387  12.811  15.783  1.00  0.00     0.169 HD
BRANCH  13  16
HETATM   16  C5  UNL     1      -9.751  12.783  17.857  1.00  0.00     0.033 A 
HETATM   17  C4  UNL     1      -8.775  12.655  18.798  1.00  0.00     0.017 A 
HETATM   18  C3  UNL     1      -8.333  13.744  19.554  1.00  0.00     0.009 A 
HETATM   19  C2  UNL     1      -8.890  14.981  19.354  1.00  0.00    -0.045 A 
HETATM   20  C1  UNL     1      -8.453  16.178  20.134  1.00  0.00     0.049 C 
HETATM   21  C21 UNL     1      -9.887  15.157  18.406  1.00  0.00     0.013 A 
HETATM   22  C20 UNL     1     -10.292  14.063  17.686  1.00  0.00     0.035 A 
HETATM   23  I1  UNL     1     -10.719  17.073  18.125  1.00  0.00    -0.044 I 
ENDBRANCH  13  16
ENDBRANCH   1  12
BRANCH   7  24
HETATM   24  C12 UNL     1     -11.177   6.777  10.620  1.00  0.00     0.348 C 
BRANCH  24  25
HETATM   25  N3  UNL     1     -11.196   7.515   9.375  1.00  0.00     0.095 N 
HETATM   26  C13 UNL     1     -12.488   7.487   8.748  1.00  0.00     0.273 C 
HETATM   27  C14 UNL     1     -12.512   6.421   7.690  1.00  0.00     0.030 C 
HETATM   28  C15 UNL     1     -11.643   6.823   6.516  1.00  0.00     0.003 C 
HETATM   29  C16 UNL     1     -10.408   7.479   7.060  1.00  0.00     0.030 C 
HETATM   30  C17 UNL     1     -10.154   7.010   8.492  1.00  0.00     0.273 C 
ENDBRANCH  24  25
ENDBRANCH   7  24
TORSDOF 4
ENDMDL
