MODEL 2
REMARK VINA RESULT: -7.148659577      9.036     13.220
REMARK  4 active torsions:
REMARK  status: ('A' for Active; 'I' for Inactive)
REMARK    1  A    between atoms: C5_5  and  C6_6 
REMARK       I    between atoms: C6_6  and  N1_8 
REMARK    2  A    between atoms: N1_8  and  C7_10 
REMARK    3  A    between atoms: C11_16  and  C12_17 
REMARK    4  A    between atoms: C12_17  and  N3_18 
ROOT
HETATM    1  C7  UNL     1     -11.685  10.180  14.924  1.00  0.00     0.037 A 
HETATM    2  C8  UNL     1     -12.760   9.380  15.172  1.00  0.00     0.032 A 
HETATM    3  C9  UNL     1     -13.120   8.302  14.392  1.00  0.00     0.034 A 
HETATM    4  C10 UNL     1     -12.349   7.992  13.274  1.00  0.00     0.060 A 
HETATM    5  N2  UNL     1     -12.426   7.038  12.337  1.00  0.00    -0.343 N 
ATOM      6  H2  UNL     1     -13.142   6.313  12.296  1.00  0.00     0.167 HD
HETATM    7  C11 UNL     1     -11.422   7.181  11.461  1.00  0.00     0.111 A 
HETATM    8  N4  UNL     1     -10.711   8.242  11.864  1.00  0.00    -0.343 N 
ATOM      9  H4  UNL     1      -9.879   8.599  11.394  1.00  0.00     0.167 HD
HETATM   10  C18 UNL     1     -11.257   8.776  12.992  1.00  0.00     0.062 A 
HETATM   11  C19 UNL     1     -10.937   9.833  13.791  1.00  0.00     0.061 A 
ENDROOT
BRANCH   1  12
HETATM   12  N1  UNL     1     -11.273  11.305  15.700  1.00  0.00    -0.323 N 
HETATM   13  C6  UNL     1     -10.353  11.313  16.748  1.00  0.00     0.256 C 
HETATM   14  O1  UNL     1      -9.794  10.253  17.097  1.00  0.00    -0.267 OA
ATOM     15  H1  UNL     1     -11.699  12.202  15.462  1.00  0.00     0.169 HD
BRANCH  13  16
HETATM   16  C5  UNL     1     -10.008  12.516  17.467  1.00  0.00     0.033 A 
HETATM   17  C4  UNL     1     -10.750  13.657  17.409  1.00  0.00     0.017 A 
HETATM   18  C3  UNL     1     -10.393  14.804  18.122  1.00  0.00     0.009 A 
HETATM   19  C2  UNL     1      -9.267  14.796  18.904  1.00  0.00    -0.045 A 
HETATM   20  C1  UNL     1      -8.841  15.995  19.687  1.00  0.00     0.049 C 
HETATM   21  C21 UNL     1      -8.481  13.656  18.992  1.00  0.00     0.013 A 
HETATM   22  C20 UNL     1      -8.866  12.551  18.277  1.00  0.00     0.035 A 
HETATM   23  I1  UNL     1      -6.757  13.679  20.204  1.00  0.00    -0.044 I 
ENDBRANCH  13  16
ENDBRANCH   1  12
BRANCH   7  24
HETATM   24  C12 UNL     1     -11.136   6.321  10.255  1.00  0.00     0.348 C 
BRANCH  24  25
HETATM   25  N3  UNL     1     -11.303   7.123   9.061  1.00  0.00     0.095 N 
HETATM   26  C13 UNL     1     -12.570   6.890   8.424  1.00  0.00     0.273 C 
HETATM   27  C14 UNL     1     -12.396   5.912   7.297  1.00  0.00     0.030 C 
HETATM   28  C15 UNL     1     -11.626   6.550   6.159  1.00  0.00     0.003 C 
HETATM   29  C16 UNL     1     -10.536   7.392   6.755  1.00  0.00     0.030 C 
HETATM   30  C17 UNL     1     -10.188   6.886   8.154  1.00  0.00     0.273 C 
ENDBRANCH  24  25
ENDBRANCH   7  24
TORSDOF 4
ENDMDL
