MODEL 3
REMARK VINA RESULT: -7.075504090      1.074      1.623
REMARK  4 active torsions:
REMARK  status: ('A' for Active; 'I' for Inactive)
REMARK    1  A    between atoms: C5_5  and  C6_6 
REMARK       I    between atoms: C6_6  and  N1_8 
REMARK    2  A    between atoms: N1_8  and  C7_10 
REMARK    3  A    between atoms: C11_16  and  C12_17 
REMARK    4  A    between atoms: C12_17  and  N3_18 
ROOT
HETATM    1  C7  UNL     1      -0.895  15.585  16.981  1.00  0.00     0.037 A 
HETATM    2  C8  UNL     1      -0.945  16.629  17.856  1.00  0.00     0.032 A 
HETATM    3  C9  UNL     1      -1.989  16.863  18.726  1.00  0.00     0.034 A 
HETATM    4  C10 UNL     1      -3.072  15.987  18.728  1.00  0.00     0.060 A 
HETATM    5  N2  UNL     1      -4.212  15.933  19.429  1.00  0.00    -0.343 N 
ATOM      6  H2  UNL     1      -4.490  16.601  20.148  1.00  0.00     0.167 HD
HETATM    7  C11 UNL     1      -4.932  14.871  19.042  1.00  0.00     0.111 A 
HETATM    8  N4  UNL     1      -4.224  14.257  18.086  1.00  0.00    -0.343 N 
ATOM      9  H4  UNL     1      -4.517  13.411  17.597  1.00  0.00     0.167 HD
HETATM   10  C18 UNL     1      -3.057  14.922  17.861  1.00  0.00     0.062 A 
HETATM   11  C19 UNL     1      -2.004  14.728  17.017  1.00  0.00     0.061 A 
ENDROOT
BRANCH   1  12
HETATM   12  N1  UNL     1       0.161  15.302  16.063  1.00  0.00    -0.323 N 
HETATM   13  C6  UNL     1       0.050  15.116  14.686  1.00  0.00     0.256 C 
HETATM   14  O1  UNL     1      -1.067  15.190  14.133  1.00  0.00    -0.267 OA
ATOM     15  H1  UNL     1       1.099  15.228  16.458  1.00  0.00     0.169 HD
BRANCH  13  16
HETATM   16  C5  UNL     1       1.191  14.835  13.847  1.00  0.00     0.033 A 
HETATM   17  C4  UNL     1       1.314  13.691  13.117  1.00  0.00     0.017 A 
HETATM   18  C3  UNL     1       2.428  13.450  12.310  1.00  0.00     0.009 A 
HETATM   19  C2  UNL     1       3.432  14.381  12.241  1.00  0.00    -0.045 A 
HETATM   20  C1  UNL     1       4.645  14.173  11.392  1.00  0.00     0.049 C 
HETATM   21  C21 UNL     1       3.349  15.560  12.967  1.00  0.00     0.013 A 
HETATM   22  C20 UNL     1       2.239  15.758  13.747  1.00  0.00     0.035 A 
HETATM   23  I1  UNL     1       4.911  16.969  12.836  1.00  0.00    -0.044 I 
ENDBRANCH  13  16
ENDBRANCH   1  12
BRANCH   7  24
HETATM   24  C12 UNL     1      -6.276  14.441  19.574  1.00  0.00     0.348 C 
BRANCH  24  25
HETATM   25  N3  UNL     1      -6.090  13.828  20.872  1.00  0.00     0.095 N 
HETATM   26  C13 UNL     1      -6.603  12.487  20.917  1.00  0.00     0.273 C 
HETATM   27  C14 UNL     1      -7.976  12.492  21.527  1.00  0.00     0.030 C 
HETATM   28  C15 UNL     1      -7.896  12.809  23.006  1.00  0.00     0.003 C 
HETATM   29  C16 UNL     1      -6.859  13.877  23.193  1.00  0.00     0.030 C 
HETATM   30  C17 UNL     1      -6.686  14.671  21.900  1.00  0.00     0.273 C 
ENDBRANCH  24  25
ENDBRANCH   7  24
TORSDOF 4
ENDMDL
