MODEL 1
REMARK VINA RESULT: -7.522119958      0.000      0.000
REMARK  4 active torsions:
REMARK  status: ('A' for Active; 'I' for Inactive)
REMARK    1  A    between atoms: C5_5  and  C6_6 
REMARK       I    between atoms: C6_6  and  N1_8 
REMARK    2  A    between atoms: N1_8  and  C7_10 
REMARK    3  A    between atoms: C11_16  and  C12_17 
REMARK    4  A    between atoms: C12_17  and  N3_18 
ROOT
HETATM    1  C7  UNL     1      -0.960  15.718  17.175  1.00  0.00     0.037 A 
HETATM    2  C8  UNL     1      -1.060  16.890  17.864  1.00  0.00     0.032 A 
HETATM    3  C9  UNL     1      -2.059  17.174  18.771  1.00  0.00     0.034 A 
HETATM    4  C10 UNL     1      -3.039  16.214  19.015  1.00  0.00     0.060 A 
HETATM    5  N2  UNL     1      -4.114  16.177  19.813  1.00  0.00    -0.343 N 
ATOM      6  H2  UNL     1      -4.410  16.932  20.433  1.00  0.00     0.167 HD
HETATM    7  C11 UNL     1      -4.741  15.001  19.675  1.00  0.00     0.111 A 
HETATM    8  N4  UNL     1      -4.041  14.298  18.776  1.00  0.00    -0.343 N 
ATOM      9  H4  UNL     1      -4.275  13.356  18.462  1.00  0.00     0.167 HD
HETATM   10  C18 UNL     1      -2.971  15.020  18.340  1.00  0.00     0.062 A 
HETATM   11  C19 UNL     1      -1.965  14.781  17.451  1.00  0.00     0.061 A 
ENDROOT
BRANCH   1  12
HETATM   12  N1  UNL     1       0.052  15.380  16.228  1.00  0.00    -0.323 N 
HETATM   13  C6  UNL     1      -0.116  15.155  14.862  1.00  0.00     0.256 C 
HETATM   14  O1  UNL     1      -1.251  15.241  14.349  1.00  0.00    -0.267 OA
ATOM     15  H1  UNL     1       1.002  15.293  16.589  1.00  0.00     0.169 HD
BRANCH  13  16
HETATM   16  C5  UNL     1       0.984  14.818  13.990  1.00  0.00     0.033 A 
HETATM   17  C4  UNL     1       1.038  13.661  13.273  1.00  0.00     0.017 A 
HETATM   18  C3  UNL     1       2.114  13.365  12.433  1.00  0.00     0.009 A 
HETATM   19  C2  UNL     1       3.151  14.254  12.318  1.00  0.00    -0.045 A 
HETATM   20  C1  UNL     1       4.326  13.987  11.433  1.00  0.00     0.049 C 
HETATM   21  C21 UNL     1       3.138  15.445  13.030  1.00  0.00     0.013 A 
HETATM   22  C20 UNL     1       2.064  15.697  13.844  1.00  0.00     0.035 A 
HETATM   23  I1  UNL     1       4.750  16.788  12.829  1.00  0.00    -0.044 I 
ENDBRANCH  13  16
ENDBRANCH   1  12
BRANCH   7  24
HETATM   24  C12 UNL     1      -5.990  14.546  20.387  1.00  0.00     0.348 C 
BRANCH  24  25
HETATM   25  N3  UNL     1      -6.757  13.705  19.493  1.00  0.00     0.095 N 
HETATM   26  C13 UNL     1      -7.680  14.463  18.695  1.00  0.00     0.273 C 
HETATM   27  C14 UNL     1      -9.046  14.412  19.318  1.00  0.00     0.030 C 
HETATM   28  C15 UNL     1      -9.637  13.023  19.183  1.00  0.00     0.003 C 
HETATM   29  C16 UNL     1      -8.537  12.030  19.418  1.00  0.00     0.030 C 
HETATM   30  C17 UNL     1      -7.429  12.664  20.258  1.00  0.00     0.273 C 
ENDBRANCH  24  25
ENDBRANCH   7  24
TORSDOF 4
ENDMDL
