MODEL 5
REMARK VINA RESULT: -6.945100524      4.085     11.760
REMARK  4 active torsions:
REMARK  status: ('A' for Active; 'I' for Inactive)
REMARK    1  A    between atoms: C5_5  and  C6_6 
REMARK       I    between atoms: C6_6  and  N1_8 
REMARK    2  A    between atoms: N1_8  and  C7_10 
REMARK    3  A    between atoms: C11_16  and  C12_17 
REMARK    4  A    between atoms: C12_17  and  N3_18 
ROOT
HETATM    1  C7  UNL     1       1.866  14.714  13.912  1.00  0.00     0.037 A 
HETATM    2  C8  UNL     1       1.837  13.652  13.058  1.00  0.00     0.032 A 
HETATM    3  C9  UNL     1       2.718  13.472  12.014  1.00  0.00     0.034 A 
HETATM    4  C10 UNL     1       3.711  14.425  11.798  1.00  0.00     0.060 A 
HETATM    5  N2  UNL     1       4.695  14.543  10.897  1.00  0.00    -0.343 N 
ATOM      6  H2  UNL     1       4.887  13.878  10.148  1.00  0.00     0.167 HD
HETATM    7  C11 UNL     1       5.387  15.668  11.128  1.00  0.00     0.111 A 
HETATM    8  N4  UNL     1       4.822  16.254  12.190  1.00  0.00    -0.343 N 
ATOM      9  H4  UNL     1       5.133  17.132  12.605  1.00  0.00     0.167 HD
HETATM   10  C18 UNL     1       3.773  15.510  12.638  1.00  0.00     0.062 A 
HETATM   11  C19 UNL     1       2.880  15.649  13.660  1.00  0.00     0.061 A 
ENDROOT
BRANCH   1  12
HETATM   12  N1  UNL     1       0.977  14.944  15.004  1.00  0.00    -0.323 N 
HETATM   13  C6  UNL     1      -0.399  15.161  14.938  1.00  0.00     0.256 C 
HETATM   14  O1  UNL     1      -0.978  15.169  13.831  1.00  0.00    -0.267 OA
ATOM     15  H1  UNL     1       1.394  14.952  15.936  1.00  0.00     0.169 HD
BRANCH  13  16
HETATM   16  C5  UNL     1      -1.206  15.383  16.113  1.00  0.00     0.033 A 
HETATM   17  C4  UNL     1      -2.359  14.700  16.364  1.00  0.00     0.017 A 
HETATM   18  C3  UNL     1      -3.116  14.934  17.514  1.00  0.00     0.009 A 
HETATM   19  C2  UNL     1      -2.702  15.872  18.423  1.00  0.00    -0.045 A 
HETATM   20  C1  UNL     1      -3.474  16.159  19.670  1.00  0.00     0.049 C 
HETATM   21  C21 UNL     1      -1.535  16.591  18.208  1.00  0.00     0.013 A 
HETATM   22  C20 UNL     1      -0.820  16.332  17.067  1.00  0.00     0.035 A 
HETATM   23  I1  UNL     1      -0.927  18.025  19.628  1.00  0.00    -0.044 I 
ENDBRANCH  13  16
ENDBRANCH   1  12
BRANCH   7  24
HETATM   24  C12 UNL     1       6.574  16.181  10.350  1.00  0.00     0.348 C 
BRANCH  24  25
HETATM   25  N3  UNL     1       6.248  16.169   8.940  1.00  0.00     0.095 N 
HETATM   26  C13 UNL     1       7.422  16.142   8.113  1.00  0.00     0.273 C 
HETATM   27  C14 UNL     1       7.745  17.534   7.649  1.00  0.00     0.030 C 
HETATM   28  C15 UNL     1       6.712  18.009   6.648  1.00  0.00     0.003 C 
HETATM   29  C16 UNL     1       5.366  17.540   7.118  1.00  0.00     0.030 C 
HETATM   30  C17 UNL     1       5.390  17.304   8.627  1.00  0.00     0.273 C 
ENDBRANCH  24  25
ENDBRANCH   7  24
TORSDOF 4
ENDMDL
