MODEL 2
REMARK VINA RESULT: -6.270951414      0.037      3.979
REMARK  3 active torsions:
REMARK  status: ('A' for Active; 'I' for Inactive)
REMARK    1  A    between atoms: O1_2  and  C2_3 
REMARK    2  A    between atoms: C6_7  and  O2_8 
REMARK    3  A    between atoms: C8_10  and  O3_11 
ROOT
HETATM    1  C2  UNL     1      43.520  78.856  37.144  1.00  0.00     0.104 A 
HETATM    2  C3  UNL     1      43.451  80.198  36.926  1.00  0.00     0.040 A 
HETATM    3  C4  UNL     1      42.995  81.065  37.900  1.00  0.00     0.006 A 
HETATM    4  C5  UNL     1      42.594  80.591  39.129  1.00  0.00     0.040 A 
HETATM    5  C6  UNL     1      42.659  79.238  39.363  1.00  0.00     0.104 A 
HETATM    6  C8  UNL     1      43.115  78.381  38.386  1.00  0.00     0.132 A 
ENDROOT
BRANCH   1   7
HETATM    7  O1  UNL     1      43.970  77.946  36.196  1.00  0.00    -0.353 OA
HETATM    8  C1  UNL     1      44.549  78.489  35.009  1.00  0.00     0.210 C 
ENDBRANCH   1   7
BRANCH   6   9
HETATM    9  O3  UNL     1      43.162  77.015  38.669  1.00  0.00    -0.356 OA
ATOM     10  H3  UNL     1      43.715  76.688  39.368  1.00  0.00     0.218 HD
ENDBRANCH   6   9
BRANCH   5  11
HETATM   11  O2  UNL     1      42.252  78.733  40.618  1.00  0.00    -0.353 OA
HETATM   12  C7  UNL     1      41.870  79.622  41.636  1.00  0.00     0.210 C 
ENDBRANCH   5  11
TORSDOF 3
ENDMDL
