MODEL 1
REMARK VINA RESULT: -6.271772499      0.000      0.000
REMARK  3 active torsions:
REMARK  status: ('A' for Active; 'I' for Inactive)
REMARK    1  A    between atoms: O1_2  and  C2_3 
REMARK    2  A    between atoms: C6_7  and  O2_8 
REMARK    3  A    between atoms: C8_10  and  O3_11 
ROOT
HETATM    1  C2  UNL     1      42.635  79.261  39.412  1.00  0.00     0.104 A 
HETATM    2  C3  UNL     1      42.596  80.592  39.129  1.00  0.00     0.040 A 
HETATM    3  C4  UNL     1      43.000  81.081  37.902  1.00  0.00     0.006 A 
HETATM    4  C5  UNL     1      43.457  80.227  36.924  1.00  0.00     0.040 A 
HETATM    5  C6  UNL     1      43.502  78.880  37.196  1.00  0.00     0.104 A 
HETATM    6  C8  UNL     1      43.097  78.402  38.422  1.00  0.00     0.132 A 
ENDROOT
BRANCH   1   7
HETATM    7  O1  UNL     1      42.240  78.723  40.631  1.00  0.00    -0.353 OA
HETATM    8  C1  UNL     1      41.886  79.651  41.658  1.00  0.00     0.210 C 
ENDBRANCH   1   7
BRANCH   6   9
HETATM    9  O3  UNL     1      43.161  77.027  38.654  1.00  0.00    -0.356 OA
ATOM     10  H3  UNL     1      42.473  76.590  39.143  1.00  0.00     0.218 HD
ENDBRANCH   6   9
BRANCH   5  11
HETATM   11  O2  UNL     1      43.968  77.989  36.204  1.00  0.00    -0.353 OA
HETATM   12  C7  UNL     1      44.532  78.496  35.021  1.00  0.00     0.210 C 
ENDBRANCH   5  11
TORSDOF 3
ENDMDL
