MODEL 8
REMARK VINA RESULT: -3.969820515      1.368      1.680
REMARK  3 active torsions:
REMARK  status: ('A' for Active; 'I' for Inactive)
REMARK    1  A    between atoms: O1_2  and  C2_3 
REMARK    2  A    between atoms: C6_7  and  O2_8 
REMARK    3  A    between atoms: C8_10  and  O3_11 
ROOT
HETATM    1  C2  UNL     1      42.575  80.469  40.035  1.00  0.00     0.104 A 
HETATM    2  C3  UNL     1      42.771  81.497  39.164  1.00  0.00     0.040 A 
HETATM    3  C4  UNL     1      42.951  81.273  37.813  1.00  0.00     0.006 A 
HETATM    4  C5  UNL     1      42.938  79.992  37.306  1.00  0.00     0.040 A 
HETATM    5  C6  UNL     1      42.741  78.945  38.175  1.00  0.00     0.104 A 
HETATM    6  C8  UNL     1      42.562  79.177  39.520  1.00  0.00     0.132 A 
ENDROOT
BRANCH   1   7
HETATM    7  O1  UNL     1      42.390  80.644  41.400  1.00  0.00    -0.353 OA
HETATM    8  C1  UNL     1      43.548  80.514  42.227  1.00  0.00     0.210 C 
ENDBRANCH   1   7
BRANCH   6   9
HETATM    9  O3  UNL     1      42.366  78.083  40.364  1.00  0.00    -0.356 OA
ATOM     10  H3  UNL     1      42.179  77.225  40.002  1.00  0.00     0.218 HD
ENDBRANCH   6   9
BRANCH   5  11
HETATM   11  O2  UNL     1      42.724  77.625  37.673  1.00  0.00    -0.353 OA
HETATM   12  C7  UNL     1      43.923  77.021  37.258  1.00  0.00     0.210 C 
ENDBRANCH   5  11
TORSDOF 3
ENDMDL
