MODEL 5
REMARK VINA RESULT: -4.795238929      1.023      1.158
REMARK  3 active torsions:
REMARK  status: ('A' for Active; 'I' for Inactive)
REMARK    1  A    between atoms: O1_2  and  C2_3 
REMARK    2  A    between atoms: C6_7  and  O2_8 
REMARK    3  A    between atoms: C8_10  and  O3_11 
ROOT
HETATM    1  C2  UNL     1      43.217  79.263  38.475  1.00  0.00     0.104 A 
HETATM    2  C3  UNL     1      43.352  80.567  38.106  1.00  0.00     0.040 A 
HETATM    3  C4  UNL     1      43.829  80.918  36.858  1.00  0.00     0.006 A 
HETATM    4  C5  UNL     1      44.185  79.949  35.946  1.00  0.00     0.040 A 
HETATM    5  C6  UNL     1      44.054  78.629  36.305  1.00  0.00     0.104 A 
HETATM    6  C8  UNL     1      43.577  78.289  37.551  1.00  0.00     0.132 A 
ENDROOT
BRANCH   1   7
HETATM    7  O1  UNL     1      42.743  78.862  39.717  1.00  0.00    -0.353 OA
HETATM    8  C1  UNL     1      41.563  79.511  40.194  1.00  0.00     0.210 C 
ENDBRANCH   1   7
BRANCH   6   9
HETATM    9  O3  UNL     1      43.462  76.935  37.873  1.00  0.00    -0.356 OA
ATOM     10  H3  UNL     1      42.737  76.422  37.537  1.00  0.00     0.218 HD
ENDBRANCH   6   9
BRANCH   5  11
HETATM   11  O2  UNL     1      44.414  77.622  35.383  1.00  0.00    -0.353 OA
HETATM   12  C7  UNL     1      44.581  77.947  34.026  1.00  0.00     0.210 C 
ENDBRANCH   5  11
TORSDOF 3
ENDMDL
