MODEL 12
REMARK VINA RESULT: -6.821842525      4.386      7.308
REMARK  5 active torsions:
REMARK  status: ('A' for Active; 'I' for Inactive)
REMARK    1  A    between atoms: O1_2  and  C2_3 
REMARK    2  A    between atoms: C5_6  and  C6_7 
REMARK    3  A    between atoms: C6_7  and  N1_8 
REMARK    4  A    between atoms: C12_14  and  C13_15 
REMARK       I    between atoms: C13_15  and  N2_17 
REMARK    5  A    between atoms: N2_17  and  O3_19 
ROOT
HETATM    1  N1  UNL     1      41.691  35.865  84.963  1.00  0.00    -0.352 N 
HETATM    2  C7  UNL     1      41.098  35.366  86.057  1.00  0.00     0.092 A 
HETATM    3  C8  UNL     1      39.776  35.071  85.817  1.00  0.00     0.031 A 
HETATM    4  C9  UNL     1      39.576  35.423  84.483  1.00  0.00    -0.008 A 
HETATM    5  C10 UNL     1      38.454  35.363  83.663  1.00  0.00     0.015 A 
HETATM    6  C11 UNL     1      38.568  35.795  82.362  1.00  0.00     0.018 A 
HETATM    7  C12 UNL     1      39.745  36.282  81.843  1.00  0.00     0.036 A 
HETATM    8  C14 UNL     1      40.844  36.336  82.659  1.00  0.00     0.047 A 
HETATM    9  C15 UNL     1      40.760  35.910  83.970  1.00  0.00     0.045 A 
ENDROOT
BRANCH   1  10
HETATM   10  C6  UNL     1      43.069  36.292  84.800  1.00  0.00     0.167 C 
BRANCH  10  11
HETATM   11  C5  UNL     1      43.963  35.119  84.918  1.00  0.00    -0.040 A 
HETATM   12  C4  UNL     1      44.021  34.291  83.806  1.00  0.00     0.011 A 
HETATM   13  C3  UNL     1      44.817  33.171  83.801  1.00  0.00     0.037 A 
HETATM   14  C2  UNL     1      45.561  32.867  84.907  1.00  0.00     0.068 A 
HETATM   15  C17 UNL     1      45.523  33.667  86.021  1.00  0.00     0.037 A 
HETATM   16  C16 UNL     1      44.714  34.809  86.028  1.00  0.00     0.011 A 
BRANCH  14  17
HETATM   17  O1  UNL     1      46.363  31.758  84.935  1.00  0.00    -0.356 OA
HETATM   18  C1  UNL     1      47.756  31.738  84.926  1.00  0.00     0.210 C 
ENDBRANCH  14  17
ENDBRANCH  10  11
ENDBRANCH   1  10
BRANCH   7  19
HETATM   19  C13 UNL     1      39.796  36.727  80.443  1.00  0.00     0.275 C 
HETATM   20  O2  UNL     1      40.636  36.214  79.663  1.00  0.00    -0.265 OA
HETATM   21  N2  UNL     1      38.924  37.713  79.965  1.00  0.00    -0.233 N 
ATOM     22  H2  UNL     1      38.362  37.480  79.147  1.00  0.00     0.197 HD
BRANCH  21  23
HETATM   23  O3  UNL     1      38.775  38.846  80.452  1.00  0.00    -0.287 OA
ATOM     24  H3  UNL     1      39.431  39.532  80.470  1.00  0.00     0.244 HD
ENDBRANCH  21  23
ENDBRANCH   7  19
TORSDOF 5
ENDMDL
