MODEL 17
REMARK VINA RESULT: -6.674283557      5.747      8.025
REMARK  5 active torsions:
REMARK  status: ('A' for Active; 'I' for Inactive)
REMARK    1  A    between atoms: O1_2  and  C2_3 
REMARK    2  A    between atoms: C5_6  and  C6_7 
REMARK    3  A    between atoms: C6_7  and  N1_8 
REMARK    4  A    between atoms: C12_14  and  C13_15 
REMARK       I    between atoms: C13_15  and  N2_17 
REMARK    5  A    between atoms: N2_17  and  O3_19 
ROOT
HETATM    1  N1  UNL     1      39.378  36.034  82.872  1.00  0.00    -0.352 N 
HETATM    2  C7  UNL     1      38.364  35.399  83.476  1.00  0.00     0.092 A 
HETATM    3  C8  UNL     1      37.524  34.814  82.555  1.00  0.00     0.031 A 
HETATM    4  C9  UNL     1      38.085  35.130  81.320  1.00  0.00    -0.008 A 
HETATM    5  C10 UNL     1      37.700  34.828  80.018  1.00  0.00     0.015 A 
HETATM    6  C11 UNL     1      38.473  35.292  78.979  1.00  0.00     0.018 A 
HETATM    7  C12 UNL     1      39.609  36.041  79.179  1.00  0.00     0.036 A 
HETATM    8  C14 UNL     1      39.981  36.332  80.465  1.00  0.00     0.047 A 
HETATM    9  C15 UNL     1      39.224  35.880  81.528  1.00  0.00     0.045 A 
ENDROOT
BRANCH   1  10
HETATM   10  C6  UNL     1      40.475  36.765  83.482  1.00  0.00     0.167 C 
BRANCH  10  11
HETATM   11  C5  UNL     1      41.589  35.833  83.763  1.00  0.00    -0.040 A 
HETATM   12  C4  UNL     1      41.535  35.181  84.986  1.00  0.00     0.011 A 
HETATM   13  C3  UNL     1      42.516  34.293  85.357  1.00  0.00     0.037 A 
HETATM   14  C2  UNL     1      43.560  34.049  84.509  1.00  0.00     0.068 A 
HETATM   15  C17 UNL     1      43.640  34.679  83.293  1.00  0.00     0.037 A 
HETATM   16  C16 UNL     1      42.642  35.583  82.913  1.00  0.00     0.011 A 
BRANCH  14  17
HETATM   17  O1  UNL     1      44.554  33.171  84.848  1.00  0.00    -0.356 OA
HETATM   18  C1  UNL     1      45.836  33.115  84.303  1.00  0.00     0.210 C 
ENDBRANCH  14  17
ENDBRANCH  10  11
ENDBRANCH   1  10
BRANCH   7  19
HETATM   19  C13 UNL     1      40.390  36.505  78.022  1.00  0.00     0.275 C 
HETATM   20  O2  UNL     1      41.255  35.747  77.518  1.00  0.00    -0.265 OA
HETATM   21  N2  UNL     1      40.184  37.777  77.475  1.00  0.00    -0.233 N 
ATOM     22  H2  UNL     1      39.976  37.827  76.477  1.00  0.00     0.197 HD
BRANCH  21  23
HETATM   23  O3  UNL     1      40.231  38.851  78.098  1.00  0.00    -0.287 OA
ATOM     24  H3  UNL     1      39.679  39.607  77.941  1.00  0.00     0.244 HD
ENDBRANCH  21  23
ENDBRANCH   7  19
TORSDOF 5
ENDMDL
