MODEL 2
REMARK VINA RESULT: -7.444484928      2.148      2.838
REMARK  5 active torsions:
REMARK  status: ('A' for Active; 'I' for Inactive)
REMARK    1  A    between atoms: O1_2  and  C2_3 
REMARK    2  A    between atoms: C5_6  and  C6_7 
REMARK    3  A    between atoms: C6_7  and  N1_8 
REMARK    4  A    between atoms: C12_14  and  C13_15 
REMARK       I    between atoms: C13_15  and  N2_17 
REMARK    5  A    between atoms: N2_17  and  O3_19 
ROOT
HETATM    1  N1  UNL     1      44.154  37.300  85.426  1.00  0.00    -0.352 N 
HETATM    2  C7  UNL     1      43.003  37.678  84.852  1.00  0.00     0.092 A 
HETATM    3  C8  UNL     1      42.522  36.704  84.008  1.00  0.00     0.031 A 
HETATM    4  C9  UNL     1      43.461  35.677  84.090  1.00  0.00    -0.008 A 
HETATM    5  C10 UNL     1      43.535  34.433  83.473  1.00  0.00     0.015 A 
HETATM    6  C11 UNL     1      44.608  33.620  83.758  1.00  0.00     0.018 A 
HETATM    7  C12 UNL     1      45.606  33.991  84.628  1.00  0.00     0.036 A 
HETATM    8  C14 UNL     1      45.524  35.218  85.232  1.00  0.00     0.047 A 
HETATM    9  C15 UNL     1      44.458  36.055  84.964  1.00  0.00     0.045 A 
ENDROOT
BRANCH   1  10
HETATM   10  C6  UNL     1      44.971  38.032  86.377  1.00  0.00     0.167 C 
BRANCH  10  11
HETATM   11  C5  UNL     1      44.345  37.964  87.716  1.00  0.00    -0.040 A 
HETATM   12  C4  UNL     1      45.223  37.907  88.789  1.00  0.00     0.011 A 
HETATM   13  C3  UNL     1      44.757  37.840  90.079  1.00  0.00     0.037 A 
HETATM   14  C2  UNL     1      43.409  37.828  90.310  1.00  0.00     0.068 A 
HETATM   15  C17 UNL     1      42.518  37.884  89.269  1.00  0.00     0.037 A 
HETATM   16  C16 UNL     1      42.991  37.952  87.953  1.00  0.00     0.011 A 
BRANCH  14  17
HETATM   17  O1  UNL     1      42.912  37.761  91.583  1.00  0.00    -0.356 OA
HETATM   18  C1  UNL     1      41.570  37.812  91.956  1.00  0.00     0.210 C 
ENDBRANCH  14  17
ENDBRANCH  10  11
ENDBRANCH   1  10
BRANCH   7  19
HETATM   19  C13 UNL     1      46.725  33.073  84.888  1.00  0.00     0.275 C 
HETATM   20  O2  UNL     1      46.565  32.113  85.682  1.00  0.00    -0.265 OA
HETATM   21  N2  UNL     1      47.966  33.252  84.265  1.00  0.00    -0.233 N 
ATOM     22  H2  UNL     1      48.345  32.460  83.744  1.00  0.00     0.197 HD
BRANCH  21  23
HETATM   23  O3  UNL     1      48.647  34.291  84.290  1.00  0.00    -0.287 OA
ATOM     24  H3  UNL     1      49.513  34.377  84.671  1.00  0.00     0.244 HD
ENDBRANCH  21  23
ENDBRANCH   7  19
TORSDOF 5
ENDMDL
