MODEL 10
REMARK VINA RESULT: -7.055506262      4.771      6.187
REMARK  5 active torsions:
REMARK  status: ('A' for Active; 'I' for Inactive)
REMARK    1  A    between atoms: O1_2  and  C2_3 
REMARK    2  A    between atoms: C5_6  and  C6_7 
REMARK    3  A    between atoms: C6_7  and  N1_8 
REMARK    4  A    between atoms: C12_14  and  C13_15 
REMARK       I    between atoms: C13_15  and  N2_17 
REMARK    5  A    between atoms: N2_17  and  O3_19 
ROOT
HETATM    1  N1  UNL     1      40.800  34.988  85.411  1.00  0.00    -0.352 N 
HETATM    2  C7  UNL     1      40.047  35.903  84.784  1.00  0.00     0.092 A 
HETATM    3  C8  UNL     1      40.664  36.358  83.641  1.00  0.00     0.031 A 
HETATM    4  C9  UNL     1      41.869  35.659  83.592  1.00  0.00    -0.008 A 
HETATM    5  C10 UNL     1      42.921  35.681  82.683  1.00  0.00     0.015 A 
HETATM    6  C11 UNL     1      44.002  34.860  82.909  1.00  0.00     0.018 A 
HETATM    7  C12 UNL     1      44.081  34.022  83.996  1.00  0.00     0.036 A 
HETATM    8  C14 UNL     1      43.039  34.007  84.886  1.00  0.00     0.047 A 
HETATM    9  C15 UNL     1      41.941  34.821  84.685  1.00  0.00     0.045 A 
ENDROOT
BRANCH   1  10
HETATM   10  C6  UNL     1      40.508  34.266  86.636  1.00  0.00     0.167 C 
BRANCH  10  11
HETATM   11  C5  UNL     1      39.236  34.761  87.206  1.00  0.00    -0.040 A 
HETATM   12  C4  UNL     1      39.356  35.644  88.270  1.00  0.00     0.011 A 
HETATM   13  C3  UNL     1      38.243  36.169  88.881  1.00  0.00     0.037 A 
HETATM   14  C2  UNL     1      36.999  35.816  88.435  1.00  0.00     0.068 A 
HETATM   15  C17 UNL     1      36.850  34.946  87.385  1.00  0.00     0.037 A 
HETATM   16  C16 UNL     1      37.983  34.410  86.762  1.00  0.00     0.011 A 
BRANCH  14  17
HETATM   17  O1  UNL     1      35.870  36.320  89.022  1.00  0.00    -0.356 OA
HETATM   18  C1  UNL     1      35.804  37.055  90.203  1.00  0.00     0.210 C 
ENDBRANCH  14  17
ENDBRANCH  10  11
ENDBRANCH   1  10
BRANCH   7  19
HETATM   19  C13 UNL     1      45.266  33.171  84.177  1.00  0.00     0.275 C 
HETATM   20  O2  UNL     1      45.119  31.975  84.530  1.00  0.00    -0.265 OA
HETATM   21  N2  UNL     1      46.555  33.672  83.962  1.00  0.00    -0.233 N 
ATOM     22  H2  UNL     1      47.148  33.166  83.304  1.00  0.00     0.197 HD
BRANCH  21  23
HETATM   23  O3  UNL     1      47.041  34.681  84.502  1.00  0.00    -0.287 OA
ATOM     24  H3  UNL     1      47.144  35.532  84.095  1.00  0.00     0.244 HD
ENDBRANCH  21  23
ENDBRANCH   7  19
TORSDOF 5
ENDMDL
