MODEL 16
REMARK VINA RESULT: -7.572838462      2.632      3.024
REMARK  6 active torsions:
REMARK  status: ('A' for Active; 'I' for Inactive)
REMARK       I    between atoms: C1_2  and  N1_3 
REMARK    1  A    between atoms: C1_2  and  C2_7 
REMARK    2  A    between atoms: N1_3  and  O2_5 
REMARK    3  A    between atoms: C6_11  and  C7_12 
REMARK    4  A    between atoms: N2_14  and  C9_15 
REMARK    5  A    between atoms: C9_15  and  S1_16 
REMARK    6  A    between atoms: S1_16  and  C10_17 
ROOT
HETATM    1  C7  UNL     1      44.110  36.807  87.600  1.00  0.00     0.073 A 
HETATM    2  C8  UNL     1      42.925  37.384  88.001  1.00  0.00     0.140 A 
HETATM    3  N2  UNL     1      43.149  38.073  89.134  1.00  0.00    -0.275 N 
HETATM    4  N3  UNL     1      44.426  37.943  89.448  1.00  0.00    -0.019 NA
HETATM    5  N4  UNL     1      45.014  37.174  88.518  1.00  0.00    -0.282 N 
ATOM      6  H4  UNL     1      46.000  36.910  88.512  1.00  0.00     0.184 HD
ENDROOT
BRANCH   1   7
HETATM    7  C6  UNL     1      44.271  35.980  86.411  1.00  0.00    -0.006 A 
HETATM    8  C5  UNL     1      43.463  36.102  85.324  1.00  0.00     0.014 A 
HETATM    9  C4  UNL     1      43.650  35.298  84.216  1.00  0.00     0.002 A 
HETATM   10  C3  UNL     1      44.685  34.353  84.224  1.00  0.00     0.017 A 
HETATM   11  C2  UNL     1      45.512  34.217  85.316  1.00  0.00     0.035 A 
HETATM   12  C16 UNL     1      45.298  35.028  86.395  1.00  0.00     0.030 A 
BRANCH  11  13
HETATM   13  C1  UNL     1      46.601  33.251  85.376  1.00  0.00     0.275 C 
HETATM   14  O1  UNL     1      46.390  32.041  85.709  1.00  0.00    -0.265 OA
HETATM   15  N1  UNL     1      47.958  33.559  85.078  1.00  0.00    -0.233 N 
ATOM     16  H1  UNL     1      48.197  34.512  84.804  1.00  0.00     0.197 HD
BRANCH  15  17
HETATM   17  O2  UNL     1      48.945  32.634  85.145  1.00  0.00    -0.287 OA
ATOM     18  H2  UNL     1      49.337  32.249  84.370  1.00  0.00     0.244 HD
ENDBRANCH  15  17
ENDBRANCH  11  13
ENDBRANCH   1   7
BRANCH   3  19
HETATM   19  C9  UNL     1      42.139  38.810  89.848  1.00  0.00     0.225 C 
BRANCH  19  20
HETATM   20  S1  UNL     1      42.084  38.204  91.549  1.00  0.00    -0.108 SA
BRANCH  20  21
HETATM   21  C10 UNL     1      42.266  39.607  92.639  1.00  0.00     0.002 A 
HETATM   22  C11 UNL     1      41.302  39.921  93.592  1.00  0.00     0.018 A 
HETATM   23  C12 UNL     1      41.444  40.998  94.427  1.00  0.00     0.001 A 
HETATM   24  C13 UNL     1      42.543  41.821  94.364  1.00  0.00     0.000 A 
HETATM   25  C14 UNL     1      43.510  41.515  93.417  1.00  0.00     0.001 A 
HETATM   26  C15 UNL     1      43.372  40.425  92.568  1.00  0.00     0.018 A 
ENDBRANCH  20  21
ENDBRANCH  19  20
ENDBRANCH   3  19
TORSDOF 6
ENDMDL
