MODEL 9
REMARK VINA RESULT: -7.794628870      2.218      3.014
REMARK  6 active torsions:
REMARK  status: ('A' for Active; 'I' for Inactive)
REMARK       I    between atoms: C1_2  and  N1_3 
REMARK    1  A    between atoms: C1_2  and  C2_7 
REMARK    2  A    between atoms: N1_3  and  O2_5 
REMARK    3  A    between atoms: C6_11  and  C7_12 
REMARK    4  A    between atoms: N2_14  and  C9_15 
REMARK    5  A    between atoms: C9_15  and  S1_16 
REMARK    6  A    between atoms: S1_16  and  C10_17 
ROOT
HETATM    1  C7  UNL     1      43.723  36.813  87.507  1.00  0.00     0.073 A 
HETATM    2  C8  UNL     1      44.677  37.436  88.281  1.00  0.00     0.140 A 
HETATM    3  N2  UNL     1      44.057  38.065  89.295  1.00  0.00    -0.275 N 
HETATM    4  N3  UNL     1      42.758  37.854  89.177  1.00  0.00    -0.019 NA
HETATM    5  N4  UNL     1      42.550  37.094  88.090  1.00  0.00    -0.282 N 
ATOM      6  H4  UNL     1      41.638  36.777  87.760  1.00  0.00     0.184 HD
ENDROOT
BRANCH   1   7
HETATM    7  C6  UNL     1      44.006  36.028  86.313  1.00  0.00    -0.006 A 
HETATM    8  C5  UNL     1      43.286  36.159  85.166  1.00  0.00     0.014 A 
HETATM    9  C4  UNL     1      43.587  35.395  84.055  1.00  0.00     0.002 A 
HETATM   10  C3  UNL     1      44.646  34.479  84.123  1.00  0.00     0.017 A 
HETATM   11  C2  UNL     1      45.385  34.333  85.275  1.00  0.00     0.035 A 
HETATM   12  C16 UNL     1      45.059  35.106  86.355  1.00  0.00     0.030 A 
BRANCH  11  13
HETATM   13  C1  UNL     1      46.494  33.397  85.398  1.00  0.00     0.275 C 
HETATM   14  O1  UNL     1      46.299  32.187  85.742  1.00  0.00    -0.265 OA
HETATM   15  N1  UNL     1      47.854  33.735  85.154  1.00  0.00    -0.233 N 
ATOM     16  H1  UNL     1      48.081  34.690  84.874  1.00  0.00     0.197 HD
BRANCH  15  17
HETATM   17  O2  UNL     1      48.860  32.836  85.279  1.00  0.00    -0.287 OA
ATOM     18  H2  UNL     1      49.230  32.599  86.122  1.00  0.00     0.244 HD
ENDBRANCH  15  17
ENDBRANCH  11  13
ENDBRANCH   1   7
BRANCH   3  19
HETATM   19  C9  UNL     1      44.735  38.827  90.313  1.00  0.00     0.225 C 
BRANCH  19  20
HETATM   20  S1  UNL     1      44.326  38.119  91.924  1.00  0.00    -0.108 SA
BRANCH  20  21
HETATM   21  C10 UNL     1      42.776  38.828  92.458  1.00  0.00     0.002 A 
HETATM   22  C11 UNL     1      41.623  38.059  92.570  1.00  0.00     0.018 A 
HETATM   23  C12 UNL     1      40.434  38.605  92.981  1.00  0.00     0.001 A 
HETATM   24  C13 UNL     1      40.323  39.937  93.301  1.00  0.00     0.000 A 
HETATM   25  C14 UNL     1      41.470  40.712  93.193  1.00  0.00     0.001 A 
HETATM   26  C15 UNL     1      42.676  40.164  92.778  1.00  0.00     0.018 A 
ENDBRANCH  20  21
ENDBRANCH  19  20
ENDBRANCH   3  19
TORSDOF 6
ENDMDL
