MODEL 5
REMARK VINA RESULT: -7.917050358      2.929      4.427
REMARK  6 active torsions:
REMARK  status: ('A' for Active; 'I' for Inactive)
REMARK       I    between atoms: C1_2  and  N1_3 
REMARK    1  A    between atoms: C1_2  and  C2_7 
REMARK    2  A    between atoms: N1_3  and  O2_5 
REMARK    3  A    between atoms: C6_11  and  C7_12 
REMARK    4  A    between atoms: N2_14  and  C9_15 
REMARK    5  A    between atoms: C9_15  and  S1_16 
REMARK    6  A    between atoms: S1_16  and  C10_17 
ROOT
HETATM    1  C7  UNL     1      41.539  36.013  86.869  1.00  0.00     0.073 A 
HETATM    2  C8  UNL     1      40.415  35.276  87.170  1.00  0.00     0.140 A 
HETATM    3  N2  UNL     1      39.900  35.738  88.323  1.00  0.00    -0.275 N 
HETATM    4  N3  UNL     1      40.663  36.730  88.745  1.00  0.00    -0.019 NA
HETATM    5  N4  UNL     1      41.661  36.901  87.864  1.00  0.00    -0.282 N 
ATOM      6  H4  UNL     1      42.400  37.601  87.941  1.00  0.00     0.184 HD
ENDROOT
BRANCH   1   7
HETATM    7  C6  UNL     1      42.375  35.811  85.692  1.00  0.00    -0.006 A 
HETATM    8  C5  UNL     1      42.123  36.426  84.506  1.00  0.00     0.014 A 
HETATM    9  C4  UNL     1      42.941  36.208  83.413  1.00  0.00     0.002 A 
HETATM   10  C3  UNL     1      44.035  35.343  83.541  1.00  0.00     0.017 A 
HETATM   11  C2  UNL     1      44.304  34.711  84.735  1.00  0.00     0.035 A 
HETATM   12  C16 UNL     1      43.474  34.951  85.795  1.00  0.00     0.030 A 
BRANCH  11  13
HETATM   13  C1  UNL     1      45.428  33.804  84.921  1.00  0.00     0.275 C 
HETATM   14  O1  UNL     1      45.245  32.552  85.067  1.00  0.00    -0.265 OA
HETATM   15  N1  UNL     1      46.789  34.215  84.957  1.00  0.00    -0.233 N 
ATOM     16  H1  UNL     1      47.006  35.205  84.846  1.00  0.00     0.197 HD
BRANCH  15  17
HETATM   17  O2  UNL     1      47.808  33.340  85.133  1.00  0.00    -0.287 OA
ATOM     18  H2  UNL     1      48.250  33.232  85.968  1.00  0.00     0.244 HD
ENDBRANCH  15  17
ENDBRANCH  11  13
ENDBRANCH   1   7
BRANCH   3  19
HETATM   19  C9  UNL     1      38.718  35.209  88.953  1.00  0.00     0.225 C 
BRANCH  19  20
HETATM   20  S1  UNL     1      38.544  35.975  90.579  1.00  0.00    -0.108 SA
BRANCH  20  21
HETATM   21  C10 UNL     1      37.383  35.002  91.525  1.00  0.00     0.002 A 
HETATM   22  C11 UNL     1      36.538  34.079  90.916  1.00  0.00     0.018 A 
HETATM   23  C12 UNL     1      35.648  33.333  91.643  1.00  0.00     0.001 A 
HETATM   24  C13 UNL     1      35.545  33.459  93.008  1.00  0.00     0.000 A 
HETATM   25  C14 UNL     1      36.385  34.377  93.624  1.00  0.00     0.001 A 
HETATM   26  C15 UNL     1      37.289  35.135  92.893  1.00  0.00     0.018 A 
ENDBRANCH  20  21
ENDBRANCH  19  20
ENDBRANCH   3  19
TORSDOF 6
ENDMDL
