MODEL 4
REMARK VINA RESULT: -7.920324718      3.487      4.940
REMARK  6 active torsions:
REMARK  status: ('A' for Active; 'I' for Inactive)
REMARK       I    between atoms: C1_2  and  N1_3 
REMARK    1  A    between atoms: C1_2  and  C2_7 
REMARK    2  A    between atoms: N1_3  and  O2_5 
REMARK    3  A    between atoms: C6_11  and  C7_12 
REMARK    4  A    between atoms: N2_14  and  C9_15 
REMARK    5  A    between atoms: C9_15  and  S1_16 
REMARK    6  A    between atoms: S1_16  and  C10_17 
ROOT
HETATM    1  C7  UNL     1      40.864  35.346  86.279  1.00  0.00     0.073 A 
HETATM    2  C8  UNL     1      39.659  36.006  86.189  1.00  0.00     0.140 A 
HETATM    3  N2  UNL     1      38.917  35.686  87.265  1.00  0.00    -0.275 N 
HETATM    4  N3  UNL     1      39.618  34.855  88.015  1.00  0.00    -0.019 NA
HETATM    5  N4  UNL     1      40.803  34.645  87.419  1.00  0.00    -0.282 N 
ATOM      6  H4  UNL     1      41.544  34.043  87.780  1.00  0.00     0.184 HD
ENDROOT
BRANCH   1   7
HETATM    7  C6  UNL     1      41.937  35.440  85.298  1.00  0.00    -0.006 A 
HETATM    8  C5  UNL     1      41.864  36.257  84.214  1.00  0.00     0.014 A 
HETATM    9  C4  UNL     1      42.905  36.317  83.307  1.00  0.00     0.002 A 
HETATM   10  C3  UNL     1      44.041  35.524  83.518  1.00  0.00     0.017 A 
HETATM   11  C2  UNL     1      44.132  34.692  84.610  1.00  0.00     0.035 A 
HETATM   12  C16 UNL     1      43.083  34.657  85.487  1.00  0.00     0.030 A 
BRANCH  11  13
HETATM   13  C1  UNL     1      45.289  33.847  84.876  1.00  0.00     0.275 C 
HETATM   14  O1  UNL     1      45.159  32.597  85.075  1.00  0.00    -0.265 OA
HETATM   15  N1  UNL     1      46.627  34.324  84.936  1.00  0.00    -0.233 N 
ATOM     16  H1  UNL     1      46.802  35.318  84.785  1.00  0.00     0.197 HD
BRANCH  15  17
HETATM   17  O2  UNL     1      47.679  33.508  85.186  1.00  0.00    -0.287 OA
ATOM     18  H2  UNL     1      48.437  33.790  85.685  1.00  0.00     0.244 HD
ENDBRANCH  15  17
ENDBRANCH  11  13
ENDBRANCH   1   7
BRANCH   3  19
HETATM   19  C9  UNL     1      37.590  36.188  87.514  1.00  0.00     0.225 C 
BRANCH  19  20
HETATM   20  S1  UNL     1      37.316  36.217  89.299  1.00  0.00    -0.108 SA
BRANCH  20  21
HETATM   21  C10 UNL     1      36.271  34.829  89.717  1.00  0.00     0.002 A 
HETATM   22  C11 UNL     1      36.387  34.170  90.936  1.00  0.00     0.018 A 
HETATM   23  C12 UNL     1      35.585  33.106  91.255  1.00  0.00     0.001 A 
HETATM   24  C13 UNL     1      34.627  32.638  90.387  1.00  0.00     0.000 A 
HETATM   25  C14 UNL     1      34.504  33.290  89.168  1.00  0.00     0.001 A 
HETATM   26  C15 UNL     1      35.314  34.369  88.840  1.00  0.00     0.018 A 
ENDBRANCH  20  21
ENDBRANCH  19  20
ENDBRANCH   3  19
TORSDOF 6
ENDMDL
