MODEL 10
REMARK VINA RESULT: -7.785819416      2.850      3.920
REMARK  6 active torsions:
REMARK  status: ('A' for Active; 'I' for Inactive)
REMARK       I    between atoms: C1_2  and  N1_3 
REMARK    1  A    between atoms: C1_2  and  C2_7 
REMARK    2  A    between atoms: N1_3  and  O2_5 
REMARK    3  A    between atoms: C6_11  and  C7_12 
REMARK    4  A    between atoms: N2_14  and  C9_15 
REMARK    5  A    between atoms: C9_15  and  S1_16 
REMARK    6  A    between atoms: S1_16  and  C10_17 
ROOT
HETATM    1  C7  UNL     1      41.078  35.403  86.480  1.00  0.00     0.073 A 
HETATM    2  C8  UNL     1      40.426  36.489  87.020  1.00  0.00     0.140 A 
HETATM    3  N2  UNL     1      39.529  36.044  87.918  1.00  0.00    -0.275 N 
HETATM    4  N3  UNL     1      39.601  34.726  87.951  1.00  0.00    -0.019 NA
HETATM    5  N4  UNL     1      40.542  34.331  87.078  1.00  0.00    -0.282 N 
ATOM      6  H4  UNL     1      40.807  33.363  86.898  1.00  0.00     0.184 HD
ENDROOT
BRANCH   1   7
HETATM    7  C6  UNL     1      42.124  35.481  85.469  1.00  0.00    -0.006 A 
HETATM    8  C5  UNL     1      42.048  36.323  84.404  1.00  0.00     0.014 A 
HETATM    9  C4  UNL     1      43.063  36.367  83.468  1.00  0.00     0.002 A 
HETATM   10  C3  UNL     1      44.176  35.530  83.627  1.00  0.00     0.017 A 
HETATM   11  C2  UNL     1      44.269  34.671  84.699  1.00  0.00     0.035 A 
HETATM   12  C16 UNL     1      43.246  34.654  85.606  1.00  0.00     0.030 A 
BRANCH  11  13
HETATM   13  C1  UNL     1      45.403  33.781  84.912  1.00  0.00     0.275 C 
HETATM   14  O1  UNL     1      45.238  32.526  85.046  1.00  0.00    -0.265 OA
HETATM   15  N1  UNL     1      46.755  34.216  84.987  1.00  0.00    -0.233 N 
ATOM     16  H1  UNL     1      46.958  35.210  84.888  1.00  0.00     0.197 HD
BRANCH  15  17
HETATM   17  O2  UNL     1      47.784  33.357  85.187  1.00  0.00    -0.287 OA
ATOM     18  H2  UNL     1      48.329  33.040  84.475  1.00  0.00     0.244 HD
ENDBRANCH  15  17
ENDBRANCH  11  13
ENDBRANCH   1   7
BRANCH   3  19
HETATM   19  C9  UNL     1      38.658  36.896  88.686  1.00  0.00     0.225 C 
BRANCH  19  20
HETATM   20  S1  UNL     1      39.080  36.717  90.433  1.00  0.00    -0.108 SA
BRANCH  20  21
HETATM   21  C10 UNL     1      37.889  35.611  91.175  1.00  0.00     0.002 A 
HETATM   22  C11 UNL     1      37.838  35.411  92.551  1.00  0.00     0.018 A 
HETATM   23  C12 UNL     1      36.925  34.562  93.118  1.00  0.00     0.001 A 
HETATM   24  C13 UNL     1      36.014  33.868  92.358  1.00  0.00     0.000 A 
HETATM   25  C14 UNL     1      36.057  34.062  90.984  1.00  0.00     0.001 A 
HETATM   26  C15 UNL     1      36.980  34.921  90.404  1.00  0.00     0.018 A 
ENDBRANCH  20  21
ENDBRANCH  19  20
ENDBRANCH   3  19
TORSDOF 6
ENDMDL
