MODEL 6
REMARK VINA RESULT: -7.698461526      4.776      7.427
REMARK  4 active torsions:
REMARK  status: ('A' for Active; 'I' for Inactive)
REMARK    1  A    between atoms: N1_9  and  C8_10 
REMARK    2  A    between atoms: C8_10  and  C9_11 
REMARK    3  A    between atoms: C9_11  and  C10_12 
REMARK    4  A    between atoms: C13_15  and  C14_16 
ROOT
HETATM    1  C9  UNL     1      24.407  13.434  12.735  1.00  0.00     0.068 C 
ENDROOT
BRANCH   1   2
HETATM    2  C8  UNL     1      25.765  14.030  13.022  1.00  0.00     0.278 C 
BRANCH   2   3
HETATM    3  N1  UNL     1      26.609  14.320  11.964  1.00  0.00     0.098 N 
HETATM    4  C3  UNL     1      25.809  14.191  10.698  1.00  0.00     0.230 C 
HETATM    5  C2  UNL     1      26.707  13.347   9.793  1.00  0.00     0.114 C 
HETATM    6  C4  UNL     1      25.637  15.596  10.176  1.00  0.00     0.038 C 
HETATM    7  C1  UNL     1      28.117  13.790  10.099  1.00  0.00     0.131 C 
HETATM    8  O1  UNL     1      28.988  12.980   9.833  1.00  0.00    -0.298 OA
HETATM    9  C7  UNL     1      28.384  15.146  10.683  1.00  0.00     0.114 C 
HETATM   10  C6  UNL     1      27.309  15.491  11.751  1.00  0.00     0.230 C 
HETATM   11  C5  UNL     1      26.344  16.484  11.160  1.00  0.00     0.038 C 
ENDBRANCH   2   3
ENDBRANCH   1   2
BRANCH   1  12
HETATM   12  C10 UNL     1      23.332  14.454  12.780  1.00  0.00    -0.057 A 
HETATM   13  C11 UNL     1      23.151  15.325  13.814  1.00  0.00     0.008 A 
HETATM   14  C12 UNL     1      22.045  16.204  13.784  1.00  0.00     0.017 A 
HETATM   15  C13 UNL     1      21.151  16.203  12.734  1.00  0.00     0.047 A 
HETATM   16  C15 UNL     1      21.329  15.322  11.674  1.00  0.00     0.017 A 
HETATM   17  C16 UNL     1      22.386  14.482  11.711  1.00  0.00     0.008 A 
BRANCH  15  18
HETATM   18  C14 UNL     1      19.967  17.090  12.658  1.00  0.00     0.417 C 
HETATM   19  F1  UNL     1      20.055  17.907  11.523  1.00  0.00    -0.166 F 
HETATM   20  F2  UNL     1      19.931  17.981  13.719  1.00  0.00    -0.166 F 
HETATM   21  F3  UNL     1      18.808  16.355  12.558  1.00  0.00    -0.166 F 
ENDBRANCH  15  18
ENDBRANCH   1  12
TORSDOF 4
ENDMDL
