MODEL 5
REMARK VINA RESULT: -8.137131455      3.338      4.933
REMARK  4 active torsions:
REMARK  status: ('A' for Active; 'I' for Inactive)
REMARK    1  A    between atoms: N1_9  and  C8_10 
REMARK    2  A    between atoms: C8_10  and  C9_11 
REMARK    3  A    between atoms: C9_11  and  C10_12 
REMARK    4  A    between atoms: C13_15  and  C14_16 
ROOT
HETATM    1  C9  UNL     1      28.016  14.757  12.388  1.00  0.00     0.068 C 
ENDROOT
BRANCH   1   2
HETATM    2  C8  UNL     1      26.972  13.864  13.013  1.00  0.00     0.278 C 
BRANCH   2   3
HETATM    3  N1  UNL     1      25.633  14.172  12.839  1.00  0.00     0.098 N 
HETATM    4  C3  UNL     1      25.549  15.266  11.812  1.00  0.00     0.230 C 
HETATM    5  C2  UNL     1      24.601  16.282  12.449  1.00  0.00     0.114 C 
HETATM    6  C4  UNL     1      24.955  14.628  10.581  1.00  0.00     0.038 C 
HETATM    7  C1  UNL     1      23.572  15.462  13.191  1.00  0.00     0.131 C 
HETATM    8  O1  UNL     1      23.003  16.039  14.100  1.00  0.00    -0.298 OA
HETATM    9  C7  UNL     1      23.297  14.041  12.798  1.00  0.00     0.114 C 
HETATM   10  C6  UNL     1      24.625  13.316  12.440  1.00  0.00     0.230 C 
HETATM   11  C5  UNL     1      24.718  13.190  10.943  1.00  0.00     0.038 C 
ENDBRANCH   2   3
ENDBRANCH   1   2
BRANCH   1  12
HETATM   12  C10 UNL     1      28.738  14.080  11.284  1.00  0.00    -0.057 A 
HETATM   13  C11 UNL     1      29.538  12.988  11.455  1.00  0.00     0.008 A 
HETATM   14  C12 UNL     1      30.237  12.470  10.341  1.00  0.00     0.017 A 
HETATM   15  C13 UNL     1      30.125  13.040   9.090  1.00  0.00     0.047 A 
HETATM   16  C15 UNL     1      29.309  14.149   8.905  1.00  0.00     0.017 A 
HETATM   17  C16 UNL     1      28.647  14.642   9.975  1.00  0.00     0.008 A 
BRANCH  15  18
HETATM   18  C14 UNL     1      30.847  12.550   7.893  1.00  0.00     0.417 C 
HETATM   19  F1  UNL     1      31.843  13.465   7.528  1.00  0.00    -0.166 F 
HETATM   20  F2  UNL     1      30.015  12.490   6.787  1.00  0.00    -0.166 F 
HETATM   21  F3  UNL     1      31.458  11.344   8.148  1.00  0.00    -0.166 F 
ENDBRANCH  15  18
ENDBRANCH   1  12
TORSDOF 4
ENDMDL
