MODEL 1
REMARK VINA RESULT: -8.987533546      0.000      0.000
REMARK  4 active torsions:
REMARK  status: ('A' for Active; 'I' for Inactive)
REMARK    1  A    between atoms: N1_9  and  C8_10 
REMARK    2  A    between atoms: C8_10  and  C9_11 
REMARK    3  A    between atoms: C9_11  and  C10_12 
REMARK    4  A    between atoms: C13_15  and  C14_16 
ROOT
HETATM    1  C9  UNL     1      23.152  14.422  13.283  1.00  0.00     0.068 C 
ENDROOT
BRANCH   1   2
HETATM    2  C8  UNL     1      22.517  15.792  13.285  1.00  0.00     0.278 C 
BRANCH   2   3
HETATM    3  N1  UNL     1      21.136  15.892  13.244  1.00  0.00     0.098 N 
HETATM    4  C3  UNL     1      20.738  17.029  14.144  1.00  0.00     0.230 C 
HETATM    5  C2  UNL     1      19.606  16.440  14.984  1.00  0.00     0.114 C 
HETATM    6  C4  UNL     1      20.256  18.127  13.229  1.00  0.00     0.038 C 
HETATM    7  C1  UNL     1      18.844  15.529  14.051  1.00  0.00     0.131 C 
HETATM    8  O1  UNL     1      18.199  14.649  14.593  1.00  0.00    -0.298 OA
HETATM    9  C7  UNL     1      18.903  15.732  12.567  1.00  0.00     0.114 C 
HETATM   10  C6  UNL     1      20.347  16.108  12.132  1.00  0.00     0.230 C 
HETATM   11  C5  UNL     1      20.392  17.583  11.836  1.00  0.00     0.038 C 
ENDBRANCH   2   3
ENDBRANCH   1   2
BRANCH   1  12
HETATM   12  C10 UNL     1      24.361  14.371  12.426  1.00  0.00    -0.057 A 
HETATM   13  C11 UNL     1      24.329  14.185  11.075  1.00  0.00     0.008 A 
HETATM   14  C12 UNL     1      25.548  14.078  10.370  1.00  0.00     0.017 A 
HETATM   15  C13 UNL     1      26.765  14.160  11.015  1.00  0.00     0.047 A 
HETATM   16  C15 UNL     1      26.808  14.354  12.390  1.00  0.00     0.017 A 
HETATM   17  C16 UNL     1      25.638  14.451  13.059  1.00  0.00     0.008 A 
BRANCH  15  18
HETATM   18  C14 UNL     1      28.072  14.038  10.328  1.00  0.00     0.417 C 
HETATM   19  F1  UNL     1      29.074  13.738  11.259  1.00  0.00    -0.166 F 
HETATM   20  F2  UNL     1      28.469  15.244   9.773  1.00  0.00    -0.166 F 
HETATM   21  F3  UNL     1      28.045  13.024   9.398  1.00  0.00    -0.166 F 
ENDBRANCH  15  18
ENDBRANCH   1  12
TORSDOF 4
ENDMDL
