MODEL 4
REMARK VINA RESULT: -8.524718982      1.487      2.364
REMARK  4 active torsions:
REMARK  status: ('A' for Active; 'I' for Inactive)
REMARK    1  A    between atoms: N1_9  and  C8_10 
REMARK    2  A    between atoms: C8_10  and  C9_11 
REMARK    3  A    between atoms: C9_11  and  C10_12 
REMARK    4  A    between atoms: C13_15  and  C14_16 
ROOT
HETATM    1  C9  UNL     1      22.389  14.749  12.147  1.00  0.00     0.068 C 
ENDROOT
BRANCH   1   2
HETATM    2  C8  UNL     1      22.075  15.233  13.543  1.00  0.00     0.278 C 
BRANCH   2   3
HETATM    3  N1  UNL     1      21.081  16.181  13.717  1.00  0.00     0.098 N 
HETATM    4  C3  UNL     1      20.262  16.217  12.457  1.00  0.00     0.230 C 
HETATM    5  C2  UNL     1      20.152  17.709  12.145  1.00  0.00     0.114 C 
HETATM    6  C4  UNL     1      18.928  15.611  12.817  1.00  0.00     0.038 C 
HETATM    7  C1  UNL     1      20.038  18.393  13.486  1.00  0.00     0.131 C 
HETATM    8  O1  UNL     1      20.373  19.565  13.504  1.00  0.00    -0.298 OA
HETATM    9  C7  UNL     1      19.536  17.647  14.686  1.00  0.00     0.114 C 
HETATM   10  C6  UNL     1      20.110  16.202  14.699  1.00  0.00     0.230 C 
HETATM   11  C5  UNL     1      19.027  15.249  14.271  1.00  0.00     0.038 C 
ENDBRANCH   2   3
ENDBRANCH   1   2
BRANCH   1  12
HETATM   12  C10 UNL     1      23.849  14.642  11.912  1.00  0.00    -0.057 A 
HETATM   13  C11 UNL     1      24.408  14.402  10.691  1.00  0.00     0.008 A 
HETATM   14  C12 UNL     1      25.809  14.246  10.597  1.00  0.00     0.017 A 
HETATM   15  C13 UNL     1      26.621  14.334  11.709  1.00  0.00     0.047 A 
HETATM   16  C15 UNL     1      26.062  14.584  12.956  1.00  0.00     0.017 A 
HETATM   17  C16 UNL     1      24.721  14.727  13.039  1.00  0.00     0.008 A 
BRANCH  15  18
HETATM   18  C14 UNL     1      28.092  14.162  11.672  1.00  0.00     0.417 C 
HETATM   19  F1  UNL     1      28.716  15.413  11.587  1.00  0.00    -0.166 F 
HETATM   20  F2  UNL     1      28.497  13.499  10.524  1.00  0.00    -0.166 F 
HETATM   21  F3  UNL     1      28.543  13.544  12.815  1.00  0.00    -0.166 F 
ENDBRANCH  15  18
ENDBRANCH   1  12
TORSDOF 4
ENDMDL
