MODEL 2
REMARK VINA RESULT: -8.586980759      1.007      1.375
REMARK  4 active torsions:
REMARK  status: ('A' for Active; 'I' for Inactive)
REMARK    1  A    between atoms: N1_9  and  C8_10 
REMARK    2  A    between atoms: C8_10  and  C9_11 
REMARK    3  A    between atoms: C9_11  and  C10_12 
REMARK    4  A    between atoms: C13_15  and  C14_16 
ROOT
HETATM    1  C9  UNL     1      22.888  14.548  13.284  1.00  0.00     0.068 C 
ENDROOT
BRANCH   1   2
HETATM    2  C8  UNL     1      22.524  15.976  13.613  1.00  0.00     0.278 C 
BRANCH   2   3
HETATM    3  N1  UNL     1      21.205  16.286  13.897  1.00  0.00     0.098 N 
HETATM    4  C3  UNL     1      20.865  17.547  13.152  1.00  0.00     0.230 C 
HETATM    5  C2  UNL     1      20.182  18.413  14.209  1.00  0.00     0.114 C 
HETATM    6  C4  UNL     1      19.916  17.132  12.055  1.00  0.00     0.038 C 
HETATM    7  C1  UNL     1      19.385  17.455  15.061  1.00  0.00     0.131 C 
HETATM    8  O1  UNL     1      19.127  17.847  16.186  1.00  0.00    -0.298 OA
HETATM    9  C7  UNL     1      18.956  16.124  14.519  1.00  0.00     0.114 C 
HETATM   10  C6  UNL     1      20.094  15.499  13.665  1.00  0.00     0.230 C 
HETATM   11  C5  UNL     1      19.742  15.648  12.209  1.00  0.00     0.038 C 
ENDBRANCH   2   3
ENDBRANCH   1   2
BRANCH   1  12
HETATM   12  C10 UNL     1      24.112  14.463  12.452  1.00  0.00    -0.057 A 
HETATM   13  C11 UNL     1      24.103  14.237  11.107  1.00  0.00     0.008 A 
HETATM   14  C12 UNL     1      25.335  14.100  10.428  1.00  0.00     0.017 A 
HETATM   15  C13 UNL     1      26.540  14.194  11.093  1.00  0.00     0.047 A 
HETATM   16  C15 UNL     1      26.559  14.429  12.462  1.00  0.00     0.017 A 
HETATM   17  C16 UNL     1      25.378  14.554  13.106  1.00  0.00     0.008 A 
BRANCH  15  18
HETATM   18  C14 UNL     1      27.859  14.042  10.435  1.00  0.00     0.417 C 
HETATM   19  F1  UNL     1      28.825  13.676  11.381  1.00  0.00    -0.166 F 
HETATM   20  F2  UNL     1      28.316  15.249   9.929  1.00  0.00    -0.166 F 
HETATM   21  F3  UNL     1      27.818  13.059   9.473  1.00  0.00    -0.166 F 
ENDBRANCH  15  18
ENDBRANCH   1  12
TORSDOF 4
ENDMDL
