MODEL 3
REMARK VINA RESULT: -8.582142427      1.443      2.523
REMARK  4 active torsions:
REMARK  status: ('A' for Active; 'I' for Inactive)
REMARK    1  A    between atoms: N1_9  and  C8_10 
REMARK    2  A    between atoms: C8_10  and  C9_11 
REMARK    3  A    between atoms: C9_11  and  C10_12 
REMARK    4  A    between atoms: C13_15  and  C14_16 
ROOT
HETATM    1  C9  UNL     1      22.497  14.835  12.179  1.00  0.00     0.068 C 
ENDROOT
BRANCH   1   2
HETATM    2  C8  UNL     1      22.074  15.239  13.571  1.00  0.00     0.278 C 
BRANCH   2   3
HETATM    3  N1  UNL     1      21.079  16.189  13.723  1.00  0.00     0.098 N 
HETATM    4  C3  UNL     1      20.272  16.207  12.454  1.00  0.00     0.230 C 
HETATM    5  C2  UNL     1      20.165  17.694  12.120  1.00  0.00     0.114 C 
HETATM    6  C4  UNL     1      18.935  15.605  12.809  1.00  0.00     0.038 C 
HETATM    7  C1  UNL     1      20.037  18.397  13.450  1.00  0.00     0.131 C 
HETATM    8  O1  UNL     1      20.371  19.569  13.455  1.00  0.00    -0.298 OA
HETATM    9  C7  UNL     1      19.523  17.667  14.656  1.00  0.00     0.114 C 
HETATM   10  C6  UNL     1      20.098  16.223  14.694  1.00  0.00     0.230 C 
HETATM   11  C5  UNL     1      19.019  15.263  14.269  1.00  0.00     0.038 C 
ENDBRANCH   2   3
ENDBRANCH   1   2
BRANCH   1  12
HETATM   12  C10 UNL     1      23.959  14.607  12.086  1.00  0.00    -0.057 A 
HETATM   13  C11 UNL     1      24.798  14.603  13.161  1.00  0.00     0.008 A 
HETATM   14  C12 UNL     1      26.187  14.450  12.945  1.00  0.00     0.017 A 
HETATM   15  C13 UNL     1      26.708  14.302  11.676  1.00  0.00     0.047 A 
HETATM   16  C15 UNL     1      25.859  14.299  10.576  1.00  0.00     0.017 A 
HETATM   17  C16 UNL     1      24.534  14.450  10.789  1.00  0.00     0.008 A 
BRANCH  15  18
HETATM   18  C14 UNL     1      28.154  14.154  11.391  1.00  0.00     0.417 C 
HETATM   19  F1  UNL     1      28.746  15.418  11.267  1.00  0.00    -0.166 F 
HETATM   20  F2  UNL     1      28.371  13.553  10.161  1.00  0.00    -0.166 F 
HETATM   21  F3  UNL     1      28.790  13.489  12.413  1.00  0.00    -0.166 F 
ENDBRANCH  15  18
ENDBRANCH   1  12
TORSDOF 4
ENDMDL
