MODEL 7
REMARK VINA RESULT: -7.674080068      3.760      5.086
REMARK  4 active torsions:
REMARK  status: ('A' for Active; 'I' for Inactive)
REMARK    1  A    between atoms: N1_9  and  C8_10 
REMARK    2  A    between atoms: C8_10  and  C9_11 
REMARK    3  A    between atoms: C9_11  and  C10_12 
REMARK    4  A    between atoms: C13_15  and  C14_16 
ROOT
HETATM    1  C9  UNL     1      28.355  14.755  12.305  1.00  0.00     0.068 C 
ENDROOT
BRANCH   1   2
HETATM    2  C8  UNL     1      27.169  13.990  12.841  1.00  0.00     0.278 C 
BRANCH   2   3
HETATM    3  N1  UNL     1      25.950  14.100  12.194  1.00  0.00     0.098 N 
HETATM    4  C3  UNL     1      25.005  14.807  13.126  1.00  0.00     0.230 C 
HETATM    5  C2  UNL     1      23.745  13.942  13.080  1.00  0.00     0.114 C 
HETATM    6  C4  UNL     1      24.781  16.172  12.525  1.00  0.00     0.038 C 
HETATM    7  C1  UNL     1      23.641  13.459  11.653  1.00  0.00     0.131 C 
HETATM    8  O1  UNL     1      22.992  12.439  11.494  1.00  0.00    -0.298 OA
HETATM    9  C7  UNL     1      24.301  14.214  10.538  1.00  0.00     0.114 C 
HETATM   10  C6  UNL     1      25.697  14.726  10.989  1.00  0.00     0.230 C 
HETATM   11  C5  UNL     1      25.603  16.203  11.268  1.00  0.00     0.038 C 
ENDBRANCH   2   3
ENDBRANCH   1   2
BRANCH   1  12
HETATM   12  C10 UNL     1      28.999  14.059  11.166  1.00  0.00    -0.057 A 
HETATM   13  C11 UNL     1      29.734  12.916  11.289  1.00  0.00     0.008 A 
HETATM   14  C12 UNL     1      30.364  12.380  10.144  1.00  0.00     0.017 A 
HETATM   15  C13 UNL     1      30.250  12.983   8.908  1.00  0.00     0.047 A 
HETATM   16  C15 UNL     1      29.499  14.144   8.772  1.00  0.00     0.017 A 
HETATM   17  C16 UNL     1      28.903  14.653   9.872  1.00  0.00     0.008 A 
BRANCH  15  18
HETATM   18  C14 UNL     1      30.902  12.475   7.679  1.00  0.00     0.417 C 
HETATM   19  F1  UNL     1      31.816  13.421   7.198  1.00  0.00    -0.166 F 
HETATM   20  F2  UNL     1      29.991  12.322   6.646  1.00  0.00    -0.166 F 
HETATM   21  F3  UNL     1      31.595  11.314   7.936  1.00  0.00    -0.166 F 
ENDBRANCH  15  18
ENDBRANCH   1  12
TORSDOF 4
ENDMDL
