MODEL 1
REMARK VINA RESULT: -8.146710656      0.000      0.000
REMARK  7 active torsions:
REMARK  status: ('A' for Active; 'I' for Inactive)
REMARK    1  A    between atoms: C3_4  and  C4_5 
REMARK    2  A    between atoms: C4_5  and  N2_6 
REMARK    3  A    between atoms: N2_6  and  C5_8 
REMARK    4  A    between atoms: C5_8  and  C6_9 
REMARK    5  A    between atoms: N3_12  and  C9_13 
REMARK    6  A    between atoms: C11_17  and  C12_18 
REMARK       I    between atoms: C12_18  and  N5_20 
REMARK    7  A    between atoms: N5_20  and  O2_22 
ROOT
HETATM    1  C6  UNL     1      39.432  35.520  85.059  1.00  0.00     0.006 C 
HETATM    2  C7  UNL     1      40.188  35.350  83.773  1.00  0.00     0.027 C 
HETATM    3  C8  UNL     1      41.673  35.572  83.905  1.00  0.00     0.141 C 
HETATM    4  N3  UNL     1      42.236  35.020  85.106  1.00  0.00    -0.218 N 
HETATM    5  C14 UNL     1      41.565  35.285  86.363  1.00  0.00     0.141 C 
HETATM    6  C15 UNL     1      40.324  36.105  86.148  1.00  0.00     0.027 C 
ENDROOT
BRANCH   1   7
HETATM    7  C5  UNL     1      39.014  34.144  85.530  1.00  0.00     0.118 C 
BRANCH   7   8
HETATM    8  N2  UNL     1      37.614  33.878  85.433  1.00  0.00    -0.417 N 
ATOM      9  H2  UNL     1      37.244  33.174  84.795  1.00  0.00     0.153 HD
BRANCH   8  10
HETATM   10  C4  UNL     1      36.760  34.652  86.281  1.00  0.00     0.155 C 
BRANCH  10  11
HETATM   11  C3  UNL     1      36.391  33.951  87.531  1.00  0.00    -0.013 A 
HETATM   12  C2  UNL     1      35.272  33.198  87.778  1.00  0.00     0.100 A 
HETATM   13  N1  UNL     1      35.295  32.730  89.040  1.00  0.00    -0.360 N 
HETATM   14  C1  UNL     1      34.275  31.899  89.647  1.00  0.00     0.155 C 
HETATM   15  C21 UNL     1      36.411  33.163  89.626  1.00  0.00     0.044 A 
HETATM   16  C16 UNL     1      37.120  33.933  88.699  1.00  0.00    -0.000 A 
HETATM   17  C20 UNL     1      36.904  32.961  90.915  1.00  0.00     0.030 A 
HETATM   18  C17 UNL     1      38.314  34.476  89.117  1.00  0.00     0.014 A 
HETATM   19  C18 UNL     1      38.809  34.273  90.409  1.00  0.00     0.001 A 
HETATM   20  C19 UNL     1      38.090  33.513  91.293  1.00  0.00     0.002 A 
ENDBRANCH  10  11
ENDBRANCH   8  10
ENDBRANCH   7   8
ENDBRANCH   1   7
BRANCH   4  21
HETATM   21  C9  UNL     1      43.418  34.233  85.126  1.00  0.00     0.679 A 
HETATM   22  N4  UNL     1      43.996  33.839  86.285  1.00  0.00    -0.201 N 
HETATM   23  C10 UNL     1      45.110  33.095  86.355  1.00  0.00     0.124 A 
ATOM     24  H4  UNL     1      43.558  34.127  87.160  1.00  0.00     0.183 HD
HETATM   25  C11 UNL     1      45.723  32.694  85.193  1.00  0.00     0.066 A 
HETATM   26  C13 UNL     1      45.130  33.098  84.011  1.00  0.00     0.124 A 
HETATM   27  N6  UNL     1      44.014  33.842  83.997  1.00  0.00    -0.201 N 
ATOM     28  H6  UNL     1      43.611  34.117  83.101  1.00  0.00     0.183 HD
BRANCH  25  29
HETATM   29  C12 UNL     1      46.942  31.882  85.163  1.00  0.00     0.277 C 
HETATM   30  O1  UNL     1      46.915  30.676  85.519  1.00  0.00    -0.265 OA
HETATM   31  N5  UNL     1      48.188  32.398  84.742  1.00  0.00    -0.233 N 
ATOM     32  H5  UNL     1      48.259  33.371  84.444  1.00  0.00     0.197 HD
BRANCH  31  33
HETATM   33  O2  UNL     1      49.288  31.608  84.732  1.00  0.00    -0.287 OA
ATOM     34  H2  UNL     1      49.799  31.507  83.937  1.00  0.00     0.244 HD
ENDBRANCH  31  33
ENDBRANCH  25  29
ENDBRANCH   4  21
TORSDOF 7
ENDMDL
