MODEL 3
REMARK VINA RESULT: -8.001176357      3.471      4.776
REMARK  7 active torsions:
REMARK  status: ('A' for Active; 'I' for Inactive)
REMARK    1  A    between atoms: C3_4  and  C4_5 
REMARK    2  A    between atoms: C4_5  and  N2_6 
REMARK    3  A    between atoms: N2_6  and  C5_8 
REMARK    4  A    between atoms: C5_8  and  C6_9 
REMARK    5  A    between atoms: N3_12  and  C9_13 
REMARK    6  A    between atoms: C11_17  and  C12_18 
REMARK       I    between atoms: C12_18  and  N5_20 
REMARK    7  A    between atoms: N5_20  and  O2_22 
ROOT
HETATM    1  C6  UNL     1      39.503  37.440  84.473  1.00  0.00     0.006 C 
HETATM    2  C7  UNL     1      39.277  35.986  84.774  1.00  0.00     0.027 C 
HETATM    3  C8  UNL     1      40.175  35.056  83.998  1.00  0.00     0.141 C 
HETATM    4  N3  UNL     1      41.527  35.526  83.874  1.00  0.00    -0.218 N 
HETATM    5  C14 UNL     1      41.741  36.901  83.469  1.00  0.00     0.141 C 
HETATM    6  C15 UNL     1      40.432  37.615  83.277  1.00  0.00     0.027 C 
ENDROOT
BRANCH   1   7
HETATM    7  C5  UNL     1      40.205  38.051  85.665  1.00  0.00     0.118 C 
BRANCH   7   8
HETATM    8  N2  UNL     1      40.357  37.177  86.784  1.00  0.00    -0.417 N 
ATOM      9  H2  UNL     1      39.553  36.772  87.262  1.00  0.00     0.153 HD
BRANCH   8  10
HETATM   10  C4  UNL     1      41.699  36.900  87.196  1.00  0.00     0.155 C 
BRANCH  10  11
HETATM   11  C3  UNL     1      41.868  36.902  88.666  1.00  0.00    -0.013 A 
HETATM   12  C2  UNL     1      40.924  36.643  89.625  1.00  0.00     0.100 A 
HETATM   13  N1  UNL     1      41.466  36.749  90.853  1.00  0.00    -0.360 N 
HETATM   14  C1  UNL     1      40.762  36.544  92.103  1.00  0.00     0.155 C 
HETATM   15  C21 UNL     1      42.751  37.073  90.716  1.00  0.00     0.044 A 
HETATM   16  C16 UNL     1      43.032  37.175  89.351  1.00  0.00    -0.000 A 
HETATM   17  C20 UNL     1      43.744  37.298  91.670  1.00  0.00     0.030 A 
HETATM   18  C17 UNL     1      44.321  37.506  88.997  1.00  0.00     0.014 A 
HETATM   19  C18 UNL     1      45.316  37.731  89.953  1.00  0.00     0.001 A 
HETATM   20  C19 UNL     1      45.009  37.622  91.283  1.00  0.00     0.002 A 
ENDBRANCH  10  11
ENDBRANCH   8  10
ENDBRANCH   7   8
ENDBRANCH   1   7
BRANCH   4  21
HETATM   21  C9  UNL     1      42.664  34.712  84.124  1.00  0.00     0.679 A 
HETATM   22  N4  UNL     1      42.789  33.986  85.259  1.00  0.00    -0.201 N 
HETATM   23  C10 UNL     1      43.842  33.203  85.539  1.00  0.00     0.124 A 
ATOM     24  H4  UNL     1      42.035  34.036  85.945  1.00  0.00     0.183 HD
HETATM   25  C11 UNL     1      44.872  33.117  84.635  1.00  0.00     0.066 A 
HETATM   26  C13 UNL     1      44.742  33.860  83.477  1.00  0.00     0.124 A 
HETATM   27  N6  UNL     1      43.666  34.627  83.245  1.00  0.00    -0.201 N 
ATOM     28  H6  UNL     1      43.612  35.159  82.376  1.00  0.00     0.183 HD
BRANCH  25  29
HETATM   29  C12 UNL     1      46.065  32.291  84.847  1.00  0.00     0.277 C 
HETATM   30  O1  UNL     1      45.956  31.098  85.231  1.00  0.00    -0.265 OA
HETATM   31  N5  UNL     1      47.374  32.782  84.639  1.00  0.00    -0.233 N 
ATOM     32  H5  UNL     1      47.511  33.743  84.328  1.00  0.00     0.197 HD
BRANCH  31  33
HETATM   33  O2  UNL     1      48.445  31.981  84.850  1.00  0.00    -0.287 OA
ATOM     34  H2  UNL     1      48.655  31.681  85.726  1.00  0.00     0.244 HD
ENDBRANCH  31  33
ENDBRANCH  25  29
ENDBRANCH   4  21
TORSDOF 7
ENDMDL
