MODEL 2
REMARK VINA RESULT: -8.018387233      0.696      1.922
REMARK  7 active torsions:
REMARK  status: ('A' for Active; 'I' for Inactive)
REMARK    1  A    between atoms: C3_4  and  C4_5 
REMARK    2  A    between atoms: C4_5  and  N2_6 
REMARK    3  A    between atoms: N2_6  and  C5_8 
REMARK    4  A    between atoms: C5_8  and  C6_9 
REMARK    5  A    between atoms: N3_12  and  C9_13 
REMARK    6  A    between atoms: C11_17  and  C12_18 
REMARK       I    between atoms: C12_18  and  N5_20 
REMARK    7  A    between atoms: N5_20  and  O2_22 
ROOT
HETATM    1  C6  UNL     1      39.494  35.534  85.143  1.00  0.00     0.006 C 
HETATM    2  C7  UNL     1      40.199  35.289  83.840  1.00  0.00     0.027 C 
HETATM    3  C8  UNL     1      41.691  35.499  83.906  1.00  0.00     0.141 C 
HETATM    4  N3  UNL     1      42.293  35.003  85.112  1.00  0.00    -0.218 N 
HETATM    5  C14 UNL     1      41.671  35.340  86.378  1.00  0.00     0.141 C 
HETATM    6  C15 UNL     1      40.432  36.164  86.167  1.00  0.00     0.027 C 
ENDROOT
BRANCH   1   7
HETATM    7  C5  UNL     1      39.079  34.189  85.699  1.00  0.00     0.118 C 
BRANCH   7   8
HETATM    8  N2  UNL     1      37.669  34.002  85.824  1.00  0.00    -0.417 N 
ATOM      9  H2  UNL     1      37.166  33.315  85.263  1.00  0.00     0.153 HD
BRANCH   8  10
HETATM   10  C4  UNL     1      37.001  34.830  86.781  1.00  0.00     0.155 C 
BRANCH  10  11
HETATM   11  C3  UNL     1      37.001  34.260  88.146  1.00  0.00    -0.013 A 
HETATM   12  C2  UNL     1      37.868  34.528  89.173  1.00  0.00     0.100 A 
HETATM   13  N1  UNL     1      37.542  33.803  90.260  1.00  0.00    -0.360 N 
HETATM   14  C1  UNL     1      38.239  33.831  91.529  1.00  0.00     0.155 C 
HETATM   15  C21 UNL     1      36.474  33.063  89.963  1.00  0.00     0.044 A 
HETATM   16  C16 UNL     1      36.112  33.331  88.640  1.00  0.00    -0.000 A 
HETATM   17  C20 UNL     1      35.751  32.151  90.732  1.00  0.00     0.030 A 
HETATM   18  C17 UNL     1      35.021  32.658  88.138  1.00  0.00     0.014 A 
HETATM   19  C18 UNL     1      34.295  31.744  88.909  1.00  0.00     0.001 A 
HETATM   20  C19 UNL     1      34.675  31.505  90.203  1.00  0.00     0.002 A 
ENDBRANCH  10  11
ENDBRANCH   8  10
ENDBRANCH   7   8
ENDBRANCH   1   7
BRANCH   4  21
HETATM   21  C9  UNL     1      43.466  34.203  85.130  1.00  0.00     0.679 A 
HETATM   22  N4  UNL     1      44.045  33.806  86.288  1.00  0.00    -0.201 N 
HETATM   23  C10 UNL     1      45.151  33.051  86.354  1.00  0.00     0.124 A 
ATOM     24  H4  UNL     1      43.613  34.101  87.163  1.00  0.00     0.183 HD
HETATM   25  C11 UNL     1      45.755  32.641  85.191  1.00  0.00     0.066 A 
HETATM   26  C13 UNL     1      45.162  33.048  84.011  1.00  0.00     0.124 A 
HETATM   27  N6  UNL     1      44.053  33.804  83.999  1.00  0.00    -0.201 N 
ATOM     28  H6  UNL     1      43.650  34.081  83.104  1.00  0.00     0.183 HD
BRANCH  25  29
HETATM   29  C12 UNL     1      46.965  31.815  85.158  1.00  0.00     0.277 C 
HETATM   30  O1  UNL     1      46.924  30.606  85.502  1.00  0.00    -0.265 OA
HETATM   31  N5  UNL     1      48.219  32.322  84.748  1.00  0.00    -0.233 N 
ATOM     32  H5  UNL     1      48.302  33.297  84.461  1.00  0.00     0.197 HD
BRANCH  31  33
HETATM   33  O2  UNL     1      49.310  31.520  84.735  1.00  0.00    -0.287 OA
ATOM     34  H2  UNL     1      49.666  31.208  83.911  1.00  0.00     0.244 HD
ENDBRANCH  31  33
ENDBRANCH  25  29
ENDBRANCH   4  21
TORSDOF 7
ENDMDL
