MODEL 5
REMARK VINA RESULT: -8.327338585      0.929      1.367
REMARK  4 active torsions:
REMARK  status: ('A' for Active; 'I' for Inactive)
REMARK    1  A    between atoms: N1_6  and  C6_7 
REMARK    2  A    between atoms: C6_7  and  C7_8 
REMARK    3  A    between atoms: C11_14  and  N3_15 
REMARK       I    between atoms: N3_15  and  C12_17 
REMARK    4  A    between atoms: C12_17  and  C13_19 
ROOT
HETATM    1  C7  UNL     1     -14.222   6.246  47.313  1.00  0.00     0.111 A 
HETATM    2  N2  UNL     1     -15.130   5.484  46.685  1.00  0.00    -0.343 N 
ATOM      3  H2  UNL     1     -15.614   5.734  45.821  1.00  0.00     0.167 HD
HETATM    4  C8  UNL     1     -15.301   4.349  47.365  1.00  0.00     0.060 A 
HETATM    5  C9  UNL     1     -16.115   3.240  47.144  1.00  0.00     0.034 A 
HETATM    6  C10 UNL     1     -16.076   2.195  48.039  1.00  0.00     0.032 A 
HETATM    7  C11 UNL     1     -15.248   2.197  49.168  1.00  0.00     0.037 A 
HETATM    8  C21 UNL     1     -14.470   3.295  49.347  1.00  0.00     0.061 A 
HETATM    9  C22 UNL     1     -14.477   4.384  48.462  1.00  0.00     0.062 A 
HETATM   10  N6  UNL     1     -13.835   5.556  48.396  1.00  0.00    -0.343 N 
ATOM     11  H6  UNL     1     -13.147   5.880  49.076  1.00  0.00     0.167 HD
ENDROOT
BRANCH   7  12
HETATM   12  N3  UNL     1     -15.286   1.066  50.009  1.00  0.00    -0.323 N 
HETATM   13  C12 UNL     1     -15.453   1.053  51.409  1.00  0.00     0.256 C 
HETATM   14  O1  UNL     1     -15.595   2.140  52.017  1.00  0.00    -0.267 OA
ATOM     15  H3  UNL     1     -15.179   0.158  49.555  1.00  0.00     0.169 HD
BRANCH  13  16
HETATM   16  C13 UNL     1     -15.472  -0.191  52.197  1.00  0.00     0.033 A 
HETATM   17  C14 UNL     1     -16.585  -1.024  52.116  1.00  0.00     0.019 A 
HETATM   18  C15 UNL     1     -16.642  -2.193  52.840  1.00  0.00     0.033 A 
HETATM   19  C16 UNL     1     -15.598  -2.562  53.662  1.00  0.00     0.062 A 
HETATM   20  C17 UNL     1     -14.495  -1.756  53.756  1.00  0.00     0.010 A 
HETATM   21  N5  UNL     1     -15.399  -3.639  54.470  1.00  0.00    -0.296 N 
HETATM   22  C18 UNL     1     -13.615  -2.350  54.631  1.00  0.00     0.121 A 
HETATM   23  C20 UNL     1     -14.454  -0.589  53.023  1.00  0.00     0.032 A 
HETATM   24  N4  UNL     1     -14.217  -3.499  55.040  1.00  0.00    -0.309 N 
ATOM     25  H4  UNL     1     -13.809  -4.164  55.697  1.00  0.00     0.186 HD
HETATM   26  C19 UNL     1     -16.359  -4.721  54.635  1.00  0.00     0.178 C 
ENDBRANCH  13  16
ENDBRANCH   7  12
BRANCH   1  27
HETATM   27  C6  UNL     1     -13.711   7.583  46.934  1.00  0.00     0.349 C 
BRANCH  27  28
HETATM   28  N1  UNL     1     -12.282   7.617  46.757  1.00  0.00     0.099 N 
HETATM   29  C2  UNL     1     -11.744   8.921  46.548  1.00  0.00     0.219 C 
HETATM   30  C1  UNL     1     -10.714   9.315  47.585  1.00  0.00     0.043 C 
HETATM   31  C3  UNL     1     -11.007   8.890  45.208  1.00  0.00     0.037 C 
HETATM   32  C4  UNL     1     -11.817   7.811  44.493  1.00  0.00     0.032 C 
HETATM   33  C5  UNL     1     -11.957   6.799  45.610  1.00  0.00     0.273 C 
ENDBRANCH  27  28
ENDBRANCH   1  27
TORSDOF 4
ENDMDL
