MODEL 2
REMARK VINA RESULT: -8.454334612      0.538      1.318
REMARK  4 active torsions:
REMARK  status: ('A' for Active; 'I' for Inactive)
REMARK    1  A    between atoms: N1_6  and  C6_7 
REMARK    2  A    between atoms: C6_7  and  C7_8 
REMARK    3  A    between atoms: C11_14  and  N3_15 
REMARK       I    between atoms: N3_15  and  C12_17 
REMARK    4  A    between atoms: C12_17  and  C13_19 
ROOT
HETATM    1  C7  UNL     1     -14.583   5.654  46.978  1.00  0.00     0.111 A 
HETATM    2  N2  UNL     1     -15.671   4.967  46.596  1.00  0.00    -0.343 N 
ATOM      3  H2  UNL     1     -16.305   5.236  45.844  1.00  0.00     0.167 HD
HETATM    4  C8  UNL     1     -15.793   3.876  47.356  1.00  0.00     0.060 A 
HETATM    5  C9  UNL     1     -16.732   2.847  47.370  1.00  0.00     0.034 A 
HETATM    6  C10 UNL     1     -16.595   1.832  48.288  1.00  0.00     0.032 A 
HETATM    7  C11 UNL     1     -15.546   1.786  49.214  1.00  0.00     0.037 A 
HETATM    8  C21 UNL     1     -14.652   2.807  49.168  1.00  0.00     0.061 A 
HETATM    9  C22 UNL     1     -14.752   3.863  48.249  1.00  0.00     0.062 A 
HETATM   10  N6  UNL     1     -14.035   4.963  47.989  1.00  0.00    -0.343 N 
ATOM     11  H6  UNL     1     -13.191   5.238  48.489  1.00  0.00     0.167 HD
ENDROOT
BRANCH   7  12
HETATM   12  N3  UNL     1     -15.503   0.691  50.102  1.00  0.00    -0.323 N 
HETATM   13  C12 UNL     1     -15.529   0.737  51.511  1.00  0.00     0.256 C 
HETATM   14  O1  UNL     1     -15.605   1.850  52.085  1.00  0.00    -0.267 OA
ATOM     15  H3  UNL     1     -15.446  -0.235  49.678  1.00  0.00     0.169 HD
BRANCH  13  16
HETATM   16  C13 UNL     1     -15.473  -0.473  52.349  1.00  0.00     0.033 A 
HETATM   17  C14 UNL     1     -14.349  -0.694  53.139  1.00  0.00     0.019 A 
HETATM   18  C15 UNL     1     -14.257  -1.816  53.932  1.00  0.00     0.033 A 
HETATM   19  C16 UNL     1     -15.277  -2.743  53.959  1.00  0.00     0.062 A 
HETATM   20  C17 UNL     1     -16.391  -2.543  53.188  1.00  0.00     0.010 A 
HETATM   21  N5  UNL     1     -15.441  -3.912  54.636  1.00  0.00    -0.296 N 
HETATM   22  C18 UNL     1     -17.242  -3.603  53.399  1.00  0.00     0.121 A 
HETATM   23  C20 UNL     1     -16.467  -1.414  52.400  1.00  0.00     0.032 A 
HETATM   24  N4  UNL     1     -16.613  -4.413  54.293  1.00  0.00    -0.309 N 
ATOM     25  H4  UNL     1     -16.996  -5.287  54.651  1.00  0.00     0.186 HD
HETATM   26  C19 UNL     1     -14.461  -4.462  55.561  1.00  0.00     0.178 C 
ENDBRANCH  13  16
ENDBRANCH   7  12
BRANCH   1  27
HETATM   27  C6  UNL     1     -14.048   6.922  46.431  1.00  0.00     0.349 C 
BRANCH  27  28
HETATM   28  N1  UNL     1     -13.273   7.671  47.386  1.00  0.00     0.099 N 
HETATM   29  C2  UNL     1     -13.986   8.723  48.031  1.00  0.00     0.219 C 
HETATM   30  C1  UNL     1     -14.027   8.580  49.538  1.00  0.00     0.043 C 
HETATM   31  C3  UNL     1     -13.226  10.018  47.747  1.00  0.00     0.037 C 
HETATM   32  C4  UNL     1     -12.600   9.660  46.401  1.00  0.00     0.032 C 
HETATM   33  C5  UNL     1     -12.143   8.245  46.689  1.00  0.00     0.273 C 
ENDBRANCH  27  28
ENDBRANCH   1  27
TORSDOF 4
ENDMDL
