MODEL 12
REMARK VINA RESULT: -7.857905831      2.980      4.006
REMARK  4 active torsions:
REMARK  status: ('A' for Active; 'I' for Inactive)
REMARK    1  A    between atoms: N1_6  and  C6_7 
REMARK    2  A    between atoms: C6_7  and  C7_8 
REMARK    3  A    between atoms: C11_14  and  N3_15 
REMARK       I    between atoms: N3_15  and  C12_17 
REMARK    4  A    between atoms: C12_17  and  C13_19 
ROOT
HETATM    1  C7  UNL     1     -17.514   4.268  46.118  1.00  0.00     0.111 A 
HETATM    2  N2  UNL     1     -16.235   4.344  46.516  1.00  0.00    -0.343 N 
ATOM      3  H2  UNL     1     -15.544   5.005  46.159  1.00  0.00     0.167 HD
HETATM    4  C8  UNL     1     -16.008   3.420  47.452  1.00  0.00     0.060 A 
HETATM    5  C9  UNL     1     -14.867   3.086  48.178  1.00  0.00     0.034 A 
HETATM    6  C10 UNL     1     -14.937   2.064  49.097  1.00  0.00     0.032 A 
HETATM    7  C11 UNL     1     -16.112   1.341  49.336  1.00  0.00     0.037 A 
HETATM    8  C21 UNL     1     -17.201   1.697  48.608  1.00  0.00     0.061 A 
HETATM    9  C22 UNL     1     -17.177   2.732  47.661  1.00  0.00     0.062 A 
HETATM   10  N6  UNL     1     -18.072   3.277  46.830  1.00  0.00    -0.343 N 
ATOM     11  H6  UNL     1     -19.045   2.981  46.748  1.00  0.00     0.167 HD
ENDROOT
BRANCH   7  12
HETATM   12  N3  UNL     1     -16.066   0.320  50.308  1.00  0.00    -0.323 N 
HETATM   13  C12 UNL     1     -15.664   0.445  51.654  1.00  0.00     0.256 C 
HETATM   14  O1  UNL     1     -15.303   1.568  52.081  1.00  0.00    -0.267 OA
ATOM     15  H3  UNL     1     -16.356  -0.610  50.005  1.00  0.00     0.169 HD
BRANCH  13  16
HETATM   16  C13 UNL     1     -15.648  -0.692  52.589  1.00  0.00     0.033 A 
HETATM   17  C14 UNL     1     -16.836  -1.372  52.842  1.00  0.00     0.019 A 
HETATM   18  C15 UNL     1     -16.864  -2.438  53.713  1.00  0.00     0.033 A 
HETATM   19  C16 UNL     1     -15.715  -2.852  54.354  1.00  0.00     0.062 A 
HETATM   20  C17 UNL     1     -14.537  -2.195  54.118  1.00  0.00     0.010 A 
HETATM   21  N5  UNL     1     -15.466  -3.851  55.243  1.00  0.00    -0.296 N 
HETATM   22  C18 UNL     1     -13.560  -2.802  54.873  1.00  0.00     0.121 A 
HETATM   23  C20 UNL     1     -14.527  -1.130  53.242  1.00  0.00     0.032 A 
HETATM   24  N4  UNL     1     -14.181  -3.810  55.543  1.00  0.00    -0.309 N 
ATOM     25  H4  UNL     1     -13.718  -4.448  56.190  1.00  0.00     0.186 HD
HETATM   26  C19 UNL     1     -16.480  -4.771  55.739  1.00  0.00     0.178 C 
ENDBRANCH  13  16
ENDBRANCH   7  12
BRANCH   1  27
HETATM   27  C6  UNL     1     -18.220   5.085  45.105  1.00  0.00     0.349 C 
BRANCH  27  28
HETATM   28  N1  UNL     1     -19.259   5.911  45.665  1.00  0.00     0.099 N 
HETATM   29  C2  UNL     1     -20.584   5.470  45.377  1.00  0.00     0.219 C 
HETATM   30  C1  UNL     1     -21.399   5.178  46.619  1.00  0.00     0.043 C 
HETATM   31  C3  UNL     1     -21.293   6.622  44.664  1.00  0.00     0.037 C 
HETATM   32  C4  UNL     1     -20.094   7.290  43.997  1.00  0.00     0.032 C 
HETATM   33  C5  UNL     1     -19.098   7.248  45.136  1.00  0.00     0.273 C 
ENDBRANCH  27  28
ENDBRANCH   1  27
TORSDOF 4
ENDMDL
