MODEL 6
REMARK VINA RESULT: -8.285412796      0.976      1.799
REMARK  4 active torsions:
REMARK  status: ('A' for Active; 'I' for Inactive)
REMARK    1  A    between atoms: N1_6  and  C6_7 
REMARK    2  A    between atoms: C6_7  and  C7_8 
REMARK    3  A    between atoms: C11_14  and  N3_15 
REMARK       I    between atoms: N3_15  and  C12_17 
REMARK    4  A    between atoms: C12_17  and  C13_19 
ROOT
HETATM    1  C7  UNL     1     -14.208   5.906  47.664  1.00  0.00     0.111 A 
HETATM    2  N2  UNL     1     -15.131   5.161  47.034  1.00  0.00    -0.343 N 
ATOM      3  H2  UNL     1     -15.614   5.423  46.175  1.00  0.00     0.167 HD
HETATM    4  C8  UNL     1     -15.317   4.025  47.709  1.00  0.00     0.060 A 
HETATM    5  C9  UNL     1     -16.149   2.930  47.485  1.00  0.00     0.034 A 
HETATM    6  C10 UNL     1     -16.122   1.879  48.373  1.00  0.00     0.032 A 
HETATM    7  C11 UNL     1     -15.290   1.862  49.499  1.00  0.00     0.037 A 
HETATM    8  C21 UNL     1     -14.495   2.947  49.682  1.00  0.00     0.061 A 
HETATM    9  C22 UNL     1     -14.488   4.040  48.803  1.00  0.00     0.062 A 
HETATM   10  N6  UNL     1     -13.828   5.203  48.742  1.00  0.00    -0.343 N 
ATOM     11  H6  UNL     1     -13.133   5.513  49.420  1.00  0.00     0.167 HD
ENDROOT
BRANCH   7  12
HETATM   12  N3  UNL     1     -15.342   0.726  50.334  1.00  0.00    -0.323 N 
HETATM   13  C12 UNL     1     -15.393   0.709  51.743  1.00  0.00     0.256 C 
HETATM   14  O1  UNL     1     -15.402   1.796  52.367  1.00  0.00    -0.267 OA
ATOM     15  H3  UNL     1     -15.342  -0.181  49.868  1.00  0.00     0.169 HD
BRANCH  13  16
HETATM   16  C13 UNL     1     -15.440  -0.540  52.523  1.00  0.00     0.033 A 
HETATM   17  C14 UNL     1     -14.395  -0.827  53.397  1.00  0.00     0.019 A 
HETATM   18  C15 UNL     1     -14.399  -1.986  54.140  1.00  0.00     0.033 A 
HETATM   19  C16 UNL     1     -15.439  -2.885  54.033  1.00  0.00     0.062 A 
HETATM   20  C17 UNL     1     -16.475  -2.620  53.179  1.00  0.00     0.010 A 
HETATM   21  N5  UNL     1     -15.688  -4.080  54.636  1.00  0.00    -0.296 N 
HETATM   22  C18 UNL     1     -17.366  -3.666  53.263  1.00  0.00     0.121 A 
HETATM   23  C20 UNL     1     -16.455  -1.455  52.442  1.00  0.00     0.032 A 
HETATM   24  N4  UNL     1     -16.837  -4.532  54.169  1.00  0.00    -0.309 N 
ATOM     25  H4  UNL     1     -17.270  -5.412  54.449  1.00  0.00     0.186 HD
HETATM   26  C19 UNL     1     -14.807  -4.698  55.615  1.00  0.00     0.178 C 
ENDBRANCH  13  16
ENDBRANCH   7  12
BRANCH   1  27
HETATM   27  C6  UNL     1     -13.679   7.237  47.290  1.00  0.00     0.349 C 
BRANCH  27  28
HETATM   28  N1  UNL     1     -14.465   8.327  47.809  1.00  0.00     0.099 N 
HETATM   29  C2  UNL     1     -14.347   9.542  47.073  1.00  0.00     0.219 C 
HETATM   30  C1  UNL     1     -15.669  10.041  46.529  1.00  0.00     0.043 C 
HETATM   31  C3  UNL     1     -13.859  10.611  48.051  1.00  0.00     0.037 C 
HETATM   32  C4  UNL     1     -13.077   9.732  49.024  1.00  0.00     0.032 C 
HETATM   33  C5  UNL     1     -14.041   8.573  49.169  1.00  0.00     0.273 C 
ENDBRANCH  27  28
ENDBRANCH   1  27
TORSDOF 4
ENDMDL
