MODEL 11
REMARK VINA RESULT: -7.898881095      2.719     12.124
REMARK  4 active torsions:
REMARK  status: ('A' for Active; 'I' for Inactive)
REMARK    1  A    between atoms: N1_6  and  C6_7 
REMARK    2  A    between atoms: C6_7  and  C7_8 
REMARK    3  A    between atoms: C11_14  and  N3_15 
REMARK       I    between atoms: N3_15  and  C12_17 
REMARK    4  A    between atoms: C12_17  and  C13_19 
ROOT
HETATM    1  C7  UNL     1     -15.664  -5.060  56.227  1.00  0.00     0.111 A 
HETATM    2  N2  UNL     1     -14.537  -4.333  56.222  1.00  0.00    -0.343 N 
ATOM      3  H2  UNL     1     -13.768  -4.431  56.886  1.00  0.00     0.167 HD
HETATM    4  C8  UNL     1     -14.578  -3.461  55.211  1.00  0.00     0.060 A 
HETATM    5  C9  UNL     1     -13.675  -2.495  54.773  1.00  0.00     0.034 A 
HETATM    6  C10 UNL     1     -13.998  -1.729  53.677  1.00  0.00     0.032 A 
HETATM    7  C11 UNL     1     -15.202  -1.879  52.978  1.00  0.00     0.037 A 
HETATM    8  C21 UNL     1     -16.053  -2.832  53.435  1.00  0.00     0.061 A 
HETATM    9  C22 UNL     1     -15.766  -3.636  54.549  1.00  0.00     0.062 A 
HETATM   10  N6  UNL     1     -16.402  -4.619  55.197  1.00  0.00    -0.343 N 
ATOM     11  H6  UNL     1     -17.320  -4.983  54.944  1.00  0.00     0.167 HD
ENDROOT
BRANCH   7  12
HETATM   12  N3  UNL     1     -15.420  -1.044  51.863  1.00  0.00    -0.323 N 
HETATM   13  C12 UNL     1     -15.451   0.366  51.849  1.00  0.00     0.256 C 
HETATM   14  O1  UNL     1     -15.262   0.991  52.920  1.00  0.00    -0.267 OA
ATOM     15  H3  UNL     1     -15.573  -1.510  50.968  1.00  0.00     0.169 HD
BRANCH  13  16
HETATM   16  C13 UNL     1     -15.694   1.146  50.624  1.00  0.00     0.033 A 
HETATM   17  C14 UNL     1     -16.781   0.815  49.820  1.00  0.00     0.019 A 
HETATM   18  C15 UNL     1     -17.040   1.517  48.665  1.00  0.00     0.033 A 
HETATM   19  C16 UNL     1     -16.227   2.563  48.281  1.00  0.00     0.062 A 
HETATM   20  C17 UNL     1     -15.153   2.903  49.058  1.00  0.00     0.010 A 
HETATM   21  N5  UNL     1     -16.252   3.404  47.211  1.00  0.00    -0.296 N 
HETATM   22  C18 UNL     1     -14.517   3.964  48.455  1.00  0.00     0.121 A 
HETATM   23  C20 UNL     1     -14.908   2.188  50.213  1.00  0.00     0.032 A 
HETATM   24  N4  UNL     1     -15.231   4.232  47.328  1.00  0.00    -0.309 N 
ATOM     25  H4  UNL     1     -15.007   4.972  46.664  1.00  0.00     0.186 HD
HETATM   26  C19 UNL     1     -17.255   3.352  46.158  1.00  0.00     0.178 C 
ENDBRANCH  13  16
ENDBRANCH   7  12
BRANCH   1  27
HETATM   27  C6  UNL     1     -16.065  -6.142  57.155  1.00  0.00     0.349 C 
BRANCH  27  28
HETATM   28  N1  UNL     1     -15.077  -6.419  58.166  1.00  0.00     0.099 N 
HETATM   29  C2  UNL     1     -14.187  -7.486  57.845  1.00  0.00     0.219 C 
HETATM   30  C1  UNL     1     -12.733  -7.065  57.827  1.00  0.00     0.043 C 
HETATM   31  C3  UNL     1     -14.315  -8.524  58.961  1.00  0.00     0.037 C 
HETATM   32  C4  UNL     1     -15.760  -8.270  59.385  1.00  0.00     0.032 C 
HETATM   33  C5  UNL     1     -15.774  -6.756  59.388  1.00  0.00     0.273 C 
ENDBRANCH  27  28
ENDBRANCH   1  27
TORSDOF 4
ENDMDL
