MODEL 1
REMARK VINA RESULT: -8.696327452      0.000      0.000
REMARK  4 active torsions:
REMARK  status: ('A' for Active; 'I' for Inactive)
REMARK    1  A    between atoms: N1_6  and  C6_7 
REMARK    2  A    between atoms: C6_7  and  C7_8 
REMARK    3  A    between atoms: C11_14  and  N3_15 
REMARK       I    between atoms: N3_15  and  C12_17 
REMARK    4  A    between atoms: C12_17  and  C13_19 
ROOT
HETATM    1  C7  UNL     1     -14.574   5.638  46.959  1.00  0.00     0.111 A 
HETATM    2  N2  UNL     1     -15.677   4.977  46.576  1.00  0.00    -0.343 N 
ATOM      3  H2  UNL     1     -16.304   5.261  45.823  1.00  0.00     0.167 HD
HETATM    4  C8  UNL     1     -15.826   3.888  47.335  1.00  0.00     0.060 A 
HETATM    5  C9  UNL     1     -16.789   2.882  47.347  1.00  0.00     0.034 A 
HETATM    6  C10 UNL     1     -16.678   1.863  48.265  1.00  0.00     0.032 A 
HETATM    7  C11 UNL     1     -15.632   1.792  49.192  1.00  0.00     0.037 A 
HETATM    8  C21 UNL     1     -14.714   2.791  49.147  1.00  0.00     0.061 A 
HETATM    9  C22 UNL     1     -14.787   3.849  48.230  1.00  0.00     0.062 A 
HETATM   10  N6  UNL     1     -14.044   4.933  47.971  1.00  0.00    -0.343 N 
ATOM     11  H6  UNL     1     -13.194   5.187  48.472  1.00  0.00     0.167 HD
ENDROOT
BRANCH   7  12
HETATM   12  N3  UNL     1     -15.616   0.696  50.079  1.00  0.00    -0.323 N 
HETATM   13  C12 UNL     1     -15.613   0.742  51.489  1.00  0.00     0.256 C 
HETATM   14  O1  UNL     1     -15.632   1.856  52.063  1.00  0.00    -0.267 OA
ATOM     15  H3  UNL     1     -15.605  -0.232  49.655  1.00  0.00     0.169 HD
BRANCH  13  16
HETATM   16  C13 UNL     1     -15.589  -0.470  52.325  1.00  0.00     0.033 A 
HETATM   17  C14 UNL     1     -16.712  -1.293  52.350  1.00  0.00     0.019 A 
HETATM   18  C15 UNL     1     -16.731  -2.432  53.122  1.00  0.00     0.033 A 
HETATM   19  C16 UNL     1     -15.638  -2.781  53.888  1.00  0.00     0.062 A 
HETATM   20  C17 UNL     1     -14.525  -1.984  53.876  1.00  0.00     0.010 A 
HETATM   21  N5  UNL     1     -15.395  -3.827  54.723  1.00  0.00    -0.296 N 
HETATM   22  C18 UNL     1     -13.594  -2.552  54.715  1.00  0.00     0.121 A 
HETATM   23  C20 UNL     1     -14.523  -0.846  53.097  1.00  0.00     0.032 A 
HETATM   24  N4  UNL     1     -14.176  -3.678  55.208  1.00  0.00    -0.309 N 
ATOM     25  H4  UNL     1     -13.732  -4.321  55.863  1.00  0.00     0.186 HD
HETATM   26  C19 UNL     1     -16.350  -4.891  54.994  1.00  0.00     0.178 C 
ENDBRANCH  13  16
ENDBRANCH   7  12
BRANCH   1  27
HETATM   27  C6  UNL     1     -14.009   6.892  46.414  1.00  0.00     0.349 C 
BRANCH  27  28
HETATM   28  N1  UNL     1     -13.239   7.636  47.378  1.00  0.00     0.099 N 
HETATM   29  C2  UNL     1     -13.963   8.670  48.040  1.00  0.00     0.219 C 
HETATM   30  C1  UNL     1     -13.999   8.506  49.544  1.00  0.00     0.043 C 
HETATM   31  C3  UNL     1     -13.216   9.978  47.773  1.00  0.00     0.037 C 
HETATM   32  C4  UNL     1     -12.589   9.645  46.421  1.00  0.00     0.032 C 
HETATM   33  C5  UNL     1     -12.117   8.231  46.687  1.00  0.00     0.273 C 
ENDBRANCH  27  28
ENDBRANCH   1  27
TORSDOF 4
ENDMDL
