MODEL 9
REMARK VINA RESULT: -7.913029650      2.680     11.979
REMARK  4 active torsions:
REMARK  status: ('A' for Active; 'I' for Inactive)
REMARK    1  A    between atoms: N1_6  and  C6_7 
REMARK    2  A    between atoms: C6_7  and  C7_8 
REMARK    3  A    between atoms: C11_14  and  N3_15 
REMARK       I    between atoms: N3_15  and  C12_17 
REMARK    4  A    between atoms: C12_17  and  C13_19 
ROOT
HETATM    1  C7  UNL     1     -15.904  -4.936  56.315  1.00  0.00     0.111 A 
HETATM    2  N2  UNL     1     -14.702  -4.343  56.250  1.00  0.00    -0.343 N 
ATOM      3  H2  UNL     1     -13.921  -4.522  56.881  1.00  0.00     0.167 HD
HETATM    4  C8  UNL     1     -14.689  -3.481  55.230  1.00  0.00     0.060 A 
HETATM    5  C9  UNL     1     -13.703  -2.627  54.740  1.00  0.00     0.034 A 
HETATM    6  C10 UNL     1     -13.986  -1.839  53.648  1.00  0.00     0.032 A 
HETATM    7  C11 UNL     1     -15.229  -1.857  53.005  1.00  0.00     0.037 A 
HETATM    8  C21 UNL     1     -16.162  -2.703  53.512  1.00  0.00     0.061 A 
HETATM    9  C22 UNL     1     -15.919  -3.525  54.623  1.00  0.00     0.062 A 
HETATM   10  N6  UNL     1     -16.632  -4.423  55.312  1.00  0.00    -0.343 N 
ATOM     11  H6  UNL     1     -17.597  -4.682  55.104  1.00  0.00     0.167 HD
ENDROOT
BRANCH   7  12
HETATM   12  N3  UNL     1     -15.401  -1.012  51.889  1.00  0.00    -0.323 N 
HETATM   13  C12 UNL     1     -15.452   0.397  51.889  1.00  0.00     0.256 C 
HETATM   14  O1  UNL     1     -15.329   1.012  52.976  1.00  0.00    -0.267 OA
ATOM     15  H3  UNL     1     -15.501  -1.470  50.983  1.00  0.00     0.169 HD
BRANCH  13  16
HETATM   16  C13 UNL     1     -15.642   1.188  50.662  1.00  0.00     0.033 A 
HETATM   17  C14 UNL     1     -16.672   0.843  49.791  1.00  0.00     0.019 A 
HETATM   18  C15 UNL     1     -16.879   1.554  48.631  1.00  0.00     0.033 A 
HETATM   19  C16 UNL     1     -16.071   2.624  48.309  1.00  0.00     0.062 A 
HETATM   20  C17 UNL     1     -15.053   2.979  49.153  1.00  0.00     0.010 A 
HETATM   21  N5  UNL     1     -16.055   3.480  47.250  1.00  0.00    -0.296 N 
HETATM   22  C18 UNL     1     -14.410   4.063  48.601  1.00  0.00     0.121 A 
HETATM   23  C20 UNL     1     -14.859   2.255  50.311  1.00  0.00     0.032 A 
HETATM   24  N4  UNL     1     -15.062   4.330  47.438  1.00  0.00    -0.309 N 
ATOM     25  H4  UNL     1     -14.818   5.084  46.797  1.00  0.00     0.186 HD
HETATM   26  C19 UNL     1     -16.992   3.418  46.139  1.00  0.00     0.178 C 
ENDBRANCH  13  16
ENDBRANCH   7  12
BRANCH   1  27
HETATM   27  C6  UNL     1     -16.383  -5.957  57.274  1.00  0.00     0.349 C 
BRANCH  27  28
HETATM   28  N1  UNL     1     -16.574  -5.440  58.605  1.00  0.00     0.099 N 
HETATM   29  C2  UNL     1     -15.497  -5.704  59.501  1.00  0.00     0.219 C 
HETATM   30  C1  UNL     1     -14.881  -4.448  60.080  1.00  0.00     0.043 C 
HETATM   31  C3  UNL     1     -16.080  -6.476  60.685  1.00  0.00     0.037 C 
HETATM   32  C4  UNL     1     -17.243  -7.177  59.988  1.00  0.00     0.032 C 
HETATM   33  C5  UNL     1     -17.775  -6.038  59.145  1.00  0.00     0.273 C 
ENDBRANCH  27  28
ENDBRANCH   1  27
TORSDOF 4
ENDMDL
