MODEL 7
REMARK VINA RESULT: -8.179084607      1.088      2.027
REMARK  4 active torsions:
REMARK  status: ('A' for Active; 'I' for Inactive)
REMARK    1  A    between atoms: N1_6  and  C6_7 
REMARK    2  A    between atoms: C6_7  and  C7_8 
REMARK    3  A    between atoms: C11_14  and  N3_15 
REMARK       I    between atoms: N3_15  and  C12_17 
REMARK    4  A    between atoms: C12_17  and  C13_19 
ROOT
HETATM    1  C7  UNL     1     -14.246   5.920  47.696  1.00  0.00     0.111 A 
HETATM    2  N2  UNL     1     -15.122   5.142  47.042  1.00  0.00    -0.343 N 
ATOM      3  H2  UNL     1     -15.587   5.384  46.166  1.00  0.00     0.167 HD
HETATM    4  C8  UNL     1     -15.290   4.002  47.715  1.00  0.00     0.060 A 
HETATM    5  C9  UNL     1     -16.076   2.878  47.470  1.00  0.00     0.034 A 
HETATM    6  C10 UNL     1     -16.041   1.832  48.363  1.00  0.00     0.032 A 
HETATM    7  C11 UNL     1     -15.245   1.847  49.514  1.00  0.00     0.037 A 
HETATM    8  C21 UNL     1     -14.494   2.959  49.717  1.00  0.00     0.061 A 
HETATM    9  C22 UNL     1     -14.497   4.049  48.834  1.00  0.00     0.062 A 
HETATM   10  N6  UNL     1     -13.876   5.234  48.789  1.00  0.00    -0.343 N 
ATOM     11  H6  UNL     1     -13.214   5.570  49.487  1.00  0.00     0.167 HD
ENDROOT
BRANCH   7  12
HETATM   12  N3  UNL     1     -15.284   0.713  50.352  1.00  0.00    -0.323 N 
HETATM   13  C12 UNL     1     -15.358   0.698  51.760  1.00  0.00     0.256 C 
HETATM   14  O1  UNL     1     -15.403   1.787  52.381  1.00  0.00    -0.267 OA
ATOM     15  H3  UNL     1     -15.254  -0.196  49.889  1.00  0.00     0.169 HD
BRANCH  13  16
HETATM   16  C13 UNL     1     -15.388  -0.549  52.543  1.00  0.00     0.033 A 
HETATM   17  C14 UNL     1     -14.320  -0.839  53.388  1.00  0.00     0.019 A 
HETATM   18  C15 UNL     1     -14.308  -1.997  54.133  1.00  0.00     0.033 A 
HETATM   19  C16 UNL     1     -15.354  -2.892  54.057  1.00  0.00     0.062 A 
HETATM   20  C17 UNL     1     -16.413  -2.623  53.232  1.00  0.00     0.010 A 
HETATM   21  N5  UNL     1     -15.592  -4.084  54.669  1.00  0.00    -0.296 N 
HETATM   22  C18 UNL     1     -17.306  -3.665  53.344  1.00  0.00     0.121 A 
HETATM   23  C20 UNL     1     -16.409  -1.459  52.493  1.00  0.00     0.032 A 
HETATM   24  N4  UNL     1     -16.756  -4.532  54.236  1.00  0.00    -0.309 N 
ATOM     25  H4  UNL     1     -17.184  -5.409  54.530  1.00  0.00     0.186 HD
HETATM   26  C19 UNL     1     -14.685  -4.704  55.624  1.00  0.00     0.178 C 
ENDBRANCH  13  16
ENDBRANCH   7  12
BRANCH   1  27
HETATM   27  C6  UNL     1     -13.752   7.267  47.334  1.00  0.00     0.349 C 
BRANCH  27  28
HETATM   28  N1  UNL     1     -13.311   7.362  45.966  1.00  0.00     0.099 N 
HETATM   29  C2  UNL     1     -11.983   7.854  45.806  1.00  0.00     0.219 C 
HETATM   30  C1  UNL     1     -11.071   6.887  45.082  1.00  0.00     0.043 C 
HETATM   31  C3  UNL     1     -12.071   9.099  44.922  1.00  0.00     0.037 C 
HETATM   32  C4  UNL     1     -13.477   9.572  45.282  1.00  0.00     0.032 C 
HETATM   33  C5  UNL     1     -14.215   8.250  45.268  1.00  0.00     0.273 C 
ENDBRANCH  27  28
ENDBRANCH   1  27
TORSDOF 4
ENDMDL
