MODEL 5
REMARK VINA RESULT: -7.116504772      3.661      4.394
REMARK  4 active torsions:
REMARK  status: ('A' for Active; 'I' for Inactive)
REMARK       I    between atoms: C1_2  and  N1_3 
REMARK    1  A    between atoms: C1_2  and  C2_7 
REMARK    2  A    between atoms: N1_3  and  O2_5 
REMARK    3  A    between atoms: C6_12  and  N2_13 
REMARK       I    between atoms: N2_13  and  C7_15 
REMARK    4  A    between atoms: C7_15  and  C8_17 
ROOT
HETATM    1  C2  UNL     1      44.859  34.622  84.919  1.00  0.00     0.036 A 
HETATM    2  C3  UNL     1      43.954  34.939  83.949  1.00  0.00     0.019 A 
HETATM    3  C4  UNL     1      42.979  35.913  84.138  1.00  0.00     0.027 A 
HETATM    4  C5  UNL     1      42.899  36.592  85.323  1.00  0.00     0.060 A 
HETATM    5 CL1  UNL     1      41.665  37.822  85.558  1.00  0.00    -0.082 Cl
HETATM    6  C6  UNL     1      43.816  36.293  86.351  1.00  0.00     0.057 A 
HETATM    7  C14 UNL     1      44.768  35.326  86.131  1.00  0.00     0.048 A 
ENDROOT
BRANCH   6   8
HETATM    8  N2  UNL     1      43.659  37.044  87.536  1.00  0.00    -0.321 N 
HETATM    9  C7  UNL     1      44.674  37.782  88.139  1.00  0.00     0.256 C 
HETATM   10  O3  UNL     1      45.845  37.847  87.667  1.00  0.00    -0.267 OA
ATOM     11  H2  UNL     1      42.741  37.046  87.980  1.00  0.00     0.169 HD
BRANCH   9  12
HETATM   12  C8  UNL     1      44.478  38.555  89.381  1.00  0.00     0.032 A 
HETATM   13  C9  UNL     1      45.484  39.333  89.889  1.00  0.00     0.017 A 
HETATM   14  C10 UNL     1      45.298  40.063  91.077  1.00  0.00     0.001 A 
HETATM   15  C11 UNL     1      44.103  40.014  91.758  1.00  0.00     0.000 A 
HETATM   16  C12 UNL     1      43.096  39.229  91.239  1.00  0.00     0.001 A 
HETATM   17  C13 UNL     1      43.284  38.505  90.058  1.00  0.00     0.017 A 
ENDBRANCH   9  12
ENDBRANCH   6   8
BRANCH   1  18
HETATM   18  C1  UNL     1      45.887  33.618  84.765  1.00  0.00     0.275 C 
HETATM   19  O1  UNL     1      45.579  32.408  84.805  1.00  0.00    -0.265 OA
HETATM   20  N1  UNL     1      47.234  33.982  84.571  1.00  0.00    -0.233 N 
ATOM     21  H1  UNL     1      47.484  34.971  84.540  1.00  0.00     0.197 HD
BRANCH  20  22
HETATM   22  O2  UNL     1      48.209  33.043  84.425  1.00  0.00    -0.287 OA
ATOM     23  H2  UNL     1      48.255  32.285  84.995  1.00  0.00     0.244 HD
ENDBRANCH  20  22
ENDBRANCH   1  18
TORSDOF 4
ENDMDL
