MODEL 3
REMARK VINA RESULT: -7.203448959      1.314      1.743
REMARK  4 active torsions:
REMARK  status: ('A' for Active; 'I' for Inactive)
REMARK       I    between atoms: C1_2  and  N1_3 
REMARK    1  A    between atoms: C1_2  and  C2_7 
REMARK    2  A    between atoms: N1_3  and  O2_5 
REMARK    3  A    between atoms: C6_12  and  N2_13 
REMARK       I    between atoms: N2_13  and  C7_15 
REMARK    4  A    between atoms: C7_15  and  C8_17 
ROOT
HETATM    1  C2  UNL     1      44.076  35.363  84.409  1.00  0.00     0.036 A 
HETATM    2  C3  UNL     1      43.777  35.698  83.121  1.00  0.00     0.019 A 
HETATM    3  C4  UNL     1      42.489  36.049  82.729  1.00  0.00     0.027 A 
HETATM    4  C5  UNL     1      41.469  36.067  83.640  1.00  0.00     0.060 A 
HETATM    5 CL1  UNL     1      39.843  36.511  83.141  1.00  0.00    -0.082 Cl
HETATM    6  C6  UNL     1      41.738  35.727  84.981  1.00  0.00     0.057 A 
HETATM    7  C14 UNL     1      43.021  35.386  85.336  1.00  0.00     0.048 A 
ENDROOT
BRANCH   6   8
HETATM    8  N2  UNL     1      40.626  35.775  85.850  1.00  0.00    -0.321 N 
HETATM    9  C7  UNL     1      40.162  34.691  86.593  1.00  0.00     0.256 C 
HETATM   10  O3  UNL     1      40.709  33.552  86.555  1.00  0.00    -0.267 OA
ATOM     11  H2  UNL     1      40.129  36.661  85.940  1.00  0.00     0.169 HD
BRANCH   9  12
HETATM   12  C8  UNL     1      38.995  34.773  87.491  1.00  0.00     0.032 A 
HETATM   13  C9  UNL     1      39.154  35.012  88.830  1.00  0.00     0.017 A 
HETATM   14  C10 UNL     1      38.040  35.081  89.686  1.00  0.00     0.001 A 
HETATM   15  C11 UNL     1      36.764  34.912  89.201  1.00  0.00     0.000 A 
HETATM   16  C12 UNL     1      36.612  34.672  87.852  1.00  0.00     0.001 A 
HETATM   17  C13 UNL     1      37.721  34.603  87.004  1.00  0.00     0.017 A 
ENDBRANCH   9  12
ENDBRANCH   6   8
BRANCH   1  18
HETATM   18  C1  UNL     1      45.399  34.992  84.858  1.00  0.00     0.275 C 
HETATM   19  O1  UNL     1      45.911  35.589  85.829  1.00  0.00    -0.265 OA
HETATM   20  N1  UNL     1      46.122  33.968  84.218  1.00  0.00    -0.233 N 
ATOM     21  H1  UNL     1      45.704  33.481  83.424  1.00  0.00     0.197 HD
BRANCH  20  22
HETATM   22  O2  UNL     1      47.369  33.612  84.634  1.00  0.00    -0.287 OA
ATOM     23  H2  UNL     1      47.791  32.823  84.316  1.00  0.00     0.244 HD
ENDBRANCH  20  22
ENDBRANCH   1  18
TORSDOF 4
ENDMDL
