MODEL 7
REMARK VINA RESULT: -6.967489576      2.152      2.706
REMARK  4 active torsions:
REMARK  status: ('A' for Active; 'I' for Inactive)
REMARK       I    between atoms: C1_2  and  N1_3 
REMARK    1  A    between atoms: C1_2  and  C2_7 
REMARK    2  A    between atoms: N1_3  and  O2_5 
REMARK    3  A    between atoms: C6_12  and  N2_13 
REMARK       I    between atoms: N2_13  and  C7_15 
REMARK    4  A    between atoms: C7_15  and  C8_17 
ROOT
HETATM    1  C2  UNL     1      44.991  34.574  85.577  1.00  0.00     0.036 A 
HETATM    2  C3  UNL     1      45.510  35.556  86.369  1.00  0.00     0.019 A 
HETATM    3  C4  UNL     1      44.710  36.533  86.953  1.00  0.00     0.027 A 
HETATM    4  C5  UNL     1      43.358  36.536  86.745  1.00  0.00     0.060 A 
HETATM    5 CL1  UNL     1      42.351  37.773  87.485  1.00  0.00    -0.082 Cl
HETATM    6  C6  UNL     1      42.784  35.538  85.932  1.00  0.00     0.057 A 
HETATM    7  C14 UNL     1      43.602  34.587  85.371  1.00  0.00     0.048 A 
ENDROOT
BRANCH   6   8
HETATM    8  N2  UNL     1      41.383  35.620  85.775  1.00  0.00    -0.321 N 
HETATM    9  C7  UNL     1      40.468  34.831  86.468  1.00  0.00     0.256 C 
HETATM   10  O3  UNL     1      40.818  33.961  87.314  1.00  0.00    -0.267 OA
ATOM     11  H2  UNL     1      41.018  36.302  85.111  1.00  0.00     0.169 HD
BRANCH   9  12
HETATM   12  C8  UNL     1      39.008  34.940  86.279  1.00  0.00     0.032 A 
HETATM   13  C9  UNL     1      38.486  35.406  85.102  1.00  0.00     0.017 A 
HETATM   14  C10 UNL     1      37.094  35.516  84.927  1.00  0.00     0.001 A 
HETATM   15  C11 UNL     1      36.224  35.159  85.931  1.00  0.00     0.000 A 
HETATM   16  C12 UNL     1      36.759  34.691  87.112  1.00  0.00     0.001 A 
HETATM   17  C13 UNL     1      38.142  34.583  87.284  1.00  0.00     0.017 A 
ENDBRANCH   9  12
ENDBRANCH   6   8
BRANCH   1  18
HETATM   18  C1  UNL     1      45.785  33.540  84.951  1.00  0.00     0.275 C 
HETATM   19  O1  UNL     1      45.255  32.448  84.656  1.00  0.00    -0.265 OA
HETATM   20  N1  UNL     1      47.150  33.745  84.668  1.00  0.00    -0.233 N 
ATOM     21  H1  UNL     1      47.581  34.638  84.909  1.00  0.00     0.197 HD
BRANCH  20  22
HETATM   22  O2  UNL     1      47.905  32.778  84.078  1.00  0.00    -0.287 OA
ATOM     23  H2  UNL     1      47.601  31.880  84.020  1.00  0.00     0.244 HD
ENDBRANCH  20  22
ENDBRANCH   1  18
TORSDOF 4
ENDMDL
