MODEL 2
REMARK VINA RESULT: -7.579001049      0.658      1.227
REMARK  4 active torsions:
REMARK  status: ('A' for Active; 'I' for Inactive)
REMARK       I    between atoms: C1_2  and  N1_3 
REMARK    1  A    between atoms: C1_2  and  C2_7 
REMARK    2  A    between atoms: N1_3  and  O2_5 
REMARK    3  A    between atoms: C6_12  and  N2_13 
REMARK       I    between atoms: N2_13  and  C7_15 
REMARK    4  A    between atoms: C7_15  and  C8_17 
ROOT
HETATM    1  C2  UNL     1      44.335  34.637  84.375  1.00  0.00     0.036 A 
HETATM    2  C3  UNL     1      44.286  35.695  83.514  1.00  0.00     0.019 A 
HETATM    3  C4  UNL     1      43.142  36.472  83.364  1.00  0.00     0.027 A 
HETATM    4  C5  UNL     1      42.015  36.192  84.087  1.00  0.00     0.060 A 
HETATM    5 CL1  UNL     1      40.571  37.176  83.894  1.00  0.00    -0.082 Cl
HETATM    6  C6  UNL     1      42.026  35.107  84.987  1.00  0.00     0.057 A 
HETATM    7  C14 UNL     1      43.173  34.360  85.113  1.00  0.00     0.048 A 
ENDROOT
BRANCH   6   8
HETATM    8  N2  UNL     1      40.820  34.895  85.691  1.00  0.00    -0.321 N 
HETATM    9  C7  UNL     1      40.555  35.394  86.963  1.00  0.00     0.256 C 
HETATM   10  O3  UNL     1      41.385  36.095  87.610  1.00  0.00    -0.267 OA
ATOM     11  H2  UNL     1      40.096  34.340  85.236  1.00  0.00     0.169 HD
BRANCH   9  12
HETATM   12  C8  UNL     1      39.284  35.152  87.673  1.00  0.00     0.032 A 
HETATM   13  C9  UNL     1      39.217  35.231  89.039  1.00  0.00     0.017 A 
HETATM   14  C10 UNL     1      38.007  34.992  89.715  1.00  0.00     0.001 A 
HETATM   15  C11 UNL     1      36.861  34.675  89.022  1.00  0.00     0.000 A 
HETATM   16  C12 UNL     1      36.937  34.598  87.648  1.00  0.00     0.001 A 
HETATM   17  C13 UNL     1      38.142  34.835  86.980  1.00  0.00     0.017 A 
ENDBRANCH   9  12
ENDBRANCH   6   8
BRANCH   1  18
HETATM   18  C1  UNL     1      45.502  33.805  84.562  1.00  0.00     0.275 C 
HETATM   19  O1  UNL     1      45.360  32.580  84.765  1.00  0.00    -0.265 OA
HETATM   20  N1  UNL     1      46.799  34.353  84.520  1.00  0.00    -0.233 N 
ATOM     21  H1  UNL     1      46.913  35.353  84.354  1.00  0.00     0.197 HD
BRANCH  20  22
HETATM   22  O2  UNL     1      47.903  33.576  84.695  1.00  0.00    -0.287 OA
ATOM     23  H2  UNL     1      48.744  33.820  84.326  1.00  0.00     0.244 HD
ENDBRANCH  20  22
ENDBRANCH   1  18
TORSDOF 4
ENDMDL
