MODEL 6
REMARK VINA RESULT: -7.114663777      3.703      4.361
REMARK  4 active torsions:
REMARK  status: ('A' for Active; 'I' for Inactive)
REMARK       I    between atoms: C1_2  and  N1_3 
REMARK    1  A    between atoms: C1_2  and  C2_7 
REMARK    2  A    between atoms: N1_3  and  O2_5 
REMARK    3  A    between atoms: C6_12  and  N2_13 
REMARK       I    between atoms: N2_13  and  C7_15 
REMARK    4  A    between atoms: C7_15  and  C8_17 
ROOT
HETATM    1  C2  UNL     1      44.893  34.624  84.914  1.00  0.00     0.036 A 
HETATM    2  C3  UNL     1      43.996  34.960  83.943  1.00  0.00     0.019 A 
HETATM    3  C4  UNL     1      43.033  35.946  84.137  1.00  0.00     0.027 A 
HETATM    4  C5  UNL     1      42.959  36.616  85.327  1.00  0.00     0.060 A 
HETATM    5 CL1  UNL     1      41.741  37.862  85.568  1.00  0.00    -0.082 Cl
HETATM    6  C6  UNL     1      43.868  36.297  86.355  1.00  0.00     0.057 A 
HETATM    7  C14 UNL     1      44.807  35.319  86.132  1.00  0.00     0.048 A 
ENDROOT
BRANCH   6   8
HETATM    8  N2  UNL     1      43.717  37.040  87.547  1.00  0.00    -0.321 N 
HETATM    9  C7  UNL     1      44.727  37.799  88.132  1.00  0.00     0.256 C 
HETATM   10  O3  UNL     1      45.887  37.893  87.638  1.00  0.00    -0.267 OA
ATOM     11  H2  UNL     1      42.808  37.020  88.008  1.00  0.00     0.169 HD
BRANCH   9  12
HETATM   12  C8  UNL     1      44.538  38.564  89.380  1.00  0.00     0.032 A 
HETATM   13  C9  UNL     1      43.366  38.479  90.084  1.00  0.00     0.017 A 
HETATM   14  C10 UNL     1      43.184  39.215  91.269  1.00  0.00     0.001 A 
HETATM   15  C11 UNL     1      44.177  40.036  91.751  1.00  0.00     0.000 A 
HETATM   16  C12 UNL     1      45.353  40.115  91.038  1.00  0.00     0.001 A 
HETATM   17  C13 UNL     1      45.531  39.383  89.860  1.00  0.00     0.017 A 
ENDBRANCH   9  12
ENDBRANCH   6   8
BRANCH   1  18
HETATM   18  C1  UNL     1      45.908  33.607  84.755  1.00  0.00     0.275 C 
HETATM   19  O1  UNL     1      45.582  32.401  84.772  1.00  0.00    -0.265 OA
HETATM   20  N1  UNL     1      47.262  33.954  84.583  1.00  0.00    -0.233 N 
ATOM     21  H1  UNL     1      47.528  34.939  84.570  1.00  0.00     0.197 HD
BRANCH  20  22
HETATM   22  O2  UNL     1      48.225  33.002  84.433  1.00  0.00    -0.287 OA
ATOM     23  H2  UNL     1      49.080  33.215  84.078  1.00  0.00     0.244 HD
ENDBRANCH  20  22
ENDBRANCH   1  18
TORSDOF 4
ENDMDL
