MODEL 13
REMARK VINA RESULT: -6.491466086      3.329      3.949
REMARK  4 active torsions:
REMARK  status: ('A' for Active; 'I' for Inactive)
REMARK       I    between atoms: C1_2  and  N1_3 
REMARK    1  A    between atoms: C1_2  and  C2_7 
REMARK    2  A    between atoms: N1_3  and  O2_5 
REMARK    3  A    between atoms: C6_12  and  N2_13 
REMARK       I    between atoms: N2_13  and  C7_15 
REMARK    4  A    between atoms: C7_15  and  C8_17 
ROOT
HETATM    1  C2  UNL     1      44.899  34.687  84.711  1.00  0.00     0.036 A 
HETATM    2  C3  UNL     1      44.056  35.064  83.707  1.00  0.00     0.019 A 
HETATM    3  C4  UNL     1      43.302  36.232  83.777  1.00  0.00     0.027 A 
HETATM    4  C5  UNL     1      43.387  37.046  84.872  1.00  0.00     0.060 A 
HETATM    5 CL1  UNL     1      42.433  38.521  84.956  1.00  0.00    -0.082 Cl
HETATM    6  C6  UNL     1      44.247  36.690  85.930  1.00  0.00     0.057 A 
HETATM    7  C14 UNL     1      44.978  35.531  85.830  1.00  0.00     0.048 A 
ENDROOT
BRANCH   6   8
HETATM    8  N2  UNL     1      44.270  37.591  87.018  1.00  0.00    -0.321 N 
HETATM    9  C7  UNL     1      43.309  37.630  88.025  1.00  0.00     0.256 C 
HETATM   10  O3  UNL     1      42.318  36.847  88.055  1.00  0.00    -0.267 OA
ATOM     11  H2  UNL     1      45.041  38.256  87.069  1.00  0.00     0.169 HD
BRANCH   9  12
HETATM   12  C8  UNL     1      43.361  38.585  89.148  1.00  0.00     0.032 A 
HETATM   13  C9  UNL     1      42.379  39.526  89.314  1.00  0.00     0.017 A 
HETATM   14  C10 UNL     1      42.434  40.442  90.381  1.00  0.00     0.001 A 
HETATM   15  C11 UNL     1      43.472  40.415  91.284  1.00  0.00     0.000 A 
HETATM   16  C12 UNL     1      44.455  39.465  91.110  1.00  0.00     0.001 A 
HETATM   17  C13 UNL     1      44.398  38.557  90.048  1.00  0.00     0.017 A 
ENDBRANCH   9  12
ENDBRANCH   6   8
BRANCH   1  18
HETATM   18  C1  UNL     1      45.700  33.483  84.680  1.00  0.00     0.275 C 
HETATM   19  O1  UNL     1      45.137  32.368  84.650  1.00  0.00    -0.265 OA
HETATM   20  N1  UNL     1      47.107  33.548  84.684  1.00  0.00    -0.233 N 
ATOM     21  H1  UNL     1      47.565  34.459  84.708  1.00  0.00     0.197 HD
BRANCH  20  22
HETATM   22  O2  UNL     1      47.869  32.419  84.655  1.00  0.00    -0.287 OA
ATOM     23  H2  UNL     1      48.816  32.463  84.600  1.00  0.00     0.244 HD
ENDBRANCH  20  22
ENDBRANCH   1  18
TORSDOF 4
ENDMDL
