MODEL 4
REMARK VINA RESULT: -7.124368641      3.447      3.937
REMARK  4 active torsions:
REMARK  status: ('A' for Active; 'I' for Inactive)
REMARK       I    between atoms: C1_2  and  N1_3 
REMARK    1  A    between atoms: C1_2  and  C2_7 
REMARK    2  A    between atoms: N1_3  and  O2_5 
REMARK    3  A    between atoms: C6_12  and  N2_13 
REMARK       I    between atoms: N2_13  and  C7_15 
REMARK    4  A    between atoms: C7_15  and  C8_17 
ROOT
HETATM    1  C2  UNL     1      45.644  33.969  84.876  1.00  0.00     0.036 A 
HETATM    2  C3  UNL     1      44.963  34.217  83.720  1.00  0.00     0.019 A 
HETATM    3  C4  UNL     1      43.930  35.148  83.657  1.00  0.00     0.027 A 
HETATM    4  C5  UNL     1      43.563  35.851  84.771  1.00  0.00     0.060 A 
HETATM    5 CL1  UNL     1      42.258  37.026  84.686  1.00  0.00    -0.082 Cl
HETATM    6  C6  UNL     1      44.243  35.623  85.985  1.00  0.00     0.057 A 
HETATM    7  C14 UNL     1      45.258  34.697  86.013  1.00  0.00     0.048 A 
ENDROOT
BRANCH   6   8
HETATM    8  N2  UNL     1      43.796  36.394  87.080  1.00  0.00    -0.321 N 
HETATM    9  C7  UNL     1      44.572  37.346  87.738  1.00  0.00     0.256 C 
HETATM   10  O3  UNL     1      45.762  37.608  87.404  1.00  0.00    -0.267 OA
ATOM     11  H2  UNL     1      42.843  36.245  87.411  1.00  0.00     0.169 HD
BRANCH   9  12
HETATM   12  C8  UNL     1      44.076  38.135  88.882  1.00  0.00     0.032 A 
HETATM   13  C9  UNL     1      42.811  38.658  88.878  1.00  0.00     0.017 A 
HETATM   14  C10 UNL     1      42.343  39.417  89.967  1.00  0.00     0.001 A 
HETATM   15  C11 UNL     1      43.143  39.652  91.061  1.00  0.00     0.000 A 
HETATM   16  C12 UNL     1      44.415  39.121  91.057  1.00  0.00     0.001 A 
HETATM   17  C13 UNL     1      44.877  38.368  89.974  1.00  0.00     0.017 A 
ENDBRANCH   9  12
ENDBRANCH   6   8
BRANCH   1  18
HETATM   18  C1  UNL     1      46.721  33.012  84.986  1.00  0.00     0.275 C 
HETATM   19  O1  UNL     1      46.518  31.915  85.550  1.00  0.00    -0.265 OA
HETATM   20  N1  UNL     1      48.000  33.296  84.468  1.00  0.00    -0.233 N 
ATOM     21  H1  UNL     1      48.165  34.192  84.009  1.00  0.00     0.197 HD
BRANCH  20  22
HETATM   22  O2  UNL     1      49.021  32.400  84.568  1.00  0.00    -0.287 OA
ATOM     23  H2  UNL     1      48.903  31.488  84.332  1.00  0.00     0.244 HD
ENDBRANCH  20  22
ENDBRANCH   1  18
TORSDOF 4
ENDMDL
