MODEL 2
REMARK VINA RESULT: -9.648037232      3.219      6.000
REMARK  6 active torsions:
REMARK  status: ('A' for Active; 'I' for Inactive)
REMARK    1  A    between atoms: C2_2  and  C3_3 
REMARK    2  A    between atoms: C2_2  and  O2_10 
REMARK    3  A    between atoms: C3_3  and  N1_4 
REMARK    4  A    between atoms: O2_10  and  C8_11 
REMARK    5  A    between atoms: C19_22  and  C20_23 
REMARK    6  A    between atoms: C24_28  and  N2_29 
ROOT
HETATM    1  C8  UNL     1      16.356   8.771  78.948  1.00  0.00     0.070 A 
HETATM    2  C9  UNL     1      16.128  10.136  78.719  1.00  0.00     0.038 A 
HETATM    3  C10 UNL     1      17.207  11.025  78.800  1.00  0.00     0.022 A 
HETATM    4  C11 UNL     1      18.454  10.600  79.091  1.00  0.00     0.012 A 
HETATM    5  C12 UNL     1      18.717   9.267  79.323  1.00  0.00    -0.034 A 
HETATM    6  C13 UNL     1      17.639   8.376  79.241  1.00  0.00     0.045 A 
HETATM    7  C14 UNL     1      20.077   8.805  79.674  1.00  0.00     0.080 C 
HETATM    8  C15 UNL     1      21.180   9.378  78.905  1.00  0.00    -0.036 A 
HETATM    9  C16 UNL     1      22.251   8.562  78.487  1.00  0.00     0.009 A 
HETATM   10  C17 UNL     1      23.307   9.095  77.799  1.00  0.00     0.002 A 
HETATM   11  C18 UNL     1      23.289  10.429  77.530  1.00  0.00     0.015 A 
HETATM   12  C19 UNL     1      22.237  11.294  77.924  1.00  0.00     0.016 A 
HETATM   13  C29 UNL     1      21.228  10.731  78.595  1.00  0.00     0.025 A 
HETATM   14  S1  UNL     1      19.839  11.714  79.186  1.00  0.00    -0.088 SA
ENDROOT
BRANCH  12  15
HETATM   15  C20 UNL     1      22.357  12.706  77.620  1.00  0.00     0.093 A 
HETATM   16  C21 UNL     1      23.435  13.514  77.831  1.00  0.00     0.093 A 
HETATM   17  C22 UNL     1      23.384  14.870  77.481  1.00  0.00     0.178 A 
HETATM   18  O3  UNL     1      24.405  15.588  77.691  1.00  0.00    -0.288 OA
HETATM   19  C23 UNL     1      22.227  15.356  76.925  1.00  0.00     0.111 A 
HETATM   20  C24 UNL     1      21.155  14.509  76.729  1.00  0.00     0.150 A 
HETATM   21  O5  UNL     1      21.283  13.279  77.077  1.00  0.00    -0.293 OA
BRANCH  20  22
HETATM   22  N2  UNL     1      19.947  15.024  76.147  1.00  0.00    -0.357 N 
HETATM   23  C25 UNL     1      19.599  16.418  76.102  1.00  0.00     0.151 C 
HETATM   24  C26 UNL     1      18.705  16.798  74.959  1.00  0.00     0.187 C 
HETATM   25  O4  UNL     1      17.889  15.776  74.502  1.00  0.00    -0.388 OA
HETATM   26  C27 UNL     1      18.628  14.647  74.215  1.00  0.00     0.187 C 
HETATM   27  C28 UNL     1      19.032  14.062  75.575  1.00  0.00     0.151 C 
ENDBRANCH  20  22
ENDBRANCH  12  15
BRANCH   1  28
HETATM   28  O2  UNL     1      15.293   7.894  78.872  1.00  0.00    -0.341 OA
BRANCH  28  29
HETATM   29  C2  UNL     1      14.643   7.392  77.765  1.00  0.00     0.162 C 
HETATM   30  C1  UNL     1      13.189   7.137  78.005  1.00  0.00     0.046 C 
BRANCH  29  31
HETATM   31  C3  UNL     1      15.383   6.278  77.073  1.00  0.00     0.090 C 
BRANCH  31  32
HETATM   32  N1  UNL     1      15.499   6.294  75.694  1.00  0.00    -0.387 N 
HETATM   33  C4  UNL     1      15.410   5.123  74.923  1.00  0.00     0.148 C 
HETATM   34  C5  UNL     1      13.918   4.876  74.651  1.00  0.00     0.187 C 
HETATM   35  O1  UNL     1      13.242   6.097  74.658  1.00  0.00    -0.388 OA
HETATM   36  C6  UNL     1      13.988   7.113  74.046  1.00  0.00     0.187 C 
HETATM   37  C7  UNL     1      15.082   7.497  75.022  1.00  0.00     0.148 C 
ENDBRANCH  31  32
ENDBRANCH  29  31
ENDBRANCH  28  29
ENDBRANCH   1  28
TORSDOF 6
ENDMDL
