MODEL 1
REMARK VINA RESULT: -9.785777435      0.000      0.000
REMARK  6 active torsions:
REMARK  status: ('A' for Active; 'I' for Inactive)
REMARK    1  A    between atoms: C2_2  and  C3_3 
REMARK    2  A    between atoms: C2_2  and  O2_10 
REMARK    3  A    between atoms: C3_3  and  N1_4 
REMARK    4  A    between atoms: O2_10  and  C8_11 
REMARK    5  A    between atoms: C19_22  and  C20_23 
REMARK    6  A    between atoms: C24_28  and  N2_29 
ROOT
HETATM    1  C8  UNL     1      15.781   9.995  78.832  1.00  0.00     0.070 A 
HETATM    2  C9  UNL     1      16.944   9.800  79.593  1.00  0.00     0.038 A 
HETATM    3  C10 UNL     1      18.175  10.209  79.064  1.00  0.00     0.022 A 
HETATM    4  C11 UNL     1      18.266  10.784  77.846  1.00  0.00     0.012 A 
HETATM    5  C12 UNL     1      17.147  10.992  77.070  1.00  0.00    -0.034 A 
HETATM    6  C13 UNL     1      15.915  10.584  77.598  1.00  0.00     0.045 A 
HETATM    7  C14 UNL     1      17.251  11.591  75.723  1.00  0.00     0.080 C 
HETATM    8  C15 UNL     1      18.140  12.743  75.588  1.00  0.00    -0.036 A 
HETATM    9  C16 UNL     1      17.757  13.846  74.798  1.00  0.00     0.009 A 
HETATM   10  C17 UNL     1      18.597  14.913  74.634  1.00  0.00     0.002 A 
HETATM   11  C18 UNL     1      19.807  14.878  75.257  1.00  0.00     0.015 A 
HETATM   12  C19 UNL     1      20.242  13.796  76.064  1.00  0.00     0.016 A 
HETATM   13  C29 UNL     1      19.389  12.776  76.194  1.00  0.00     0.025 A 
HETATM   14  S1  UNL     1      19.821  11.320  77.165  1.00  0.00    -0.088 SA
ENDROOT
BRANCH  12  15
HETATM   15  C20 UNL     1      21.572  13.856  76.636  1.00  0.00     0.093 A 
HETATM   16  C21 UNL     1      22.308  14.969  76.916  1.00  0.00     0.093 A 
HETATM   17  C22 UNL     1      23.590  14.850  77.468  1.00  0.00     0.178 A 
HETATM   18  O3  UNL     1      24.243  15.907  77.716  1.00  0.00    -0.288 OA
HETATM   19  C23 UNL     1      24.080  13.592  77.715  1.00  0.00     0.111 A 
HETATM   20  C24 UNL     1      23.307  12.488  77.417  1.00  0.00     0.150 A 
HETATM   21  O5  UNL     1      22.141  12.682  76.913  1.00  0.00    -0.293 OA
BRANCH  20  22
HETATM   22  N2  UNL     1      23.824  11.174  77.678  1.00  0.00    -0.357 N 
HETATM   23  C25 UNL     1      24.932  10.898  78.553  1.00  0.00     0.151 C 
HETATM   24  C26 UNL     1      24.905   9.534  79.177  1.00  0.00     0.187 C 
HETATM   25  O4  UNL     1      24.241   8.573  78.431  1.00  0.00    -0.388 OA
HETATM   26  C27 UNL     1      22.975   9.000  78.090  1.00  0.00     0.187 C 
HETATM   27  C28 UNL     1      23.178  10.069  77.007  1.00  0.00     0.151 C 
ENDBRANCH  20  22
ENDBRANCH  12  15
BRANCH   1  28
HETATM   28  O2  UNL     1      14.568   9.590  79.350  1.00  0.00    -0.341 OA
BRANCH  28  29
HETATM   29  C2  UNL     1      13.745  10.219  80.258  1.00  0.00     0.162 C 
HETATM   30  C1  UNL     1      12.610   9.358  80.715  1.00  0.00     0.046 C 
BRANCH  29  31
HETATM   31  C3  UNL     1      13.364  11.624  79.871  1.00  0.00     0.090 C 
BRANCH  31  32
HETATM   32  N1  UNL     1      13.808  12.684  80.642  1.00  0.00    -0.387 N 
HETATM   33  C4  UNL     1      15.136  12.777  81.090  1.00  0.00     0.148 C 
HETATM   34  C5  UNL     1      15.944  13.443  79.966  1.00  0.00     0.187 C 
HETATM   35  O1  UNL     1      15.101  14.271  79.223  1.00  0.00    -0.388 OA
HETATM   36  C6  UNL     1      14.188  14.955  80.037  1.00  0.00     0.187 C 
HETATM   37  C7  UNL     1      13.139  13.945  80.457  1.00  0.00     0.148 C 
ENDBRANCH  31  32
ENDBRANCH  29  31
ENDBRANCH  28  29
ENDBRANCH   1  28
TORSDOF 6
ENDMDL
