MODEL 3
REMARK VINA RESULT: -9.645077974      3.096      5.913
REMARK  6 active torsions:
REMARK  status: ('A' for Active; 'I' for Inactive)
REMARK    1  A    between atoms: C2_2  and  C3_3 
REMARK    2  A    between atoms: C2_2  and  O2_10 
REMARK    3  A    between atoms: C3_3  and  N1_4 
REMARK    4  A    between atoms: O2_10  and  C8_11 
REMARK    5  A    between atoms: C19_22  and  C20_23 
REMARK    6  A    between atoms: C24_28  and  N2_29 
ROOT
HETATM    1  C8  UNL     1      16.203   8.242  79.216  1.00  0.00     0.070 A 
HETATM    2  C9  UNL     1      15.976   9.588  78.890  1.00  0.00     0.038 A 
HETATM    3  C10 UNL     1      17.052  10.484  78.926  1.00  0.00     0.022 A 
HETATM    4  C11 UNL     1      18.296  10.083  79.266  1.00  0.00     0.012 A 
HETATM    5  C12 UNL     1      18.558   8.770  79.593  1.00  0.00    -0.034 A 
HETATM    6  C13 UNL     1      17.483   7.873  79.556  1.00  0.00     0.045 A 
HETATM    7  C14 UNL     1      19.912   8.339  79.997  1.00  0.00     0.080 C 
HETATM    8  C15 UNL     1      21.026   8.860  79.207  1.00  0.00    -0.036 A 
HETATM    9  C16 UNL     1      22.105   8.021  78.864  1.00  0.00     0.009 A 
HETATM   10  C17 UNL     1      23.171   8.507  78.157  1.00  0.00     0.002 A 
HETATM   11  C18 UNL     1      23.155   9.820  77.797  1.00  0.00     0.015 A 
HETATM   12  C19 UNL     1      22.095  10.707  78.114  1.00  0.00     0.016 A 
HETATM   13  C29 UNL     1      21.077  10.188  78.806  1.00  0.00     0.025 A 
HETATM   14  S1  UNL     1      19.676  11.206  79.305  1.00  0.00    -0.088 SA
ENDROOT
BRANCH  12  15
HETATM   15  C20 UNL     1      22.217  12.095  77.715  1.00  0.00     0.093 A 
HETATM   16  C21 UNL     1      23.305  12.906  77.847  1.00  0.00     0.093 A 
HETATM   17  C22 UNL     1      23.254  14.237  77.410  1.00  0.00     0.178 A 
HETATM   18  O3  UNL     1      24.285  14.959  77.550  1.00  0.00    -0.288 OA
HETATM   19  C23 UNL     1      22.088  14.695  76.849  1.00  0.00     0.111 A 
HETATM   20  C24 UNL     1      21.007  13.845  76.733  1.00  0.00     0.150 A 
HETATM   21  O5  UNL     1      21.135  12.639  77.158  1.00  0.00    -0.293 OA
BRANCH  20  22
HETATM   22  N2  UNL     1      19.790  14.330  76.144  1.00  0.00    -0.357 N 
HETATM   23  C25 UNL     1      19.595  15.675  75.677  1.00  0.00     0.151 C 
HETATM   24  C26 UNL     1      18.586  15.810  74.575  1.00  0.00     0.187 C 
HETATM   25  O4  UNL     1      17.603  14.833  74.573  1.00  0.00    -0.388 OA
HETATM   26  C27 UNL     1      18.161  13.572  74.599  1.00  0.00     0.187 C 
HETATM   27  C28 UNL     1      18.698  13.389  76.025  1.00  0.00     0.151 C 
ENDBRANCH  20  22
ENDBRANCH  12  15
BRANCH   1  28
HETATM   28  O2  UNL     1      15.144   7.359  79.184  1.00  0.00    -0.341 OA
BRANCH  28  29
HETATM   29  C2  UNL     1      14.926   6.276  78.360  1.00  0.00     0.162 C 
HETATM   30  C1  UNL     1      15.120   4.964  79.052  1.00  0.00     0.046 C 
BRANCH  29  31
HETATM   31  C3  UNL     1      15.584   6.390  77.011  1.00  0.00     0.090 C 
BRANCH  31  32
HETATM   32  N1  UNL     1      15.027   7.217  76.051  1.00  0.00    -0.387 N 
HETATM   33  C4  UNL     1      15.814   7.957  75.154  1.00  0.00     0.148 C 
HETATM   34  C5  UNL     1      16.131   7.033  73.967  1.00  0.00     0.187 C 
HETATM   35  O1  UNL     1      15.105   6.097  73.828  1.00  0.00    -0.388 OA
HETATM   36  C6  UNL     1      13.844   6.663  74.060  1.00  0.00     0.187 C 
HETATM   37  C7  UNL     1      13.723   6.854  75.560  1.00  0.00     0.148 C 
ENDBRANCH  31  32
ENDBRANCH  29  31
ENDBRANCH  28  29
ENDBRANCH   1  28
TORSDOF 6
ENDMDL
