MODEL 3
REMARK VINA RESULT: -7.902057389      2.749      8.755
REMARK  18 active torsions:
REMARK  status: ('A' for Active; 'I' for Inactive)
REMARK    1  A    between atoms: O1_1  and  C1_3 
REMARK    2  A    between atoms: C1_3  and  C2_4 
REMARK    3  A    between atoms: C3_6  and  O3_7 
REMARK    4  A    between atoms: O3_7  and  C4_8 
REMARK    5  A    between atoms: C5_9  and  C6_10 
REMARK    6  A    between atoms: C6_10  and  O4_11 
REMARK    7  A    between atoms: C7_14  and  O6_15 
REMARK    8  A    between atoms: O6_15  and  C8_16 
REMARK    9  A    between atoms: C9_17  and  C10_18 
REMARK   10  A    between atoms: C10_18  and  O7_19 
REMARK   11  A    between atoms: C11_22  and  O9_23 
REMARK   12  A    between atoms: C12_25  and  O10_26 
REMARK   13  A    between atoms: C13_28  and  O11_29 
REMARK   14  A    between atoms: C14_31  and  O12_32 
REMARK   15  A    between atoms: C15_34  and  O13_35 
REMARK   16  A    between atoms: C16_37  and  O14_38 
REMARK   17  A    between atoms: C17_40  and  O15_41 
REMARK   18  A    between atoms: C18_43  and  O16_44 
ROOT
HETATM    1  C4  UNL     1      29.820  42.998  49.961  1.00  0.00     0.187 C 
HETATM    2  C5  UNL     1      29.391  42.927  48.531  1.00  0.00     0.180 C 
HETATM    3  O5  UNL     1      28.062  43.228  48.446  1.00  0.00    -0.348 OA
HETATM    4  C7  UNL     1      27.624  44.399  48.990  1.00  0.00     0.292 C 
HETATM    5  C14 UNL     1      28.369  44.954  50.142  1.00  0.00     0.204 C 
HETATM    6  C15 UNL     1      29.759  44.458  50.349  1.00  0.00     0.183 C 
ENDROOT
BRANCH   1   7
HETATM    7  O3  UNL     1      30.949  42.365  50.300  1.00  0.00    -0.348 OA
BRANCH   7   8
HETATM    8  C3  UNL     1      30.941  40.994  50.382  1.00  0.00     0.292 C 
HETATM    9  O2  UNL     1      32.164  40.637  50.935  1.00  0.00    -0.348 OA
HETATM   10  C2  UNL     1      32.296  39.352  51.350  1.00  0.00     0.179 C 
HETATM   11  C18 UNL     1      31.072  38.516  51.307  1.00  0.00     0.180 C 
HETATM   12  C17 UNL     1      29.856  39.235  51.823  1.00  0.00     0.183 C 
HETATM   13  C16 UNL     1      29.762  40.622  51.254  1.00  0.00     0.204 C 
BRANCH  10  14
HETATM   14  C1  UNL     1      32.778  39.388  52.806  1.00  0.00     0.198 C 
BRANCH  14  15
HETATM   15  O1  UNL     1      32.488  40.580  53.419  1.00  0.00    -0.398 OA
ATOM     16  H1  UNL     1      33.267  41.013  53.748  1.00  0.00     0.209 HD
ENDBRANCH  14  15
ENDBRANCH  10  14
BRANCH  11  17
HETATM   17  O16 UNL     1      31.248  37.395  52.145  1.00  0.00    -0.390 OA
ATOM     18  H16 UNL     1      30.802  37.550  52.970  1.00  0.00     0.210 HD
ENDBRANCH  11  17
BRANCH  12  19
HETATM   19  O15 UNL     1      29.895  39.253  53.210  1.00  0.00    -0.390 OA
ATOM     20  H15 UNL     1      30.651  38.783  53.545  1.00  0.00     0.210 HD
ENDBRANCH  12  19
BRANCH  13  21
HETATM   21  O14 UNL     1      29.568  41.511  52.293  1.00  0.00    -0.388 OA
ATOM     22  H14 UNL     1      30.380  41.901  52.596  1.00  0.00     0.210 HD
ENDBRANCH  13  21
ENDBRANCH   7   8
ENDBRANCH   1   7
BRANCH   2  23
HETATM   23  C6  UNL     1      30.134  43.908  47.636  1.00  0.00     0.198 C 
BRANCH  23  24
HETATM   24  O4  UNL     1      29.542  43.847  46.353  1.00  0.00    -0.398 OA
ATOM     25  H4  UNL     1      29.557  44.724  45.989  1.00  0.00     0.209 HD
ENDBRANCH  23  24
ENDBRANCH   2  23
BRANCH   6  26
HETATM   26  O13 UNL     1      30.148  44.529  51.703  1.00  0.00    -0.390 OA
ATOM     27  H13 UNL     1      29.389  44.277  52.216  1.00  0.00     0.210 HD
ENDBRANCH   6  26
BRANCH   5  28
HETATM   28  O12 UNL     1      27.662  44.641  51.329  1.00  0.00    -0.388 OA
ATOM     29  H12 UNL     1      28.136  45.006  52.068  1.00  0.00     0.210 HD
ENDBRANCH   5  28
BRANCH   4  30
HETATM   30  O6  UNL     1      27.539  45.317  47.947  1.00  0.00    -0.348 OA
BRANCH  30  31
HETATM   31  C8  UNL     1      27.671  46.631  48.342  1.00  0.00     0.187 C 
HETATM   32  C9  UNL     1      26.400  47.405  48.317  1.00  0.00     0.180 C 
HETATM   33  O8  UNL     1      25.854  47.375  47.064  1.00  0.00    -0.349 OA
HETATM   34  C11 UNL     1      26.585  47.976  46.075  1.00  0.00     0.288 C 
HETATM   35  C12 UNL     1      28.047  47.801  46.129  1.00  0.00     0.204 C 
HETATM   36  C13 UNL     1      28.636  47.281  47.381  1.00  0.00     0.183 C 
BRANCH  32  37
HETATM   37  C10 UNL     1      26.533  48.752  48.937  1.00  0.00     0.198 C 
BRANCH  37  38
HETATM   38  O7  UNL     1      27.302  48.845  50.060  1.00  0.00    -0.398 OA
ATOM     39  H7  UNL     1      27.964  49.526  50.076  1.00  0.00     0.209 HD
ENDBRANCH  37  38
ENDBRANCH  32  37
BRANCH  34  40
HETATM   40  O9  UNL     1      26.110  47.473  44.854  1.00  0.00    -0.369 OA
ATOM     41  H9  UNL     1      26.559  46.650  44.701  1.00  0.00     0.212 HD
ENDBRANCH  34  40
BRANCH  35  42
HETATM   42  O10 UNL     1      28.507  47.067  45.007  1.00  0.00    -0.388 OA
ATOM     43  H10 UNL     1      29.121  46.393  45.273  1.00  0.00     0.210 HD
ENDBRANCH  35  42
BRANCH  36  44
HETATM   44  O11 UNL     1      29.452  48.221  48.038  1.00  0.00    -0.390 OA
ATOM     45  H11 UNL     1      28.966  49.011  48.247  1.00  0.00     0.210 HD
ENDBRANCH  36  44
ENDBRANCH  30  31
ENDBRANCH   4  30
TORSDOF 18
ENDMDL
