MODEL 1
REMARK VINA RESULT: -8.007237523      0.000      0.000
REMARK  18 active torsions:
REMARK  status: ('A' for Active; 'I' for Inactive)
REMARK    1  A    between atoms: O1_1  and  C1_3 
REMARK    2  A    between atoms: C1_3  and  C2_4 
REMARK    3  A    between atoms: C3_6  and  O3_7 
REMARK    4  A    between atoms: O3_7  and  C4_8 
REMARK    5  A    between atoms: C5_9  and  C6_10 
REMARK    6  A    between atoms: C6_10  and  O4_11 
REMARK    7  A    between atoms: C7_14  and  O6_15 
REMARK    8  A    between atoms: O6_15  and  C8_16 
REMARK    9  A    between atoms: C9_17  and  C10_18 
REMARK   10  A    between atoms: C10_18  and  O7_19 
REMARK   11  A    between atoms: C11_22  and  O9_23 
REMARK   12  A    between atoms: C12_25  and  O10_26 
REMARK   13  A    between atoms: C13_28  and  O11_29 
REMARK   14  A    between atoms: C14_31  and  O12_32 
REMARK   15  A    between atoms: C15_34  and  O13_35 
REMARK   16  A    between atoms: C16_37  and  O14_38 
REMARK   17  A    between atoms: C17_40  and  O15_41 
REMARK   18  A    between atoms: C18_43  and  O16_44 
ROOT
HETATM    1  C4  UNL     1      28.455  42.697  50.128  1.00  0.00     0.187 C 
HETATM    2  C5  UNL     1      28.801  42.828  51.576  1.00  0.00     0.180 C 
HETATM    3  O5  UNL     1      28.879  41.584  52.132  1.00  0.00    -0.348 OA
HETATM    4  C7  UNL     1      29.701  40.661  51.553  1.00  0.00     0.292 C 
HETATM    5  C14 UNL     1      29.952  40.768  50.099  1.00  0.00     0.204 C 
HETATM    6  C15 UNL     1      29.663  42.082  49.458  1.00  0.00     0.183 C 
ENDROOT
BRANCH   1   7
HETATM    7  O3  UNL     1      27.951  43.774  49.513  1.00  0.00    -0.348 OA
BRANCH   7   8
HETATM    8  C3  UNL     1      26.587  43.899  49.410  1.00  0.00     0.292 C 
HETATM    9  O2  UNL     1      26.051  42.991  50.314  1.00  0.00    -0.348 OA
HETATM   10  C2  UNL     1      24.725  43.101  50.580  1.00  0.00     0.179 C 
HETATM   11  C18 UNL     1      24.032  44.274  49.995  1.00  0.00     0.180 C 
HETATM   12  C17 UNL     1      24.822  45.547  50.130  1.00  0.00     0.183 C 
HETATM   13  C16 UNL     1      26.259  45.337  49.747  1.00  0.00     0.204 C 
BRANCH  10  14
HETATM   14  C1  UNL     1      24.570  43.188  52.104  1.00  0.00     0.198 C 
BRANCH  14  15
HETATM   15  O1  UNL     1      25.722  43.605  52.721  1.00  0.00    -0.398 OA
ATOM     16  H1  UNL     1      25.613  44.439  53.162  1.00  0.00     0.209 HD
ENDBRANCH  14  15
ENDBRANCH  10  14
BRANCH  11  17
HETATM   17  O16 UNL     1      22.823  44.490  50.690  1.00  0.00    -0.390 OA
ATOM     18  H16 UNL     1      22.224  43.777  50.501  1.00  0.00     0.210 HD
ENDBRANCH  11  17
BRANCH  12  19
HETATM   19  O15 UNL     1      24.702  46.020  51.429  1.00  0.00    -0.390 OA
ATOM     20  H15 UNL     1      23.857  46.429  51.576  1.00  0.00     0.210 HD
ENDBRANCH  12  19
BRANCH  13  21
HETATM   21  O14 UNL     1      27.060  45.843  50.753  1.00  0.00    -0.388 OA
ATOM     22  H14 UNL     1      27.966  45.567  50.671  1.00  0.00     0.210 HD
ENDBRANCH  13  21
ENDBRANCH   7   8
ENDBRANCH   1   7
BRANCH   2  23
HETATM   23  C6  UNL     1      30.141  43.510  51.811  1.00  0.00     0.198 C 
BRANCH  23  24
HETATM   24  O4  UNL     1      30.023  44.846  51.359  1.00  0.00    -0.398 OA
ATOM     25  H4  UNL     1      30.442  45.403  52.004  1.00  0.00     0.209 HD
ENDBRANCH  23  24
ENDBRANCH   2  23
BRANCH   6  26
HETATM   26  O13 UNL     1      29.337  41.943  48.093  1.00  0.00    -0.390 OA
ATOM     27  H13 UNL     1      29.402  41.016  47.893  1.00  0.00     0.210 HD
ENDBRANCH   6  26
BRANCH   5  28
HETATM   28  O12 UNL     1      29.137  39.820  49.430  1.00  0.00    -0.388 OA
ATOM     29  H12 UNL     1      28.856  40.194  48.603  1.00  0.00     0.210 HD
ENDBRANCH   5  28
BRANCH   4  30
HETATM   30  O6  UNL     1      30.889  40.676  52.278  1.00  0.00    -0.348 OA
BRANCH  30  31
HETATM   31  C8  UNL     1      31.715  39.601  52.027  1.00  0.00     0.187 C 
HETATM   32  C9  UNL     1      31.215  38.309  52.571  1.00  0.00     0.180 C 
HETATM   33  O8  UNL     1      31.022  38.409  53.921  1.00  0.00    -0.349 OA
HETATM   34  C11 UNL     1      32.142  38.633  54.674  1.00  0.00     0.288 C 
HETATM   35  C12 UNL     1      33.148  39.552  54.113  1.00  0.00     0.204 C 
HETATM   36  C13 UNL     1      33.039  39.906  52.682  1.00  0.00     0.183 C 
BRANCH  32  37
HETATM   37  C10 UNL     1      32.018  37.142  52.113  1.00  0.00     0.198 C 
BRANCH  37  38
HETATM   38  O7  UNL     1      31.446  35.909  52.236  1.00  0.00    -0.398 OA
ATOM     39  H7  UNL     1      31.957  35.165  51.941  1.00  0.00     0.209 HD
ENDBRANCH  37  38
ENDBRANCH  32  37
BRANCH  34  40
HETATM   40  O9  UNL     1      31.708  39.132  55.912  1.00  0.00    -0.369 OA
ATOM     41  H9  UNL     1      32.248  39.889  56.109  1.00  0.00     0.212 HD
ENDBRANCH  34  40
BRANCH  35  42
HETATM   42  O10 UNL     1      33.272  40.713  54.917  1.00  0.00    -0.388 OA
ATOM     43  H10 UNL     1      33.503  41.466  54.387  1.00  0.00     0.210 HD
ENDBRANCH  35  42
BRANCH  36  44
HETATM   44  O11 UNL     1      34.111  39.419  51.911  1.00  0.00    -0.390 OA
ATOM     45  H11 UNL     1      34.536  40.121  51.432  1.00  0.00     0.210 HD
ENDBRANCH  36  44
ENDBRANCH  30  31
ENDBRANCH   4  30
TORSDOF 18
ENDMDL
