MODEL 2
REMARK VINA RESULT: -7.968140654      2.337      3.223
REMARK  18 active torsions:
REMARK  status: ('A' for Active; 'I' for Inactive)
REMARK    1  A    between atoms: O1_1  and  C1_3 
REMARK    2  A    between atoms: C1_3  and  C2_4 
REMARK    3  A    between atoms: C3_6  and  O3_7 
REMARK    4  A    between atoms: O3_7  and  C4_8 
REMARK    5  A    between atoms: C5_9  and  C6_10 
REMARK    6  A    between atoms: C6_10  and  O4_11 
REMARK    7  A    between atoms: C7_14  and  O6_15 
REMARK    8  A    between atoms: O6_15  and  C8_16 
REMARK    9  A    between atoms: C9_17  and  C10_18 
REMARK   10  A    between atoms: C10_18  and  O7_19 
REMARK   11  A    between atoms: C11_22  and  O9_23 
REMARK   12  A    between atoms: C12_25  and  O10_26 
REMARK   13  A    between atoms: C13_28  and  O11_29 
REMARK   14  A    between atoms: C14_31  and  O12_32 
REMARK   15  A    between atoms: C15_34  and  O13_35 
REMARK   16  A    between atoms: C16_37  and  O14_38 
REMARK   17  A    between atoms: C17_40  and  O15_41 
REMARK   18  A    between atoms: C18_43  and  O16_44 
ROOT
HETATM    1  C4  UNL     1      29.532  43.269  49.853  1.00  0.00     0.187 C 
HETATM    2  C5  UNL     1      29.280  43.150  51.322  1.00  0.00     0.180 C 
HETATM    3  O5  UNL     1      28.852  41.885  51.603  1.00  0.00    -0.348 OA
HETATM    4  C7  UNL     1      29.616  40.832  51.190  1.00  0.00     0.292 C 
HETATM    5  C14 UNL     1      30.452  41.010  49.982  1.00  0.00     0.204 C 
HETATM    6  C15 UNL     1      30.742  42.410  49.561  1.00  0.00     0.183 C 
ENDROOT
BRANCH   1   7
HETATM    7  O3  UNL     1      29.568  44.500  49.329  1.00  0.00    -0.348 OA
BRANCH   7   8
HETATM    8  C3  UNL     1      28.481  44.950  48.622  1.00  0.00     0.292 C 
HETATM    9  O2  UNL     1      28.251  46.248  49.059  1.00  0.00    -0.348 OA
HETATM   10  C2  UNL     1      27.385  46.996  48.329  1.00  0.00     0.179 C 
HETATM   11  C18 UNL     1      26.900  46.395  47.063  1.00  0.00     0.180 C 
HETATM   12  C17 UNL     1      27.996  45.730  46.275  1.00  0.00     0.183 C 
HETATM   13  C16 UNL     1      28.857  44.873  47.158  1.00  0.00     0.204 C 
BRANCH  10  14
HETATM   14  C1  UNL     1      28.099  48.306  47.973  1.00  0.00     0.198 C 
BRANCH  14  15
HETATM   15  O1  UNL     1      29.465  48.179  48.003  1.00  0.00    -0.398 OA
ATOM     16  H1  UNL     1      29.808  47.794  47.206  1.00  0.00     0.209 HD
ENDBRANCH  14  15
ENDBRANCH  10  14
BRANCH  11  17
HETATM   17  O16 UNL     1      26.387  47.414  46.235  1.00  0.00    -0.390 OA
ATOM     18  H16 UNL     1      26.211  47.055  45.372  1.00  0.00     0.210 HD
ENDBRANCH  11  17
BRANCH  12  19
HETATM   19  O15 UNL     1      28.741  46.704  45.625  1.00  0.00    -0.390 OA
ATOM     20  H15 UNL     1      28.641  46.649  44.681  1.00  0.00     0.210 HD
ENDBRANCH  12  19
BRANCH  13  21
HETATM   21  O14 UNL     1      30.180  45.198  46.932  1.00  0.00    -0.388 OA
ATOM     22  H14 UNL     1      30.331  45.527  46.053  1.00  0.00     0.210 HD
ENDBRANCH  13  21
ENDBRANCH   7   8
ENDBRANCH   1   7
BRANCH   2  23
HETATM   23  C6  UNL     1      30.523  43.402  52.163  1.00  0.00     0.198 C 
BRANCH  23  24
HETATM   24  O4  UNL     1      30.695  44.803  52.261  1.00  0.00    -0.398 OA
ATOM     25  H4  UNL     1      31.118  44.982  53.091  1.00  0.00     0.209 HD
ENDBRANCH  23  24
ENDBRANCH   2  23
BRANCH   6  26
HETATM   26  O13 UNL     1      30.976  42.506  48.173  1.00  0.00    -0.390 OA
ATOM     27  H13 UNL     1      30.549  43.304  47.883  1.00  0.00     0.210 HD
ENDBRANCH   6  26
BRANCH   5  28
HETATM   28  O12 UNL     1      29.793  40.401  48.885  1.00  0.00    -0.388 OA
ATOM     29  H12 UNL     1      30.314  40.543  48.103  1.00  0.00     0.210 HD
ENDBRANCH   5  28
BRANCH   4  30
HETATM   30  O6  UNL     1      30.380  40.440  52.286  1.00  0.00    -0.348 OA
BRANCH  30  31
HETATM   31  C8  UNL     1      31.351  39.509  51.989  1.00  0.00     0.187 C 
HETATM   32  C9  UNL     1      31.135  38.180  52.625  1.00  0.00     0.180 C 
HETATM   33  O8  UNL     1      31.055  38.315  53.983  1.00  0.00    -0.349 OA
HETATM   34  C11 UNL     1      32.185  38.762  54.611  1.00  0.00     0.288 C 
HETATM   35  C12 UNL     1      32.960  39.808  53.920  1.00  0.00     0.204 C 
HETATM   36  C13 UNL     1      32.659  40.065  52.496  1.00  0.00     0.183 C 
BRANCH  32  37
HETATM   37  C10 UNL     1      32.082  37.143  52.129  1.00  0.00     0.198 C 
BRANCH  37  38
HETATM   38  O7  UNL     1      31.613  35.865  52.044  1.00  0.00    -0.398 OA
ATOM     39  H7  UNL     1      32.079  35.271  51.467  1.00  0.00     0.209 HD
ENDBRANCH  37  38
ENDBRANCH  32  37
BRANCH  34  40
HETATM   40  O9  UNL     1      31.789  39.244  55.869  1.00  0.00    -0.369 OA
ATOM     41  H9  UNL     1      31.529  38.490  56.384  1.00  0.00     0.212 HD
ENDBRANCH  34  40
BRANCH  35  42
HETATM   42  O10 UNL     1      32.956  41.013  54.668  1.00  0.00    -0.388 OA
ATOM     43  H10 UNL     1      33.729  41.531  54.476  1.00  0.00     0.210 HD
ENDBRANCH  35  42
BRANCH  36  44
HETATM   44  O11 UNL     1      33.722  39.728  51.638  1.00  0.00    -0.390 OA
ATOM     45  H11 UNL     1      34.012  38.835  51.787  1.00  0.00     0.210 HD
ENDBRANCH  36  44
ENDBRANCH  30  31
ENDBRANCH   4  30
TORSDOF 18
ENDMDL
