MODEL 3
REMARK VINA RESULT: -12.045887625      0.861      1.049
REMARK  5 active torsions:
REMARK  status: ('A' for Active; 'I' for Inactive)
REMARK    1  A    between atoms: C5_6  and  N2_7 
REMARK       I    between atoms: N2_7  and  C6_9 
REMARK    2  A    between atoms: C6_9  and  C7_11 
REMARK    3  A    between atoms: C11_17  and  N4_18 
REMARK    4  A    between atoms: N4_18  and  C12_20 
REMARK    5  A    between atoms: C14_22  and  C15_23 
ROOT
HETATM    1  C12 UNL     1      91.482  48.094 266.898  1.00  0.00     0.035 A 
HETATM    2  C13 UNL     1      91.868  49.344 267.311  1.00  0.00     0.044 A 
HETATM    3  C14 UNL     1      93.188  49.680 267.568  1.00  0.00     0.005 A 
HETATM    4  C24 UNL     1      94.126  48.689 267.391  1.00  0.00     0.070 A 
HETATM    5  N6  UNL     1      95.430  48.949 267.624  1.00  0.00    -0.362 N 
ATOM      6  H6  UNL     1      95.701  49.884 267.930  1.00  0.00     0.165 HD
HETATM    7  C25 UNL     1      96.375  48.023 267.468  1.00  0.00     0.105 A 
HETATM    8  C26 UNL     1      96.005  46.765 267.056  1.00  0.00     0.105 A 
HETATM    9  N7  UNL     1      94.702  46.481 266.816  1.00  0.00    -0.363 N 
ATOM     10  H7  UNL     1      94.431  45.545 266.510  1.00  0.00     0.165 HD
HETATM   11  C27 UNL     1      93.776  47.421 266.979  1.00  0.00     0.062 A 
HETATM   12  C28 UNL     1      92.439  47.097 266.723  1.00  0.00     0.061 A 
ENDROOT
BRANCH   1  13
HETATM   13  N4  UNL     1      90.132  47.751 266.613  1.00  0.00    -0.354 N 
ATOM     14  H4  UNL     1      89.400  47.981 267.285  1.00  0.00     0.166 HD
BRANCH  13  15
HETATM   15  C11 UNL     1      89.793  47.090 265.400  1.00  0.00     0.064 A 
HETATM   16  C7  UNL     1      88.732  46.192 265.301  1.00  0.00     0.061 A 
HETATM   17  C8  UNL     1      88.541  45.549 264.107  1.00  0.00     0.036 A 
HETATM   18  C9  UNL     1      89.387  45.792 263.029  1.00  0.00     0.088 A 
HETATM   19  N3  UNL     1      90.394  46.657 263.154  1.00  0.00    -0.373 N 
HETATM   20  C10 UNL     1      90.614  47.296 264.285  1.00  0.00     0.118 A 
ATOM     21  H3  UNL     1      91.007  46.827 262.357  1.00  0.00     0.164 HD
BRANCH  16  22
HETATM   22  C6  UNL     1      87.821  45.963 266.413  1.00  0.00     0.254 C 
HETATM   23  N2  UNL     1      87.414  44.639 266.767  1.00  0.00    -0.350 N 
ATOM     24  H2  UNL     1      87.774  43.853 266.225  1.00  0.00     0.163 HD
HETATM   25  O1  UNL     1      87.352  46.902 267.109  1.00  0.00    -0.268 OA
BRANCH  23  26
HETATM   26  C5  UNL     1      86.523  44.375 267.849  1.00  0.00     0.113 C 
HETATM   27  C4  UNL     1      85.135  44.850 267.511  1.00  0.00     0.029 C 
HETATM   28  C3  UNL     1      84.201  44.629 268.695  1.00  0.00     0.032 C 
HETATM   29  C2  UNL     1      84.262  43.195 269.127  1.00  0.00     0.272 C 
HETATM   30  N1  UNL     1      85.573  42.664 269.315  1.00  0.00     0.086 N 
HETATM   31  C1  UNL     1      86.159  43.015 270.590  1.00  0.00     0.310 C 
HETATM   32  C29 UNL     1      86.475  42.930 268.210  1.00  0.00     0.296 C 
ENDBRANCH  23  26
ENDBRANCH  16  22
ENDBRANCH  13  15
ENDBRANCH   1  13
BRANCH   3  33
HETATM   33  C15 UNL     1      93.523  51.031 268.003  1.00  0.00    -0.021 A 
HETATM   34  C16 UNL     1      94.420  51.769 267.267  1.00  0.00     0.013 A 
HETATM   35  C17 UNL     1      94.751  53.049 267.661  1.00  0.00     0.014 A 
HETATM   36  C18 UNL     1      94.184  53.604 268.798  1.00  0.00    -0.008 A 
HETATM   37  C19 UNL     1      94.314  54.822 269.424  1.00  0.00     0.031 A 
HETATM   38  C22 UNL     1      93.273  52.887 269.566  1.00  0.00     0.045 A 
HETATM   39  C20 UNL     1      93.499  54.825 270.536  1.00  0.00     0.091 A 
HETATM   40  N5  UNL     1      92.877  53.642 270.603  1.00  0.00    -0.360 N 
HETATM   41  C21 UNL     1      91.930  53.206 271.604  1.00  0.00     0.155 C 
HETATM   42  C23 UNL     1      92.971  51.602 269.130  1.00  0.00     0.043 A 
ENDBRANCH   3  33
TORSDOF 5
ENDMDL
