MODEL 1
REMARK VINA RESULT: -12.645898220      0.000      0.000
REMARK  5 active torsions:
REMARK  status: ('A' for Active; 'I' for Inactive)
REMARK    1  A    between atoms: C5_6  and  N2_7 
REMARK       I    between atoms: N2_7  and  C6_9 
REMARK    2  A    between atoms: C6_9  and  C7_11 
REMARK    3  A    between atoms: C11_17  and  N4_18 
REMARK    4  A    between atoms: N4_18  and  C12_20 
REMARK    5  A    between atoms: C14_22  and  C15_23 
ROOT
HETATM    1  C12 UNL     1      91.369  48.259 266.548  1.00  0.00     0.035 A 
HETATM    2  C13 UNL     1      91.778  49.472 267.041  1.00  0.00     0.044 A 
HETATM    3  C14 UNL     1      93.088  49.734 267.408  1.00  0.00     0.005 A 
HETATM    4  C24 UNL     1      93.993  48.708 267.257  1.00  0.00     0.070 A 
HETATM    5  N6  UNL     1      95.286  48.896 267.596  1.00  0.00    -0.362 N 
ATOM      6  H6  UNL     1      95.574  49.805 267.961  1.00  0.00     0.165 HD
HETATM    7  C25 UNL     1      96.199  47.934 267.470  1.00  0.00     0.105 A 
HETATM    8  C26 UNL     1      95.805  46.713 266.977  1.00  0.00     0.105 A 
HETATM    9  N7  UNL     1      94.512  46.500 266.631  1.00  0.00    -0.363 N 
ATOM     10  H7  UNL     1      94.225  45.591 266.266  1.00  0.00     0.165 HD
HETATM   11  C27 UNL     1      93.619  47.475 266.766  1.00  0.00     0.062 A 
HETATM   12  C28 UNL     1      92.292  47.226 266.400  1.00  0.00     0.061 A 
ENDROOT
BRANCH   1  13
HETATM   13  N4  UNL     1      90.031  47.991 266.150  1.00  0.00    -0.354 N 
ATOM     14  H4  UNL     1      89.260  48.454 266.631  1.00  0.00     0.166 HD
BRANCH  13  15
HETATM   15  C11 UNL     1      89.757  47.085 265.089  1.00  0.00     0.064 A 
HETATM   16  C7  UNL     1      88.857  46.029 265.211  1.00  0.00     0.061 A 
HETATM   17  C8  UNL     1      88.728  45.165 264.156  1.00  0.00     0.036 A 
HETATM   18  C9  UNL     1      89.477  45.346 262.998  1.00  0.00     0.088 A 
HETATM   19  N3  UNL     1      90.331  46.366 262.909  1.00  0.00    -0.373 N 
HETATM   20  C10 UNL     1      90.487  47.219 263.902  1.00  0.00     0.118 A 
ATOM     21  H3  UNL     1      90.875  46.489 262.056  1.00  0.00     0.164 HD
BRANCH  16  22
HETATM   22  C6  UNL     1      88.041  45.857 266.405  1.00  0.00     0.254 C 
HETATM   23  N2  UNL     1      86.614  45.832 266.321  1.00  0.00    -0.350 N 
ATOM     24  H2  UNL     1      86.174  45.936 265.406  1.00  0.00     0.163 HD
HETATM   25  O1  UNL     1      88.541  45.725 267.553  1.00  0.00    -0.268 OA
BRANCH  23  26
HETATM   26  C5  UNL     1      85.782  45.665 267.468  1.00  0.00     0.113 C 
HETATM   27  C4  UNL     1      84.998  46.923 267.730  1.00  0.00     0.029 C 
HETATM   28  C3  UNL     1      84.162  46.767 268.995  1.00  0.00     0.032 C 
HETATM   29  C2  UNL     1      83.314  45.534 268.892  1.00  0.00     0.272 C 
HETATM   30  N1  UNL     1      84.000  44.347 268.499  1.00  0.00     0.086 N 
HETATM   31  C1  UNL     1      84.706  43.703 269.585  1.00  0.00     0.310 C 
HETATM   32  C29 UNL     1      84.841  44.518 267.329  1.00  0.00     0.296 C 
ENDBRANCH  23  26
ENDBRANCH  16  22
ENDBRANCH  13  15
ENDBRANCH   1  13
BRANCH   3  33
HETATM   33  C15 UNL     1      93.449  51.049 267.925  1.00  0.00    -0.021 A 
HETATM   34  C16 UNL     1      94.374  51.806 267.244  1.00  0.00     0.013 A 
HETATM   35  C17 UNL     1      94.729  53.053 267.715  1.00  0.00     0.014 A 
HETATM   36  C18 UNL     1      94.160  53.555 268.875  1.00  0.00    -0.008 A 
HETATM   37  C19 UNL     1      94.310  54.732 269.572  1.00  0.00     0.031 A 
HETATM   38  C22 UNL     1      93.222  52.818 269.589  1.00  0.00     0.045 A 
HETATM   39  C20 UNL     1      93.479  54.691 270.672  1.00  0.00     0.091 A 
HETATM   40  N5  UNL     1      92.829  53.522 270.664  1.00  0.00    -0.360 N 
HETATM   41  C21 UNL     1      91.858  53.051 271.625  1.00  0.00     0.155 C 
HETATM   42  C23 UNL     1      92.895  51.568 269.076  1.00  0.00     0.043 A 
ENDBRANCH   3  33
TORSDOF 5
ENDMDL
