MODEL 2
REMARK VINA RESULT: -12.139601776      1.106      1.744
REMARK  5 active torsions:
REMARK  status: ('A' for Active; 'I' for Inactive)
REMARK    1  A    between atoms: C5_6  and  N2_7 
REMARK       I    between atoms: N2_7  and  C6_9 
REMARK    2  A    between atoms: C6_9  and  C7_11 
REMARK    3  A    between atoms: C11_17  and  N4_18 
REMARK    4  A    between atoms: N4_18  and  C12_20 
REMARK    5  A    between atoms: C14_22  and  C15_23 
ROOT
HETATM    1  C12 UNL     1      91.381  47.762 267.128  1.00  0.00     0.035 A 
HETATM    2  C13 UNL     1      91.648  49.022 267.599  1.00  0.00     0.044 A 
HETATM    3  C14 UNL     1      92.935  49.483 267.830  1.00  0.00     0.005 A 
HETATM    4  C24 UNL     1      93.965  48.611 267.563  1.00  0.00     0.070 A 
HETATM    5  N6  UNL     1      95.243  48.996 267.766  1.00  0.00    -0.362 N 
ATOM      6  H6  UNL     1      95.425  49.937 268.116  1.00  0.00     0.165 HD
HETATM    7  C25 UNL     1      96.273  48.187 267.523  1.00  0.00     0.105 A 
HETATM    8  C26 UNL     1      96.021  46.921 267.051  1.00  0.00     0.105 A 
HETATM    9  N7  UNL     1      94.747  46.512 266.840  1.00  0.00    -0.363 N 
ATOM     10  H7  UNL     1      94.564  45.571 266.489  1.00  0.00     0.165 HD
HETATM   11  C27 UNL     1      93.734  47.337 267.090  1.00  0.00     0.062 A 
HETATM   12  C28 UNL     1      92.430  46.885 266.861  1.00  0.00     0.061 A 
ENDROOT
BRANCH   1  13
HETATM   13  N4  UNL     1      90.064  47.292 266.869  1.00  0.00    -0.354 N 
ATOM     14  H4  UNL     1      89.429  47.116 267.648  1.00  0.00     0.166 HD
BRANCH  13  15
HETATM   15  C11 UNL     1      89.624  47.064 265.536  1.00  0.00     0.064 A 
HETATM   16  C7  UNL     1      88.340  46.620 265.231  1.00  0.00     0.061 A 
HETATM   17  C8  UNL     1      88.043  46.353 263.921  1.00  0.00     0.036 A 
HETATM   18  C9  UNL     1      89.004  46.524 262.929  1.00  0.00     0.088 A 
HETATM   19  N3  UNL     1      90.225  46.951 263.251  1.00  0.00    -0.373 N 
HETATM   20  C10 UNL     1      90.552  47.217 264.500  1.00  0.00     0.118 A 
ATOM     21  H3  UNL     1      90.921  47.073 262.516  1.00  0.00     0.164 HD
BRANCH  16  22
HETATM   22  C6  UNL     1      87.318  46.476 266.259  1.00  0.00     0.254 C 
HETATM   23  N2  UNL     1      86.494  45.309 266.315  1.00  0.00    -0.350 N 
ATOM     24  H2  UNL     1      86.633  44.575 265.620  1.00  0.00     0.163 HD
HETATM   25  O1  UNL     1      87.112  47.355 267.136  1.00  0.00    -0.268 OA
BRANCH  23  26
HETATM   26  C5  UNL     1      85.483  45.132 267.307  1.00  0.00     0.113 C 
HETATM   27  C4  UNL     1      84.192  45.758 266.853  1.00  0.00     0.029 C 
HETATM   28  C3  UNL     1      83.133  45.628 267.943  1.00  0.00     0.032 C 
HETATM   29  C2  UNL     1      83.001  44.191 268.351  1.00  0.00     0.272 C 
HETATM   30  N1  UNL     1      84.225  43.520 268.647  1.00  0.00     0.086 N 
HETATM   31  C1  UNL     1      84.725  43.793 269.976  1.00  0.00     0.310 C 
HETATM   32  C29 UNL     1      85.248  43.698 267.633  1.00  0.00     0.296 C 
ENDBRANCH  23  26
ENDBRANCH  16  22
ENDBRANCH  13  15
ENDBRANCH   1  13
BRANCH   3  33
HETATM   33  C15 UNL     1      93.143  50.837 268.332  1.00  0.00    -0.021 A 
HETATM   34  C16 UNL     1      92.496  51.234 269.478  1.00  0.00     0.013 A 
HETATM   35  C17 UNL     1      92.679  52.509 269.970  1.00  0.00     0.014 A 
HETATM   36  C18 UNL     1      93.515  53.402 269.317  1.00  0.00    -0.008 A 
HETATM   37  C19 UNL     1      93.886  54.704 269.560  1.00  0.00     0.031 A 
HETATM   38  C22 UNL     1      94.186  53.035 268.156  1.00  0.00     0.045 A 
HETATM   39  C20 UNL     1      94.756  55.098 268.565  1.00  0.00     0.091 A 
HETATM   40  N5  UNL     1      94.924  54.070 267.724  1.00  0.00    -0.360 N 
HETATM   41  C21 UNL     1      95.750  54.034 266.539  1.00  0.00     0.155 C 
HETATM   42  C23 UNL     1      93.971  51.740 267.699  1.00  0.00     0.043 A 
ENDBRANCH   3  33
TORSDOF 5
ENDMDL
