MODEL 8
REMARK VINA RESULT: -11.174895014      1.902      9.432
REMARK  5 active torsions:
REMARK  status: ('A' for Active; 'I' for Inactive)
REMARK    1  A    between atoms: C5_6  and  N2_7 
REMARK       I    between atoms: N2_7  and  C6_9 
REMARK    2  A    between atoms: C6_9  and  C7_11 
REMARK    3  A    between atoms: C11_17  and  N4_18 
REMARK    4  A    between atoms: N4_18  and  C12_20 
REMARK    5  A    between atoms: C14_22  and  C15_23 
ROOT
HETATM    1  C12 UNL     1      90.653  48.045 266.197  1.00  0.00     0.035 A 
HETATM    2  C13 UNL     1      89.514  47.624 266.835  1.00  0.00     0.044 A 
HETATM    3  C14 UNL     1      88.525  46.886 266.205  1.00  0.00     0.005 A 
HETATM    4  C24 UNL     1      88.728  46.580 264.879  1.00  0.00     0.070 A 
HETATM    5  N6  UNL     1      87.804  45.863 264.204  1.00  0.00    -0.362 N 
ATOM      6  H6  UNL     1      86.963  45.557 264.694  1.00  0.00     0.165 HD
HETATM    7  C25 UNL     1      87.955  45.543 262.920  1.00  0.00     0.105 A 
HETATM    8  C26 UNL     1      89.091  45.958 262.266  1.00  0.00     0.105 A 
HETATM    9  N7  UNL     1      90.033  46.678 262.922  1.00  0.00    -0.363 N 
ATOM     10  H7  UNL     1      90.874  46.984 262.433  1.00  0.00     0.165 HD
HETATM   11  C27 UNL     1      89.860  46.986 264.204  1.00  0.00     0.062 A 
HETATM   12  C28 UNL     1      90.850  47.731 264.854  1.00  0.00     0.061 A 
ENDROOT
BRANCH   1  13
HETATM   13  N4  UNL     1      91.680  48.784 266.845  1.00  0.00    -0.354 N 
ATOM     14  H4  UNL     1      91.496  49.738 267.155  1.00  0.00     0.166 HD
BRANCH  13  15
HETATM   15  C11 UNL     1      92.960  48.206 267.066  1.00  0.00     0.064 A 
HETATM   16  C7  UNL     1      94.109  48.969 267.261  1.00  0.00     0.061 A 
HETATM   17  C8  UNL     1      95.306  48.313 267.384  1.00  0.00     0.036 A 
HETATM   18  C9  UNL     1      95.363  46.925 267.315  1.00  0.00     0.088 A 
HETATM   19  N3  UNL     1      94.246  46.221 267.127  1.00  0.00    -0.373 N 
HETATM   20  C10 UNL     1      93.075  46.812 267.003  1.00  0.00     0.118 A 
ATOM     21  H3  UNL     1      94.300  45.204 267.079  1.00  0.00     0.164 HD
BRANCH  16  22
HETATM   22  C6  UNL     1      94.051  50.420 267.373  1.00  0.00     0.254 C 
HETATM   23  N2  UNL     1      93.552  51.044 268.559  1.00  0.00    -0.350 N 
ATOM     24  H2  UNL     1      93.236  50.454 269.329  1.00  0.00     0.163 HD
HETATM   25  O1  UNL     1      94.431  51.185 266.449  1.00  0.00    -0.268 OA
BRANCH  23  26
HETATM   26  C5  UNL     1      93.480  52.461 268.705  1.00  0.00     0.113 C 
HETATM   27  C4  UNL     1      92.698  52.819 269.940  1.00  0.00     0.029 C 
HETATM   28  C3  UNL     1      92.564  54.333 270.057  1.00  0.00     0.032 C 
HETATM   29  C2  UNL     1      93.921  54.967 269.994  1.00  0.00     0.272 C 
HETATM   30  N1  UNL     1      94.751  54.540 268.916  1.00  0.00     0.086 N 
HETATM   31  C1  UNL     1      94.448  55.194 267.662  1.00  0.00     0.310 C 
HETATM   32  C29 UNL     1      94.826  53.098 268.773  1.00  0.00     0.296 C 
ENDBRANCH  23  26
ENDBRANCH  16  22
ENDBRANCH  13  15
ENDBRANCH   1  13
BRANCH   3  33
HETATM   33  C15 UNL     1      87.340  46.473 266.948  1.00  0.00    -0.021 A 
HETATM   34  C16 UNL     1      86.374  47.407 267.243  1.00  0.00     0.013 A 
HETATM   35  C17 UNL     1      85.246  47.037 267.945  1.00  0.00     0.014 A 
HETATM   36  C18 UNL     1      85.073  45.725 268.359  1.00  0.00    -0.008 A 
HETATM   37  C19 UNL     1      84.082  45.074 269.056  1.00  0.00     0.031 A 
HETATM   38  C22 UNL     1      86.028  44.755 268.078  1.00  0.00     0.045 A 
HETATM   39  C20 UNL     1      84.443  43.749 269.184  1.00  0.00     0.091 A 
HETATM   40  N5  UNL     1      85.627  43.577 268.584  1.00  0.00    -0.360 N 
HETATM   41  C21 UNL     1      86.383  42.351 268.474  1.00  0.00     0.155 C 
HETATM   42  C23 UNL     1      87.148  45.174 267.369  1.00  0.00     0.043 A 
ENDBRANCH   3  33
TORSDOF 5
ENDMDL
