MODEL 7
REMARK VINA RESULT: -11.294968538      1.929      9.238
REMARK  5 active torsions:
REMARK  status: ('A' for Active; 'I' for Inactive)
REMARK    1  A    between atoms: C5_6  and  N2_7 
REMARK       I    between atoms: N2_7  and  C6_9 
REMARK    2  A    between atoms: C6_9  and  C7_11 
REMARK    3  A    between atoms: C11_17  and  N4_18 
REMARK    4  A    between atoms: N4_18  and  C12_20 
REMARK    5  A    between atoms: C14_22  and  C15_23 
ROOT
HETATM    1  C12 UNL     1      90.584  48.032 266.247  1.00  0.00     0.035 A 
HETATM    2  C13 UNL     1      89.475  47.552 266.896  1.00  0.00     0.044 A 
HETATM    3  C14 UNL     1      88.489  46.815 266.259  1.00  0.00     0.005 A 
HETATM    4  C24 UNL     1      88.665  46.573 264.915  1.00  0.00     0.070 A 
HETATM    5  N6  UNL     1      87.742  45.862 264.234  1.00  0.00    -0.362 N 
ATOM      6  H6  UNL     1      86.923  45.511 264.731  1.00  0.00     0.165 HD
HETATM    7  C25 UNL     1      87.866  45.603 262.933  1.00  0.00     0.105 A 
HETATM    8  C26 UNL     1      88.972  46.078 262.269  1.00  0.00     0.105 A 
HETATM    9  N7  UNL     1      89.912  46.794 262.932  1.00  0.00    -0.363 N 
ATOM     10  H7  UNL     1      90.731  47.145 262.434  1.00  0.00     0.165 HD
HETATM   11  C27 UNL     1      89.766  47.041 264.230  1.00  0.00     0.062 A 
HETATM   12  C28 UNL     1      90.753  47.783 264.887  1.00  0.00     0.061 A 
ENDROOT
BRANCH   1  13
HETATM   13  N4  UNL     1      91.609  48.770 266.901  1.00  0.00    -0.354 N 
ATOM     14  H4  UNL     1      91.417  49.715 267.232  1.00  0.00     0.166 HD
BRANCH  13  15
HETATM   15  C11 UNL     1      92.899  48.204 267.097  1.00  0.00     0.064 A 
HETATM   16  C7  UNL     1      94.043  48.977 267.278  1.00  0.00     0.061 A 
HETATM   17  C8  UNL     1      95.248  48.333 267.376  1.00  0.00     0.036 A 
HETATM   18  C9  UNL     1      95.318  46.946 267.297  1.00  0.00     0.088 A 
HETATM   19  N3  UNL     1      94.205  46.232 267.124  1.00  0.00    -0.373 N 
HETATM   20  C10 UNL     1      93.026  46.811 267.023  1.00  0.00     0.118 A 
ATOM     21  H3  UNL     1      94.268  45.216 267.068  1.00  0.00     0.164 HD
BRANCH  16  22
HETATM   22  C6  UNL     1      93.972  50.427 267.400  1.00  0.00     0.254 C 
HETATM   23  N2  UNL     1      93.542  51.039 268.618  1.00  0.00    -0.350 N 
ATOM     24  H2  UNL     1      93.284  50.442 269.404  1.00  0.00     0.163 HD
HETATM   25  O1  UNL     1      94.281  51.201 266.456  1.00  0.00    -0.268 OA
BRANCH  23  26
HETATM   26  C5  UNL     1      93.459  52.455 268.775  1.00  0.00     0.113 C 
HETATM   27  C4  UNL     1      92.716  52.797 270.038  1.00  0.00     0.029 C 
HETATM   28  C3  UNL     1      92.570  54.309 270.169  1.00  0.00     0.032 C 
HETATM   29  C2  UNL     1      93.917  54.958 270.063  1.00  0.00     0.272 C 
HETATM   30  N1  UNL     1      94.714  54.546 268.955  1.00  0.00     0.086 N 
HETATM   31  C1  UNL     1      94.362  55.204 267.716  1.00  0.00     0.310 C 
HETATM   32  C29 UNL     1      94.800  53.105 268.801  1.00  0.00     0.296 C 
ENDBRANCH  23  26
ENDBRANCH  16  22
ENDBRANCH  13  15
ENDBRANCH   1  13
BRANCH   3  33
HETATM   33  C15 UNL     1      87.337  46.336 267.014  1.00  0.00    -0.021 A 
HETATM   34  C16 UNL     1      87.183  44.985 267.217  1.00  0.00     0.013 A 
HETATM   35  C17 UNL     1      86.101  44.511 267.929  1.00  0.00     0.014 A 
HETATM   36  C18 UNL     1      85.160  45.388 268.446  1.00  0.00    -0.008 A 
HETATM   37  C19 UNL     1      84.007  45.219 269.177  1.00  0.00     0.031 A 
HETATM   38  C22 UNL     1      85.284  46.760 268.260  1.00  0.00     0.045 A 
HETATM   39  C20 UNL     1      83.462  46.462 269.418  1.00  0.00     0.091 A 
HETATM   40  N5  UNL     1      84.252  47.383 268.853  1.00  0.00    -0.360 N 
HETATM   41  C21 UNL     1      84.067  48.816 268.855  1.00  0.00     0.155 C 
HETATM   42  C23 UNL     1      86.390  47.191 267.537  1.00  0.00     0.043 A 
ENDBRANCH   3  33
TORSDOF 5
ENDMDL
