MODEL 5
REMARK VINA RESULT: -11.423898443      3.150      9.144
REMARK  5 active torsions:
REMARK  status: ('A' for Active; 'I' for Inactive)
REMARK    1  A    between atoms: C5_6  and  N2_7 
REMARK       I    between atoms: N2_7  and  C6_9 
REMARK    2  A    between atoms: C6_9  and  C7_11 
REMARK    3  A    between atoms: C11_17  and  N4_18 
REMARK    4  A    between atoms: N4_18  and  C12_20 
REMARK    5  A    between atoms: C14_22  and  C15_23 
ROOT
HETATM    1  C12 UNL     1      92.207  50.680 268.496  1.00  0.00     0.035 A 
HETATM    2  C13 UNL     1      91.337  49.948 267.730  1.00  0.00     0.044 A 
HETATM    3  C14 UNL     1      91.725  48.832 267.005  1.00  0.00     0.005 A 
HETATM    4  C24 UNL     1      93.051  48.472 267.081  1.00  0.00     0.070 A 
HETATM    5  N6  UNL     1      93.496  47.395 266.400  1.00  0.00    -0.362 N 
ATOM      6  H6  UNL     1      92.835  46.860 265.835  1.00  0.00     0.165 HD
HETATM    7  C25 UNL     1      94.769  47.008 266.441  1.00  0.00     0.105 A 
HETATM    8  C26 UNL     1      95.655  47.732 267.203  1.00  0.00     0.105 A 
HETATM    9  N7  UNL     1      95.232  48.817 267.896  1.00  0.00    -0.363 N 
ATOM     10  H7  UNL     1      95.893  49.352 268.461  1.00  0.00     0.165 HD
HETATM   11  C27 UNL     1      93.955  49.185 267.839  1.00  0.00     0.062 A 
HETATM   12  C28 UNL     1      93.548  50.309 268.566  1.00  0.00     0.061 A 
ENDROOT
BRANCH   1  13
HETATM   13  N4  UNL     1      91.810  51.813 269.257  1.00  0.00    -0.354 N 
ATOM     14  H4  UNL     1      90.871  51.851 269.654  1.00  0.00     0.166 HD
BRANCH  13  15
HETATM   15  C11 UNL     1      92.710  52.894 269.472  1.00  0.00     0.064 A 
HETATM   16  C7  UNL     1      92.759  53.609 270.667  1.00  0.00     0.061 A 
HETATM   17  C8  UNL     1      93.604  54.684 270.741  1.00  0.00     0.036 A 
HETATM   18  C9  UNL     1      94.388  55.044 269.650  1.00  0.00     0.088 A 
HETATM   19  N3  UNL     1      94.320  54.341 268.519  1.00  0.00    -0.373 N 
HETATM   20  C10 UNL     1      93.519  53.301 268.405  1.00  0.00     0.118 A 
ATOM     21  H3  UNL     1      94.899  54.614 267.726  1.00  0.00     0.164 HD
BRANCH  16  22
HETATM   22  C6  UNL     1      91.970  53.213 271.825  1.00  0.00     0.254 C 
HETATM   23  N2  UNL     1      92.353  53.611 273.144  1.00  0.00    -0.350 N 
ATOM     24  H2  UNL     1      93.193  54.180 273.261  1.00  0.00     0.163 HD
HETATM   25  O1  UNL     1      90.928  52.513 271.727  1.00  0.00    -0.268 OA
BRANCH  23  26
HETATM   26  C5  UNL     1      91.606  53.243 274.302  1.00  0.00     0.113 C 
HETATM   27  C4  UNL     1      91.794  51.780 274.601  1.00  0.00     0.029 C 
HETATM   28  C3  UNL     1      90.942  51.374 275.798  1.00  0.00     0.032 C 
HETATM   29  C2  UNL     1      91.239  52.274 276.960  1.00  0.00     0.272 C 
HETATM   30  N1  UNL     1      91.216  53.672 276.677  1.00  0.00     0.086 N 
HETATM   31  C1  UNL     1      89.883  54.234 276.657  1.00  0.00     0.310 C 
HETATM   32  C29 UNL     1      91.982  54.043 275.502  1.00  0.00     0.296 C 
ENDBRANCH  23  26
ENDBRANCH  16  22
ENDBRANCH  13  15
ENDBRANCH   1  13
BRANCH   3  33
HETATM   33  C15 UNL     1      90.742  48.102 266.213  1.00  0.00    -0.021 A 
HETATM   34  C16 UNL     1      89.514  47.819 266.763  1.00  0.00     0.013 A 
HETATM   35  C17 UNL     1      88.570  47.130 266.031  1.00  0.00     0.014 A 
HETATM   36  C18 UNL     1      88.847  46.717 264.737  1.00  0.00    -0.008 A 
HETATM   37  C19 UNL     1      88.127  46.031 263.786  1.00  0.00     0.031 A 
HETATM   38  C22 UNL     1      90.077  46.986 264.148  1.00  0.00     0.045 A 
HETATM   39  C20 UNL     1      88.913  45.898 262.661  1.00  0.00     0.091 A 
HETATM   40  N5  UNL     1      90.092  46.484 262.902  1.00  0.00    -0.360 N 
HETATM   41  C21 UNL     1      91.220  46.585 262.005  1.00  0.00     0.155 C 
HETATM   42  C23 UNL     1      90.996  47.683 264.924  1.00  0.00     0.043 A 
ENDBRANCH   3  33
TORSDOF 5
ENDMDL
