MODEL 16
REMARK VINA RESULT: -8.417615403      3.550      4.863
REMARK  6 active torsions:
REMARK  status: ('A' for Active; 'I' for Inactive)
REMARK    1  A    between atoms: C1_2  and  C2_4 
REMARK    2  A    between atoms: C2_4  and  C3_5 
REMARK    3  A    between atoms: C3_5  and  N1_6 
REMARK    4  A    between atoms: C13_16  and  N2_17 
REMARK    5  A    between atoms: N2_17  and  S1_19 
REMARK    6  A    between atoms: S1_19  and  C14_22 
ROOT
HETATM    1  N1  UNL     1      28.120 165.765 154.357  1.00  0.00    -0.349 N 
HETATM    2  C4  UNL     1      27.677 165.320 153.171  1.00  0.00     0.019 A 
HETATM    3  C5  UNL     1      28.279 166.064 152.176  1.00  0.00    -0.021 A 
HETATM    4  C6  UNL     1      29.123 167.000 152.784  1.00  0.00    -0.001 A 
HETATM    5  C7  UNL     1      29.956 167.981 152.303  1.00  0.00     0.014 A 
HETATM    6  C8  UNL     1      30.689 168.779 153.145  1.00  0.00     0.001 A 
HETATM    7  C9  UNL     1      30.566 168.566 154.507  1.00  0.00     0.002 A 
HETATM    8  C10 UNL     1      29.735 167.585 154.999  1.00  0.00     0.030 A 
HETATM    9  C11 UNL     1      28.993 166.778 154.146  1.00  0.00     0.045 A 
HETATM   10  C12 UNL     1      28.022 165.845 150.722  1.00  0.00     0.067 C 
HETATM   11  C13 UNL     1      27.139 164.665 150.496  1.00  0.00     0.098 C 
HETATM   12  C20 UNL     1      26.023 164.660 151.550  1.00  0.00     0.032 C 
HETATM   13  C21 UNL     1      26.712 164.229 152.848  1.00  0.00     0.060 C 
ENDROOT
BRANCH  11  14
HETATM   14  N2  UNL     1      26.521 164.611 149.223  1.00  0.00    -0.310 N 
ATOM     15  H2  UNL     1      25.687 165.152 148.998  1.00  0.00     0.172 HD
BRANCH  14  16
HETATM   16  S1  UNL     1      27.271 163.577 148.093  1.00  0.00     0.259 S 
HETATM   17  O3  UNL     1      28.068 164.286 147.067  1.00  0.00    -0.201 OA
HETATM   18  O4  UNL     1      28.235 162.688 148.868  1.00  0.00    -0.201 OA
BRANCH  16  19
HETATM   19  C14 UNL     1      26.145 162.501 147.301  1.00  0.00     0.079 A 
HETATM   20  C15 UNL     1      26.439 161.178 147.040  1.00  0.00     0.028 A 
HETATM   21  C16 UNL     1      25.568 160.316 146.419  1.00  0.00     0.044 A 
HETATM   22  C17 UNL     1      24.335 160.793 146.035  1.00  0.00     0.116 A 
HETATM   23  F1  UNL     1      23.431 159.983 145.416  1.00  0.00    -0.206 F 
HETATM   24  C18 UNL     1      23.995 162.107 146.274  1.00  0.00     0.044 A 
HETATM   25  C19 UNL     1      24.900 162.948 146.904  1.00  0.00     0.028 A 
ENDBRANCH  16  19
ENDBRANCH  14  16
ENDBRANCH  11  14
BRANCH   1  26
HETATM   26  C3  UNL     1      27.742 165.261 155.662  1.00  0.00     0.139 C 
BRANCH  26  27
HETATM   27  C2  UNL     1      28.334 163.877 155.905  1.00  0.00     0.133 C 
BRANCH  27  28
HETATM   28  C1  UNL     1      27.325 163.110 156.701  1.00  0.00     0.174 C 
HETATM   29  O1  UNL     1      27.664 162.398 157.690  1.00  0.00    -0.648 OA
HETATM   30  O2  UNL     1      25.967 163.134 156.401  1.00  0.00    -0.648 OA
ENDBRANCH  27  28
ENDBRANCH  26  27
ENDBRANCH   1  26
TORSDOF 6
ENDMDL
