MODEL 15
REMARK VINA RESULT: -8.443342567      4.182      8.667
REMARK  6 active torsions:
REMARK  status: ('A' for Active; 'I' for Inactive)
REMARK    1  A    between atoms: C1_2  and  C2_4 
REMARK    2  A    between atoms: C2_4  and  C3_5 
REMARK    3  A    between atoms: C3_5  and  N1_6 
REMARK    4  A    between atoms: C13_16  and  N2_17 
REMARK    5  A    between atoms: N2_17  and  S1_19 
REMARK    6  A    between atoms: S1_19  and  C14_22 
ROOT
HETATM    1  N1  UNL     1      27.333 163.377 148.088  1.00  0.00    -0.349 N 
HETATM    2  C4  UNL     1      27.948 163.671 149.243  1.00  0.00     0.019 A 
HETATM    3  C5  UNL     1      27.549 164.931 149.640  1.00  0.00    -0.021 A 
HETATM    4  C6  UNL     1      26.652 165.423 148.684  1.00  0.00    -0.001 A 
HETATM    5  C7  UNL     1      25.949 166.597 148.557  1.00  0.00     0.014 A 
HETATM    6  C8  UNL     1      25.118 166.824 147.489  1.00  0.00     0.001 A 
HETATM    7  C9  UNL     1      25.005 165.829 146.534  1.00  0.00     0.002 A 
HETATM    8  C10 UNL     1      25.705 164.650 146.653  1.00  0.00     0.030 A 
HETATM    9  C11 UNL     1      26.547 164.420 147.733  1.00  0.00     0.045 A 
HETATM   10  C12 UNL     1      28.035 165.589 150.888  1.00  0.00     0.067 C 
HETATM   11  C13 UNL     1      28.897 164.671 151.687  1.00  0.00     0.098 C 
HETATM   12  C20 UNL     1      29.822 163.895 150.740  1.00  0.00     0.032 C 
HETATM   13  C21 UNL     1      28.912 162.871 150.055  1.00  0.00     0.060 C 
ENDROOT
BRANCH  11  14
HETATM   14  N2  UNL     1      29.715 165.305 152.655  1.00  0.00    -0.310 N 
ATOM     15  H2  UNL     1      30.728 165.194 152.670  1.00  0.00     0.172 HD
BRANCH  14  16
HETATM   16  S1  UNL     1      28.886 166.267 153.792  1.00  0.00     0.259 S 
HETATM   17  O3  UNL     1      29.742 167.264 154.473  1.00  0.00    -0.201 OA
HETATM   18  O4  UNL     1      27.820 167.044 153.031  1.00  0.00    -0.201 OA
BRANCH  16  19
HETATM   19  C14 UNL     1      28.037 165.325 154.993  1.00  0.00     0.079 A 
HETATM   20  C15 UNL     1      27.986 165.687 156.324  1.00  0.00     0.028 A 
HETATM   21  C16 UNL     1      27.325 164.960 157.284  1.00  0.00     0.044 A 
HETATM   22  C17 UNL     1      26.675 163.808 156.902  1.00  0.00     0.116 A 
HETATM   23  F1  UNL     1      26.003 163.047 157.810  1.00  0.00    -0.206 F 
HETATM   24  C18 UNL     1      26.697 163.405 155.584  1.00  0.00     0.044 A 
HETATM   25  C19 UNL     1      27.375 164.164 154.642  1.00  0.00     0.028 A 
ENDBRANCH  16  19
ENDBRANCH  14  16
ENDBRANCH  11  14
BRANCH   1  26
HETATM   26  C3  UNL     1      27.470 162.151 147.326  1.00  0.00     0.139 C 
BRANCH  26  27
HETATM   27  C2  UNL     1      26.319 161.194 147.621  1.00  0.00     0.133 C 
BRANCH  27  28
HETATM   28  C1  UNL     1      25.827 160.693 146.300  1.00  0.00     0.174 C 
HETATM   29  O1  UNL     1      25.220 161.451 145.488  1.00  0.00    -0.648 OA
HETATM   30  O2  UNL     1      26.005 159.376 145.890  1.00  0.00    -0.648 OA
ENDBRANCH  27  28
ENDBRANCH  26  27
ENDBRANCH   1  26
TORSDOF 6
ENDMDL
