MODEL 4
REMARK VINA RESULT: -9.973860548      1.176      1.662
REMARK  6 active torsions:
REMARK  status: ('A' for Active; 'I' for Inactive)
REMARK    1  A    between atoms: C1_2  and  C2_4 
REMARK    2  A    between atoms: C2_4  and  C3_5 
REMARK    3  A    between atoms: C3_5  and  N1_6 
REMARK    4  A    between atoms: C13_16  and  N2_17 
REMARK    5  A    between atoms: N2_17  and  S1_19 
REMARK    6  A    between atoms: S1_19  and  C14_22 
ROOT
HETATM    1  N1  UNL     1      27.267 166.031 149.744  1.00  0.00    -0.349 N 
HETATM    2  C4  UNL     1      26.993 164.998 148.933  1.00  0.00     0.019 A 
HETATM    3  C5  UNL     1      27.860 163.967 149.234  1.00  0.00    -0.021 A 
HETATM    4  C6  UNL     1      28.695 164.392 150.273  1.00  0.00    -0.001 A 
HETATM    5  C7  UNL     1      29.725 163.801 150.966  1.00  0.00     0.014 A 
HETATM    6  C8  UNL     1      30.391 164.464 151.966  1.00  0.00     0.001 A 
HETATM    7  C9  UNL     1      29.995 165.757 152.261  1.00  0.00     0.002 A 
HETATM    8  C10 UNL     1      28.964 166.357 151.573  1.00  0.00     0.030 A 
HETATM    9  C11 UNL     1      28.290 165.686 150.561  1.00  0.00     0.045 A 
HETATM   10  C12 UNL     1      27.845 162.653 148.527  1.00  0.00     0.067 C 
HETATM   11  C13 UNL     1      26.716 162.568 147.557  1.00  0.00     0.098 C 
HETATM   12  C20 UNL     1      26.578 163.910 146.824  1.00  0.00     0.032 C 
HETATM   13  C21 UNL     1      25.967 164.860 147.858  1.00  0.00     0.060 C 
ENDROOT
BRANCH  11  14
HETATM   14  N2  UNL     1      26.844 161.558 146.572  1.00  0.00    -0.310 N 
ATOM     15  H2  UNL     1      27.644 161.509 145.942  1.00  0.00     0.172 HD
BRANCH  14  16
HETATM   16  S1  UNL     1      25.566 160.431 146.515  1.00  0.00     0.259 S 
HETATM   17  O3  UNL     1      25.817 159.284 145.613  1.00  0.00    -0.201 OA
HETATM   18  O4  UNL     1      25.404 159.864 147.919  1.00  0.00    -0.201 OA
BRANCH  16  19
HETATM   19  C14 UNL     1      24.032 161.158 146.104  1.00  0.00     0.079 A 
HETATM   20  C15 UNL     1      23.251 161.821 147.028  1.00  0.00     0.028 A 
HETATM   21  C16 UNL     1      22.042 162.400 146.725  1.00  0.00     0.044 A 
HETATM   22  C17 UNL     1      21.582 162.316 145.431  1.00  0.00     0.116 A 
HETATM   23  F1  UNL     1      20.391 162.872 145.072  1.00  0.00    -0.206 F 
HETATM   24  C18 UNL     1      22.326 161.664 144.471  1.00  0.00     0.044 A 
HETATM   25  C19 UNL     1      23.542 161.093 144.813  1.00  0.00     0.028 A 
ENDBRANCH  16  19
ENDBRANCH  14  16
ENDBRANCH  11  14
BRANCH   1  26
HETATM   26  C3  UNL     1      26.592 167.313 149.764  1.00  0.00     0.139 C 
BRANCH  26  27
HETATM   27  C2  UNL     1      26.107 167.653 151.170  1.00  0.00     0.133 C 
BRANCH  27  28
HETATM   28  C1  UNL     1      24.823 166.914 151.373  1.00  0.00     0.174 C 
HETATM   29  O1  UNL     1      23.794 167.488 151.834  1.00  0.00    -0.648 OA
HETATM   30  O2  UNL     1      24.685 165.564 151.072  1.00  0.00    -0.648 OA
ENDBRANCH  27  28
ENDBRANCH  26  27
ENDBRANCH   1  26
TORSDOF 6
ENDMDL
