MODEL 1
REMARK VINA RESULT: -11.650964389      0.000      0.000
REMARK  6 active torsions:
REMARK  status: ('A' for Active; 'I' for Inactive)
REMARK    1  A    between atoms: C1_2  and  C2_4 
REMARK    2  A    between atoms: C2_4  and  C3_5 
REMARK    3  A    between atoms: C3_5  and  N1_6 
REMARK    4  A    between atoms: C13_16  and  N2_17 
REMARK    5  A    between atoms: N2_17  and  S1_19 
REMARK    6  A    between atoms: S1_19  and  C14_22 
ROOT
HETATM    1  N1  UNL     1      26.942 165.951 150.094  1.00  0.00    -0.349 N 
HETATM    2  C4  UNL     1      26.706 164.958 149.223  1.00  0.00     0.019 A 
HETATM    3  C5  UNL     1      27.700 164.011 149.364  1.00  0.00    -0.021 A 
HETATM    4  C6  UNL     1      28.577 164.447 150.363  1.00  0.00    -0.001 A 
HETATM    5  C7  UNL     1      29.722 163.925 150.916  1.00  0.00     0.014 A 
HETATM    6  C8  UNL     1      30.404 164.581 151.910  1.00  0.00     0.001 A 
HETATM    7  C9  UNL     1      29.902 165.795 152.345  1.00  0.00     0.002 A 
HETATM    8  C10 UNL     1      28.756 166.326 151.797  1.00  0.00     0.030 A 
HETATM    9  C11 UNL     1      28.066 165.662 150.791  1.00  0.00     0.045 A 
HETATM   10  C12 UNL     1      27.759 162.760 148.551  1.00  0.00     0.067 C 
HETATM   11  C13 UNL     1      26.561 162.623 147.673  1.00  0.00     0.098 C 
HETATM   12  C20 UNL     1      26.217 163.992 147.071  1.00  0.00     0.032 C 
HETATM   13  C21 UNL     1      25.606 164.787 148.229  1.00  0.00     0.060 C 
ENDROOT
BRANCH  11  14
HETATM   14  N2  UNL     1      26.704 161.711 146.599  1.00  0.00    -0.310 N 
ATOM     15  H2  UNL     1      27.484 161.757 145.944  1.00  0.00     0.172 HD
BRANCH  14  16
HETATM   16  S1  UNL     1      25.480 160.530 146.479  1.00  0.00     0.259 S 
HETATM   17  O3  UNL     1      25.809 159.416 145.563  1.00  0.00    -0.201 OA
HETATM   18  O4  UNL     1      25.301 159.926 147.866  1.00  0.00    -0.201 OA
BRANCH  16  19
HETATM   19  C14 UNL     1      23.929 161.198 146.034  1.00  0.00     0.079 A 
HETATM   20  C15 UNL     1      23.446 161.164 144.741  1.00  0.00     0.028 A 
HETATM   21  C16 UNL     1      22.230 161.684 144.372  1.00  0.00     0.044 A 
HETATM   22  C17 UNL     1      21.446 162.271 145.339  1.00  0.00     0.116 A 
HETATM   23  F1  UNL     1      20.231 162.803 145.030  1.00  0.00    -0.206 F 
HETATM   24  C18 UNL     1      21.885 162.330 146.644  1.00  0.00     0.044 A 
HETATM   25  C19 UNL     1      23.118 161.795 146.981  1.00  0.00     0.028 A 
ENDBRANCH  16  19
ENDBRANCH  14  16
ENDBRANCH  11  14
BRANCH   1  26
HETATM   26  C3  UNL     1      26.142 167.144 150.278  1.00  0.00     0.139 C 
BRANCH  26  27
HETATM   27  C2  UNL     1      26.928 168.394 149.894  1.00  0.00     0.133 C 
BRANCH  27  28
HETATM   28  C1  UNL     1      26.990 169.257 151.114  1.00  0.00     0.174 C 
HETATM   29  O1  UNL     1      26.599 168.838 152.242  1.00  0.00    -0.648 OA
HETATM   30  O2  UNL     1      27.475 170.560 151.081  1.00  0.00    -0.648 OA
ENDBRANCH  27  28
ENDBRANCH  26  27
ENDBRANCH   1  26
TORSDOF 6
ENDMDL
