MODEL 17
REMARK VINA RESULT: -8.399875429      3.802      7.845
REMARK  6 active torsions:
REMARK  status: ('A' for Active; 'I' for Inactive)
REMARK    1  A    between atoms: C1_2  and  C2_4 
REMARK    2  A    between atoms: C2_4  and  C3_5 
REMARK    3  A    between atoms: C3_5  and  N1_6 
REMARK    4  A    between atoms: C13_16  and  N2_17 
REMARK    5  A    between atoms: N2_17  and  S1_19 
REMARK    6  A    between atoms: S1_19  and  C14_22 
ROOT
HETATM    1  N1  UNL     1      25.992 164.708 147.940  1.00  0.00    -0.349 N 
HETATM    2  C4  UNL     1      26.284 165.629 148.871  1.00  0.00     0.019 A 
HETATM    3  C5  UNL     1      27.501 165.304 149.436  1.00  0.00    -0.021 A 
HETATM    4  C6  UNL     1      27.968 164.137 148.822  1.00  0.00    -0.001 A 
HETATM    5  C7  UNL     1      29.097 163.369 148.975  1.00  0.00     0.014 A 
HETATM    6  C8  UNL     1      29.308 162.243 148.220  1.00  0.00     0.001 A 
HETATM    7  C9  UNL     1      28.343 161.897 147.291  1.00  0.00     0.002 A 
HETATM    8  C10 UNL     1      27.208 162.659 147.131  1.00  0.00     0.030 A 
HETATM    9  C11 UNL     1      26.994 163.800 147.894  1.00  0.00     0.045 A 
HETATM   10  C12 UNL     1      28.144 166.112 150.515  1.00  0.00     0.067 C 
HETATM   11  C13 UNL     1      27.366 167.351 150.805  1.00  0.00     0.098 C 
HETATM   12  C20 UNL     1      25.867 167.020 150.793  1.00  0.00     0.032 C 
HETATM   13  C21 UNL     1      25.520 166.832 149.313  1.00  0.00     0.060 C 
ENDROOT
BRANCH  11  14
HETATM   14  N2  UNL     1      27.656 167.965 152.048  1.00  0.00    -0.310 N 
ATOM     15  H2  UNL     1      27.212 168.834 152.344  1.00  0.00     0.172 HD
BRANCH  14  16
HETATM   16  S1  UNL     1      28.798 167.148 153.016  1.00  0.00     0.259 S 
HETATM   17  O3  UNL     1      29.996 166.694 152.276  1.00  0.00    -0.201 OA
HETATM   18  O4  UNL     1      29.276 168.133 154.074  1.00  0.00    -0.201 OA
BRANCH  16  19
HETATM   19  C14 UNL     1      28.113 165.795 153.883  1.00  0.00     0.079 A 
HETATM   20  C15 UNL     1      27.394 164.796 153.258  1.00  0.00     0.028 A 
HETATM   21  C16 UNL     1      26.848 163.725 153.923  1.00  0.00     0.044 A 
HETATM   22  C17 UNL     1      27.025 163.639 155.285  1.00  0.00     0.116 A 
HETATM   23  F1  UNL     1      26.507 162.598 155.995  1.00  0.00    -0.206 F 
HETATM   24  C18 UNL     1      27.736 164.611 155.954  1.00  0.00     0.044 A 
HETATM   25  C19 UNL     1      28.274 165.678 155.251  1.00  0.00     0.028 A 
ENDBRANCH  16  19
ENDBRANCH  14  16
ENDBRANCH  11  14
BRANCH   1  26
HETATM   26  C3  UNL     1      24.807 164.671 147.108  1.00  0.00     0.139 C 
BRANCH  26  27
HETATM   27  C2  UNL     1      23.692 163.874 147.780  1.00  0.00     0.133 C 
BRANCH  27  28
HETATM   28  C1  UNL     1      23.632 162.550 147.088  1.00  0.00     0.174 C 
HETATM   29  O1  UNL     1      23.336 162.455 145.862  1.00  0.00    -0.648 OA
HETATM   30  O2  UNL     1      23.894 161.353 147.747  1.00  0.00    -0.648 OA
ENDBRANCH  27  28
ENDBRANCH  26  27
ENDBRANCH   1  26
TORSDOF 6
ENDMDL
