MODEL 2
REMARK VINA RESULT: -11.171444550      0.292      1.089
REMARK  6 active torsions:
REMARK  status: ('A' for Active; 'I' for Inactive)
REMARK    1  A    between atoms: C1_2  and  C2_4 
REMARK    2  A    between atoms: C2_4  and  C3_5 
REMARK    3  A    between atoms: C3_5  and  N1_6 
REMARK    4  A    between atoms: C13_16  and  N2_17 
REMARK    5  A    between atoms: N2_17  and  S1_19 
REMARK    6  A    between atoms: S1_19  and  C14_22 
ROOT
HETATM    1  N1  UNL     1      26.920 165.962 150.255  1.00  0.00    -0.349 N 
HETATM    2  C4  UNL     1      26.631 165.013 149.352  1.00  0.00     0.019 A 
HETATM    3  C5  UNL     1      27.621 164.052 149.401  1.00  0.00    -0.021 A 
HETATM    4  C6  UNL     1      28.550 164.434 150.375  1.00  0.00    -0.001 A 
HETATM    5  C7  UNL     1      29.714 163.878 150.848  1.00  0.00     0.014 A 
HETATM    6  C8  UNL     1      30.449 164.482 151.837  1.00  0.00     0.001 A 
HETATM    7  C9  UNL     1      29.982 165.678 152.351  1.00  0.00     0.002 A 
HETATM    8  C10 UNL     1      28.817 166.243 151.884  1.00  0.00     0.030 A 
HETATM    9  C11 UNL     1      28.072 165.632 150.883  1.00  0.00     0.045 A 
HETATM   10  C12 UNL     1      27.628 162.840 148.530  1.00  0.00     0.067 C 
HETATM   11  C13 UNL     1      26.388 162.753 147.706  1.00  0.00     0.098 C 
HETATM   12  C20 UNL     1      26.030 164.152 147.184  1.00  0.00     0.032 C 
HETATM   13  C21 UNL     1      25.483 164.897 148.405  1.00  0.00     0.060 C 
ENDROOT
BRANCH  11  14
HETATM   14  N2  UNL     1      26.470 161.891 146.585  1.00  0.00    -0.310 N 
ATOM     15  H2  UNL     1      27.220 161.959 145.898  1.00  0.00     0.172 HD
BRANCH  14  16
HETATM   16  S1  UNL     1      25.226 160.731 146.467  1.00  0.00     0.259 S 
HETATM   17  O3  UNL     1      25.504 159.649 145.496  1.00  0.00    -0.201 OA
HETATM   18  O4  UNL     1      25.091 160.076 147.835  1.00  0.00    -0.201 OA
BRANCH  16  19
HETATM   19  C14 UNL     1      23.668 161.435 146.109  1.00  0.00     0.079 A 
HETATM   20  C15 UNL     1      22.861 161.991 147.081  1.00  0.00     0.028 A 
HETATM   21  C16 UNL     1      21.633 162.550 146.821  1.00  0.00     0.044 A 
HETATM   22  C17 UNL     1      21.179 162.557 145.521  1.00  0.00     0.116 A 
HETATM   23  F1  UNL     1      19.970 163.098 145.204  1.00  0.00    -0.206 F 
HETATM   24  C18 UNL     1      21.949 162.014 144.515  1.00  0.00     0.044 A 
HETATM   25  C19 UNL     1      23.183 161.459 144.815  1.00  0.00     0.028 A 
ENDBRANCH  16  19
ENDBRANCH  14  16
ENDBRANCH  11  14
BRANCH   1  26
HETATM   26  C3  UNL     1      26.141 167.153 150.532  1.00  0.00     0.139 C 
BRANCH  26  27
HETATM   27  C2  UNL     1      26.828 168.396 149.976  1.00  0.00     0.133 C 
BRANCH  27  28
HETATM   28  C1  UNL     1      27.157 169.267 151.147  1.00  0.00     0.174 C 
HETATM   29  O1  UNL     1      27.365 170.508 151.013  1.00  0.00    -0.648 OA
HETATM   30  O2  UNL     1      27.252 168.768 152.442  1.00  0.00    -0.648 OA
ENDBRANCH  27  28
ENDBRANCH  26  27
ENDBRANCH   1  26
TORSDOF 6
ENDMDL
