MODEL 6
REMARK VINA RESULT: -7.515116121      1.820      6.621
REMARK  5 active torsions:
REMARK  status: ('A' for Active; 'I' for Inactive)
REMARK    1  A    between atoms: C4_4  and  O1_5 
REMARK    2  A    between atoms: C19_22  and  O3_23 
REMARK    3  A    between atoms: C19_22  and  C20_25 
REMARK    4  A    between atoms: C20_25  and  C21_27 
REMARK    5  A    between atoms: C21_27  and  O5_28 
ROOT
HETATM    1  C1  UNL     1      12.555  28.235  35.389  1.00  0.00     0.019 C 
HETATM    2  C2  UNL     1      12.360  27.129  36.359  1.00  0.00     0.001 C 
HETATM    3  C3  UNL     1      12.764  25.786  35.875  1.00  0.00     0.045 C 
HETATM    4  C4  UNL     1      11.831  25.387  34.729  1.00  0.00     0.124 C 
HETATM    5  C5  UNL     1      10.458  25.270  35.265  1.00  0.00     0.031 C 
HETATM    6  C6  UNL     1       9.958  26.611  35.759  1.00  0.00    -0.002 C 
HETATM    7  C7  UNL     1       8.589  26.538  36.389  1.00  0.00     0.010 C 
HETATM    8  C8  UNL     1       7.580  25.760  35.597  1.00  0.00     0.035 C 
HETATM    9  C9  UNL     1       8.225  24.449  35.218  1.00  0.00    -0.068 C 
HETATM   10  C10 UNL     1       7.700  23.326  35.620  1.00  0.00     0.053 C 
HETATM   11  C11 UNL     1       8.332  22.071  35.248  1.00  0.00     0.149 C 
HETATM   12  O2  UNL     1       7.659  21.018  35.287  1.00  0.00    -0.293 OA
HETATM   13  C12 UNL     1       9.762  22.149  34.841  1.00  0.00     0.084 C 
HETATM   14  C13 UNL     1       9.857  23.294  33.853  1.00  0.00     0.022 C 
HETATM   15  C14 UNL     1       9.445  24.612  34.388  1.00  0.00    -0.014 C 
HETATM   16  C15 UNL     1       9.027  25.469  33.207  1.00  0.00     0.020 C 
HETATM   17  C16 UNL     1      10.901  27.041  36.831  1.00  0.00     0.002 C 
HETATM   18  C17 UNL     1      10.725  28.430  37.357  1.00  0.00     0.009 C 
HETATM   19  C18 UNL     1      12.071  28.686  38.050  1.00  0.00     0.047 C 
HETATM   20  C19 UNL     1      12.941  27.502  37.703  1.00  0.00     0.128 C 
ENDROOT
BRANCH  20  21
HETATM   21  O3  UNL     1      12.537  26.466  38.574  1.00  0.00    -0.381 OA
ATOM     22  H3  UNL     1      13.342  26.027  38.822  1.00  0.00     0.211 HD
ENDBRANCH  20  21
BRANCH  20  23
HETATM   23  C20 UNL     1      14.372  27.731  37.750  1.00  0.00     0.184 C 
HETATM   24  O4  UNL     1      14.754  28.852  37.361  1.00  0.00    -0.292 OA
BRANCH  23  25
HETATM   25  C21 UNL     1      15.445  26.832  38.192  1.00  0.00     0.245 C 
BRANCH  25  26
HETATM   26  O5  UNL     1      16.703  27.449  38.172  1.00  0.00    -0.393 OA
ATOM     27  H5  UNL     1      17.393  26.875  38.483  1.00  0.00     0.209 HD
ENDBRANCH  25  26
ENDBRANCH  23  25
ENDBRANCH  20  23
BRANCH   4  28
HETATM   28  O1  UNL     1      11.995  26.187  33.634  1.00  0.00    -0.395 OA
ATOM     29  H1  UNL     1      11.163  26.457  33.263  1.00  0.00     0.210 HD
ENDBRANCH   4  28
TORSDOF 5
ENDMDL
