MODEL 2
REMARK VINA RESULT: -9.660780450      0.527      1.063
REMARK  5 active torsions:
REMARK  status: ('A' for Active; 'I' for Inactive)
REMARK    1  A    between atoms: C4_4  and  O1_5 
REMARK    2  A    between atoms: C19_22  and  O3_23 
REMARK    3  A    between atoms: C19_22  and  C20_25 
REMARK    4  A    between atoms: C20_25  and  C21_27 
REMARK    5  A    between atoms: C21_27  and  O5_28 
ROOT
HETATM    1  C1  UNL     1       9.455  27.331  35.334  1.00  0.00     0.019 C 
HETATM    2  C2  UNL     1      10.434  26.326  34.849  1.00  0.00     0.001 C 
HETATM    3  C3  UNL     1      10.969  25.412  35.888  1.00  0.00     0.045 C 
HETATM    4  C4  UNL     1      11.803  26.239  36.870  1.00  0.00     0.124 C 
HETATM    5  C5  UNL     1      12.958  26.804  36.141  1.00  0.00     0.031 C 
HETATM    6  C6  UNL     1      12.496  27.773  35.073  1.00  0.00    -0.002 C 
HETATM    7  C7  UNL     1      13.630  28.324  34.242  1.00  0.00     0.010 C 
HETATM    8  C8  UNL     1      14.809  28.801  35.038  1.00  0.00     0.035 C 
HETATM    9  C9  UNL     1      15.155  27.711  36.022  1.00  0.00    -0.068 C 
HETATM   10  C10 UNL     1      16.329  27.149  35.982  1.00  0.00     0.053 C 
HETATM   11  C11 UNL     1      16.649  26.100  36.936  1.00  0.00     0.149 C 
HETATM   12  O2  UNL     1      17.849  25.831  37.164  1.00  0.00    -0.293 OA
HETATM   13  C12 UNL     1      15.491  25.417  37.577  1.00  0.00     0.084 C 
HETATM   14  C13 UNL     1      14.559  26.517  38.042  1.00  0.00     0.022 C 
HETATM   15  C14 UNL     1      14.051  27.398  36.965  1.00  0.00    -0.014 C 
HETATM   16  C15 UNL     1      13.670  28.721  37.604  1.00  0.00     0.020 C 
HETATM   17  C16 UNL     1      11.626  26.993  34.146  1.00  0.00     0.002 C 
HETATM   18  C17 UNL     1      10.896  27.773  33.100  1.00  0.00     0.009 C 
HETATM   19  C18 UNL     1       9.800  26.787  32.668  1.00  0.00     0.047 C 
HETATM   20  C19 UNL     1       9.899  25.622  33.624  1.00  0.00     0.128 C 
ENDROOT
BRANCH  20  21
HETATM   21  O3  UNL     1      10.977  24.838  33.155  1.00  0.00    -0.381 OA
ATOM     22  H3  UNL     1      11.014  24.095  33.746  1.00  0.00     0.211 HD
ENDBRANCH  20  21
BRANCH  20  23
HETATM   23  C20 UNL     1       8.690  24.842  33.799  1.00  0.00     0.184 C 
HETATM   24  O4  UNL     1       8.856  23.625  34.012  1.00  0.00    -0.292 OA
BRANCH  23  25
HETATM   25  C21 UNL     1       7.288  25.277  33.761  1.00  0.00     0.245 C 
BRANCH  25  26
HETATM   26  O5  UNL     1       6.715  25.128  32.491  1.00  0.00    -0.393 OA
ATOM     27  H5  UNL     1       7.356  24.898  31.828  1.00  0.00     0.209 HD
ENDBRANCH  25  26
ENDBRANCH  23  25
ENDBRANCH  20  23
BRANCH   4  28
HETATM   28  O1  UNL     1      11.036  27.119  37.579  1.00  0.00    -0.395 OA
ATOM     29  H1  UNL     1      11.532  27.881  37.855  1.00  0.00     0.210 HD
ENDBRANCH   4  28
TORSDOF 5
ENDMDL
