MODEL 1
REMARK VINA RESULT: -9.670331500      0.000      0.000
REMARK  5 active torsions:
REMARK  status: ('A' for Active; 'I' for Inactive)
REMARK    1  A    between atoms: C4_4  and  O1_5 
REMARK    2  A    between atoms: C19_22  and  O3_23 
REMARK    3  A    between atoms: C19_22  and  C20_25 
REMARK    4  A    between atoms: C20_25  and  C21_27 
REMARK    5  A    between atoms: C21_27  and  O5_28 
ROOT
HETATM    1  C1  UNL     1       9.475  27.200  35.426  1.00  0.00     0.019 C 
HETATM    2  C2  UNL     1      10.464  26.205  34.942  1.00  0.00     0.001 C 
HETATM    3  C3  UNL     1      11.040  25.325  35.989  1.00  0.00     0.045 C 
HETATM    4  C4  UNL     1      11.878  26.190  36.934  1.00  0.00     0.124 C 
HETATM    5  C5  UNL     1      13.006  26.762  36.168  1.00  0.00     0.031 C 
HETATM    6  C6  UNL     1      12.501  27.697  35.089  1.00  0.00    -0.002 C 
HETATM    7  C7  UNL     1      13.605  28.252  34.222  1.00  0.00     0.010 C 
HETATM    8  C8  UNL     1      14.791  28.770  34.981  1.00  0.00     0.035 C 
HETATM    9  C9  UNL     1      15.180  27.710  35.981  1.00  0.00    -0.068 C 
HETATM   10  C10 UNL     1      16.365  27.170  35.928  1.00  0.00     0.053 C 
HETATM   11  C11 UNL     1      16.726  26.150  36.898  1.00  0.00     0.149 C 
HETATM   12  O2  UNL     1      17.936  25.910  37.105  1.00  0.00    -0.293 OA
HETATM   13  C12 UNL     1      15.596  25.459  37.579  1.00  0.00     0.084 C 
HETATM   14  C13 UNL     1      14.652  26.550  38.040  1.00  0.00     0.022 C 
HETATM   15  C14 UNL     1      14.104  27.396  36.955  1.00  0.00    -0.014 C 
HETATM   16  C15 UNL     1      13.709  28.725  37.572  1.00  0.00     0.020 C 
HETATM   17  C16 UNL     1      11.628  26.879  34.199  1.00  0.00     0.002 C 
HETATM   18  C17 UNL     1      10.860  27.621  33.152  1.00  0.00     0.009 C 
HETATM   19  C18 UNL     1       9.775  26.604  32.766  1.00  0.00     0.047 C 
HETATM   20  C19 UNL     1       9.918  25.462  33.744  1.00  0.00     0.128 C 
ENDROOT
BRANCH  20  21
HETATM   21  O3  UNL     1      11.002  24.690  33.270  1.00  0.00    -0.381 OA
ATOM     22  H3  UNL     1      10.697  23.791  33.309  1.00  0.00     0.211 HD
ENDBRANCH  20  21
BRANCH  20  23
HETATM   23  C20 UNL     1       8.729  24.663  33.963  1.00  0.00     0.184 C 
HETATM   24  O4  UNL     1       7.671  25.126  33.493  1.00  0.00    -0.292 OA
BRANCH  23  25
HETATM   25  C21 UNL     1       8.585  23.379  34.660  1.00  0.00     0.245 C 
BRANCH  25  26
HETATM   26  O5  UNL     1       9.627  22.490  34.367  1.00  0.00    -0.393 OA
ATOM     27  H5  UNL     1      10.481  22.904  34.409  1.00  0.00     0.209 HD
ENDBRANCH  25  26
ENDBRANCH  23  25
ENDBRANCH  20  23
BRANCH   4  28
HETATM   28  O1  UNL     1      11.108  27.070  37.640  1.00  0.00    -0.395 OA
ATOM     29  H1  UNL     1      11.632  27.632  38.199  1.00  0.00     0.210 HD
ENDBRANCH   4  28
TORSDOF 5
ENDMDL
