MODEL 3
REMARK VINA RESULT: -8.675604011      0.934      1.310
REMARK  5 active torsions:
REMARK  status: ('A' for Active; 'I' for Inactive)
REMARK    1  A    between atoms: C4_4  and  O1_5 
REMARK    2  A    between atoms: C19_22  and  O3_23 
REMARK    3  A    between atoms: C19_22  and  C20_25 
REMARK    4  A    between atoms: C20_25  and  C21_27 
REMARK    5  A    between atoms: C21_27  and  O5_28 
ROOT
HETATM    1  C1  UNL     1       9.169  26.057  35.089  1.00  0.00     0.019 C 
HETATM    2  C2  UNL     1      10.344  25.188  34.831  1.00  0.00     0.001 C 
HETATM    3  C3  UNL     1      10.984  24.615  36.041  1.00  0.00     0.045 C 
HETATM    4  C4  UNL     1      11.595  25.761  36.850  1.00  0.00     0.124 C 
HETATM    5  C5  UNL     1      12.661  26.388  36.041  1.00  0.00     0.031 C 
HETATM    6  C6  UNL     1      12.084  27.023  34.793  1.00  0.00    -0.002 C 
HETATM    7  C7  UNL     1      13.137  27.612  33.886  1.00  0.00     0.010 C 
HETATM    8  C8  UNL     1      14.161  28.454  34.588  1.00  0.00     0.035 C 
HETATM    9  C9  UNL     1      14.652  27.665  35.776  1.00  0.00    -0.068 C 
HETATM   10  C10 UNL     1      15.911  27.344  35.868  1.00  0.00     0.053 C 
HETATM   11  C11 UNL     1      16.370  26.582  37.018  1.00  0.00     0.149 C 
HETATM   12  O2  UNL     1      17.584  26.601  37.313  1.00  0.00    -0.293 OA
HETATM   13  C12 UNL     1      15.327  25.825  37.765  1.00  0.00     0.084 C 
HETATM   14  C13 UNL     1      14.182  26.792  37.985  1.00  0.00     0.022 C 
HETATM   15  C14 UNL     1      13.577  27.332  36.745  1.00  0.00    -0.014 C 
HETATM   16  C15 UNL     1      12.921  28.653  37.100  1.00  0.00     0.020 C 
HETATM   17  C16 UNL     1      11.427  25.924  34.027  1.00  0.00     0.002 C 
HETATM   18  C17 UNL     1      10.621  26.330  32.835  1.00  0.00     0.009 C 
HETATM   19  C18 UNL     1       9.754  25.085  32.592  1.00  0.00     0.047 C 
HETATM   20  C19 UNL     1      10.018  24.169  33.764  1.00  0.00     0.128 C 
ENDROOT
BRANCH  20  21
HETATM   21  O3  UNL     1      11.247  23.535  33.479  1.00  0.00    -0.381 OA
ATOM     22  H3  UNL     1      11.035  22.611  33.411  1.00  0.00     0.211 HD
ENDBRANCH  20  21
BRANCH  20  23
HETATM   23  C20 UNL     1       8.968  23.218  34.073  1.00  0.00     0.184 C 
HETATM   24  O4  UNL     1       9.328  22.195  34.687  1.00  0.00    -0.292 OA
BRANCH  23  25
HETATM   25  C21 UNL     1       7.534  23.283  33.767  1.00  0.00     0.245 C 
BRANCH  25  26
HETATM   26  O5  UNL     1       6.780  23.784  34.836  1.00  0.00    -0.393 OA
ATOM     27  H5  UNL     1       5.849  23.634  34.726  1.00  0.00     0.209 HD
ENDBRANCH  25  26
ENDBRANCH  23  25
ENDBRANCH  20  23
BRANCH   4  28
HETATM   28  O1  UNL     1      10.639  26.596  37.356  1.00  0.00    -0.395 OA
ATOM     29  H1  UNL     1      11.001  27.436  37.614  1.00  0.00     0.210 HD
ENDBRANCH   4  28
TORSDOF 5
ENDMDL
