MODEL 5
REMARK VINA RESULT: -7.568623667      1.729      6.549
REMARK  5 active torsions:
REMARK  status: ('A' for Active; 'I' for Inactive)
REMARK    1  A    between atoms: C4_4  and  O1_5 
REMARK    2  A    between atoms: C19_22  and  O3_23 
REMARK    3  A    between atoms: C19_22  and  C20_25 
REMARK    4  A    between atoms: C20_25  and  C21_27 
REMARK    5  A    between atoms: C21_27  and  O5_28 
ROOT
HETATM    1  C1  UNL     1      12.830  28.515  36.391  1.00  0.00     0.019 C 
HETATM    2  C2  UNL     1      12.808  27.032  36.417  1.00  0.00     0.001 C 
HETATM    3  C3  UNL     1      13.106  26.372  35.122  1.00  0.00     0.045 C 
HETATM    4  C4  UNL     1      11.975  26.701  34.144  1.00  0.00     0.124 C 
HETATM    5  C5  UNL     1      10.723  26.112  34.663  1.00  0.00     0.031 C 
HETATM    6  C6  UNL     1      10.333  26.752  35.979  1.00  0.00    -0.002 C 
HETATM    7  C7  UNL     1       9.101  26.135  36.597  1.00  0.00     0.010 C 
HETATM    8  C8  UNL     1       7.959  25.941  35.644  1.00  0.00     0.035 C 
HETATM    9  C9  UNL     1       8.512  25.266  34.413  1.00  0.00    -0.068 C 
HETATM   10  C10 UNL     1       8.062  24.098  34.054  1.00  0.00     0.053 C 
HETATM   11  C11 UNL     1       8.604  23.459  32.866  1.00  0.00     0.149 C 
HETATM   12  O2  UNL     1       7.942  22.560  32.305  1.00  0.00    -0.293 OA
HETATM   13  C12 UNL     1       9.936  23.943  32.410  1.00  0.00     0.084 C 
HETATM   14  C13 UNL     1       9.858  25.456  32.409  1.00  0.00     0.022 C 
HETATM   15  C14 UNL     1       9.561  26.063  33.728  1.00  0.00    -0.014 C 
HETATM   16  C15 UNL     1       8.940  27.424  33.470  1.00  0.00     0.020 C 
HETATM   17  C16 UNL     1      11.459  26.495  36.922  1.00  0.00     0.002 C 
HETATM   18  C17 UNL     1      11.394  27.188  38.245  1.00  0.00     0.009 C 
HETATM   19  C18 UNL     1      12.847  27.089  38.734  1.00  0.00     0.047 C 
HETATM   20  C19 UNL     1      13.629  26.515  37.576  1.00  0.00     0.128 C 
ENDROOT
BRANCH  20  21
HETATM   21  O3  UNL     1      13.383  25.125  37.605  1.00  0.00    -0.381 OA
ATOM     22  H3  UNL     1      13.142  24.937  38.505  1.00  0.00     0.211 HD
ENDBRANCH  20  21
BRANCH  20  23
HETATM   23  C20 UNL     1      15.046  26.821  37.555  1.00  0.00     0.184 C 
HETATM   24  O4  UNL     1      15.352  27.987  37.873  1.00  0.00    -0.292 OA
BRANCH  23  25
HETATM   25  C21 UNL     1      16.181  25.955  37.214  1.00  0.00     0.245 C 
BRANCH  25  26
HETATM   26  O5  UNL     1      16.343  24.901  38.122  1.00  0.00    -0.393 OA
ATOM     27  H5  UNL     1      16.322  24.051  37.700  1.00  0.00     0.209 HD
ENDBRANCH  25  26
ENDBRANCH  23  25
ENDBRANCH  20  23
BRANCH   4  28
HETATM   28  O1  UNL     1      11.942  28.030  33.830  1.00  0.00    -0.395 OA
ATOM     29  H1  UNL     1      11.057  28.335  33.668  1.00  0.00     0.210 HD
ENDBRANCH   4  28
TORSDOF 5
ENDMDL
