MODEL 4
REMARK VINA RESULT: -7.879894709      1.600      6.594
REMARK  5 active torsions:
REMARK  status: ('A' for Active; 'I' for Inactive)
REMARK    1  A    between atoms: C4_4  and  O1_5 
REMARK    2  A    between atoms: C19_22  and  O3_23 
REMARK    3  A    between atoms: C19_22  and  C20_25 
REMARK    4  A    between atoms: C20_25  and  C21_27 
REMARK    5  A    between atoms: C21_27  and  O5_28 
ROOT
HETATM    1  C1  UNL     1      14.116  28.676  36.410  1.00  0.00     0.019 C 
HETATM    2  C2  UNL     1      13.947  27.208  36.273  1.00  0.00     0.001 C 
HETATM    3  C3  UNL     1      13.947  26.699  34.879  1.00  0.00     0.045 C 
HETATM    4  C4  UNL     1      12.703  27.242  34.170  1.00  0.00     0.124 C 
HETATM    5  C5  UNL     1      11.507  26.693  34.842  1.00  0.00     0.031 C 
HETATM    6  C6  UNL     1      11.418  27.187  36.270  1.00  0.00    -0.002 C 
HETATM    7  C7  UNL     1      10.256  26.597  37.032  1.00  0.00     0.010 C 
HETATM    8  C8  UNL     1       8.952  26.619  36.291  1.00  0.00     0.035 C 
HETATM    9  C9  UNL     1       9.211  26.067  34.911  1.00  0.00    -0.068 C 
HETATM   10  C10 UNL     1       8.588  24.995  34.512  1.00  0.00     0.053 C 
HETATM   11  C11 UNL     1       8.849  24.474  33.180  1.00  0.00     0.149 C 
HETATM   12  O2  UNL     1       8.010  23.711  32.653  1.00  0.00    -0.293 OA
HETATM   13  C12 UNL     1      10.123  24.903  32.543  1.00  0.00     0.084 C 
HETATM   14  C13 UNL     1      10.201  26.405  32.727  1.00  0.00     0.022 C 
HETATM   15  C14 UNL     1      10.202  26.859  34.137  1.00  0.00    -0.014 C 
HETATM   16  C15 UNL     1       9.688  28.287  34.154  1.00  0.00     0.020 C 
HETATM   17  C16 UNL     1      12.659  26.721  36.954  1.00  0.00     0.002 C 
HETATM   18  C17 UNL     1      12.895  27.240  38.336  1.00  0.00     0.009 C 
HETATM   19  C18 UNL     1      14.393  26.962  38.534  1.00  0.00     0.047 C 
HETATM   20  C19 UNL     1      14.899  26.482  37.195  1.00  0.00     0.128 C 
ENDROOT
BRANCH  20  21
HETATM   21  O3  UNL     1      14.521  25.124  37.112  1.00  0.00    -0.381 OA
ATOM     22  H3  UNL     1      13.571  25.135  37.095  1.00  0.00     0.211 HD
ENDBRANCH  20  21
BRANCH  20  23
HETATM   23  C20 UNL     1      16.315  26.673  36.947  1.00  0.00     0.184 C 
HETATM   24  O4  UNL     1      16.922  27.368  37.786  1.00  0.00    -0.292 OA
BRANCH  23  25
HETATM   25  C21 UNL     1      17.145  26.166  35.848  1.00  0.00     0.245 C 
BRANCH  25  26
HETATM   26  O5  UNL     1      18.496  26.508  35.995  1.00  0.00    -0.393 OA
ATOM     27  H5  UNL     1      18.736  26.657  36.902  1.00  0.00     0.209 HD
ENDBRANCH  25  26
ENDBRANCH  23  25
ENDBRANCH  20  23
BRANCH   4  28
HETATM   28  O1  UNL     1      12.752  28.599  34.019  1.00  0.00    -0.395 OA
ATOM     29  H1  UNL     1      12.885  29.044  34.847  1.00  0.00     0.210 HD
ENDBRANCH   4  28
TORSDOF 5
ENDMDL
