MODEL 1
REMARK VINA RESULT: -11.418783590      0.000      0.000
REMARK  9 active torsions:
REMARK  status: ('A' for Active; 'I' for Inactive)
REMARK    1  A    between atoms: N5_13  and  C6_14 
REMARK    2  A    between atoms: C7_16  and  C8_17 
REMARK    3  A    between atoms: C8_17  and  O2_18 
REMARK    4  A    between atoms: O2_18  and  S1_19 
REMARK    5  A    between atoms: S1_19  and  N6_22 
REMARK       I    between atoms: N6_22  and  C9_24 
REMARK    6  A    between atoms: C9_24  and  C10_26 
REMARK    7  A    between atoms: C15_31  and  N7_32 
REMARK    8  A    between atoms: C16_35  and  O8_36 
REMARK    9  A    between atoms: C17_38  and  O9_39 
ROOT
HETATM    1  C6  UNL     1     -22.890   1.778  63.773  1.00  0.00     0.262 C 
HETATM    2  O1  UNL     1     -24.004   0.967  63.923  1.00  0.00    -0.353 OA
HETATM    3  C7  UNL     1     -23.478  -0.251  63.724  1.00  0.00     0.180 C 
HETATM    4  C16 UNL     1     -22.447  -0.251  64.889  1.00  0.00     0.182 C 
HETATM    5  C17 UNL     1     -21.921   1.145  64.791  1.00  0.00     0.198 C 
ENDROOT
BRANCH   3   6
HETATM    6  C8  UNL     1     -24.321  -1.453  63.970  1.00  0.00     0.226 C 
BRANCH   6   7
HETATM    7  O2  UNL     1     -25.171  -1.577  62.835  1.00  0.00    -0.257 OA
BRANCH   7   8
HETATM    8  S1  UNL     1     -26.683  -1.811  63.385  1.00  0.00     0.364 S 
HETATM    9  O3  UNL     1     -27.733  -1.497  62.284  1.00  0.00    -0.175 OA
HETATM   10  O4  UNL     1     -26.833  -3.356  63.450  1.00  0.00    -0.175 OA
BRANCH   8  11
HETATM   11  N6  UNL     1     -27.212  -1.247  64.823  1.00  0.00    -0.227 N 
HETATM   12  C9  UNL     1     -27.436   0.173  65.112  1.00  0.00     0.269 C 
HETATM   13  O5  UNL     1     -26.994   0.986  64.312  1.00  0.00    -0.267 OA
ATOM     14  H6  UNL     1     -27.399  -1.923  65.565  1.00  0.00     0.184 HD
BRANCH  12  15
HETATM   15  C10 UNL     1     -28.222   0.584  66.358  1.00  0.00     0.066 A 
HETATM   16  C11 UNL     1     -28.847  -0.434  66.953  1.00  0.00     0.020 A 
HETATM   17  C12 UNL     1     -29.163  -0.235  68.308  1.00  0.00     0.001 A 
HETATM   18  C13 UNL     1     -28.839   0.969  68.873  1.00  0.00     0.002 A 
HETATM   19  C14 UNL     1     -28.268   1.973  68.153  1.00  0.00     0.037 A 
HETATM   20  C15 UNL     1     -27.924   1.797  66.799  1.00  0.00     0.118 A 
BRANCH  20  21
HETATM   21  N7  UNL     1     -27.668   2.932  66.037  1.00  0.00    -0.115 N 
HETATM   22  O6  UNL     1     -28.486   3.286  65.110  1.00  0.00    -0.532 OA
HETATM   23  O7  UNL     1     -26.660   3.735  66.333  1.00  0.00    -0.532 OA
ENDBRANCH  20  21
ENDBRANCH  12  15
ENDBRANCH   8  11
ENDBRANCH   7   8
ENDBRANCH   6   7
ENDBRANCH   3   6
BRANCH   4  24
HETATM   24  O8  UNL     1     -21.403  -1.099  64.723  1.00  0.00    -0.390 OA
ATOM     25  H8  UNL     1     -21.034  -1.108  63.847  1.00  0.00     0.210 HD
ENDBRANCH   4  24
BRANCH   1  26
HETATM   26  N5  UNL     1     -23.047   3.080  64.362  1.00  0.00    -0.297 N 
HETATM   27  C3  UNL     1     -22.226   4.112  64.074  1.00  0.00     0.142 A 
HETATM   28  N3  UNL     1     -21.059   4.180  63.397  1.00  0.00    -0.336 N 
HETATM   29  C4  UNL     1     -22.619   5.226  64.841  1.00  0.00     0.119 A 
HETATM   30  C2  UNL     1     -20.211   5.277  63.466  1.00  0.00     0.183 A 
ATOM     31  H3  UNL     1     -20.789   3.391  62.810  1.00  0.00     0.168 HD
HETATM   32  N2  UNL     1     -20.650   6.268  64.214  1.00  0.00    -0.339 N 
HETATM   33  C1  UNL     1     -21.742   6.255  64.863  1.00  0.00     0.148 A 
ATOM     34  H2  UNL     1     -20.072   7.105  64.277  1.00  0.00     0.167 HD
HETATM   35  N1  UNL     1     -21.986   7.353  65.782  1.00  0.00    -0.080 NA
HETATM   36  N4  UNL     1     -23.747   4.884  65.459  1.00  0.00    -0.346 N 
HETATM   37  C5  UNL     1     -23.959   3.560  65.196  1.00  0.00     0.188 A 
ATOM     38  H4  UNL     1     -24.340   5.494  66.022  1.00  0.00     0.167 HD
ENDBRANCH   1  26
BRANCH   5  39
HETATM   39  O9  UNL     1     -20.625   1.188  64.314  1.00  0.00    -0.388 OA
ATOM     40  H9  UNL     1     -20.305   0.310  64.145  1.00  0.00     0.210 HD
ENDBRANCH   5  39
TORSDOF 9
ENDMDL
