MODEL 6
REMARK VINA RESULT: -10.173549236      3.870      5.527
REMARK  9 active torsions:
REMARK  status: ('A' for Active; 'I' for Inactive)
REMARK    1  A    between atoms: N5_13  and  C6_14 
REMARK    2  A    between atoms: C7_16  and  C8_17 
REMARK    3  A    between atoms: C8_17  and  O2_18 
REMARK    4  A    between atoms: O2_18  and  S1_19 
REMARK    5  A    between atoms: S1_19  and  N6_22 
REMARK       I    between atoms: N6_22  and  C9_24 
REMARK    6  A    between atoms: C9_24  and  C10_26 
REMARK    7  A    between atoms: C15_31  and  N7_32 
REMARK    8  A    between atoms: C16_35  and  O8_36 
REMARK    9  A    between atoms: C17_38  and  O9_39 
ROOT
HETATM    1  C6  UNL     1     -22.624   0.960  63.125  1.00  0.00     0.262 C 
HETATM    2  O1  UNL     1     -23.971   0.854  63.433  1.00  0.00    -0.353 OA
HETATM    3  C7  UNL     1     -24.116  -0.474  63.552  1.00  0.00     0.180 C 
HETATM    4  C16 UNL     1     -23.108  -0.714  64.713  1.00  0.00     0.182 C 
HETATM    5  C17 UNL     1     -21.988   0.184  64.296  1.00  0.00     0.198 C 
ENDROOT
BRANCH   3   6
HETATM    6  C8  UNL     1     -25.405  -1.021  64.056  1.00  0.00     0.226 C 
BRANCH   6   7
HETATM    7  O2  UNL     1     -26.174  -1.343  62.903  1.00  0.00    -0.257 OA
BRANCH   7   8
HETATM    8  S1  UNL     1     -27.142  -2.588  63.299  1.00  0.00     0.364 S 
HETATM    9  O3  UNL     1     -26.347  -3.704  64.032  1.00  0.00    -0.175 OA
HETATM   10  O4  UNL     1     -27.988  -2.054  64.489  1.00  0.00    -0.175 OA
BRANCH   8  11
HETATM   11  N6  UNL     1     -28.205  -3.265  62.261  1.00  0.00    -0.227 N 
HETATM   12  C9  UNL     1     -28.741  -2.582  61.079  1.00  0.00     0.269 C 
HETATM   13  O5  UNL     1     -28.553  -1.377  60.993  1.00  0.00    -0.267 OA
ATOM     14  H6  UNL     1     -28.514  -4.220  62.445  1.00  0.00     0.184 HD
BRANCH  12  15
HETATM   15  C10 UNL     1     -29.473  -3.383  60.001  1.00  0.00     0.066 A 
HETATM   16  C11 UNL     1     -28.881  -3.333  58.806  1.00  0.00     0.020 A 
HETATM   17  C12 UNL     1     -29.199  -4.388  57.934  1.00  0.00     0.001 A 
HETATM   18  C13 UNL     1     -30.092  -5.332  58.366  1.00  0.00     0.002 A 
HETATM   19  C14 UNL     1     -30.698  -5.247  59.581  1.00  0.00     0.037 A 
HETATM   20  C15 UNL     1     -30.387  -4.211  60.483  1.00  0.00     0.118 A 
BRANCH  20  21
HETATM   21  N7  UNL     1     -31.261  -3.981  61.540  1.00  0.00    -0.115 N 
HETATM   22  O6  UNL     1     -32.505  -3.748  61.309  1.00  0.00    -0.532 OA
HETATM   23  O7  UNL     1     -30.864  -4.123  62.792  1.00  0.00    -0.532 OA
ENDBRANCH  20  21
ENDBRANCH  12  15
ENDBRANCH   8  11
ENDBRANCH   7   8
ENDBRANCH   6   7
ENDBRANCH   3   6
BRANCH   4  24
HETATM   24  O8  UNL     1     -22.621  -1.976  64.790  1.00  0.00    -0.390 OA
ATOM     25  H8  UNL     1     -21.870  -2.078  65.364  1.00  0.00     0.210 HD
ENDBRANCH   4  24
BRANCH   1  26
HETATM   26  N5  UNL     1     -22.081   2.268  63.375  1.00  0.00    -0.297 N 
HETATM   27  C3  UNL     1     -22.628   3.123  64.264  1.00  0.00     0.142 A 
HETATM   28  N3  UNL     1     -23.792   3.098  64.948  1.00  0.00    -0.336 N 
HETATM   29  C4  UNL     1     -21.892   4.324  64.242  1.00  0.00     0.119 A 
HETATM   30  C2  UNL     1     -24.316   4.215  65.585  1.00  0.00     0.183 A 
ATOM     31  H3  UNL     1     -24.308   2.220  64.999  1.00  0.00     0.168 HD
HETATM   32  N2  UNL     1     -23.570   5.297  65.504  1.00  0.00    -0.339 N 
HETATM   33  C1  UNL     1     -22.466   5.369  64.880  1.00  0.00     0.148 A 
ATOM     34  H2  UNL     1     -23.902   6.137  65.977  1.00  0.00     0.167 HD
HETATM   35  N1  UNL     1     -21.864   6.683  64.736  1.00  0.00    -0.080 NA
HETATM   36  N4  UNL     1     -20.842   4.113  63.451  1.00  0.00    -0.346 N 
HETATM   37  C5  UNL     1     -21.006   2.876  62.894  1.00  0.00     0.188 A 
ATOM     38  H4  UNL     1     -20.063   4.753  63.292  1.00  0.00     0.167 HD
ENDBRANCH   1  26
BRANCH   5  39
HETATM   39  O9  UNL     1     -20.881  -0.520  63.862  1.00  0.00    -0.388 OA
ATOM     40  H9  UNL     1     -21.140  -1.207  63.259  1.00  0.00     0.210 HD
ENDBRANCH   5  39
TORSDOF 9
ENDMDL
