MODEL 8
REMARK VINA RESULT: -10.028573369      3.798      5.275
REMARK  9 active torsions:
REMARK  status: ('A' for Active; 'I' for Inactive)
REMARK    1  A    between atoms: N5_13  and  C6_14 
REMARK    2  A    between atoms: C7_16  and  C8_17 
REMARK    3  A    between atoms: C8_17  and  O2_18 
REMARK    4  A    between atoms: O2_18  and  S1_19 
REMARK    5  A    between atoms: S1_19  and  N6_22 
REMARK       I    between atoms: N6_22  and  C9_24 
REMARK    6  A    between atoms: C9_24  and  C10_26 
REMARK    7  A    between atoms: C15_31  and  N7_32 
REMARK    8  A    between atoms: C16_35  and  O8_36 
REMARK    9  A    between atoms: C17_38  and  O9_39 
ROOT
HETATM    1  C6  UNL     1     -22.414  -0.007  63.174  1.00  0.00     0.262 C 
HETATM    2  O1  UNL     1     -23.568  -0.407  62.517  1.00  0.00    -0.353 OA
HETATM    3  C7  UNL     1     -23.553  -1.731  62.732  1.00  0.00     0.180 C 
HETATM    4  C16 UNL     1     -23.599  -1.714  64.288  1.00  0.00     0.182 C 
HETATM    5  C17 UNL     1     -22.650  -0.596  64.578  1.00  0.00     0.198 C 
ENDROOT
BRANCH   3   6
HETATM    6  C8  UNL     1     -24.735  -2.543  62.332  1.00  0.00     0.226 C 
BRANCH   6   7
HETATM    7  O2  UNL     1     -25.879  -1.781  62.701  1.00  0.00    -0.257 OA
BRANCH   7   8
HETATM    8  S1  UNL     1     -26.865  -2.764  63.541  1.00  0.00     0.364 S 
HETATM    9  O3  UNL     1     -26.078  -3.958  64.150  1.00  0.00    -0.175 OA
HETATM   10  O4  UNL     1     -27.179  -1.974  64.841  1.00  0.00    -0.175 OA
BRANCH   8  11
HETATM   11  N6  UNL     1     -28.304  -3.289  62.975  1.00  0.00    -0.227 N 
HETATM   12  C9  UNL     1     -28.856  -2.911  61.670  1.00  0.00     0.269 C 
HETATM   13  O5  UNL     1     -28.317  -1.988  61.078  1.00  0.00    -0.267 OA
ATOM     14  H6  UNL     1     -28.851  -3.918  63.565  1.00  0.00     0.184 HD
BRANCH  12  15
HETATM   15  C10 UNL     1     -30.042  -3.685  61.090  1.00  0.00     0.066 A 
HETATM   16  C11 UNL     1     -30.816  -4.248  62.020  1.00  0.00     0.020 A 
HETATM   17  C12 UNL     1     -32.129  -4.539  61.612  1.00  0.00     0.001 A 
HETATM   18  C13 UNL     1     -32.477  -4.256  60.319  1.00  0.00     0.002 A 
HETATM   19  C14 UNL     1     -31.584  -3.749  59.426  1.00  0.00     0.037 A 
HETATM   20  C15 UNL     1     -30.267  -3.430  59.810  1.00  0.00     0.118 A 
BRANCH  20  21
HETATM   21  N7  UNL     1     -29.322  -3.245  58.808  1.00  0.00    -0.115 N 
HETATM   22  O6  UNL     1     -28.590  -4.229  58.420  1.00  0.00    -0.532 OA
HETATM   23  O7  UNL     1     -29.246  -2.101  58.150  1.00  0.00    -0.532 OA
ENDBRANCH  20  21
ENDBRANCH  12  15
ENDBRANCH   8  11
ENDBRANCH   7   8
ENDBRANCH   6   7
ENDBRANCH   3   6
BRANCH   4  24
HETATM   24  O8  UNL     1     -23.116  -2.832  64.881  1.00  0.00    -0.390 OA
ATOM     25  H8  UNL     1     -22.174  -2.839  65.009  1.00  0.00     0.210 HD
ENDBRANCH   4  24
BRANCH   1  26
HETATM   26  N5  UNL     1     -22.396   1.394  63.495  1.00  0.00    -0.297 N 
HETATM   27  C3  UNL     1     -21.501   2.251  62.960  1.00  0.00     0.142 A 
HETATM   28  N3  UNL     1     -20.389   2.054  62.220  1.00  0.00    -0.336 N 
HETATM   29  C4  UNL     1     -21.722   3.530  63.507  1.00  0.00     0.119 A 
HETATM   30  C2  UNL     1     -19.434   3.042  62.019  1.00  0.00     0.183 A 
ATOM     31  H3  UNL     1     -20.245   1.141  61.790  1.00  0.00     0.168 HD
HETATM   32  N2  UNL     1     -19.713   4.202  62.574  1.00  0.00    -0.339 N 
HETATM   33  C1  UNL     1     -20.748   4.439  63.272  1.00  0.00     0.148 A 
ATOM     34  H2  UNL     1     -19.052   4.965  62.434  1.00  0.00     0.167 HD
HETATM   35  N1  UNL     1     -20.811   5.715  63.963  1.00  0.00    -0.080 NA
HETATM   36  N4  UNL     1     -22.827   3.444  64.244  1.00  0.00    -0.346 N 
HETATM   37  C5  UNL     1     -23.189   2.126  64.265  1.00  0.00     0.188 A 
ATOM     38  H4  UNL     1     -23.312   4.215  64.704  1.00  0.00     0.167 HD
ENDBRANCH   1  26
BRANCH   5  39
HETATM   39  O9  UNL     1     -21.460  -1.041  65.120  1.00  0.00    -0.388 OA
ATOM     40  H9  UNL     1     -21.587  -1.310  66.022  1.00  0.00     0.210 HD
ENDBRANCH   5  39
TORSDOF 9
ENDMDL
