MODEL 5
REMARK VINA RESULT: -10.190626596      3.975      5.486
REMARK  9 active torsions:
REMARK  status: ('A' for Active; 'I' for Inactive)
REMARK    1  A    between atoms: N5_13  and  C6_14 
REMARK    2  A    between atoms: C7_16  and  C8_17 
REMARK    3  A    between atoms: C8_17  and  O2_18 
REMARK    4  A    between atoms: O2_18  and  S1_19 
REMARK    5  A    between atoms: S1_19  and  N6_22 
REMARK       I    between atoms: N6_22  and  C9_24 
REMARK    6  A    between atoms: C9_24  and  C10_26 
REMARK    7  A    between atoms: C15_31  and  N7_32 
REMARK    8  A    between atoms: C16_35  and  O8_36 
REMARK    9  A    between atoms: C17_38  and  O9_39 
ROOT
HETATM    1  C6  UNL     1     -23.095   1.077  63.406  1.00  0.00     0.262 C 
HETATM    2  O1  UNL     1     -24.382   0.657  63.705  1.00  0.00    -0.353 OA
HETATM    3  C7  UNL     1     -24.248  -0.676  63.646  1.00  0.00     0.180 C 
HETATM    4  C16 UNL     1     -23.175  -0.852  64.760  1.00  0.00     0.182 C 
HETATM    5  C17 UNL     1     -22.276   0.304  64.459  1.00  0.00     0.198 C 
ENDROOT
BRANCH   3   6
HETATM    6  C8  UNL     1     -25.382  -1.538  64.081  1.00  0.00     0.226 C 
BRANCH   6   7
HETATM    7  O2  UNL     1     -26.230  -1.674  62.946  1.00  0.00    -0.257 OA
BRANCH   7   8
HETATM    8  S1  UNL     1     -27.327  -2.822  63.296  1.00  0.00     0.364 S 
HETATM    9  O3  UNL     1     -26.688  -3.972  64.122  1.00  0.00    -0.175 OA
HETATM   10  O4  UNL     1     -28.217  -2.180  64.397  1.00  0.00    -0.175 OA
BRANCH   8  11
HETATM   11  N6  UNL     1     -28.357  -3.446  62.193  1.00  0.00    -0.227 N 
HETATM   12  C9  UNL     1     -28.838  -2.713  61.018  1.00  0.00     0.269 C 
HETATM   13  O5  UNL     1     -28.632  -1.509  60.983  1.00  0.00    -0.267 OA
ATOM     14  H6  UNL     1     -28.685  -4.403  62.330  1.00  0.00     0.184 HD
BRANCH  12  15
HETATM   15  C10 UNL     1     -29.537  -3.465  59.883  1.00  0.00     0.066 A 
HETATM   16  C11 UNL     1     -28.897  -3.382  58.716  1.00  0.00     0.020 A 
HETATM   17  C12 UNL     1     -29.195  -4.401  57.795  1.00  0.00     0.001 A 
HETATM   18  C13 UNL     1     -30.118  -5.345  58.157  1.00  0.00     0.002 A 
HETATM   19  C14 UNL     1     -30.771  -5.294  59.350  1.00  0.00     0.037 A 
HETATM   20  C15 UNL     1     -30.481  -4.295  60.300  1.00  0.00     0.118 A 
BRANCH  20  21
HETATM   21  N7  UNL     1     -31.394  -4.088  61.328  1.00  0.00    -0.115 N 
HETATM   22  O6  UNL     1     -32.630  -3.858  61.058  1.00  0.00    -0.532 OA
HETATM   23  O7  UNL     1     -31.041  -4.250  62.591  1.00  0.00    -0.532 OA
ENDBRANCH  20  21
ENDBRANCH  12  15
ENDBRANCH   8  11
ENDBRANCH   7   8
ENDBRANCH   6   7
ENDBRANCH   3   6
BRANCH   4  24
HETATM   24  O8  UNL     1     -22.438  -1.984  64.664  1.00  0.00    -0.390 OA
ATOM     25  H8  UNL     1     -21.676  -2.012  65.231  1.00  0.00     0.210 HD
ENDBRANCH   4  24
BRANCH   1  26
HETATM   26  N5  UNL     1     -22.822   2.425  63.825  1.00  0.00    -0.297 N 
HETATM   27  C3  UNL     1     -21.874   3.190  63.243  1.00  0.00     0.142 A 
HETATM   28  N3  UNL     1     -20.900   2.903  62.353  1.00  0.00    -0.336 N 
HETATM   29  C4  UNL     1     -21.829   4.431  63.907  1.00  0.00     0.119 A 
HETATM   30  C2  UNL     1     -19.833   3.756  62.104  1.00  0.00     0.183 A 
ATOM     31  H3  UNL     1     -20.950   2.022  61.842  1.00  0.00     0.168 HD
HETATM   32  N2  UNL     1     -19.863   4.888  62.775  1.00  0.00    -0.339 N 
HETATM   33  C1  UNL     1     -20.760   5.207  63.616  1.00  0.00     0.148 A 
ATOM     34  H2  UNL     1     -19.112   5.557  62.607  1.00  0.00     0.167 HD
HETATM   35  N1  UNL     1     -20.543   6.410  64.401  1.00  0.00    -0.080 NA
HETATM   36  N4  UNL     1     -22.840   4.438  64.772  1.00  0.00    -0.346 N 
HETATM   37  C5  UNL     1     -23.396   3.190  64.743  1.00  0.00     0.188 A 
ATOM     38  H4  UNL     1     -23.143   5.225  65.347  1.00  0.00     0.167 HD
ENDBRANCH   1  26
BRANCH   5  39
HETATM   39  O9  UNL     1     -21.063  -0.094  63.929  1.00  0.00    -0.388 OA
ATOM     40  H9  UNL     1     -20.522  -0.489  64.602  1.00  0.00     0.210 HD
ENDBRANCH   5  39
TORSDOF 9
ENDMDL
