MODEL 14
REMARK VINA RESULT: -9.275831843      1.587      1.921
REMARK  10 active torsions:
REMARK  status: ('A' for Active; 'I' for Inactive)
REMARK    1  A    between atoms: N4_10  and  C5_11 
REMARK    2  A    between atoms: C6_13  and  C7_14 
REMARK    3  A    between atoms: C7_14  and  O2_15 
REMARK    4  A    between atoms: O2_15  and  P1_16 
REMARK    5  A    between atoms: P1_16  and  O5_19 
REMARK    6  A    between atoms: O5_19  and  P2_20 
REMARK    7  A    between atoms: P2_20  and  O8_23 
REMARK    8  A    between atoms: O8_23  and  P3_24 
REMARK    9  A    between atoms: C8_28  and  O12_29 
REMARK   10  A    between atoms: C9_31  and  O13_32 
ROOT
HETATM    1  C5  UNL     1       3.395   4.490  50.841  1.00  0.00     0.262 C 
HETATM    2  O1  UNL     1       3.930   5.547  50.109  1.00  0.00    -0.353 OA
HETATM    3  C6  UNL     1       3.272   5.555  48.889  1.00  0.00     0.180 C 
HETATM    4  C8  UNL     1       1.836   5.343  49.321  1.00  0.00     0.182 C 
HETATM    5  C9  UNL     1       2.046   4.206  50.328  1.00  0.00     0.198 C 
ENDROOT
BRANCH   1   6
HETATM    6  N4  UNL     1       3.512   4.777  52.225  1.00  0.00    -0.297 N 
HETATM    7  C2  UNL     1       3.755   3.972  53.273  1.00  0.00     0.146 A 
HETATM    8  N2  UNL     1       3.956   2.661  53.309  1.00  0.00    -0.314 N 
HETATM    9  C3  UNL     1       3.778   4.710  54.412  1.00  0.00     0.146 A 
HETATM   10  C1  UNL     1       4.188   2.017  54.468  1.00  0.00     0.196 A 
ATOM     11  H2  UNL     1       3.935   2.129  52.438  1.00  0.00     0.170 HD
HETATM   12  N1  UNL     1       4.407   0.613  54.545  1.00  0.00    -0.063 NA
HETATM   13  N5  UNL     1       4.218   2.718  55.618  1.00  0.00    -0.295 N 
HETATM   14  C10 UNL     1       4.019   4.049  55.621  1.00  0.00     0.278 A 
ATOM     15  H5  UNL     1       4.393   2.233  56.498  1.00  0.00     0.171 HD
HETATM   16  O14 UNL     1       4.038   4.736  56.668  1.00  0.00    -0.265 OA
HETATM   17  N3  UNL     1       3.549   5.977  54.069  1.00  0.00    -0.345 N 
HETATM   18  C4  UNL     1       3.390   6.010  52.753  1.00  0.00     0.188 A 
ATOM     19  H3  UNL     1       3.503   6.776  54.702  1.00  0.00     0.167 HD
ENDBRANCH   1   6
BRANCH   5  20
HETATM   20  O13 UNL     1       2.013   3.026  49.548  1.00  0.00    -0.388 OA
ATOM     21  H13 UNL     1       1.625   2.299  50.020  1.00  0.00     0.210 HD
ENDBRANCH   5  20
BRANCH   3  22
HETATM   22  C7  UNL     1       3.473   6.888  48.210  1.00  0.00     0.216 C 
BRANCH  22  23
HETATM   23  O2  UNL     1       2.314   7.130  47.457  1.00  0.00    -0.287 OA
BRANCH  23  24
HETATM   24  P1  UNL     1       1.824   8.722  47.521  1.00  0.00     0.417 P 
HETATM   25  O3  UNL     1       0.828   8.886  48.651  1.00  0.00    -0.624 OA
HETATM   26  O4  UNL     1       1.138   9.257  46.075  1.00  0.00    -0.624 OA
BRANCH  24  27
HETATM   27  O5  UNL     1       3.179   9.666  47.939  1.00  0.00    -0.180 OA
BRANCH  27  28
HETATM   28  P2  UNL     1       3.933  10.245  46.531  1.00  0.00     0.428 P 
HETATM   29  O6  UNL     1       5.333  10.705  46.820  1.00  0.00    -0.624 OA
HETATM   30  O7  UNL     1       2.987  11.476  45.845  1.00  0.00    -0.624 OA
BRANCH  28  31
HETATM   31  O8  UNL     1       3.929   8.959  45.407  1.00  0.00    -0.173 OA
BRANCH  31  32
HETATM   32  P3  UNL     1       4.164   9.575  43.836  1.00  0.00     0.431 P 
HETATM   33  O9  UNL     1       5.024  10.818  43.857  1.00  0.00    -0.616 OA
HETATM   34  O10 UNL     1       2.696   9.940  43.102  1.00  0.00    -0.616 OA
HETATM   35  O11 UNL     1       4.980   8.405  42.916  1.00  0.00    -0.616 OA
ENDBRANCH  31  32
ENDBRANCH  28  31
ENDBRANCH  27  28
ENDBRANCH  24  27
ENDBRANCH  23  24
ENDBRANCH  22  23
ENDBRANCH   3  22
BRANCH   4  36
HETATM   36  O12 UNL     1       1.025   4.951  48.277  1.00  0.00    -0.390 OA
ATOM     37  H12 UNL     1       0.229   5.466  48.224  1.00  0.00     0.210 HD
ENDBRANCH   4  36
TORSDOF 10
ENDMDL
