MODEL 7
REMARK VINA RESULT: -9.517032841      4.174      5.348
REMARK  10 active torsions:
REMARK  status: ('A' for Active; 'I' for Inactive)
REMARK    1  A    between atoms: N4_10  and  C5_11 
REMARK    2  A    between atoms: C6_13  and  C7_14 
REMARK    3  A    between atoms: C7_14  and  O2_15 
REMARK    4  A    between atoms: O2_15  and  P1_16 
REMARK    5  A    between atoms: P1_16  and  O5_19 
REMARK    6  A    between atoms: O5_19  and  P2_20 
REMARK    7  A    between atoms: P2_20  and  O8_23 
REMARK    8  A    between atoms: O8_23  and  P3_24 
REMARK    9  A    between atoms: C8_28  and  O12_29 
REMARK   10  A    between atoms: C9_31  and  O13_32 
ROOT
HETATM    1  C5  UNL     1       5.783   4.254  48.625  1.00  0.00     0.262 C 
HETATM    2  O1  UNL     1       5.506   5.441  49.299  1.00  0.00    -0.353 OA
HETATM    3  C6  UNL     1       4.188   5.761  49.009  1.00  0.00     0.180 C 
HETATM    4  C8  UNL     1       3.513   4.414  49.161  1.00  0.00     0.182 C 
HETATM    5  C9  UNL     1       4.516   3.545  48.393  1.00  0.00     0.198 C 
ENDROOT
BRANCH   1   6
HETATM    6  N4  UNL     1       6.798   3.550  49.324  1.00  0.00    -0.297 N 
HETATM    7  C2  UNL     1       8.117   3.782  49.426  1.00  0.00     0.146 A 
HETATM    8  N2  UNL     1       8.854   4.749  48.894  1.00  0.00    -0.314 N 
HETATM    9  C3  UNL     1       8.682   2.830  50.211  1.00  0.00     0.146 A 
HETATM   10  C1  UNL     1      10.180   4.822  49.111  1.00  0.00     0.196 A 
ATOM     11  H2  UNL     1       8.405   5.454  48.309  1.00  0.00     0.170 HD
HETATM   12  N1  UNL     1      11.002   5.842  48.557  1.00  0.00    -0.063 NA
HETATM   13  N5  UNL     1      10.774   3.892  49.884  1.00  0.00    -0.295 N 
HETATM   14  C10 UNL     1      10.060   2.897  50.441  1.00  0.00     0.278 A 
ATOM     15  H5  UNL     1      11.780   3.944  50.050  1.00  0.00     0.171 HD
HETATM   16  O14 UNL     1      10.574   2.015  51.166  1.00  0.00    -0.265 OA
HETATM   17  N3  UNL     1       7.709   2.005  50.596  1.00  0.00    -0.345 N 
HETATM   18  C4  UNL     1       6.580   2.444  50.059  1.00  0.00     0.188 A 
ATOM     19  H3  UNL     1       7.813   1.185  51.195  1.00  0.00     0.167 HD
ENDBRANCH   1   6
BRANCH   5  20
HETATM   20  O13 UNL     1       4.102   3.631  47.042  1.00  0.00    -0.388 OA
ATOM     21  H13 UNL     1       4.432   4.414  46.618  1.00  0.00     0.210 HD
ENDBRANCH   5  20
BRANCH   3  22
HETATM   22  C7  UNL     1       3.677   6.772  50.006  1.00  0.00     0.216 C 
BRANCH  22  23
HETATM   23  O2  UNL     1       2.354   7.059  49.640  1.00  0.00    -0.287 OA
BRANCH  23  24
HETATM   24  P1  UNL     1       2.255   8.188  48.417  1.00  0.00     0.417 P 
HETATM   25  O3  UNL     1       1.566   9.429  48.947  1.00  0.00    -0.624 OA
HETATM   26  O4  UNL     1       1.430   7.615  47.060  1.00  0.00    -0.624 OA
BRANCH  24  27
HETATM   27  O5  UNL     1       3.841   8.659  48.014  1.00  0.00    -0.180 OA
BRANCH  27  28
HETATM   28  P2  UNL     1       3.800   9.814  46.770  1.00  0.00     0.428 P 
HETATM   29  O6  UNL     1       5.025  10.682  46.799  1.00  0.00    -0.624 OA
HETATM   30  O7  UNL     1       2.373  10.726  46.888  1.00  0.00    -0.624 OA
BRANCH  28  31
HETATM   31  O8  UNL     1       3.692   8.950  45.300  1.00  0.00    -0.173 OA
BRANCH  31  32
HETATM   32  P3  UNL     1       3.893  10.025  43.993  1.00  0.00     0.431 P 
HETATM   33  O9  UNL     1       5.334  10.074  43.539  1.00  0.00    -0.616 OA
HETATM   34  O10 UNL     1       3.396  11.578  44.401  1.00  0.00    -0.616 OA
HETATM   35  O11 UNL     1       2.967   9.460  42.686  1.00  0.00    -0.616 OA
ENDBRANCH  31  32
ENDBRANCH  28  31
ENDBRANCH  27  28
ENDBRANCH  24  27
ENDBRANCH  23  24
ENDBRANCH  22  23
ENDBRANCH   3  22
BRANCH   4  36
HETATM   36  O12 UNL     1       2.264   4.383  48.576  1.00  0.00    -0.390 OA
ATOM     37  H12 UNL     1       2.309   4.339  47.628  1.00  0.00     0.210 HD
ENDBRANCH   4  36
TORSDOF 10
ENDMDL
