MODEL 1
REMARK VINA RESULT: -10.458504015      0.000      0.000
REMARK  10 active torsions:
REMARK  status: ('A' for Active; 'I' for Inactive)
REMARK    1  A    between atoms: N4_10  and  C5_11 
REMARK    2  A    between atoms: C6_13  and  C7_14 
REMARK    3  A    between atoms: C7_14  and  O2_15 
REMARK    4  A    between atoms: O2_15  and  P1_16 
REMARK    5  A    between atoms: P1_16  and  O5_19 
REMARK    6  A    between atoms: O5_19  and  P2_20 
REMARK    7  A    between atoms: P2_20  and  O8_23 
REMARK    8  A    between atoms: O8_23  and  P3_24 
REMARK    9  A    between atoms: C8_28  and  O12_29 
REMARK   10  A    between atoms: C9_31  and  O13_32 
ROOT
HETATM    1  C5  UNL     1       3.392   5.288  51.631  1.00  0.00     0.262 C 
HETATM    2  O1  UNL     1       3.685   5.990  50.464  1.00  0.00    -0.353 OA
HETATM    3  C6  UNL     1       3.176   5.241  49.415  1.00  0.00     0.180 C 
HETATM    4  C8  UNL     1       1.818   4.848  49.959  1.00  0.00     0.182 C 
HETATM    5  C9  UNL     1       2.231   4.422  51.372  1.00  0.00     0.198 C 
ENDROOT
BRANCH   1   6
HETATM    6  N4  UNL     1       3.287   6.204  52.709  1.00  0.00    -0.297 N 
HETATM    7  C2  UNL     1       3.484   6.036  54.028  1.00  0.00     0.146 A 
HETATM    8  N2  UNL     1       3.839   4.950  54.702  1.00  0.00    -0.314 N 
HETATM    9  C3  UNL     1       3.264   7.211  54.670  1.00  0.00     0.146 A 
HETATM   10  C1  UNL     1       3.991   4.971  56.040  1.00  0.00     0.196 A 
ATOM     11  H2  UNL     1       3.999   4.078  54.197  1.00  0.00     0.170 HD
HETATM   12  N1  UNL     1       4.368   3.827  56.797  1.00  0.00    -0.063 NA
HETATM   13  N5  UNL     1       3.780   6.121  56.709  1.00  0.00    -0.295 N 
HETATM   14  C10 UNL     1       3.420   7.243  56.059  1.00  0.00     0.278 A 
ATOM     15  H5  UNL     1       3.894   6.142  57.723  1.00  0.00     0.171 HD
HETATM   16  O14 UNL     1       3.215   8.331  56.644  1.00  0.00    -0.265 OA
HETATM   17  N3  UNL     1       2.928   8.111  53.745  1.00  0.00    -0.345 N 
HETATM   18  C4  UNL     1       2.944   7.498  52.570  1.00  0.00     0.188 A 
ATOM     19  H3  UNL     1       2.701   9.091  53.911  1.00  0.00     0.167 HD
ENDBRANCH   1   6
BRANCH   5  20
HETATM   20  O13 UNL     1       2.604   3.063  51.243  1.00  0.00    -0.388 OA
ATOM     21  H13 UNL     1       1.914   2.542  50.849  1.00  0.00     0.210 HD
ENDBRANCH   5  20
BRANCH   3  22
HETATM   22  C7  UNL     1       3.068   6.102  48.179  1.00  0.00     0.216 C 
BRANCH  22  23
HETATM   23  O2  UNL     1       1.813   6.726  48.237  1.00  0.00    -0.287 OA
BRANCH  23  24
HETATM   24  P1  UNL     1       1.875   8.339  47.822  1.00  0.00     0.417 P 
HETATM   25  O3  UNL     1       1.217   9.155  48.916  1.00  0.00    -0.624 OA
HETATM   26  O4  UNL     1       1.131   8.666  46.343  1.00  0.00    -0.624 OA
BRANCH  24  27
HETATM   27  O5  UNL     1       3.513   8.807  47.797  1.00  0.00    -0.180 OA
BRANCH  27  28
HETATM   28  P2  UNL     1       3.768   9.943  46.561  1.00  0.00     0.428 P 
HETATM   29  O6  UNL     1       5.152  10.521  46.638  1.00  0.00    -0.624 OA
HETATM   30  O7  UNL     1       2.572  11.145  46.638  1.00  0.00    -0.624 OA
BRANCH  28  31
HETATM   31  O8  UNL     1       3.525   9.123  45.082  1.00  0.00    -0.173 OA
BRANCH  31  32
HETATM   32  P3  UNL     1       3.874  10.173  43.786  1.00  0.00     0.431 P 
HETATM   33  O9  UNL     1       5.353  10.191  43.476  1.00  0.00    -0.616 OA
HETATM   34  O10 UNL     1       3.367  11.741  44.122  1.00  0.00    -0.616 OA
HETATM   35  O11 UNL     1       3.070   9.604  42.403  1.00  0.00    -0.616 OA
ENDBRANCH  31  32
ENDBRANCH  28  31
ENDBRANCH  27  28
ENDBRANCH  24  27
ENDBRANCH  23  24
ENDBRANCH  22  23
ENDBRANCH   3  22
BRANCH   4  36
HETATM   36  O12 UNL     1       1.255   3.801  49.259  1.00  0.00    -0.390 OA
ATOM     37  H12 UNL     1       0.865   4.082  48.439  1.00  0.00     0.210 HD
ENDBRANCH   4  36
TORSDOF 10
ENDMDL
