MODEL 11
REMARK VINA RESULT: -9.362561517      3.791      5.035
REMARK  10 active torsions:
REMARK  status: ('A' for Active; 'I' for Inactive)
REMARK    1  A    between atoms: N4_10  and  C5_11 
REMARK    2  A    between atoms: C6_13  and  C7_14 
REMARK    3  A    between atoms: C7_14  and  O2_15 
REMARK    4  A    between atoms: O2_15  and  P1_16 
REMARK    5  A    between atoms: P1_16  and  O5_19 
REMARK    6  A    between atoms: O5_19  and  P2_20 
REMARK    7  A    between atoms: P2_20  and  O8_23 
REMARK    8  A    between atoms: O8_23  and  P3_24 
REMARK    9  A    between atoms: C8_28  and  O12_29 
REMARK   10  A    between atoms: C9_31  and  O13_32 
ROOT
HETATM    1  C5  UNL     1       4.873   3.810  49.208  1.00  0.00     0.262 C 
HETATM    2  O1  UNL     1       5.164   5.170  49.130  1.00  0.00    -0.353 OA
HETATM    3  C6  UNL     1       3.946   5.831  49.075  1.00  0.00     0.180 C 
HETATM    4  C8  UNL     1       3.160   5.098  50.142  1.00  0.00     0.182 C 
HETATM    5  C9  UNL     1       3.523   3.656  49.771  1.00  0.00     0.198 C 
ENDROOT
BRANCH   1   6
HETATM    6  N4  UNL     1       5.932   3.147  49.880  1.00  0.00    -0.297 N 
HETATM    7  C2  UNL     1       7.262   3.332  49.820  1.00  0.00     0.146 A 
HETATM    8  N2  UNL     1       7.969   4.198  49.107  1.00  0.00    -0.314 N 
HETATM    9  C3  UNL     1       7.876   2.451  50.651  1.00  0.00     0.146 A 
HETATM   10  C1  UNL     1       9.313   4.237  49.179  1.00  0.00     0.196 A 
ATOM     11  H2  UNL     1       7.484   4.850  48.490  1.00  0.00     0.170 HD
HETATM   12  N1  UNL     1      10.104   5.151  48.428  1.00  0.00    -0.063 NA
HETATM   13  N5  UNL     1       9.955   3.377  49.993  1.00  0.00    -0.295 N 
HETATM   14  C10 UNL     1       9.272   2.484  50.732  1.00  0.00     0.278 A 
ATOM     15  H5  UNL     1      10.973   3.404  50.050  1.00  0.00     0.171 HD
HETATM   16  O14 UNL     1       9.831   1.669  51.501  1.00  0.00    -0.265 OA
HETATM   17  N3  UNL     1       6.923   1.719  51.228  1.00  0.00    -0.345 N 
HETATM   18  C4  UNL     1       5.758   2.143  50.759  1.00  0.00     0.188 A 
ATOM     19  H3  UNL     1       7.064   0.969  51.905  1.00  0.00     0.167 HD
ENDBRANCH   1   6
BRANCH   5  20
HETATM   20  O13 UNL     1       2.576   3.291  48.785  1.00  0.00    -0.388 OA
ATOM     21  H13 UNL     1       1.919   2.696  49.126  1.00  0.00     0.210 HD
ENDBRANCH   5  20
BRANCH   3  22
HETATM   22  C7  UNL     1       4.143   7.289  49.411  1.00  0.00     0.216 C 
BRANCH  22  23
HETATM   23  O2  UNL     1       3.985   7.999  48.212  1.00  0.00    -0.287 OA
BRANCH  23  24
HETATM   24  P1  UNL     1       2.406   8.460  47.938  1.00  0.00     0.417 P 
HETATM   25  O3  UNL     1       1.634   8.371  49.238  1.00  0.00    -0.624 OA
HETATM   26  O4  UNL     1       1.644   7.523  46.758  1.00  0.00    -0.624 OA
BRANCH  24  27
HETATM   27  O5  UNL     1       2.414  10.105  47.500  1.00  0.00    -0.180 OA
BRANCH  27  28
HETATM   28  P2  UNL     1       3.653  10.395  46.373  1.00  0.00     0.428 P 
HETATM   29  O6  UNL     1       4.970  10.604  47.064  1.00  0.00    -0.624 OA
HETATM   30  O7  UNL     1       3.232  11.715  45.392  1.00  0.00    -0.624 OA
BRANCH  28  31
HETATM   31  O8  UNL     1       3.708   9.034  45.343  1.00  0.00    -0.173 OA
BRANCH  31  32
HETATM   32  P3  UNL     1       4.187   9.521  43.782  1.00  0.00     0.431 P 
HETATM   33  O9  UNL     1       5.056  10.757  43.835  1.00  0.00    -0.616 OA
HETATM   34  O10 UNL     1       2.853   9.833  42.808  1.00  0.00    -0.616 OA
HETATM   35  O11 UNL     1       5.113   8.276  43.092  1.00  0.00    -0.616 OA
ENDBRANCH  31  32
ENDBRANCH  28  31
ENDBRANCH  27  28
ENDBRANCH  24  27
ENDBRANCH  23  24
ENDBRANCH  22  23
ENDBRANCH   3  22
BRANCH   4  36
HETATM   36  O12 UNL     1       1.803   5.321  50.041  1.00  0.00    -0.390 OA
ATOM     37  H12 UNL     1       1.293   4.543  50.236  1.00  0.00     0.210 HD
ENDBRANCH   4  36
TORSDOF 10
ENDMDL
