MODEL 10
REMARK VINA RESULT: -9.400276082      4.086      5.274
REMARK  10 active torsions:
REMARK  status: ('A' for Active; 'I' for Inactive)
REMARK    1  A    between atoms: N4_10  and  C5_11 
REMARK    2  A    between atoms: C6_13  and  C7_14 
REMARK    3  A    between atoms: C7_14  and  O2_15 
REMARK    4  A    between atoms: O2_15  and  P1_16 
REMARK    5  A    between atoms: P1_16  and  O5_19 
REMARK    6  A    between atoms: O5_19  and  P2_20 
REMARK    7  A    between atoms: P2_20  and  O8_23 
REMARK    8  A    between atoms: O8_23  and  P3_24 
REMARK    9  A    between atoms: C8_28  and  O12_29 
REMARK   10  A    between atoms: C9_31  and  O13_32 
ROOT
HETATM    1  C5  UNL     1       5.329   3.415  50.242  1.00  0.00     0.262 C 
HETATM    2  O1  UNL     1       5.230   4.725  49.780  1.00  0.00    -0.353 OA
HETATM    3  C6  UNL     1       3.916   5.117  49.983  1.00  0.00     0.180 C 
HETATM    4  C8  UNL     1       3.660   4.591  51.380  1.00  0.00     0.182 C 
HETATM    5  C9  UNL     1       4.266   3.191  51.234  1.00  0.00     0.198 C 
ENDROOT
BRANCH   1   6
HETATM    6  N4  UNL     1       6.663   3.169  50.659  1.00  0.00    -0.297 N 
HETATM    7  C2  UNL     1       7.815   3.174  49.967  1.00  0.00     0.146 A 
HETATM    8  N2  UNL     1       8.032   3.412  48.680  1.00  0.00    -0.314 N 
HETATM    9  C3  UNL     1       8.843   2.880  50.803  1.00  0.00     0.146 A 
HETATM   10  C1  UNL     1       9.272   3.372  48.158  1.00  0.00     0.196 A 
ATOM     11  H2  UNL     1       7.242   3.632  48.073  1.00  0.00     0.170 HD
HETATM   12  N1  UNL     1       9.544   3.621  46.783  1.00  0.00    -0.063 NA
HETATM   13  N5  UNL     1      10.316   3.083  48.958  1.00  0.00    -0.295 N 
HETATM   14  C10 UNL     1      10.135   2.835  50.268  1.00  0.00     0.278 A 
ATOM     15  H5  UNL     1      11.258   3.051  48.566  1.00  0.00     0.171 HD
HETATM   16  O14 UNL     1      11.078   2.564  51.046  1.00  0.00    -0.265 OA
HETATM   17  N3  UNL     1       8.326   2.693  52.017  1.00  0.00    -0.345 N 
HETATM   18  C4  UNL     1       7.016   2.868  51.922  1.00  0.00     0.188 A 
ATOM     19  H3  UNL     1       8.844   2.457  52.864  1.00  0.00     0.167 HD
ENDBRANCH   1   6
BRANCH   5  20
HETATM   20  O13 UNL     1       3.215   2.398  50.713  1.00  0.00    -0.388 OA
ATOM     21  H13 UNL     1       3.438   1.475  50.703  1.00  0.00     0.210 HD
ENDBRANCH   5  20
BRANCH   3  22
HETATM   22  C7  UNL     1       3.816   6.621  49.912  1.00  0.00     0.216 C 
BRANCH  22  23
HETATM   23  O2  UNL     1       2.479   6.917  49.607  1.00  0.00    -0.287 OA
BRANCH  23  24
HETATM   24  P1  UNL     1       2.330   8.096  48.438  1.00  0.00     0.417 P 
HETATM   25  O3  UNL     1       1.581   9.277  49.021  1.00  0.00    -0.624 OA
HETATM   26  O4  UNL     1       1.539   7.550  47.051  1.00  0.00    -0.624 OA
BRANCH  24  27
HETATM   27  O5  UNL     1       3.894   8.660  48.066  1.00  0.00    -0.180 OA
BRANCH  27  28
HETATM   28  P2  UNL     1       3.810   9.808  46.817  1.00  0.00     0.428 P 
HETATM   29  O6  UNL     1       5.004  10.718  46.841  1.00  0.00    -0.624 OA
HETATM   30  O7  UNL     1       2.351  10.669  46.934  1.00  0.00    -0.624 OA
BRANCH  28  31
HETATM   31  O8  UNL     1       3.731   8.935  45.352  1.00  0.00    -0.173 OA
BRANCH  31  32
HETATM   32  P3  UNL     1       3.865  10.014  44.039  1.00  0.00     0.431 P 
HETATM   33  O9  UNL     1       5.279  10.057  43.506  1.00  0.00    -0.616 OA
HETATM   34  O10 UNL     1       3.401  11.568  44.481  1.00  0.00    -0.616 OA
HETATM   35  O11 UNL     1       2.865   9.460  42.784  1.00  0.00    -0.616 OA
ENDBRANCH  31  32
ENDBRANCH  28  31
ENDBRANCH  27  28
ENDBRANCH  24  27
ENDBRANCH  23  24
ENDBRANCH  22  23
ENDBRANCH   3  22
BRANCH   4  36
HETATM   36  O12 UNL     1       2.315   4.531  51.681  1.00  0.00    -0.390 OA
ATOM     37  H12 UNL     1       1.949   3.667  51.533  1.00  0.00     0.210 HD
ENDBRANCH   4  36
TORSDOF 10
ENDMDL
