MODEL 11
REMARK VINA RESULT: -7.739210327      2.293      3.945
REMARK  9 active torsions:
REMARK  status: ('A' for Active; 'I' for Inactive)
REMARK    1  A    between atoms: N5_13  and  C6_14 
REMARK    2  A    between atoms: C8_16  and  O1_17 
REMARK    3  A    between atoms: C9_19  and  C10_20 
REMARK    4  A    between atoms: C10_20  and  O2_21 
REMARK    5  A    between atoms: O2_21  and  P1_22 
REMARK    6  A    between atoms: P1_22  and  O5_25 
REMARK    7  A    between atoms: O5_25  and  P2_26 
REMARK    8  A    between atoms: P2_26  and  O8_29 
REMARK    9  A    between atoms: O8_29  and  P3_30 
ROOT
HETATM    1  C6  UNL     1     -12.084  27.153  -0.950  1.00  0.00     0.233 C 
HETATM    2  C7  UNL     1     -12.516  28.582  -0.778  1.00  0.00     0.088 C 
HETATM    3  C8  UNL     1     -13.002  28.575   0.658  1.00  0.00     0.153 C 
HETATM    4  C9  UNL     1     -12.126  27.526   1.256  1.00  0.00     0.177 C 
HETATM    5  O12 UNL     1     -12.135  26.533   0.278  1.00  0.00    -0.356 OA
ENDROOT
BRANCH   4   6
HETATM    6  C10 UNL     1     -12.649  26.987   2.563  1.00  0.00     0.216 C 
BRANCH   6   7
HETATM    7  O2  UNL     1     -13.398  25.830   2.390  1.00  0.00    -0.287 OA
BRANCH   7   8
HETATM    8  P1  UNL     1     -12.889  24.563   3.334  1.00  0.00     0.417 P 
HETATM    9  O3  UNL     1     -12.756  25.051   4.761  1.00  0.00    -0.624 OA
HETATM   10  O4  UNL     1     -11.419  23.898   2.799  1.00  0.00    -0.624 OA
BRANCH   8  11
HETATM   11  O5  UNL     1     -14.004  23.280   3.368  1.00  0.00    -0.180 OA
BRANCH  11  12
HETATM   12  P2  UNL     1     -14.116  22.686   1.787  1.00  0.00     0.428 P 
HETATM   13  O6  UNL     1     -13.550  23.636   0.774  1.00  0.00    -0.624 OA
HETATM   14  O7  UNL     1     -13.210  21.240   1.661  1.00  0.00    -0.624 OA
BRANCH  12  15
HETATM   15  O8  UNL     1     -15.705  22.340   1.360  1.00  0.00    -0.173 OA
BRANCH  15  16
HETATM   16  P3  UNL     1     -15.814  21.561  -0.137  1.00  0.00     0.431 P 
HETATM   17  O9  UNL     1     -15.649  20.056   0.074  1.00  0.00    -0.616 OA
HETATM   18  O10 UNL     1     -17.359  21.876  -0.755  1.00  0.00    -0.616 OA
HETATM   19  O11 UNL     1     -14.680  22.122  -1.232  1.00  0.00    -0.616 OA
ENDBRANCH  15  16
ENDBRANCH  12  15
ENDBRANCH  11  12
ENDBRANCH   8  11
ENDBRANCH   7   8
ENDBRANCH   6   7
ENDBRANCH   4   6
BRANCH   3  20
HETATM   20  O1  UNL     1     -12.828  29.833   1.206  1.00  0.00    -0.393 OA
ATOM     21  H1  UNL     1     -13.271  29.874   2.045  1.00  0.00     0.210 HD
ENDBRANCH   3  20
BRANCH   1  22
HETATM   22  N5  UNL     1     -12.975  26.545  -1.921  1.00  0.00    -0.300 N 
HETATM   23  C3  UNL     1     -14.189  26.029  -1.660  1.00  0.00     0.142 A 
HETATM   24  N3  UNL     1     -14.960  25.884  -0.568  1.00  0.00    -0.336 N 
HETATM   25  C4  UNL     1     -14.741  25.536  -2.851  1.00  0.00     0.119 A 
HETATM   26  C2  UNL     1     -16.175  25.316  -0.568  1.00  0.00     0.183 A 
ATOM     27  H3  UNL     1     -14.596  26.230   0.320  1.00  0.00     0.168 HD
HETATM   28  N2  UNL     1     -16.693  24.844  -1.735  1.00  0.00    -0.339 N 
HETATM   29  C1  UNL     1     -15.986  24.952  -2.867  1.00  0.00     0.148 A 
ATOM     30  H2  UNL     1     -17.617  24.411  -1.746  1.00  0.00     0.167 HD
HETATM   31  N1  UNL     1     -16.540  24.456  -4.069  1.00  0.00    -0.080 NA
HETATM   32  N4  UNL     1     -13.798  25.795  -3.777  1.00  0.00    -0.346 N 
HETATM   33  C5  UNL     1     -12.729  26.401  -3.233  1.00  0.00     0.188 A 
ATOM     34  H4  UNL     1     -13.884  25.559  -4.766  1.00  0.00     0.167 HD
ENDBRANCH   1  22
TORSDOF 9
ENDMDL
