MODEL 1
REMARK VINA RESULT: -8.266499194      0.000      0.000
REMARK  9 active torsions:
REMARK  status: ('A' for Active; 'I' for Inactive)
REMARK    1  A    between atoms: N5_13  and  C6_14 
REMARK    2  A    between atoms: C8_16  and  O1_17 
REMARK    3  A    between atoms: C9_19  and  C10_20 
REMARK    4  A    between atoms: C10_20  and  O2_21 
REMARK    5  A    between atoms: O2_21  and  P1_22 
REMARK    6  A    between atoms: P1_22  and  O5_25 
REMARK    7  A    between atoms: O5_25  and  P2_26 
REMARK    8  A    between atoms: P2_26  and  O8_29 
REMARK    9  A    between atoms: O8_29  and  P3_30 
ROOT
HETATM    1  C6  UNL     1     -12.056  26.684   2.295  1.00  0.00     0.233 C 
HETATM    2  C7  UNL     1     -12.607  26.876   3.680  1.00  0.00     0.088 C 
HETATM    3  C8  UNL     1     -13.197  25.507   3.957  1.00  0.00     0.153 C 
HETATM    4  C9  UNL     1     -12.290  24.633   3.157  1.00  0.00     0.177 C 
HETATM    5  O12 UNL     1     -12.151  25.351   1.970  1.00  0.00    -0.356 OA
ENDROOT
BRANCH   4   6
HETATM    6  C10 UNL     1     -12.868  23.267   2.885  1.00  0.00     0.216 C 
BRANCH   6   7
HETATM    7  O2  UNL     1     -14.168  23.335   2.401  1.00  0.00    -0.287 OA
BRANCH   7   8
HETATM    8  P1  UNL     1     -14.383  22.543   0.958  1.00  0.00     0.417 P 
HETATM    9  O3  UNL     1     -13.768  21.164   1.072  1.00  0.00    -0.624 OA
HETATM   10  O4  UNL     1     -13.706  23.384  -0.355  1.00  0.00    -0.624 OA
BRANCH   8  11
HETATM   11  O5  UNL     1     -16.022  22.309   0.575  1.00  0.00    -0.180 OA
BRANCH  11  12
HETATM   12  P2  UNL     1     -16.083  21.076  -0.583  1.00  0.00     0.428 P 
HETATM   13  O6  UNL     1     -15.824  19.721   0.005  1.00  0.00    -0.624 OA
HETATM   14  O7  UNL     1     -17.651  21.021  -1.267  1.00  0.00    -0.624 OA
BRANCH  12  15
HETATM   15  O8  UNL     1     -14.984  21.333  -1.829  1.00  0.00    -0.173 OA
BRANCH  15  16
HETATM   16  P3  UNL     1     -15.640  22.257  -3.085  1.00  0.00     0.431 P 
HETATM   17  O9  UNL     1     -14.499  22.858  -3.905  1.00  0.00    -0.616 OA
HETATM   18  O10 UNL     1     -16.542  21.208  -4.061  1.00  0.00    -0.616 OA
HETATM   19  O11 UNL     1     -16.653  23.465  -2.526  1.00  0.00    -0.616 OA
ENDBRANCH  15  16
ENDBRANCH  12  15
ENDBRANCH  11  12
ENDBRANCH   8  11
ENDBRANCH   7   8
ENDBRANCH   6   7
ENDBRANCH   4   6
BRANCH   3  20
HETATM   20  O1  UNL     1     -13.161  25.260   5.317  1.00  0.00    -0.393 OA
ATOM     21  H1  UNL     1     -14.016  24.960   5.605  1.00  0.00     0.210 HD
ENDBRANCH   3  20
BRANCH   1  22
HETATM   22  N5  UNL     1     -12.822  27.534   1.403  1.00  0.00    -0.300 N 
HETATM   23  C3  UNL     1     -13.959  27.190   0.772  1.00  0.00     0.142 A 
HETATM   24  N3  UNL     1     -14.734  26.093   0.713  1.00  0.00    -0.336 N 
HETATM   25  C4  UNL     1     -14.400  28.274   0.001  1.00  0.00     0.119 A 
HETATM   26  C2  UNL     1     -15.856  25.995  -0.015  1.00  0.00     0.183 A 
ATOM     27  H3  UNL     1     -14.449  25.280   1.260  1.00  0.00     0.168 HD
HETATM   28  N2  UNL     1     -16.267  27.060  -0.756  1.00  0.00    -0.339 N 
HETATM   29  C1  UNL     1     -15.549  28.191  -0.750  1.00  0.00     0.148 A 
ATOM     30  H2  UNL     1     -17.120  26.998  -1.313  1.00  0.00     0.167 HD
HETATM   31  N1  UNL     1     -15.991  29.286  -1.526  1.00  0.00    -0.080 NA
HETATM   32  N4  UNL     1     -13.475  29.228   0.225  1.00  0.00    -0.346 N 
HETATM   33  C5  UNL     1     -12.519  28.798   1.066  1.00  0.00     0.188 A 
ATOM     34  H4  UNL     1     -13.497  30.159  -0.192  1.00  0.00     0.167 HD
ENDBRANCH   1  22
TORSDOF 9
ENDMDL
