MODEL 2
REMARK VINA RESULT: -8.240211042      1.077      1.741
REMARK  9 active torsions:
REMARK  status: ('A' for Active; 'I' for Inactive)
REMARK    1  A    between atoms: N5_13  and  C6_14 
REMARK    2  A    between atoms: C8_16  and  O1_17 
REMARK    3  A    between atoms: C9_19  and  C10_20 
REMARK    4  A    between atoms: C10_20  and  O2_21 
REMARK    5  A    between atoms: O2_21  and  P1_22 
REMARK    6  A    between atoms: P1_22  and  O5_25 
REMARK    7  A    between atoms: O5_25  and  P2_26 
REMARK    8  A    between atoms: P2_26  and  O8_29 
REMARK    9  A    between atoms: O8_29  and  P3_30 
ROOT
HETATM    1  C6  UNL     1     -12.021  26.637   2.234  1.00  0.00     0.233 C 
HETATM    2  C7  UNL     1     -12.526  26.874   3.629  1.00  0.00     0.088 C 
HETATM    3  C8  UNL     1     -13.116  25.519   3.966  1.00  0.00     0.153 C 
HETATM    4  C9  UNL     1     -12.241  24.614   3.164  1.00  0.00     0.177 C 
HETATM    5  O12 UNL     1     -12.135  25.295   1.953  1.00  0.00    -0.356 OA
ENDROOT
BRANCH   4   6
HETATM    6  C10 UNL     1     -12.836  23.245   2.952  1.00  0.00     0.216 C 
BRANCH   6   7
HETATM    7  O2  UNL     1     -14.155  23.308   2.518  1.00  0.00    -0.287 OA
BRANCH   7   8
HETATM    8  P1  UNL     1     -14.449  22.410   1.154  1.00  0.00     0.417 P 
HETATM    9  O3  UNL     1     -15.943  22.197   1.033  1.00  0.00    -0.624 OA
HETATM   10  O4  UNL     1     -13.639  20.916   1.168  1.00  0.00    -0.624 OA
BRANCH   8  11
HETATM   11  O5  UNL     1     -13.959  23.199  -0.271  1.00  0.00    -0.180 OA
BRANCH  11  12
HETATM   12  P2  UNL     1     -14.696  22.386  -1.559  1.00  0.00     0.428 P 
HETATM   13  O6  UNL     1     -14.782  20.906  -1.332  1.00  0.00    -0.624 OA
HETATM   14  O7  UNL     1     -16.303  22.948  -1.737  1.00  0.00    -0.624 OA
BRANCH  12  15
HETATM   15  O8  UNL     1     -13.891  22.655  -3.010  1.00  0.00    -0.173 OA
BRANCH  15  16
HETATM   16  P3  UNL     1     -13.460  24.278  -3.216  1.00  0.00     0.431 P 
HETATM   17  O9  UNL     1     -12.421  24.652  -2.159  1.00  0.00    -0.616 OA
HETATM   18  O10 UNL     1     -12.773  24.424  -4.756  1.00  0.00    -0.616 OA
HETATM   19  O11 UNL     1     -14.778  25.304  -3.123  1.00  0.00    -0.616 OA
ENDBRANCH  15  16
ENDBRANCH  12  15
ENDBRANCH  11  12
ENDBRANCH   8  11
ENDBRANCH   7   8
ENDBRANCH   6   7
ENDBRANCH   4   6
BRANCH   3  20
HETATM   20  O1  UNL     1     -13.038  25.312   5.332  1.00  0.00    -0.393 OA
ATOM     21  H1  UNL     1     -12.361  24.670   5.514  1.00  0.00     0.210 HD
ENDBRANCH   3  20
BRANCH   1  22
HETATM   22  N5  UNL     1     -12.810  27.466   1.342  1.00  0.00    -0.300 N 
HETATM   23  C3  UNL     1     -13.961  27.107   0.747  1.00  0.00     0.142 A 
HETATM   24  N3  UNL     1     -14.737  26.009   0.734  1.00  0.00    -0.336 N 
HETATM   25  C4  UNL     1     -14.422  28.173  -0.037  1.00  0.00     0.119 A 
HETATM   26  C2  UNL     1     -15.877  25.894   0.036  1.00  0.00     0.183 A 
ATOM     27  H3  UNL     1     -14.438  25.209   1.292  1.00  0.00     0.168 HD
HETATM   28  N2  UNL     1     -16.307  26.942  -0.719  1.00  0.00    -0.339 N 
HETATM   29  C1  UNL     1     -15.589  28.072  -0.757  1.00  0.00     0.148 A 
ATOM     30  H2  UNL     1     -17.173  26.866  -1.253  1.00  0.00     0.167 HD
HETATM   31  N1  UNL     1     -16.052  29.149  -1.547  1.00  0.00    -0.080 NA
HETATM   32  N4  UNL     1     -13.492  29.132   0.141  1.00  0.00    -0.346 N 
HETATM   33  C5  UNL     1     -12.516  28.721   0.968  1.00  0.00     0.188 A 
ATOM     34  H4  UNL     1     -13.525  30.053  -0.297  1.00  0.00     0.167 HD
ENDBRANCH   1  22
TORSDOF 9
ENDMDL
