MODEL 4
REMARK VINA RESULT: -8.093921123      5.216      7.390
REMARK  9 active torsions:
REMARK  status: ('A' for Active; 'I' for Inactive)
REMARK    1  A    between atoms: N5_13  and  C6_14 
REMARK    2  A    between atoms: C8_16  and  O1_17 
REMARK    3  A    between atoms: C9_19  and  C10_20 
REMARK    4  A    between atoms: C10_20  and  O2_21 
REMARK    5  A    between atoms: O2_21  and  P1_22 
REMARK    6  A    between atoms: P1_22  and  O5_25 
REMARK    7  A    between atoms: O5_25  and  P2_26 
REMARK    8  A    between atoms: P2_26  and  O8_29 
REMARK    9  A    between atoms: O8_29  and  P3_30 
ROOT
HETATM    1  C6  UNL     1     -16.617  20.980  -3.593  1.00  0.00     0.233 C 
HETATM    2  C7  UNL     1     -15.872  20.137  -2.596  1.00  0.00     0.088 C 
HETATM    3  C8  UNL     1     -16.128  20.901  -1.312  1.00  0.00     0.153 C 
HETATM    4  C9  UNL     1     -17.469  21.494  -1.589  1.00  0.00     0.177 C 
HETATM    5  O12 UNL     1     -17.338  21.930  -2.906  1.00  0.00    -0.356 OA
ENDROOT
BRANCH   4   6
HETATM    6  C10 UNL     1     -17.808  22.648  -0.680  1.00  0.00     0.216 C 
BRANCH   6   7
HETATM    7  O2  UNL     1     -16.981  23.744  -0.894  1.00  0.00    -0.287 OA
BRANCH   7   8
HETATM    8  P1  UNL     1     -15.677  23.802   0.131  1.00  0.00     0.417 P 
HETATM    9  O3  UNL     1     -15.640  25.168   0.783  1.00  0.00    -0.624 OA
HETATM   10  O4  UNL     1     -14.207  23.489  -0.664  1.00  0.00    -0.624 OA
BRANCH   8  11
HETATM   11  O5  UNL     1     -15.782  22.669   1.394  1.00  0.00    -0.180 OA
BRANCH  11  12
HETATM   12  P2  UNL     1     -14.212  22.445   1.984  1.00  0.00     0.428 P 
HETATM   13  O6  UNL     1     -14.185  22.157   3.455  1.00  0.00    -0.624 OA
HETATM   14  O7  UNL     1     -13.504  21.094   1.208  1.00  0.00    -0.624 OA
BRANCH  12  15
HETATM   15  O8  UNL     1     -13.236  23.782   1.687  1.00  0.00    -0.173 OA
BRANCH  15  16
HETATM   16  P3  UNL     1     -12.522  24.384   3.097  1.00  0.00     0.431 P 
HETATM   17  O9  UNL     1     -11.612  23.308   3.688  1.00  0.00    -0.616 OA
HETATM   18  O10 UNL     1     -11.590  25.726   2.654  1.00  0.00    -0.616 OA
HETATM   19  O11 UNL     1     -13.654  24.873   4.227  1.00  0.00    -0.616 OA
ENDBRANCH  15  16
ENDBRANCH  12  15
ENDBRANCH  11  12
ENDBRANCH   8  11
ENDBRANCH   7   8
ENDBRANCH   6   7
ENDBRANCH   4   6
BRANCH   3  20
HETATM   20  O1  UNL     1     -16.112  20.020  -0.245  1.00  0.00    -0.393 OA
ATOM     21  H1  UNL     1     -17.005  19.814   0.005  1.00  0.00     0.210 HD
ENDBRANCH   3  20
BRANCH   1  22
HETATM   22  N5  UNL     1     -15.634  21.561  -4.488  1.00  0.00    -0.300 N 
HETATM   23  C3  UNL     1     -15.819  21.829  -5.793  1.00  0.00     0.142 A 
HETATM   24  N3  UNL     1     -16.829  21.692  -6.671  1.00  0.00    -0.336 N 
HETATM   25  C4  UNL     1     -14.644  22.383  -6.317  1.00  0.00     0.119 A 
HETATM   26  C2  UNL     1     -16.763  22.045  -7.963  1.00  0.00     0.183 A 
ATOM     27  H3  UNL     1     -17.703  21.292  -6.331  1.00  0.00     0.168 HD
HETATM   28  N2  UNL     1     -15.612  22.583  -8.452  1.00  0.00    -0.339 N 
HETATM   29  C1  UNL     1     -14.561  22.752  -7.639  1.00  0.00     0.148 A 
ATOM     30  H2  UNL     1     -15.551  22.856  -9.432  1.00  0.00     0.167 HD
HETATM   31  N1  UNL     1     -13.374  23.312  -8.164  1.00  0.00    -0.080 NA
HETATM   32  N4  UNL     1     -13.803  22.415  -5.264  1.00  0.00    -0.346 N 
HETATM   33  C5  UNL     1     -14.385  21.924  -4.157  1.00  0.00     0.188 A 
ATOM     34  H4  UNL     1     -12.847  22.768  -5.303  1.00  0.00     0.167 HD
ENDBRANCH   1  22
TORSDOF 9
ENDMDL
