MODEL 10
REMARK VINA RESULT: -5.746411464      2.332      3.128
REMARK  6 active torsions:
REMARK  status: ('A' for Active; 'I' for Inactive)
REMARK    1  A    between atoms: N1_1  and  C1_5 
REMARK    2  A    between atoms: C1_5  and  C2_6 
REMARK    3  A    between atoms: C2_6  and  N2_7 
REMARK    4  A    between atoms: N2_7  and  C3_9 
REMARK    5  A    between atoms: C6_12  and  N3_13 
REMARK    6  A    between atoms: C8_17  and  C9_18 
ROOT
HETATM    1  C3  UNL     1      48.528  15.504   2.711  1.00  0.00     0.045 A 
HETATM    2  C4  UNL     1      48.743  16.888   2.909  1.00  0.00     0.032 A 
HETATM    3  C5  UNL     1      49.961  17.474   2.649  1.00  0.00     0.038 A 
HETATM    4  C6  UNL     1      51.025  16.732   2.183  1.00  0.00     0.104 A 
HETATM    5  C7  UNL     1      50.827  15.397   1.989  1.00  0.00     0.056 A 
HETATM    6  C8  UNL     1      49.576  14.776   2.253  1.00  0.00     0.069 A 
ENDROOT
BRANCH   1   7
HETATM    7  N2  UNL     1      47.281  14.951   3.036  1.00  0.00    -0.387 N 
ATOM      8  H2  UNL     1      47.254  14.126   3.636  1.00  0.00     0.159 HD
BRANCH   7   9
HETATM    9  C2  UNL     1      46.021  15.502   2.556  1.00  0.00     0.147 C 
BRANCH   9  10
HETATM   10  C1  UNL     1      45.706  14.808   1.250  1.00  0.00     0.249 C 
BRANCH  10  11
HETATM   11  N1  UNL     1      45.249  15.799   0.292  1.00  0.00    -0.078 N 
ATOM     12  H13 UNL     1      44.318  16.152   0.510  1.00  0.00     0.274 HD
ATOM     13  H12 UNL     1      45.756  16.680   0.371  1.00  0.00     0.274 HD
ATOM     14  H11 UNL     1      45.305  15.400  -0.645  1.00  0.00     0.274 HD
ENDBRANCH  10  11
ENDBRANCH   9  10
ENDBRANCH   7   9
ENDBRANCH   1   7
BRANCH   6  15
HETATM   15  C9  UNL     1      49.481  13.359   1.984  1.00  0.00     0.211 C 
HETATM   16  O3  UNL     1      50.529  12.718   1.662  1.00  0.00    -0.644 OA
HETATM   17  O4  UNL     1      48.339  12.619   2.041  1.00  0.00    -0.644 OA
ENDBRANCH   6  15
BRANCH   4  18
HETATM   18  N3  UNL     1      52.295  17.345   1.912  1.00  0.00    -0.116 N 
HETATM   19  O1  UNL     1      53.240  16.604   1.603  1.00  0.00    -0.532 OA
HETATM   20  O2  UNL     1      52.515  18.691   1.977  1.00  0.00    -0.532 OA
ENDBRANCH   4  18
TORSDOF 6
ENDMDL
