MODEL 2
REMARK VINA RESULT: -6.068276306      2.229      2.875
REMARK  6 active torsions:
REMARK  status: ('A' for Active; 'I' for Inactive)
REMARK    1  A    between atoms: N1_1  and  C1_5 
REMARK    2  A    between atoms: C1_5  and  C2_6 
REMARK    3  A    between atoms: C2_6  and  N2_7 
REMARK    4  A    between atoms: N2_7  and  C3_9 
REMARK    5  A    between atoms: C6_12  and  N3_13 
REMARK    6  A    between atoms: C8_17  and  C9_18 
ROOT
HETATM    1  C3  UNL     1      47.932  14.700   2.159  1.00  0.00     0.045 A 
HETATM    2  C4  UNL     1      47.484  16.012   2.438  1.00  0.00     0.032 A 
HETATM    3  C5  UNL     1      48.363  17.030   2.726  1.00  0.00     0.038 A 
HETATM    4  C6  UNL     1      49.725  16.810   2.754  1.00  0.00     0.104 A 
HETATM    5  C7  UNL     1      50.166  15.548   2.486  1.00  0.00     0.056 A 
HETATM    6  C8  UNL     1      49.270  14.485   2.187  1.00  0.00     0.069 A 
ENDROOT
BRANCH   1   7
HETATM    7  N2  UNL     1      46.989  13.690   1.919  1.00  0.00    -0.387 N 
ATOM      8  H2  UNL     1      47.306  12.721   1.896  1.00  0.00     0.159 HD
BRANCH   7   9
HETATM    9  C2  UNL     1      45.575  13.964   1.700  1.00  0.00     0.147 C 
BRANCH   9  10
HETATM   10  C1  UNL     1      45.287  13.665   0.247  1.00  0.00     0.249 C 
BRANCH  10  11
HETATM   11  N1  UNL     1      45.760  14.775  -0.562  1.00  0.00    -0.078 N 
ATOM     12  H13 UNL     1      45.002  15.380  -0.875  1.00  0.00     0.274 HD
ATOM     13  H12 UNL     1      46.275  15.464  -0.014  1.00  0.00     0.274 HD
ATOM     14  H11 UNL     1      46.310  14.405  -1.338  1.00  0.00     0.274 HD
ENDBRANCH  10  11
ENDBRANCH   9  10
ENDBRANCH   7   9
ENDBRANCH   1   7
BRANCH   6  15
HETATM   15  C9  UNL     1      49.859  13.198   1.895  1.00  0.00     0.211 C 
HETATM   16  O3  UNL     1      51.007  13.152   1.353  1.00  0.00    -0.644 OA
HETATM   17  O4  UNL     1      49.284  11.990   2.150  1.00  0.00    -0.644 OA
ENDBRANCH   6  15
BRANCH   4  18
HETATM   18  N3  UNL     1      50.642  17.874   3.054  1.00  0.00    -0.116 N 
HETATM   19  O1  UNL     1      50.185  18.899   3.580  1.00  0.00    -0.532 OA
HETATM   20  O2  UNL     1      51.981  17.815   2.792  1.00  0.00    -0.532 OA
ENDBRANCH   4  18
TORSDOF 6
ENDMDL
