MODEL 9
REMARK VINA RESULT: -5.749966776      2.347      5.725
REMARK  6 active torsions:
REMARK  status: ('A' for Active; 'I' for Inactive)
REMARK    1  A    between atoms: N1_1  and  C1_5 
REMARK    2  A    between atoms: C1_5  and  C2_6 
REMARK    3  A    between atoms: C2_6  and  N2_7 
REMARK    4  A    between atoms: N2_7  and  C3_9 
REMARK    5  A    between atoms: C6_12  and  N3_13 
REMARK    6  A    between atoms: C8_17  and  C9_18 
ROOT
HETATM    1  C3  UNL     1      49.373  15.770   2.756  1.00  0.00     0.045 A 
HETATM    2  C4  UNL     1      48.160  16.458   2.992  1.00  0.00     0.032 A 
HETATM    3  C5  UNL     1      46.978  16.061   2.410  1.00  0.00     0.038 A 
HETATM    4  C6  UNL     1      46.929  14.970   1.567  1.00  0.00     0.104 A 
HETATM    5  C7  UNL     1      48.095  14.301   1.333  1.00  0.00     0.056 A 
HETATM    6  C8  UNL     1      49.323  14.699   1.927  1.00  0.00     0.069 A 
ENDROOT
BRANCH   1   7
HETATM    7  N2  UNL     1      50.556  16.248   3.339  1.00  0.00    -0.387 N 
ATOM      8  H2  UNL     1      51.236  15.571   3.687  1.00  0.00     0.159 HD
BRANCH   7   9
HETATM    9  C2  UNL     1      50.857  17.666   3.469  1.00  0.00     0.147 C 
BRANCH   9  10
HETATM   10  C1  UNL     1      51.680  18.056   2.263  1.00  0.00     0.249 C 
BRANCH  10  11
HETATM   11  N1  UNL     1      52.691  17.038   2.036  1.00  0.00    -0.078 N 
ATOM     12  H13 UNL     1      52.564  16.223   2.636  1.00  0.00     0.274 HD
ATOM     13  H12 UNL     1      52.578  16.570   1.137  1.00  0.00     0.274 HD
ATOM     14  H11 UNL     1      53.613  17.461   2.143  1.00  0.00     0.274 HD
ENDBRANCH  10  11
ENDBRANCH   9  10
ENDBRANCH   7   9
ENDBRANCH   1   7
BRANCH   6  15
HETATM   15  C9  UNL     1      50.486  13.895   1.624  1.00  0.00     0.211 C 
HETATM   16  O3  UNL     1      51.554  14.469   1.249  1.00  0.00    -0.644 OA
HETATM   17  O4  UNL     1      50.548  12.537   1.701  1.00  0.00    -0.644 OA
ENDBRANCH   6  15
BRANCH   4  18
HETATM   18  N3  UNL     1      45.696  14.556   0.960  1.00  0.00    -0.116 N 
HETATM   19  O1  UNL     1      45.711  14.284  -0.250  1.00  0.00    -0.532 OA
HETATM   20  O2  UNL     1      44.517  14.447   1.639  1.00  0.00    -0.532 OA
ENDBRANCH   4  18
TORSDOF 6
ENDMDL
