MODEL 5
REMARK VINA RESULT: -5.879692603      2.754      5.163
REMARK  6 active torsions:
REMARK  status: ('A' for Active; 'I' for Inactive)
REMARK    1  A    between atoms: N1_1  and  C1_5 
REMARK    2  A    between atoms: C1_5  and  C2_6 
REMARK    3  A    between atoms: C2_6  and  N2_7 
REMARK    4  A    between atoms: N2_7  and  C3_9 
REMARK    5  A    between atoms: C6_12  and  N3_13 
REMARK    6  A    between atoms: C8_17  and  C9_18 
ROOT
HETATM    1  C3  UNL     1      49.498  14.780   1.874  1.00  0.00     0.045 A 
HETATM    2  C4  UNL     1      50.420  13.792   1.455  1.00  0.00     0.032 A 
HETATM    3  C5  UNL     1      50.215  12.456   1.714  1.00  0.00     0.038 A 
HETATM    4  C6  UNL     1      49.096  12.026   2.396  1.00  0.00     0.104 A 
HETATM    5  C7  UNL     1      48.202  12.971   2.803  1.00  0.00     0.056 A 
HETATM    6  C8  UNL     1      48.400  14.355   2.544  1.00  0.00     0.069 A 
ENDROOT
BRANCH   1   7
HETATM    7  N2  UNL     1      49.782  16.131   1.624  1.00  0.00    -0.387 N 
ATOM      8  H2  UNL     1      49.131  16.668   1.049  1.00  0.00     0.159 HD
BRANCH   7   9
HETATM    9  C2  UNL     1      50.963  16.802   2.148  1.00  0.00     0.147 C 
BRANCH   9  10
HETATM   10  C1  UNL     1      50.619  17.276   3.542  1.00  0.00     0.249 C 
BRANCH  10  11
HETATM   11  N1  UNL     1      49.378  18.027   3.489  1.00  0.00    -0.078 N 
ATOM     12  H13 UNL     1      48.567  17.428   3.332  1.00  0.00     0.274 HD
ATOM     13  H12 UNL     1      49.106  18.396   4.400  1.00  0.00     0.274 HD
ATOM     14  H11 UNL     1      49.465  18.757   2.782  1.00  0.00     0.274 HD
ENDBRANCH  10  11
ENDBRANCH   9  10
ENDBRANCH   7   9
ENDBRANCH   1   7
BRANCH   6  15
HETATM   15  C9  UNL     1      47.369  15.259   3.003  1.00  0.00     0.211 C 
HETATM   16  O3  UNL     1      46.770  15.011   4.094  1.00  0.00    -0.644 OA
HETATM   17  O4  UNL     1      46.963  16.387   2.357  1.00  0.00    -0.644 OA
ENDBRANCH   6  15
BRANCH   4  18
HETATM   18  N3  UNL     1      48.883  10.632   2.666  1.00  0.00    -0.116 N 
HETATM   19  O1  UNL     1      49.296  10.182   3.745  1.00  0.00    -0.532 OA
HETATM   20  O2  UNL     1      48.254   9.781   1.802  1.00  0.00    -0.532 OA
ENDBRANCH   4  18
TORSDOF 6
ENDMDL
