MODEL 7
REMARK VINA RESULT: -5.845372930      2.321      2.939
REMARK  6 active torsions:
REMARK  status: ('A' for Active; 'I' for Inactive)
REMARK    1  A    between atoms: N1_1  and  C1_5 
REMARK    2  A    between atoms: C1_5  and  C2_6 
REMARK    3  A    between atoms: C2_6  and  N2_7 
REMARK    4  A    between atoms: N2_7  and  C3_9 
REMARK    5  A    between atoms: C6_12  and  N3_13 
REMARK    6  A    between atoms: C8_17  and  C9_18 
ROOT
HETATM    1  C3  UNL     1      48.312  15.087   2.436  1.00  0.00     0.045 A 
HETATM    2  C4  UNL     1      48.354  16.493   2.580  1.00  0.00     0.032 A 
HETATM    3  C5  UNL     1      49.532  17.196   2.463  1.00  0.00     0.038 A 
HETATM    4  C6  UNL     1      50.724  16.553   2.201  1.00  0.00     0.104 A 
HETATM    5  C7  UNL     1      50.691  15.197   2.061  1.00  0.00     0.056 A 
HETATM    6  C8  UNL     1      49.484  14.457   2.179  1.00  0.00     0.069 A 
ENDROOT
BRANCH   1   7
HETATM    7  N2  UNL     1      47.091  14.417   2.612  1.00  0.00    -0.387 N 
ATOM      8  H2  UNL     1      47.050  13.646   3.278  1.00  0.00     0.159 HD
BRANCH   7   9
HETATM    9  C2  UNL     1      45.881  14.775   1.885  1.00  0.00     0.147 C 
BRANCH   9  10
HETATM   10  C1  UNL     1      45.834  13.903   0.651  1.00  0.00     0.249 C 
BRANCH  10  11
HETATM   11  N1  UNL     1      45.860  14.755  -0.525  1.00  0.00    -0.078 N 
ATOM     12  H13 UNL     1      45.538  14.272  -1.363  1.00  0.00     0.274 HD
ATOM     13  H12 UNL     1      45.144  15.480  -0.497  1.00  0.00     0.274 HD
ATOM     14  H11 UNL     1      46.799  15.139  -0.632  1.00  0.00     0.274 HD
ENDBRANCH  10  11
ENDBRANCH   9  10
ENDBRANCH   7   9
ENDBRANCH   1   7
BRANCH   6  15
HETATM   15  C9  UNL     1      49.573  13.027   1.985  1.00  0.00     0.211 C 
HETATM   16  O3  UNL     1      50.665  12.525   1.574  1.00  0.00    -0.644 OA
HETATM   17  O4  UNL     1      48.567  12.136   2.205  1.00  0.00    -0.644 OA
ENDBRANCH   6  15
BRANCH   4  18
HETATM   18  N3  UNL     1      51.951  17.287   2.079  1.00  0.00    -0.116 N 
HETATM   19  O1  UNL     1      51.938  18.489   2.382  1.00  0.00    -0.532 OA
HETATM   20  O2  UNL     1      53.124  16.734   1.651  1.00  0.00    -0.532 OA
ENDBRANCH   4  18
TORSDOF 6
ENDMDL
