MODEL 12
REMARK VINA RESULT: -10.993289598      4.883     11.227
REMARK  6 active torsions:
REMARK  status: ('A' for Active; 'I' for Inactive)
REMARK    1  A    between atoms: O1_2  and  C2_3 
REMARK    2  A    between atoms: C5_12  and  C6_13 
REMARK    3  A    between atoms: N4_15  and  C8_16 
REMARK    4  A    between atoms: C12_21  and  N5_22 
REMARK    5  A    between atoms: N5_22  and  S1_24 
REMARK    6  A    between atoms: S1_24  and  C13_27 
ROOT
HETATM    1  C6  UNL     1      10.523   2.167  12.033  1.00  0.00     0.078 A 
HETATM    2  C7  UNL     1      11.094   2.641  10.871  1.00  0.00     0.150 A 
HETATM    3  N4  UNL     1      11.241   1.628   9.997  1.00  0.00    -0.245 N 
HETATM    4  N6  UNL     1      10.777   0.561  10.599  1.00  0.00    -0.235 N 
ATOM      5  H6  UNL     1      10.753  -0.371  10.185  1.00  0.00     0.209 HD
HETATM    6  N7  UNL     1      10.342   0.852  11.816  1.00  0.00    -0.284 N 
ATOM      7  H7  UNL     1       9.937   0.190  12.477  1.00  0.00     0.188 HD
ENDROOT
BRANCH   3   8
HETATM    8  C8  UNL     1      11.782   1.652   8.680  1.00  0.00     0.136 A 
HETATM    9  C9  UNL     1      10.989   1.534   7.553  1.00  0.00     0.148 A 
HETATM   10  F1  UNL     1       9.650   1.392   7.745  1.00  0.00    -0.203 F 
HETATM   11  C10 UNL     1      11.524   1.559   6.281  1.00  0.00     0.047 A 
HETATM   12  C11 UNL     1      12.890   1.704   6.067  1.00  0.00     0.036 A 
HETATM   13  C12 UNL     1      13.691   1.822   7.173  1.00  0.00     0.083 A 
HETATM   14  C19 UNL     1      13.134   1.795   8.461  1.00  0.00     0.175 A 
HETATM   15  F2  UNL     1      13.924   1.912   9.564  1.00  0.00    -0.201 F 
BRANCH  13  16
HETATM   16  N5  UNL     1      15.088   1.949   7.050  1.00  0.00    -0.277 N 
ATOM     17  H5  UNL     1      15.692   1.669   7.822  1.00  0.00     0.179 HD
BRANCH  16  18
HETATM   18  S1  UNL     1      15.778   2.571   5.611  1.00  0.00     0.263 S 
HETATM   19  O2  UNL     1      15.513   1.635   4.439  1.00  0.00    -0.200 OA
HETATM   20  O3  UNL     1      15.062   3.866   5.253  1.00  0.00    -0.200 OA
BRANCH  18  21
HETATM   21  C13 UNL     1      17.483   2.901   5.751  1.00  0.00     0.081 A 
HETATM   22  C14 UNL     1      18.148   2.858   6.984  1.00  0.00     0.025 A 
HETATM   23  C15 UNL     1      19.491   3.128   7.032  1.00  0.00     0.003 A 
HETATM   24  C16 UNL     1      20.238   3.447   5.899  1.00  0.00     0.019 A 
HETATM   25  C17 UNL     1      19.567   3.483   4.704  1.00  0.00     0.012 A 
HETATM   26 BR1  UNL     1      20.574   3.920   3.134  1.00  0.00    -0.051 Br
HETATM   27  C18 UNL     1      18.205   3.215   4.620  1.00  0.00     0.044 A 
ENDBRANCH  18  21
ENDBRANCH  16  18
ENDBRANCH  13  16
ENDBRANCH   3   8
BRANCH   1  28
HETATM   28  C5  UNL     1      10.190   2.937  13.240  1.00  0.00     0.010 A 
HETATM   29  C4  UNL     1      11.210   3.474  13.971  1.00  0.00     0.103 A 
HETATM   30  N3  UNL     1      10.951   4.185  15.082  1.00  0.00    -0.350 N 
HETATM   31  C3  UNL     1       9.685   4.380  15.492  1.00  0.00     0.134 A 
ATOM     32  H3  UNL     1      11.722   4.582  15.619  1.00  0.00     0.166 HD
HETATM   33  N2  UNL     1       9.125   5.025  16.527  1.00  0.00    -0.283 N 
HETATM   34  C21 UNL     1       8.649   3.843  14.762  1.00  0.00     0.062 A 
HETATM   35  N1  UNL     1       7.810   4.909  16.466  1.00  0.00    -0.278 N 
ATOM     36  H2  UNL     1       9.638   5.529  17.251  1.00  0.00     0.188 HD
HETATM   37  C2  UNL     1       7.481   4.191  15.398  1.00  0.00     0.171 A 
ATOM     38  H1  UNL     1       7.151   5.309  17.134  1.00  0.00     0.189 HD
HETATM   39  C20 UNL     1       8.894   3.103  13.608  1.00  0.00     0.035 A 
BRANCH  37  40
HETATM   40  O1  UNL     1       6.198   3.833  14.963  1.00  0.00    -0.339 OA
HETATM   41  C1  UNL     1       5.045   4.354  15.570  1.00  0.00     0.211 C 
ENDBRANCH  37  40
ENDBRANCH   1  28
TORSDOF 6
ENDMDL
