MODEL 13
REMARK VINA RESULT: -10.988456315      4.042      4.743
REMARK  6 active torsions:
REMARK  status: ('A' for Active; 'I' for Inactive)
REMARK    1  A    between atoms: O1_2  and  C2_3 
REMARK    2  A    between atoms: C5_12  and  C6_13 
REMARK    3  A    between atoms: N4_15  and  C8_16 
REMARK    4  A    between atoms: C12_21  and  N5_22 
REMARK    5  A    between atoms: N5_22  and  S1_24 
REMARK    6  A    between atoms: S1_24  and  C13_27 
ROOT
HETATM    1  C6  UNL     1      15.989   2.644   8.315  1.00  0.00     0.078 A 
HETATM    2  C7  UNL     1      14.615   2.564   8.221  1.00  0.00     0.150 A 
HETATM    3  N4  UNL     1      14.084   2.488   9.455  1.00  0.00    -0.245 N 
HETATM    4  N6  UNL     1      15.095   2.519  10.287  1.00  0.00    -0.235 N 
ATOM      5  H6  UNL     1      15.008   2.477  11.303  1.00  0.00     0.209 HD
HETATM    6  N7  UNL     1      16.244   2.611   9.635  1.00  0.00    -0.284 N 
ATOM      7  H7  UNL     1      17.169   2.651  10.063  1.00  0.00     0.188 HD
ENDROOT
BRANCH   3   8
HETATM    8  C8  UNL     1      12.715   2.391   9.837  1.00  0.00     0.136 A 
HETATM    9  C9  UNL     1      11.795   1.659   9.109  1.00  0.00     0.148 A 
HETATM   10  F1  UNL     1      12.246   1.021   7.995  1.00  0.00    -0.203 F 
HETATM   11  C10 UNL     1      10.471   1.573   9.488  1.00  0.00     0.047 A 
HETATM   12  C11 UNL     1       9.993   2.217  10.622  1.00  0.00     0.036 A 
HETATM   13  C12 UNL     1      10.892   2.948  11.357  1.00  0.00     0.083 A 
HETATM   14  C19 UNL     1      12.236   3.028  10.960  1.00  0.00     0.175 A 
HETATM   15  F2  UNL     1      13.133   3.752  11.684  1.00  0.00    -0.201 F 
BRANCH  13  16
HETATM   16  N5  UNL     1      10.490   3.652  12.507  1.00  0.00    -0.277 N 
ATOM     17  H5  UNL     1      10.470   4.672  12.496  1.00  0.00     0.179 HD
BRANCH  16  18
HETATM   18  S1  UNL     1      10.035   2.808  13.927  1.00  0.00     0.263 S 
HETATM   19  O2  UNL     1      10.167   1.304  13.724  1.00  0.00    -0.200 OA
HETATM   20  O3  UNL     1      11.028   3.147  15.028  1.00  0.00    -0.200 OA
BRANCH  18  21
HETATM   21  C13 UNL     1       8.433   3.209  14.483  1.00  0.00     0.081 A 
HETATM   22  C14 UNL     1       7.454   3.720  13.620  1.00  0.00     0.025 A 
HETATM   23  C15 UNL     1       6.211   4.017  14.116  1.00  0.00     0.003 A 
HETATM   24  C16 UNL     1       5.869   3.832  15.455  1.00  0.00     0.019 A 
HETATM   25  C17 UNL     1       6.841   3.331  16.280  1.00  0.00     0.012 A 
HETATM   26 BR1  UNL     1       6.392   3.069  18.124  1.00  0.00    -0.051 Br
HETATM   27  C18 UNL     1       8.113   3.019  15.810  1.00  0.00     0.044 A 
ENDBRANCH  18  21
ENDBRANCH  16  18
ENDBRANCH  13  16
ENDBRANCH   3   8
BRANCH   1  28
HETATM   28  C5  UNL     1      16.953   2.742   7.211  1.00  0.00     0.010 A 
HETATM   29  C4  UNL     1      16.509   2.527   5.939  1.00  0.00     0.103 A 
HETATM   30  N3  UNL     1      17.357   2.606   4.898  1.00  0.00    -0.350 N 
HETATM   31  C3  UNL     1      18.655   2.899   5.093  1.00  0.00     0.134 A 
ATOM     32  H3  UNL     1      17.012   2.444   3.953  1.00  0.00     0.166 HD
HETATM   33  N2  UNL     1      19.714   3.045   4.281  1.00  0.00    -0.283 N 
HETATM   34  C21 UNL     1      19.114   3.118   6.372  1.00  0.00     0.062 A 
HETATM   35  N1  UNL     1      20.786   3.340   4.995  1.00  0.00    -0.278 N 
ATOM     36  H2  UNL     1      19.693   2.944   3.266  1.00  0.00     0.188 HD
HETATM   37  C2  UNL     1      20.458   3.392   6.281  1.00  0.00     0.171 A 
ATOM     38  H1  UNL     1      21.719   3.501   4.617  1.00  0.00     0.189 HD
HETATM   39  C20 UNL     1      18.253   3.040   7.464  1.00  0.00     0.035 A 
BRANCH  37  40
HETATM   40  O1  UNL     1      21.291   3.673   7.372  1.00  0.00    -0.339 OA
HETATM   41  C1  UNL     1      20.991   4.700   8.280  1.00  0.00     0.211 C 
ENDBRANCH  37  40
ENDBRANCH   1  28
TORSDOF 6
ENDMDL
