MODEL 9
REMARK VINA RESULT: -11.117946295      3.812      4.796
REMARK  6 active torsions:
REMARK  status: ('A' for Active; 'I' for Inactive)
REMARK    1  A    between atoms: O1_2  and  C2_3 
REMARK    2  A    between atoms: C5_12  and  C6_13 
REMARK    3  A    between atoms: N4_15  and  C8_16 
REMARK    4  A    between atoms: C12_21  and  N5_22 
REMARK    5  A    between atoms: N5_22  and  S1_24 
REMARK    6  A    between atoms: S1_24  and  C13_27 
ROOT
HETATM    1  C6  UNL     1      15.548   2.663   8.027  1.00  0.00     0.078 A 
HETATM    2  C7  UNL     1      14.844   2.292   9.153  1.00  0.00     0.150 A 
HETATM    3  N4  UNL     1      13.526   2.453   8.931  1.00  0.00    -0.245 N 
HETATM    4  N6  UNL     1      13.417   2.908   7.708  1.00  0.00    -0.235 N 
ATOM      5  H6  UNL     1      12.533   3.129   7.250  1.00  0.00     0.209 HD
HETATM    6  N7  UNL     1      14.608   3.044   7.144  1.00  0.00    -0.284 N 
ATOM      7  H7  UNL     1      14.783   3.381   6.198  1.00  0.00     0.188 HD
ENDROOT
BRANCH   3   8
HETATM    8  C8  UNL     1      12.432   2.197   9.807  1.00  0.00     0.136 A 
HETATM    9  C9  UNL     1      11.467   1.248   9.526  1.00  0.00     0.148 A 
HETATM   10  F1  UNL     1      11.595   0.552   8.364  1.00  0.00    -0.203 F 
HETATM   11  C10 UNL     1      10.411   1.008  10.382  1.00  0.00     0.047 A 
HETATM   12  C11 UNL     1      10.264   1.709  11.573  1.00  0.00     0.036 A 
HETATM   13  C12 UNL     1      11.213   2.654  11.868  1.00  0.00     0.083 A 
HETATM   14  C19 UNL     1      12.281   2.888  10.988  1.00  0.00     0.175 A 
HETATM   15  F2  UNL     1      13.227   3.826  11.275  1.00  0.00    -0.201 F 
BRANCH  13  16
HETATM   16  N5  UNL     1      11.130   3.428  13.041  1.00  0.00    -0.277 N 
ATOM     17  H5  UNL     1      11.483   4.384  13.044  1.00  0.00     0.179 HD
BRANCH  16  18
HETATM   18  S1  UNL     1      10.438   2.771  14.465  1.00  0.00     0.263 S 
HETATM   19  O2  UNL     1      10.580   1.255  14.483  1.00  0.00    -0.200 OA
HETATM   20  O3  UNL     1      11.245   3.258  15.661  1.00  0.00    -0.200 OA
BRANCH  18  21
HETATM   21  C13 UNL     1       8.773   3.230  14.698  1.00  0.00     0.081 A 
HETATM   22  C14 UNL     1       7.999   3.766  13.659  1.00  0.00     0.025 A 
HETATM   23  C15 UNL     1       6.695   4.108  13.902  1.00  0.00     0.003 A 
HETATM   24  C16 UNL     1       6.092   3.946  15.149  1.00  0.00     0.019 A 
HETATM   25  C17 UNL     1       6.868   3.421  16.149  1.00  0.00     0.012 A 
HETATM   26 BR1  UNL     1       6.059   3.191  17.871  1.00  0.00    -0.051 Br
HETATM   27  C18 UNL     1       8.194   3.064  15.937  1.00  0.00     0.044 A 
ENDBRANCH  18  21
ENDBRANCH  16  18
ENDBRANCH  13  16
ENDBRANCH   3   8
BRANCH   1  28
HETATM   28  C5  UNL     1      17.006   2.644   7.842  1.00  0.00     0.010 A 
HETATM   29  C4  UNL     1      17.781   2.131   8.840  1.00  0.00     0.103 A 
HETATM   30  N3  UNL     1      19.119   2.092   8.714  1.00  0.00    -0.350 N 
HETATM   31  C3  UNL     1      19.716   2.559   7.602  1.00  0.00     0.134 A 
ATOM     32  H3  UNL     1      19.687   1.706   9.467  1.00  0.00     0.166 HD
HETATM   33  N2  UNL     1      20.991   2.655   7.194  1.00  0.00    -0.283 N 
HETATM   34  C21 UNL     1      18.943   3.079   6.589  1.00  0.00     0.062 A 
HETATM   35  N1  UNL     1      21.034   3.202   5.992  1.00  0.00    -0.278 N 
ATOM     36  H2  UNL     1      21.803   2.351   7.730  1.00  0.00     0.188 HD
HETATM   37  C2  UNL     1      19.798   3.477   5.588  1.00  0.00     0.171 A 
ATOM     38  H1  UNL     1      21.883   3.386   5.457  1.00  0.00     0.189 HD
HETATM   39  C20 UNL     1      17.556   3.128   6.699  1.00  0.00     0.035 A 
BRANCH  37  40
HETATM   40  O1  UNL     1      19.396   4.059   4.379  1.00  0.00    -0.339 OA
HETATM   41  C1  UNL     1      20.164   3.930   3.211  1.00  0.00     0.211 C 
ENDBRANCH  37  40
ENDBRANCH   1  28
TORSDOF 6
ENDMDL
