MODEL 4
REMARK VINA RESULT: -12.933882820      1.120      1.512
REMARK  6 active torsions:
REMARK  status: ('A' for Active; 'I' for Inactive)
REMARK    1  A    between atoms: O1_2  and  C2_3 
REMARK    2  A    between atoms: C5_12  and  C6_13 
REMARK    3  A    between atoms: N4_15  and  C8_16 
REMARK    4  A    between atoms: C12_21  and  N5_22 
REMARK    5  A    between atoms: N5_22  and  S1_24 
REMARK    6  A    between atoms: S1_24  and  C13_27 
ROOT
HETATM    1  C6  UNL     1      12.076   1.564   7.724  1.00  0.00     0.078 A 
HETATM    2  C7  UNL     1      11.109   1.468   8.702  1.00  0.00     0.150 A 
HETATM    3  N4  UNL     1      11.676   1.634   9.912  1.00  0.00    -0.245 N 
HETATM    4  N6  UNL     1      12.952   1.827   9.690  1.00  0.00    -0.235 N 
ATOM      5  H6  UNL     1      13.648   1.985  10.420  1.00  0.00     0.209 HD
HETATM    6  N7  UNL     1      13.220   1.790   8.394  1.00  0.00    -0.284 N 
ATOM      7  H7  UNL     1      14.141   1.912   7.973  1.00  0.00     0.188 HD
ENDROOT
BRANCH   3   8
HETATM    8  C8  UNL     1      11.065   1.614  11.198  1.00  0.00     0.136 A 
HETATM    9  C9  UNL     1      10.779   0.435  11.862  1.00  0.00     0.148 A 
HETATM   10  F1  UNL     1      11.106  -0.728  11.237  1.00  0.00    -0.203 F 
HETATM   11  C10 UNL     1      10.186   0.428  13.109  1.00  0.00     0.047 A 
HETATM   12  C11 UNL     1       9.846   1.607  13.762  1.00  0.00     0.036 A 
HETATM   13  C12 UNL     1      10.123   2.785  13.118  1.00  0.00     0.083 A 
HETATM   14  C19 UNL     1      10.725   2.779  11.850  1.00  0.00     0.175 A 
HETATM   15  F2  UNL     1      11.002   3.945  11.205  1.00  0.00    -0.201 F 
BRANCH  13  16
HETATM   16  N5  UNL     1       9.790   4.025  13.695  1.00  0.00    -0.277 N 
ATOM     17  H5  UNL     1       9.533   4.811  13.097  1.00  0.00     0.179 HD
BRANCH  16  18
HETATM   18  S1  UNL     1       9.814   4.224  15.397  1.00  0.00     0.263 S 
HETATM   19  O2  UNL     1      10.838   3.293  16.033  1.00  0.00    -0.200 OA
HETATM   20  O3  UNL     1      10.309   5.629  15.710  1.00  0.00    -0.200 OA
BRANCH  18  21
HETATM   21  C13 UNL     1       8.252   4.009  16.138  1.00  0.00     0.081 A 
HETATM   22  C14 UNL     1       8.107   3.447  17.413  1.00  0.00     0.025 A 
HETATM   23  C15 UNL     1       6.852   3.303  17.944  1.00  0.00     0.003 A 
HETATM   24  C16 UNL     1       5.697   3.695  17.269  1.00  0.00     0.019 A 
HETATM   25  C17 UNL     1       5.863   4.243  16.024  1.00  0.00     0.012 A 
HETATM   26 BR1  UNL     1       4.288   4.789  15.078  1.00  0.00    -0.051 Br
HETATM   27  C18 UNL     1       7.122   4.403  15.455  1.00  0.00     0.044 A 
ENDBRANCH  18  21
ENDBRANCH  16  18
ENDBRANCH  13  16
ENDBRANCH   3   8
BRANCH   1  28
HETATM   28  C5  UNL     1      11.888   1.444   6.271  1.00  0.00     0.010 A 
HETATM   29  C4  UNL     1      10.631   1.590   5.764  1.00  0.00     0.103 A 
HETATM   30  N3  UNL     1      10.412   1.488   4.442  1.00  0.00    -0.350 N 
HETATM   31  C3  UNL     1      11.429   1.241   3.596  1.00  0.00     0.134 A 
ATOM     32  H3  UNL     1       9.467   1.600   4.075  1.00  0.00     0.166 HD
HETATM   33  N2  UNL     1      11.525   1.089   2.266  1.00  0.00    -0.283 N 
HETATM   34  C21 UNL     1      12.702   1.092   4.097  1.00  0.00     0.062 A 
HETATM   35  N1  UNL     1      12.783   0.857   1.934  1.00  0.00    -0.278 N 
ATOM     36  H2  UNL     1      10.745   1.145   1.611  1.00  0.00     0.188 HD
HETATM   37  C2  UNL     1      13.534   0.850   3.029  1.00  0.00     0.171 A 
ATOM     38  H1  UNL     1      13.124   0.706   0.985  1.00  0.00     0.189 HD
HETATM   39  C20 UNL     1      12.951   1.193   5.464  1.00  0.00     0.035 A 
BRANCH  37  40
HETATM   40  O1  UNL     1      14.917   0.643   3.125  1.00  0.00    -0.339 OA
HETATM   41  C1  UNL     1      15.825   1.375   2.345  1.00  0.00     0.211 C 
ENDBRANCH  37  40
ENDBRANCH   1  28
TORSDOF 6
ENDMDL
