MODEL 1
REMARK VINA RESULT: -13.172267404      0.000      0.000
REMARK  6 active torsions:
REMARK  status: ('A' for Active; 'I' for Inactive)
REMARK    1  A    between atoms: O1_2  and  C2_3 
REMARK    2  A    between atoms: C5_12  and  C6_13 
REMARK    3  A    between atoms: N4_15  and  C8_16 
REMARK    4  A    between atoms: C12_21  and  N5_22 
REMARK    5  A    between atoms: N5_22  and  S1_24 
REMARK    6  A    between atoms: S1_24  and  C13_27 
ROOT
HETATM    1  C6  UNL     1      12.113   1.585   7.854  1.00  0.00     0.078 A 
HETATM    2  C7  UNL     1      11.176   1.449   8.856  1.00  0.00     0.150 A 
HETATM    3  N4  UNL     1      11.771   1.615  10.053  1.00  0.00    -0.245 N 
HETATM    4  N6  UNL     1      13.035   1.845   9.799  1.00  0.00    -0.235 N 
ATOM      5  H6  UNL     1      13.746   2.012  10.512  1.00  0.00     0.209 HD
HETATM    6  N7  UNL     1      13.269   1.832   8.495  1.00  0.00    -0.284 N 
ATOM      7  H7  UNL     1      14.174   1.986   8.052  1.00  0.00     0.188 HD
ENDROOT
BRANCH   3   8
HETATM    8  C8  UNL     1      11.195   1.561  11.354  1.00  0.00     0.136 A 
HETATM    9  C9  UNL     1      10.527   0.444  11.821  1.00  0.00     0.148 A 
HETATM   10  F1  UNL     1      10.434  -0.623  10.983  1.00  0.00    -0.203 F 
HETATM   11  C10 UNL     1       9.973   0.403  13.084  1.00  0.00     0.047 A 
HETATM   12  C11 UNL     1      10.059   1.484  13.954  1.00  0.00     0.036 A 
HETATM   13  C12 UNL     1      10.719   2.600  13.508  1.00  0.00     0.083 A 
HETATM   14  C19 UNL     1      11.277   2.629  12.220  1.00  0.00     0.175 A 
HETATM   15  F2  UNL     1      11.933   3.734  11.770  1.00  0.00    -0.201 F 
BRANCH  13  16
HETATM   16  N5  UNL     1      10.833   3.749  14.313  1.00  0.00    -0.277 N 
ATOM     17  H5  UNL     1      11.651   3.872  14.909  1.00  0.00     0.179 HD
BRANCH  16  18
HETATM   18  S1  UNL     1       9.604   4.943  14.298  1.00  0.00     0.263 S 
HETATM   19  O2  UNL     1       9.987   6.121  15.184  1.00  0.00    -0.200 OA
HETATM   20  O3  UNL     1       9.510   5.520  12.892  1.00  0.00    -0.200 OA
BRANCH  18  21
HETATM   21  C13 UNL     1       8.038   4.326  14.748  1.00  0.00     0.081 A 
HETATM   22  C14 UNL     1       6.980   4.246  13.832  1.00  0.00     0.025 A 
HETATM   23  C15 UNL     1       5.770   3.752  14.245  1.00  0.00     0.003 A 
HETATM   24  C16 UNL     1       5.538   3.318  15.549  1.00  0.00     0.019 A 
HETATM   25  C17 UNL     1       6.586   3.406  16.428  1.00  0.00     0.012 A 
HETATM   26 BR1  UNL     1       6.288   2.816  18.227  1.00  0.00    -0.051 Br
HETATM   27  C18 UNL     1       7.826   3.903  16.042  1.00  0.00     0.044 A 
ENDBRANCH  18  21
ENDBRANCH  16  18
ENDBRANCH  13  16
ENDBRANCH   3   8
BRANCH   1  28
HETATM   28  C5  UNL     1      11.889   1.479   6.405  1.00  0.00     0.010 A 
HETATM   29  C4  UNL     1      10.623   1.652   5.929  1.00  0.00     0.103 A 
HETATM   30  N3  UNL     1      10.372   1.565   4.611  1.00  0.00    -0.350 N 
HETATM   31  C3  UNL     1      11.364   1.305   3.740  1.00  0.00     0.134 A 
ATOM     32  H3  UNL     1       9.421   1.696   4.268  1.00  0.00     0.166 HD
HETATM   33  N2  UNL     1      11.426   1.161   2.407  1.00  0.00    -0.283 N 
HETATM   34  C21 UNL     1      12.645   1.129   4.210  1.00  0.00     0.062 A 
HETATM   35  N1  UNL     1      12.671   0.909   2.044  1.00  0.00    -0.278 N 
ATOM     36  H2  UNL     1      10.631   1.236   1.771  1.00  0.00     0.188 HD
HETATM   37  C2  UNL     1      13.447   0.880   3.121  1.00  0.00     0.171 A 
ATOM     38  H1  UNL     1      12.986   0.759   1.086  1.00  0.00     0.189 HD
HETATM   39  C20 UNL     1      12.927   1.215   5.571  1.00  0.00     0.035 A 
BRANCH  37  40
HETATM   40  O1  UNL     1      14.828   0.646   3.183  1.00  0.00    -0.339 OA
HETATM   41  C1  UNL     1      15.733   1.386   2.406  1.00  0.00     0.211 C 
ENDBRANCH  37  40
ENDBRANCH   1  28
TORSDOF 6
ENDMDL
