MODEL 3
REMARK VINA RESULT: -9.327712984      2.690      6.038
REMARK  3 active torsions:
REMARK  status: ('A' for Active; 'I' for Inactive)
REMARK    1  A    between atoms: C7_12  and  C8_13 
REMARK    2  A    between atoms: C14_22  and  N6_23 
REMARK    3  A    between atoms: N6_23  and  C15_25 
ROOT
HETATM    1  C1  UNL     1      22.080  10.895 -12.973  1.00  0.00     0.091 C 
HETATM    2  C2  UNL     1      20.928  11.800 -12.830  1.00  0.00     0.100 A 
HETATM    3  N1  UNL     1      20.606  12.829 -13.685  1.00  0.00    -0.287 N 
ATOM      4  H1  UNL     1      21.158  13.121 -14.491  1.00  0.00     0.188 HD
HETATM    5  N2  UNL     1      19.447  13.389 -13.292  1.00  0.00    -0.287 N 
ATOM      6  H2  UNL     1      18.977  14.173 -13.747  1.00  0.00     0.188 HD
HETATM    7  C3  UNL     1      19.031  12.764 -12.241  1.00  0.00     0.104 A 
HETATM    8  N3  UNL     1      19.935  11.795 -11.950  1.00  0.00    -0.288 N 
HETATM    9  C4  UNL     1      19.842  10.899 -10.819  1.00  0.00     0.050 A 
HETATM   10  C5  UNL     1      21.121  10.611 -10.397  1.00  0.00     0.031 A 
HETATM   11  C6  UNL     1      21.232   9.713  -9.333  1.00  0.00     0.014 A 
HETATM   12  C7  UNL     1      20.111   9.165  -8.756  1.00  0.00    -0.022 A 
HETATM   13  C12 UNL     1      18.871   9.484  -9.205  1.00  0.00     0.024 A 
HETATM   14  C13 UNL     1      18.702  10.379 -10.271  1.00  0.00    -0.007 A 
HETATM   15  C14 UNL     1      17.272  10.609 -10.535  1.00  0.00     0.117 C 
HETATM   16  C21 UNL     1      17.012  11.573 -11.600  1.00  0.00     0.037 C 
HETATM   17  C22 UNL     1      17.739  12.912 -11.477  1.00  0.00     0.081 C 
ENDROOT
BRANCH  15  18
HETATM   18  N6  UNL     1      16.554   9.365 -10.664  1.00  0.00    -0.381 N 
ATOM     19  H6  UNL     1      17.062   8.514 -10.904  1.00  0.00     0.160 HD
BRANCH  18  20
HETATM   20  C15 UNL     1      15.171   9.314 -10.466  1.00  0.00     0.028 A 
HETATM   21  C16 UNL     1      14.442   8.166 -10.250  1.00  0.00     0.031 A 
HETATM   22  C17 UNL     1      13.071   8.168 -10.036  1.00  0.00     0.026 A 
HETATM   23  C18 UNL     1      12.372   9.353 -10.031  1.00  0.00     0.034 A 
HETATM   24 CL1  UNL     1      10.632   9.407  -9.762  1.00  0.00    -0.084 Cl
HETATM   25  C19 UNL     1      13.064  10.518 -10.242  1.00  0.00     0.026 A 
HETATM   26  C20 UNL     1      14.423  10.503 -10.453  1.00  0.00     0.031 A 
ENDBRANCH  18  20
ENDBRANCH  15  18
BRANCH  12  27
HETATM   27  C8  UNL     1      20.241   8.210  -7.627  1.00  0.00     0.008 A 
HETATM   28  C9  UNL     1      21.307   7.350  -7.467  1.00  0.00     0.120 A 
HETATM   29  N4  UNL     1      21.095   6.633  -6.338  1.00  0.00    -0.310 N 
HETATM   30  N5  UNL     1      19.930   7.027  -5.802  1.00  0.00    -0.307 N 
ATOM     31  H4  UNL     1      21.715   5.916  -5.960  1.00  0.00     0.186 HD
HETATM   32  C10 UNL     1      19.413   6.448  -4.577  1.00  0.00     0.177 C 
HETATM   33  C11 UNL     1      19.388   7.996  -6.577  1.00  0.00     0.123 A 
ENDBRANCH  12  27
TORSDOF 3
ENDMDL
