MODEL 1
REMARK VINA RESULT: -10.191543210      0.000      0.000
REMARK  3 active torsions:
REMARK  status: ('A' for Active; 'I' for Inactive)
REMARK    1  A    between atoms: C7_12  and  C8_13 
REMARK    2  A    between atoms: C14_22  and  N6_23 
REMARK    3  A    between atoms: N6_23  and  C15_25 
ROOT
HETATM    1  C1  UNL     1      18.746  14.276 -11.810  1.00  0.00     0.091 C 
HETATM    2  C2  UNL     1      19.886  13.353 -11.687  1.00  0.00     0.100 A 
HETATM    3  N1  UNL     1      21.207  13.680 -11.892  1.00  0.00    -0.287 N 
ATOM      4  H1  UNL     1      21.548  14.588 -12.207  1.00  0.00     0.188 HD
HETATM    5  N2  UNL     1      21.979  12.614 -11.610  1.00  0.00    -0.287 N 
ATOM      6  H2  UNL     1      22.997  12.578 -11.677  1.00  0.00     0.188 HD
HETATM    7  C3  UNL     1      21.210  11.644 -11.240  1.00  0.00     0.104 A 
HETATM    8  N3  UNL     1      19.929  12.088 -11.290  1.00  0.00    -0.288 N 
HETATM    9  C4  UNL     1      18.769  11.282 -10.980  1.00  0.00     0.050 A 
HETATM   10  C5  UNL     1      17.730  11.705 -11.780  1.00  0.00     0.031 A 
HETATM   11  C6  UNL     1      16.503  11.068 -11.586  1.00  0.00     0.014 A 
HETATM   12  C7  UNL     1      16.369  10.076 -10.644  1.00  0.00    -0.022 A 
HETATM   13  C12 UNL     1      17.423   9.691  -9.882  1.00  0.00     0.024 A 
HETATM   14  C13 UNL     1      18.678  10.298 -10.036  1.00  0.00    -0.007 A 
HETATM   15  C14 UNL     1      19.670   9.673  -9.145  1.00  0.00     0.117 C 
HETATM   16  C21 UNL     1      21.018  10.216  -9.284  1.00  0.00     0.037 C 
HETATM   17  C22 UNL     1      21.566  10.278 -10.709  1.00  0.00     0.081 C 
ENDROOT
BRANCH  15  18
HETATM   18  N6  UNL     1      19.188   9.604  -7.788  1.00  0.00    -0.381 N 
ATOM     19  H6  UNL     1      18.667  10.389  -7.398  1.00  0.00     0.160 HD
BRANCH  18  20
HETATM   20  C15 UNL     1      19.427   8.473  -7.001  1.00  0.00     0.028 A 
HETATM   21  C16 UNL     1      20.643   7.844  -6.864  1.00  0.00     0.031 A 
HETATM   22  C17 UNL     1      20.836   6.734  -6.053  1.00  0.00     0.026 A 
HETATM   23  C18 UNL     1      19.786   6.210  -5.335  1.00  0.00     0.034 A 
HETATM   24 CL1  UNL     1      19.981   4.805  -4.291  1.00  0.00    -0.084 Cl
HETATM   25  C19 UNL     1      18.558   6.810  -5.446  1.00  0.00     0.026 A 
HETATM   26  C20 UNL     1      18.380   7.908  -6.253  1.00  0.00     0.031 A 
ENDBRANCH  18  20
ENDBRANCH  15  18
BRANCH  12  27
HETATM   27  C8  UNL     1      15.058   9.408 -10.444  1.00  0.00     0.008 A 
HETATM   28  C9  UNL     1      14.910   8.056 -10.215  1.00  0.00     0.120 A 
HETATM   29  N4  UNL     1      13.588   7.800 -10.081  1.00  0.00    -0.310 N 
HETATM   30  N5  UNL     1      12.919   8.955 -10.222  1.00  0.00    -0.307 N 
ATOM     31  H4  UNL     1      13.170   6.886  -9.903  1.00  0.00     0.186 HD
HETATM   32  C10 UNL     1      11.473   9.022 -10.131  1.00  0.00     0.177 C 
HETATM   33  C11 UNL     1      13.803   9.957 -10.446  1.00  0.00     0.123 A 
ENDBRANCH  12  27
TORSDOF 3
ENDMDL
