MODEL 2
REMARK VINA RESULT: -9.812450472      2.878      6.290
REMARK  3 active torsions:
REMARK  status: ('A' for Active; 'I' for Inactive)
REMARK    1  A    between atoms: C7_12  and  C8_13 
REMARK    2  A    between atoms: C14_22  and  N6_23 
REMARK    3  A    between atoms: N6_23  and  C15_25 
ROOT
HETATM    1  C1  UNL     1      21.185  10.645 -13.274  1.00  0.00     0.091 C 
HETATM    2  C2  UNL     1      19.949  11.408 -13.041  1.00  0.00     0.100 A 
HETATM    3  N1  UNL     1      19.410  12.342 -13.896  1.00  0.00    -0.287 N 
ATOM      4  H1  UNL     1      19.834  12.657 -14.769  1.00  0.00     0.188 HD
HETATM    5  N2  UNL     1      18.236  12.776 -13.401  1.00  0.00    -0.287 N 
ATOM      6  H2  UNL     1      17.625  13.471 -13.831  1.00  0.00     0.188 HD
HETATM    7  C3  UNL     1      18.016  12.162 -12.286  1.00  0.00     0.104 A 
HETATM    8  N3  UNL     1      19.062  11.328 -12.057  1.00  0.00    -0.288 N 
HETATM    9  C4  UNL     1      19.203  10.489 -10.888  1.00  0.00     0.050 A 
HETATM   10  C5  UNL     1      20.545  10.384 -10.598  1.00  0.00     0.031 A 
HETATM   11  C6  UNL     1      20.880   9.565  -9.518  1.00  0.00     0.014 A 
HETATM   12  C7  UNL     1      19.904   8.915  -8.800  1.00  0.00    -0.022 A 
HETATM   13  C12 UNL     1      18.594   9.054  -9.122  1.00  0.00     0.024 A 
HETATM   14  C13 UNL     1      18.202   9.864 -10.198  1.00  0.00    -0.007 A 
HETATM   15  C14 UNL     1      16.734   9.902 -10.312  1.00  0.00     0.117 C 
HETATM   16  C21 UNL     1      16.244  10.768 -11.380  1.00  0.00     0.037 C 
HETATM   17  C22 UNL     1      16.803  12.191 -11.390  1.00  0.00     0.081 C 
ENDROOT
BRANCH  15  18
HETATM   18  N6  UNL     1      16.172   8.574 -10.312  1.00  0.00    -0.381 N 
ATOM     19  H6  UNL     1      16.769   7.775 -10.099  1.00  0.00     0.160 HD
BRANCH  18  20
HETATM   20  C15 UNL     1      14.819   8.371 -10.599  1.00  0.00     0.028 A 
HETATM   21  C16 UNL     1      14.331   7.783 -11.744  1.00  0.00     0.031 A 
HETATM   22  C17 UNL     1      12.976   7.582 -11.975  1.00  0.00     0.026 A 
HETATM   23  C18 UNL     1      12.048   7.976 -11.039  1.00  0.00     0.034 A 
HETATM   24 CL1  UNL     1      10.320   7.743 -11.286  1.00  0.00    -0.084 Cl
HETATM   25  C19 UNL     1      12.497   8.566  -9.886  1.00  0.00     0.026 A 
HETATM   26  C20 UNL     1      13.841   8.759  -9.669  1.00  0.00     0.031 A 
ENDBRANCH  18  20
ENDBRANCH  15  18
BRANCH  12  27
HETATM   27  C8  UNL     1      20.273   8.044  -7.655  1.00  0.00     0.008 A 
HETATM   28  C9  UNL     1      21.423   7.286  -7.605  1.00  0.00     0.120 A 
HETATM   29  N4  UNL     1      21.433   6.624  -6.424  1.00  0.00    -0.310 N 
HETATM   30  N5  UNL     1      20.322   6.955  -5.748  1.00  0.00    -0.307 N 
ATOM     31  H4  UNL     1      22.159   5.985  -6.102  1.00  0.00     0.186 HD
HETATM   32  C10 UNL     1      20.030   6.412  -4.435  1.00  0.00     0.177 C 
HETATM   33  C11 UNL     1      19.594   7.826  -6.486  1.00  0.00     0.123 A 
ENDBRANCH  12  27
TORSDOF 3
ENDMDL
