MODEL 10
REMARK VINA RESULT: -9.474249069      2.955      3.831
REMARK  3 active torsions:
REMARK  status: ('A' for Active; 'I' for Inactive)
REMARK    1  A    between atoms: C1_2  and  C2_4 
REMARK    2  A    between atoms: C8_12  and  N2_13 
REMARK    3  A    between atoms: N2_13  and  C9_15 
ROOT
HETATM    1  C2  UNL     1      13.635   5.937 -15.948  1.00  0.00     0.043 A 
HETATM    2  C3  UNL     1      14.447   5.002 -15.355  1.00  0.00     0.019 A 
HETATM    3  C4  UNL     1      14.200   4.488 -14.097  1.00  0.00     0.016 A 
HETATM    4  C5  UNL     1      13.098   4.919 -13.395  1.00  0.00     0.003 A 
HETATM    5  C6  UNL     1      12.250   5.872 -13.970  1.00  0.00     0.045 A 
HETATM    6  C7  UNL     1      12.542   6.353 -15.230  1.00  0.00     0.048 A 
HETATM    7  N1  UNL     1      11.187   6.282 -13.282  1.00  0.00    -0.341 N 
ATOM      8  H1  UNL     1      10.592   6.976 -13.735  1.00  0.00     0.167 HD
HETATM    9  C8  UNL     1      10.817   5.884 -12.068  1.00  0.00     0.117 A 
HETATM   10  C15 UNL     1      11.636   4.943 -11.474  1.00  0.00     0.022 A 
HETATM   11  C16 UNL     1      11.357   4.456 -10.218  1.00  0.00     0.033 A 
HETATM   12  C17 UNL     1      12.207   3.514  -9.660  1.00  0.00     0.088 A 
HETATM   13  N3  UNL     1      13.276   3.071 -10.298  1.00  0.00    -0.374 N 
ATOM     14  H3  UNL     1      13.873   2.376  -9.849  1.00  0.00     0.164 HD
HETATM   15  C18 UNL     1      13.596   3.519 -11.537  1.00  0.00     0.100 A 
HETATM   16  C19 UNL     1      12.776   4.451 -12.121  1.00  0.00     0.006 A 
ENDROOT
BRANCH   9  17
HETATM   17  N2  UNL     1       9.658   6.383 -11.443  1.00  0.00    -0.342 N 
ATOM     18  H2  UNL     1       8.783   5.904 -11.656  1.00  0.00     0.167 HD
BRANCH  17  19
HETATM   19  C9  UNL     1       9.579   7.473 -10.554  1.00  0.00     0.035 A 
HETATM   20  C10 UNL     1       9.313   7.401  -9.219  1.00  0.00     0.029 A 
HETATM   21  C11 UNL     1       9.268   8.549  -8.411  1.00  0.00     0.004 A 
HETATM   22  C12 UNL     1       9.491   9.796  -8.942  1.00  0.00     0.024 A 
HETATM   23  C13 UNL     1       9.761   9.889 -10.289  1.00  0.00     0.036 A 
HETATM   24 CL1  UNL     1      10.043  11.492 -10.948  1.00  0.00    -0.084 Cl
HETATM   25  C14 UNL     1       9.801   8.760 -11.060  1.00  0.00     0.053 A 
ENDBRANCH  17  19
ENDBRANCH   9  17
BRANCH   1  26
HETATM   26  C1  UNL     1      13.903   6.472 -17.273  1.00  0.00     0.209 C 
HETATM   27  O1  UNL     1      12.995   7.076 -17.874  1.00  0.00    -0.644 OA
HETATM   28  O2  UNL     1      15.132   6.317 -17.861  1.00  0.00    -0.644 OA
ENDBRANCH   1  26
TORSDOF 3
ENDMDL
