MODEL 9
REMARK VINA RESULT: -9.486321805      2.325      2.977
REMARK  3 active torsions:
REMARK  status: ('A' for Active; 'I' for Inactive)
REMARK    1  A    between atoms: C1_2  and  C2_4 
REMARK    2  A    between atoms: C8_12  and  N2_13 
REMARK    3  A    between atoms: N2_13  and  C9_15 
ROOT
HETATM    1  C2  UNL     1      13.933   5.914 -16.289  1.00  0.00     0.043 A 
HETATM    2  C3  UNL     1      14.750   5.030 -15.627  1.00  0.00     0.019 A 
HETATM    3  C4  UNL     1      14.470   4.562 -14.358  1.00  0.00     0.016 A 
HETATM    4  C5  UNL     1      13.330   4.987 -13.715  1.00  0.00     0.003 A 
HETATM    5  C6  UNL     1      12.476   5.888 -14.363  1.00  0.00     0.045 A 
HETATM    6  C7  UNL     1      12.802   6.324 -15.631  1.00  0.00     0.048 A 
HETATM    7  N1  UNL     1      11.376   6.293 -13.732  1.00  0.00    -0.341 N 
ATOM      8  H1  UNL     1      10.777   6.948 -14.237  1.00  0.00     0.167 HD
HETATM    9  C8  UNL     1      10.971   5.935 -12.517  1.00  0.00     0.117 A 
HETATM   10  C15 UNL     1      11.795   5.046 -11.853  1.00  0.00     0.022 A 
HETATM   11  C16 UNL     1      11.483   4.604 -10.588  1.00  0.00     0.033 A 
HETATM   12  C17 UNL     1      12.339   3.714  -9.959  1.00  0.00     0.088 A 
HETATM   13  N3  UNL     1      13.444   3.278 -10.537  1.00  0.00    -0.374 N 
ATOM     14  H3  UNL     1      14.044   2.622 -10.036  1.00  0.00     0.164 HD
HETATM   15  C18 UNL     1      13.798   3.683 -11.782  1.00  0.00     0.100 A 
HETATM   16  C19 UNL     1      12.974   4.564 -12.435  1.00  0.00     0.006 A 
ENDROOT
BRANCH   9  17
HETATM   17  N2  UNL     1       9.775   6.423 -11.957  1.00  0.00    -0.342 N 
ATOM     18  H2  UNL     1       9.362   5.867 -11.208  1.00  0.00     0.167 HD
BRANCH  17  19
HETATM   19  C9  UNL     1       9.088   7.597 -12.323  1.00  0.00     0.035 A 
HETATM   20  C10 UNL     1       7.993   7.665 -13.134  1.00  0.00     0.029 A 
HETATM   21  C11 UNL     1       7.368   8.887 -13.431  1.00  0.00     0.004 A 
HETATM   22  C12 UNL     1       7.842  10.068 -12.912  1.00  0.00     0.024 A 
HETATM   23  C13 UNL     1       8.947  10.019 -12.092  1.00  0.00     0.036 A 
HETATM   24 CL1  UNL     1       9.537  11.539 -11.439  1.00  0.00    -0.084 Cl
HETATM   25  C14 UNL     1       9.542   8.819 -11.813  1.00  0.00     0.053 A 
ENDBRANCH  17  19
ENDBRANCH   9  17
BRANCH   1  26
HETATM   26  C1  UNL     1      14.235   6.400 -17.625  1.00  0.00     0.209 C 
HETATM   27  O1  UNL     1      13.311   6.852 -18.326  1.00  0.00    -0.644 OA
HETATM   28  O2  UNL     1      15.515   6.365 -18.116  1.00  0.00    -0.644 OA
ENDBRANCH   1  26
TORSDOF 3
ENDMDL
