MODEL 5
REMARK VINA RESULT: -9.599207512      4.413      6.147
REMARK  3 active torsions:
REMARK  status: ('A' for Active; 'I' for Inactive)
REMARK    1  A    between atoms: C1_2  and  C2_4 
REMARK    2  A    between atoms: C8_12  and  N2_13 
REMARK    3  A    between atoms: N2_13  and  C9_15 
ROOT
HETATM    1  C2  UNL     1      11.826   3.832  -9.378  1.00  0.00     0.043 A 
HETATM    2  C3  UNL     1      12.931   3.232  -9.931  1.00  0.00     0.019 A 
HETATM    3  C4  UNL     1      13.359   3.498 -11.217  1.00  0.00     0.016 A 
HETATM    4  C5  UNL     1      12.663   4.398 -11.990  1.00  0.00     0.003 A 
HETATM    5  C6  UNL     1      11.532   5.027 -11.457  1.00  0.00     0.045 A 
HETATM    6  C7  UNL     1      11.147   4.727 -10.166  1.00  0.00     0.048 A 
HETATM    7  N1  UNL     1      10.866   5.896 -12.213  1.00  0.00    -0.341 N 
ATOM      8  H1  UNL     1      10.049   6.336 -11.789  1.00  0.00     0.167 HD
HETATM    9  C8  UNL     1      11.152   6.255 -13.462  1.00  0.00     0.117 A 
HETATM   10  C15 UNL     1      12.264   5.650 -14.015  1.00  0.00     0.022 A 
HETATM   11  C16 UNL     1      12.658   5.939 -15.302  1.00  0.00     0.033 A 
HETATM   12  C17 UNL     1      13.778   5.306 -15.817  1.00  0.00     0.088 A 
HETATM   13  N3  UNL     1      14.478   4.436 -15.111  1.00  0.00    -0.374 N 
ATOM     14  H3  UNL     1      15.297   3.996 -15.532  1.00  0.00     0.164 HD
HETATM   15  C18 UNL     1      14.131   4.115 -13.840  1.00  0.00     0.100 A 
HETATM   16  C19 UNL     1      13.028   4.722 -13.297  1.00  0.00     0.006 A 
ENDROOT
BRANCH   9  17
HETATM   17  N2  UNL     1      10.376   7.200 -14.160  1.00  0.00    -0.342 N 
ATOM     18  H2  UNL     1       9.740   6.834 -14.868  1.00  0.00     0.167 HD
BRANCH  17  19
HETATM   19  C9  UNL     1      10.387   8.598 -13.984  1.00  0.00     0.035 A 
HETATM   20  C10 UNL     1      10.432   9.530 -14.978  1.00  0.00     0.029 A 
HETATM   21  C11 UNL     1      10.426  10.907 -14.702  1.00  0.00     0.004 A 
HETATM   22  C12 UNL     1      10.374  11.368 -13.408  1.00  0.00     0.024 A 
HETATM   23  C13 UNL     1      10.328  10.441 -12.391  1.00  0.00     0.036 A 
HETATM   24 CL1  UNL     1      10.263  11.050 -10.745  1.00  0.00    -0.084 Cl
HETATM   25  C14 UNL     1      10.335   9.104 -12.679  1.00  0.00     0.053 A 
ENDBRANCH  17  19
ENDBRANCH   9  17
BRANCH   1  26
HETATM   26  C1  UNL     1      11.383   3.548  -8.023  1.00  0.00     0.209 C 
HETATM   27  O1  UNL     1      11.971   4.092  -7.070  1.00  0.00    -0.644 OA
HETATM   28  O2  UNL     1      10.337   2.693  -7.788  1.00  0.00    -0.644 OA
ENDBRANCH   1  26
TORSDOF 3
ENDMDL
