MODEL 4
REMARK VINA RESULT: -9.609002979      4.265      5.984
REMARK  3 active torsions:
REMARK  status: ('A' for Active; 'I' for Inactive)
REMARK    1  A    between atoms: C1_2  and  C2_4 
REMARK    2  A    between atoms: C8_12  and  N2_13 
REMARK    3  A    between atoms: N2_13  and  C9_15 
ROOT
HETATM    1  C2  UNL     1      11.764   3.709  -9.303  1.00  0.00     0.043 A 
HETATM    2  C3  UNL     1      12.865   3.091  -9.845  1.00  0.00     0.019 A 
HETATM    3  C4  UNL     1      13.336   3.380 -11.111  1.00  0.00     0.016 A 
HETATM    4  C5  UNL     1      12.688   4.323 -11.875  1.00  0.00     0.003 A 
HETATM    5  C6  UNL     1      11.563   4.971 -11.353  1.00  0.00     0.045 A 
HETATM    6  C7  UNL     1      11.134   4.646 -10.082  1.00  0.00     0.048 A 
HETATM    7  N1  UNL     1      10.945   5.882 -12.101  1.00  0.00    -0.341 N 
ATOM      8  H1  UNL     1      10.129   6.334 -11.686  1.00  0.00     0.167 HD
HETATM    9  C8  UNL     1      11.275   6.267 -13.331  1.00  0.00     0.117 A 
HETATM   10  C15 UNL     1      12.382   5.644 -13.872  1.00  0.00     0.022 A 
HETATM   11  C16 UNL     1      12.820   5.958 -15.139  1.00  0.00     0.033 A 
HETATM   12  C17 UNL     1      13.935   5.306 -15.643  1.00  0.00     0.088 A 
HETATM   13  N3  UNL     1      14.588   4.394 -14.945  1.00  0.00    -0.374 N 
ATOM     14  H3  UNL     1      15.404   3.941 -15.356  1.00  0.00     0.164 HD
HETATM   15  C18 UNL     1      14.198   4.048 -13.693  1.00  0.00     0.100 A 
HETATM   16  C19 UNL     1      13.098   4.673 -13.161  1.00  0.00     0.006 A 
ENDROOT
BRANCH   9  17
HETATM   17  N2  UNL     1      10.548   7.256 -14.021  1.00  0.00    -0.342 N 
ATOM     18  H2  UNL     1      10.065   6.958 -14.869  1.00  0.00     0.167 HD
BRANCH  17  19
HETATM   19  C9  UNL     1      10.415   8.612 -13.664  1.00  0.00     0.035 A 
HETATM   20  C10 UNL     1      10.632   9.139 -12.426  1.00  0.00     0.029 A 
HETATM   21  C11 UNL     1      10.485  10.512 -12.170  1.00  0.00     0.004 A 
HETATM   22  C12 UNL     1      10.113  11.381 -13.168  1.00  0.00     0.024 A 
HETATM   23  C13 UNL     1       9.888  10.867 -14.426  1.00  0.00     0.036 A 
HETATM   24 CL1  UNL     1       9.413  11.993 -15.686  1.00  0.00    -0.084 Cl
HETATM   25  C14 UNL     1      10.037   9.526 -14.655  1.00  0.00     0.053 A 
ENDBRANCH  17  19
ENDBRANCH   9  17
BRANCH   1  26
HETATM   26  C1  UNL     1      11.276   3.400  -7.970  1.00  0.00     0.209 C 
HETATM   27  O1  UNL     1      10.262   2.686  -7.849  1.00  0.00    -0.644 OA
HETATM   28  O2  UNL     1      11.913   3.882  -6.856  1.00  0.00    -0.644 OA
ENDBRANCH   1  26
TORSDOF 3
ENDMDL
