MODEL 11
REMARK VINA RESULT: -9.396193139      2.565      3.435
REMARK  3 active torsions:
REMARK  status: ('A' for Active; 'I' for Inactive)
REMARK    1  A    between atoms: C1_2  and  C2_4 
REMARK    2  A    between atoms: C8_12  and  N2_13 
REMARK    3  A    between atoms: N2_13  and  C9_15 
ROOT
HETATM    1  C2  UNL     1      13.830   5.545 -15.336  1.00  0.00     0.043 A 
HETATM    2  C3  UNL     1      14.562   4.616 -14.638  1.00  0.00     0.019 A 
HETATM    3  C4  UNL     1      14.201   4.172 -13.381  1.00  0.00     0.016 A 
HETATM    4  C5  UNL     1      13.064   4.670 -12.788  1.00  0.00     0.003 A 
HETATM    5  C6  UNL     1      12.296   5.618 -13.472  1.00  0.00     0.045 A 
HETATM    6  C7  UNL     1      12.700   6.028 -14.726  1.00  0.00     0.048 A 
HETATM    7  N1  UNL     1      11.197   6.093 -12.888  1.00  0.00    -0.341 N 
ATOM      8  H1  UNL     1      10.662   6.782 -13.418  1.00  0.00     0.167 HD
HETATM    9  C8  UNL     1      10.722   5.767 -11.690  1.00  0.00     0.117 A 
HETATM   10  C15 UNL     1      11.461   4.832 -10.991  1.00  0.00     0.022 A 
HETATM   11  C16 UNL     1      11.069   4.416  -9.738  1.00  0.00     0.033 A 
HETATM   12  C17 UNL     1      11.842   3.478  -9.073  1.00  0.00     0.088 A 
HETATM   13  N3  UNL     1      12.941   2.972  -9.604  1.00  0.00    -0.374 N 
ATOM     14  H3  UNL     1      13.478   2.282  -9.077  1.00  0.00     0.164 HD
HETATM   15  C18 UNL     1      13.370   3.348 -10.833  1.00  0.00     0.100 A 
HETATM   16  C19 UNL     1      12.630   4.275 -11.522  1.00  0.00     0.006 A 
ENDROOT
BRANCH   9  17
HETATM   17  N2  UNL     1       9.536   6.330 -11.182  1.00  0.00    -0.342 N 
ATOM     18  H2  UNL     1       9.129   5.876 -10.364  1.00  0.00     0.167 HD
BRANCH  17  19
HETATM   19  C9  UNL     1       8.852   7.456 -11.683  1.00  0.00     0.035 A 
HETATM   20  C10 UNL     1       8.624   8.620 -11.010  1.00  0.00     0.029 A 
HETATM   21  C11 UNL     1       7.941   9.694 -11.601  1.00  0.00     0.004 A 
HETATM   22  C12 UNL     1       7.472   9.610 -12.890  1.00  0.00     0.024 A 
HETATM   23  C13 UNL     1       7.692   8.442 -13.586  1.00  0.00     0.036 A 
HETATM   24 CL1  UNL     1       7.085   8.355 -15.231  1.00  0.00    -0.084 Cl
HETATM   25  C14 UNL     1       8.360   7.406 -12.993  1.00  0.00     0.053 A 
ENDBRANCH  17  19
ENDBRANCH   9  17
BRANCH   1  26
HETATM   26  C1  UNL     1      14.216   6.005 -16.659  1.00  0.00     0.209 C 
HETATM   27  O1  UNL     1      15.088   5.375 -17.286  1.00  0.00    -0.644 OA
HETATM   28  O2  UNL     1      13.638   7.117 -17.216  1.00  0.00    -0.644 OA
ENDBRANCH   1  26
TORSDOF 3
ENDMDL
