MODEL 18
REMARK VINA RESULT: -9.173036466      2.214      2.950
REMARK  3 active torsions:
REMARK  status: ('A' for Active; 'I' for Inactive)
REMARK    1  A    between atoms: C1_2  and  C2_4 
REMARK    2  A    between atoms: C8_12  and  N2_13 
REMARK    3  A    between atoms: N2_13  and  C9_15 
ROOT
HETATM    1  C2  UNL     1      13.723   5.738 -16.068  1.00  0.00     0.043 A 
HETATM    2  C3  UNL     1      14.528   4.846 -15.402  1.00  0.00     0.019 A 
HETATM    3  C4  UNL     1      14.256   4.408 -14.120  1.00  0.00     0.016 A 
HETATM    4  C5  UNL     1      13.137   4.872 -13.469  1.00  0.00     0.003 A 
HETATM    5  C6  UNL     1      12.296   5.782 -14.119  1.00  0.00     0.045 A 
HETATM    6  C7  UNL     1      12.612   6.187 -15.400  1.00  0.00     0.048 A 
HETATM    7  N1  UNL     1      11.215   6.225 -13.480  1.00  0.00    -0.341 N 
ATOM      8  H1  UNL     1      10.625   6.885 -13.987  1.00  0.00     0.167 HD
HETATM    9  C8  UNL     1      10.821   5.898 -12.252  1.00  0.00     0.117 A 
HETATM   10  C15 UNL     1      11.633   5.002 -11.585  1.00  0.00     0.022 A 
HETATM   11  C16 UNL     1      11.330   4.590 -10.307  1.00  0.00     0.033 A 
HETATM   12  C17 UNL     1      12.174   3.691  -9.675  1.00  0.00     0.088 A 
HETATM   13  N3  UNL     1      13.259   3.217 -10.262  1.00  0.00    -0.374 N 
ATOM     14  H3  UNL     1      13.851   2.556  -9.758  1.00  0.00     0.164 HD
HETATM   15  C18 UNL     1      13.603   3.592 -11.519  1.00  0.00     0.100 A 
HETATM   16  C19 UNL     1      12.791   4.481 -12.176  1.00  0.00     0.006 A 
ENDROOT
BRANCH   9  17
HETATM   17  N2  UNL     1       9.646   6.425 -11.684  1.00  0.00    -0.342 N 
ATOM     18  H2  UNL     1       9.002   5.755 -11.264  1.00  0.00     0.167 HD
BRANCH  17  19
HETATM   19  C9  UNL     1       9.265   7.781 -11.633  1.00  0.00     0.035 A 
HETATM   20  C10 UNL     1       9.529   8.650 -10.616  1.00  0.00     0.029 A 
HETATM   21  C11 UNL     1       9.116   9.991 -10.664  1.00  0.00     0.004 A 
HETATM   22  C12 UNL     1       8.425  10.480 -11.746  1.00  0.00     0.024 A 
HETATM   23  C13 UNL     1       8.149   9.617 -12.783  1.00  0.00     0.036 A 
HETATM   24 CL1  UNL     1       7.264  10.261 -14.157  1.00  0.00    -0.084 Cl
HETATM   25  C14 UNL     1       8.559   8.314 -12.719  1.00  0.00     0.053 A 
ENDBRANCH  17  19
ENDBRANCH   9  17
BRANCH   1  26
HETATM   26  C1  UNL     1      14.016   6.193 -17.416  1.00  0.00     0.209 C 
HETATM   27  O1  UNL     1      13.244   7.004 -17.960  1.00  0.00    -0.644 OA
HETATM   28  O2  UNL     1      15.122   5.740 -18.089  1.00  0.00    -0.644 OA
ENDBRANCH   1  26
TORSDOF 3
ENDMDL
