MODEL 2
REMARK VINA RESULT: -9.860702360      3.536      5.022
REMARK  3 active torsions:
REMARK  status: ('A' for Active; 'I' for Inactive)
REMARK    1  A    between atoms: C1_2  and  C2_4 
REMARK    2  A    between atoms: C8_12  and  N2_13 
REMARK    3  A    between atoms: N2_13  and  C9_15 
ROOT
HETATM    1  C2  UNL     1      13.193   4.133 -11.842  1.00  0.00     0.043 A 
HETATM    2  C3  UNL     1      14.293   3.758 -12.574  1.00  0.00     0.019 A 
HETATM    3  C4  UNL     1      14.518   4.200 -13.863  1.00  0.00     0.016 A 
HETATM    4  C5  UNL     1      13.613   5.051 -14.455  1.00  0.00     0.003 A 
HETATM    5  C6  UNL     1      12.481   5.451 -13.736  1.00  0.00     0.045 A 
HETATM    6  C7  UNL     1      12.304   4.982 -12.451  1.00  0.00     0.048 A 
HETATM    7  N1  UNL     1      11.612   6.275 -14.318  1.00  0.00    -0.341 N 
ATOM      8  H1  UNL     1      10.800   6.546 -13.762  1.00  0.00     0.167 HD
HETATM    9  C8  UNL     1      11.688   6.783 -15.545  1.00  0.00     0.117 A 
HETATM   10  C15 UNL     1      12.796   6.404 -16.278  1.00  0.00     0.022 A 
HETATM   11  C16 UNL     1      12.983   6.865 -17.562  1.00  0.00     0.033 A 
HETATM   12  C17 UNL     1      14.108   6.457 -18.262  1.00  0.00     0.088 A 
HETATM   13  N3  UNL     1      15.004   5.642 -17.734  1.00  0.00    -0.374 N 
ATOM     14  H3  UNL     1      15.817   5.370 -18.286  1.00  0.00     0.164 HD
HETATM   15  C18 UNL     1      14.866   5.160 -16.474  1.00  0.00     0.100 A 
HETATM   16  C19 UNL     1      13.764   5.542 -15.751  1.00  0.00     0.006 A 
ENDROOT
BRANCH   9  17
HETATM   17  N2  UNL     1      10.708   7.660 -16.049  1.00  0.00    -0.342 N 
ATOM     18  H2  UNL     1      10.353   7.458 -16.983  1.00  0.00     0.167 HD
BRANCH  17  19
HETATM   19  C9  UNL     1      10.165   8.786 -15.398  1.00  0.00     0.035 A 
HETATM   20  C10 UNL     1      10.676  10.049 -15.424  1.00  0.00     0.029 A 
HETATM   21  C11 UNL     1      10.053  11.113 -14.751  1.00  0.00     0.004 A 
HETATM   22  C12 UNL     1       8.897  10.915 -14.034  1.00  0.00     0.024 A 
HETATM   23  C13 UNL     1       8.367   9.645 -13.996  1.00  0.00     0.036 A 
HETATM   24 CL1  UNL     1       6.890   9.414 -13.074  1.00  0.00    -0.084 Cl
HETATM   25  C14 UNL     1       8.987   8.622 -14.658  1.00  0.00     0.053 A 
ENDBRANCH  17  19
ENDBRANCH   9  17
BRANCH   1  26
HETATM   26  C1  UNL     1      12.966   3.664 -10.485  1.00  0.00     0.209 C 
HETATM   27  O1  UNL     1      13.452   2.572 -10.135  1.00  0.00    -0.644 OA
HETATM   28  O2  UNL     1      12.227   4.404  -9.597  1.00  0.00    -0.644 OA
ENDBRANCH   1  26
TORSDOF 3
ENDMDL
