MODEL 1
REMARK VINA RESULT: -7.926732831      0.000      0.000
REMARK  15 active torsions:
REMARK  status: ('A' for Active; 'I' for Inactive)
REMARK    1  A    between atoms: C1_2  and  C2_4 
REMARK    2  A    between atoms: N2_8  and  C6_9 
REMARK    3  A    between atoms: C7_11  and  C8_12 
REMARK    4  A    between atoms: C8_12  and  O3_13 
REMARK    5  A    between atoms: O3_13  and  P1_14 
REMARK    6  A    between atoms: P1_14  and  O6_17 
REMARK    7  A    between atoms: O6_17  and  P2_18 
REMARK    8  A    between atoms: P2_18  and  O9_21 
REMARK    9  A    between atoms: O9_21  and  C9_22 
REMARK   10  A    between atoms: C9_22  and  C10_23 
REMARK   11  A    between atoms: C11_25  and  N3_26 
REMARK   12  A    between atoms: C17_39  and  O11_40 
REMARK   13  A    between atoms: C18_42  and  O12_43 
REMARK   14  A    between atoms: C19_45  and  O13_46 
REMARK   15  A    between atoms: C20_48  and  O14_49 
ROOT
HETATM    1  P2  UNL     1     -64.968  26.095 -28.762  1.00  0.00     0.417 P 
HETATM    2  O7  UNL     1     -64.231  24.791 -28.825  1.00  0.00    -0.624 OA
HETATM    3  O8  UNL     1     -66.625  25.672 -28.394  1.00  0.00    -0.624 OA
ENDROOT
BRANCH   1   4
HETATM    4  O6  UNL     1     -64.407  27.122 -27.653  1.00  0.00    -0.180 OA
BRANCH   4   5
HETATM    5  P1  UNL     1     -63.038  27.980 -28.005  1.00  0.00     0.417 P 
HETATM    6  O4  UNL     1     -62.456  28.707 -26.870  1.00  0.00    -0.624 OA
HETATM    7  O5  UNL     1     -63.535  29.289 -29.126  1.00  0.00    -0.624 OA
BRANCH   5   8
HETATM    8  O3  UNL     1     -61.991  27.084 -28.891  1.00  0.00    -0.287 OA
BRANCH   8   9
HETATM    9  C8  UNL     1     -61.126  27.851 -29.700  1.00  0.00     0.216 C 
BRANCH   9  10
HETATM   10  C7  UNL     1     -60.711  26.781 -30.755  1.00  0.00     0.180 C 
HETATM   11  O2  UNL     1     -59.396  26.442 -30.550  1.00  0.00    -0.353 OA
HETATM   12  C6  UNL     1     -59.228  25.077 -30.557  1.00  0.00     0.259 C 
HETATM   13  C20 UNL     1     -60.469  24.560 -31.292  1.00  0.00     0.198 C 
HETATM   14  C19 UNL     1     -61.523  25.557 -30.724  1.00  0.00     0.182 C 
BRANCH  12  15
HETATM   15  N2  UNL     1     -59.388  24.669 -29.145  1.00  0.00    -0.336 N 
HETATM   16  C5  UNL     1     -59.053  25.478 -28.138  1.00  0.00     0.093 A 
HETATM   17  C4  UNL     1     -59.109  25.011 -26.826  1.00  0.00     0.018 A 
HETATM   18  C3  UNL     1     -59.502  23.728 -26.578  1.00  0.00     0.019 A 
HETATM   19  C2  UNL     1     -59.836  22.925 -27.636  1.00  0.00     0.044 A 
HETATM   20  C21 UNL     1     -59.776  23.406 -28.926  1.00  0.00     0.110 A 
BRANCH  19  21
HETATM   21  C1  UNL     1     -60.214  21.540 -27.428  1.00  0.00     0.266 C 
HETATM   22  N1  UNL     1     -61.529  21.112 -27.720  1.00  0.00    -0.057 NA
HETATM   23  O1  UNL     1     -59.404  20.659 -26.979  1.00  0.00    -0.271 OA
ENDBRANCH  19  21
ENDBRANCH  12  15
BRANCH  13  24
HETATM   24  O14 UNL     1     -60.373  24.861 -32.649  1.00  0.00    -0.388 OA
ATOM     25  H14 UNL     1     -61.159  24.574 -33.099  1.00  0.00     0.210 HD
ENDBRANCH  13  24
BRANCH  14  26
HETATM   26  O13 UNL     1     -62.659  25.576 -31.542  1.00  0.00    -0.390 OA
ATOM     27  H13 UNL     1     -62.933  24.728 -31.872  1.00  0.00     0.210 HD
ENDBRANCH  14  26
ENDBRANCH   9  10
ENDBRANCH   8   9
ENDBRANCH   5   8
ENDBRANCH   4   5
ENDBRANCH   1   4
BRANCH   1  28
HETATM   28  O9  UNL     1     -65.094  26.640 -30.399  1.00  0.00    -0.287 OA
BRANCH  28  29
HETATM   29  C9  UNL     1     -66.509  26.594 -30.629  1.00  0.00     0.216 C 
BRANCH  29  30
HETATM   30  C10 UNL     1     -66.752  26.165 -32.012  1.00  0.00     0.180 C 
HETATM   31  O10 UNL     1     -65.501  25.946 -32.654  1.00  0.00    -0.353 OA
HETATM   32  C11 UNL     1     -65.965  25.485 -33.904  1.00  0.00     0.262 C 
HETATM   33  C17 UNL     1     -66.719  24.243 -33.353  1.00  0.00     0.198 C 
HETATM   34  C18 UNL     1     -67.520  24.929 -32.210  1.00  0.00     0.182 C 
BRANCH  32  35
HETATM   35  N3  UNL     1     -64.865  25.154 -34.722  1.00  0.00    -0.297 N 
HETATM   36  C12 UNL     1     -64.745  24.123 -35.625  1.00  0.00     0.188 A 
HETATM   37  N4  UNL     1     -63.548  24.150 -36.212  1.00  0.00    -0.346 N 
HETATM   38  C13 UNL     1     -62.883  25.222 -35.689  1.00  0.00     0.119 A 
ATOM     39  H4  UNL     1     -63.197  23.498 -36.913  1.00  0.00     0.167 HD
HETATM   40  C14 UNL     1     -61.628  25.704 -35.926  1.00  0.00     0.148 A 
HETATM   41  C16 UNL     1     -63.719  25.828 -34.764  1.00  0.00     0.142 A 
HETATM   42  N5  UNL     1     -60.783  25.105 -36.903  1.00  0.00    -0.080 NA
HETATM   43  N6  UNL     1     -61.185  26.774 -35.247  1.00  0.00    -0.339 N 
HETATM   44  C15 UNL     1     -61.965  27.370 -34.341  1.00  0.00     0.183 A 
ATOM     45  H6  UNL     1     -60.246  27.133 -35.423  1.00  0.00     0.167 HD
HETATM   46  N7  UNL     1     -63.225  26.889 -34.113  1.00  0.00    -0.336 N 
ATOM     47  H7  UNL     1     -63.811  27.356 -33.420  1.00  0.00     0.168 HD
ENDBRANCH  32  35
BRANCH  33  48
HETATM   48  O11 UNL     1     -67.478  23.603 -34.270  1.00  0.00    -0.388 OA
ATOM     49  H11 UNL     1     -68.380  23.897 -34.304  1.00  0.00     0.210 HD
ENDBRANCH  33  48
BRANCH  34  50
HETATM   50  O12 UNL     1     -68.787  25.245 -32.792  1.00  0.00    -0.390 OA
ATOM     51  H12 UNL     1     -69.330  24.466 -32.808  1.00  0.00     0.210 HD
ENDBRANCH  34  50
ENDBRANCH  29  30
ENDBRANCH  28  29
ENDBRANCH   1  28
TORSDOF 15
ENDMDL
