MODEL 2
REMARK VINA RESULT: -7.904837093      2.095      2.728
REMARK  15 active torsions:
REMARK  status: ('A' for Active; 'I' for Inactive)
REMARK    1  A    between atoms: C1_2  and  C2_4 
REMARK    2  A    between atoms: N2_8  and  C6_9 
REMARK    3  A    between atoms: C7_11  and  C8_12 
REMARK    4  A    between atoms: C8_12  and  O3_13 
REMARK    5  A    between atoms: O3_13  and  P1_14 
REMARK    6  A    between atoms: P1_14  and  O6_17 
REMARK    7  A    between atoms: O6_17  and  P2_18 
REMARK    8  A    between atoms: P2_18  and  O9_21 
REMARK    9  A    between atoms: O9_21  and  C9_22 
REMARK   10  A    between atoms: C9_22  and  C10_23 
REMARK   11  A    between atoms: C11_25  and  N3_26 
REMARK   12  A    between atoms: C17_39  and  O11_40 
REMARK   13  A    between atoms: C18_42  and  O12_43 
REMARK   14  A    between atoms: C19_45  and  O13_46 
REMARK   15  A    between atoms: C20_48  and  O14_49 
ROOT
HETATM    1  P2  UNL     1     -64.945  26.643 -26.590  1.00  0.00     0.417 P 
HETATM    2  O7  UNL     1     -64.070  25.488 -26.974  1.00  0.00    -0.624 OA
HETATM    3  O8  UNL     1     -66.525  25.951 -26.303  1.00  0.00    -0.624 OA
ENDROOT
BRANCH   1   4
HETATM    4  O6  UNL     1     -64.452  27.443 -25.279  1.00  0.00    -0.180 OA
BRANCH   4   5
HETATM    5  P1  UNL     1     -63.090  28.372 -25.397  1.00  0.00     0.417 P 
HETATM    6  O4  UNL     1     -62.709  29.069 -24.162  1.00  0.00    -0.624 OA
HETATM    7  O5  UNL     1     -63.486  29.710 -26.525  1.00  0.00    -0.624 OA
BRANCH   5   8
HETATM    8  O3  UNL     1     -61.887  27.562 -26.160  1.00  0.00    -0.287 OA
BRANCH   8   9
HETATM    9  C8  UNL     1     -60.676  28.284 -26.243  1.00  0.00     0.216 C 
BRANCH   9  10
HETATM   10  C7  UNL     1     -60.377  28.150 -27.767  1.00  0.00     0.180 C 
HETATM   11  O2  UNL     1     -59.161  27.532 -27.928  1.00  0.00    -0.353 OA
HETATM   12  C6  UNL     1     -59.236  26.526 -28.864  1.00  0.00     0.259 C 
HETATM   13  C20 UNL     1     -60.489  26.872 -29.674  1.00  0.00     0.198 C 
HETATM   14  C19 UNL     1     -61.391  27.396 -28.517  1.00  0.00     0.182 C 
BRANCH  12  15
HETATM   15  N2  UNL     1     -59.571  25.313 -28.089  1.00  0.00    -0.336 N 
HETATM   16  C5  UNL     1     -59.051  25.085 -26.881  1.00  0.00     0.093 A 
HETATM   17  C4  UNL     1     -59.300  23.875 -26.236  1.00  0.00     0.018 A 
HETATM   18  C3  UNL     1     -60.071  22.927 -26.845  1.00  0.00     0.019 A 
HETATM   19  C2  UNL     1     -60.587  23.194 -28.086  1.00  0.00     0.044 A 
HETATM   20  C21 UNL     1     -60.329  24.398 -28.705  1.00  0.00     0.110 A 
BRANCH  19  21
HETATM   21  C1  UNL     1     -61.373  22.201 -28.793  1.00  0.00     0.266 C 
HETATM   22  N1  UNL     1     -61.702  20.979 -28.165  1.00  0.00    -0.057 NA
HETATM   23  O1  UNL     1     -61.794  22.372 -29.988  1.00  0.00    -0.271 OA
ENDBRANCH  19  21
ENDBRANCH  12  15
BRANCH  13  24
HETATM   24  O14 UNL     1     -60.240  27.984 -30.476  1.00  0.00    -0.388 OA
ATOM     25  H14 UNL     1     -60.815  27.970 -31.233  1.00  0.00     0.210 HD
ENDBRANCH  13  24
BRANCH  14  26
HETATM   26  O13 UNL     1     -62.442  28.164 -29.034  1.00  0.00    -0.390 OA
ATOM     27  H13 UNL     1     -62.459  28.240 -29.981  1.00  0.00     0.210 HD
ENDBRANCH  14  26
ENDBRANCH   9  10
ENDBRANCH   8   9
ENDBRANCH   5   8
ENDBRANCH   4   5
ENDBRANCH   1   4
BRANCH   1  28
HETATM   28  O9  UNL     1     -65.205  27.537 -28.048  1.00  0.00    -0.287 OA
BRANCH  28  29
HETATM   29  C9  UNL     1     -66.469  27.029 -28.497  1.00  0.00     0.216 C 
BRANCH  29  30
HETATM   30  C10 UNL     1     -66.499  27.058 -29.965  1.00  0.00     0.180 C 
HETATM   31  O10 UNL     1     -65.164  27.129 -30.453  1.00  0.00    -0.353 OA
HETATM   32  C11 UNL     1     -65.426  27.073 -31.838  1.00  0.00     0.262 C 
HETATM   33  C17 UNL     1     -66.113  25.680 -31.821  1.00  0.00     0.198 C 
HETATM   34  C18 UNL     1     -67.111  25.913 -30.651  1.00  0.00     0.182 C 
BRANCH  32  35
HETATM   35  N3  UNL     1     -64.207  27.087 -32.548  1.00  0.00    -0.297 N 
HETATM   36  C12 UNL     1     -63.675  26.112 -33.361  1.00  0.00     0.188 A 
HETATM   37  N4  UNL     1     -62.503  26.506 -33.860  1.00  0.00    -0.346 N 
HETATM   38  C13 UNL     1     -62.275  27.761 -33.373  1.00  0.00     0.119 A 
ATOM     39  H4  UNL     1     -61.897  25.975 -34.484  1.00  0.00     0.167 HD
HETATM   40  C14 UNL     1     -61.229  28.619 -33.554  1.00  0.00     0.148 A 
HETATM   41  C16 UNL     1     -63.344  28.099 -32.557  1.00  0.00     0.142 A 
HETATM   42  N5  UNL     1     -60.149  28.288 -34.420  1.00  0.00    -0.080 NA
HETATM   43  N6  UNL     1     -61.222  29.806 -32.926  1.00  0.00    -0.339 N 
HETATM   44  C15 UNL     1     -62.235  30.152 -32.125  1.00  0.00     0.183 A 
ATOM     45  H6  UNL     1     -60.440  30.446 -33.060  1.00  0.00     0.167 HD
HETATM   46  N7  UNL     1     -63.285  29.292 -31.953  1.00  0.00    -0.336 N 
ATOM     47  H7  UNL     1     -64.052  29.572 -31.341  1.00  0.00     0.168 HD
ENDBRANCH  32  35
BRANCH  33  48
HETATM   48  O11 UNL     1     -66.688  25.330 -32.993  1.00  0.00    -0.388 OA
ATOM     49  H11 UNL     1     -67.238  26.004 -33.374  1.00  0.00     0.210 HD
ENDBRANCH  33  48
BRANCH  34  50
HETATM   50  O12 UNL     1     -68.323  26.329 -31.283  1.00  0.00    -0.390 OA
ATOM     51  H12 UNL     1     -68.383  25.932 -32.143  1.00  0.00     0.210 HD
ENDBRANCH  34  50
ENDBRANCH  29  30
ENDBRANCH  28  29
ENDBRANCH   1  28
TORSDOF 15
ENDMDL
