MODEL 3
REMARK VINA RESULT: -7.871386333      3.336      4.651
REMARK  15 active torsions:
REMARK  status: ('A' for Active; 'I' for Inactive)
REMARK    1  A    between atoms: C1_2  and  C2_4 
REMARK    2  A    between atoms: N2_8  and  C6_9 
REMARK    3  A    between atoms: C7_11  and  C8_12 
REMARK    4  A    between atoms: C8_12  and  O3_13 
REMARK    5  A    between atoms: O3_13  and  P1_14 
REMARK    6  A    between atoms: P1_14  and  O6_17 
REMARK    7  A    between atoms: O6_17  and  P2_18 
REMARK    8  A    between atoms: P2_18  and  O9_21 
REMARK    9  A    between atoms: O9_21  and  C9_22 
REMARK   10  A    between atoms: C9_22  and  C10_23 
REMARK   11  A    between atoms: C11_25  and  N3_26 
REMARK   12  A    between atoms: C17_39  and  O11_40 
REMARK   13  A    between atoms: C18_42  and  O12_43 
REMARK   14  A    between atoms: C19_45  and  O13_46 
REMARK   15  A    between atoms: C20_48  and  O14_49 
ROOT
HETATM    1  P2  UNL     1     -63.386  29.763 -31.817  1.00  0.00     0.417 P 
HETATM    2  O7  UNL     1     -63.140  29.444 -30.373  1.00  0.00    -0.624 OA
HETATM    3  O8  UNL     1     -63.162  31.493 -31.954  1.00  0.00    -0.624 OA
ENDROOT
BRANCH   1   4
HETATM    4  O6  UNL     1     -62.401  29.003 -32.843  1.00  0.00    -0.180 OA
BRANCH   4   5
HETATM    5  P1  UNL     1     -60.793  28.923 -32.467  1.00  0.00     0.417 P 
HETATM    6  O4  UNL     1     -60.114  30.223 -32.383  1.00  0.00    -0.624 OA
HETATM    7  O5  UNL     1     -59.988  28.123 -33.856  1.00  0.00    -0.624 OA
BRANCH   5   8
HETATM    8  O3  UNL     1     -60.529  27.897 -31.218  1.00  0.00    -0.287 OA
BRANCH   8   9
HETATM    9  C8  UNL     1     -59.385  27.085 -31.379  1.00  0.00     0.216 C 
BRANCH   9  10
HETATM   10  C7  UNL     1     -59.969  25.699 -30.967  1.00  0.00     0.180 C 
HETATM   11  O2  UNL     1     -59.402  25.315 -29.776  1.00  0.00    -0.353 OA
HETATM   12  C6  UNL     1     -60.357  24.870 -28.892  1.00  0.00     0.259 C 
HETATM   13  C20 UNL     1     -61.550  24.519 -29.788  1.00  0.00     0.198 C 
HETATM   14  C19 UNL     1     -61.431  25.680 -30.820  1.00  0.00     0.182 C 
BRANCH  12  15
HETATM   15  N2  UNL     1     -60.758  26.073 -28.131  1.00  0.00    -0.336 N 
HETATM   16  C5  UNL     1     -59.883  27.032 -27.824  1.00  0.00     0.093 A 
HETATM   17  C4  UNL     1     -60.273  28.091 -27.005  1.00  0.00     0.018 A 
HETATM   18  C3  UNL     1     -61.548  28.138 -26.519  1.00  0.00     0.019 A 
HETATM   19  C2  UNL     1     -62.419  27.134 -26.853  1.00  0.00     0.044 A 
HETATM   20  C21 UNL     1     -62.012  26.098 -27.665  1.00  0.00     0.110 A 
BRANCH  19  21
HETATM   21  C1  UNL     1     -63.769  27.115 -26.323  1.00  0.00     0.266 C 
HETATM   22  N1  UNL     1     -64.618  26.015 -26.586  1.00  0.00    -0.057 NA
HETATM   23  O1  UNL     1     -64.251  28.063 -25.616  1.00  0.00    -0.271 OA
ENDBRANCH  19  21
ENDBRANCH  12  15
BRANCH  13  24
HETATM   24  O14 UNL     1     -61.272  23.358 -30.509  1.00  0.00    -0.388 OA
ATOM     25  H14 UNL     1     -61.020  22.663 -29.912  1.00  0.00     0.210 HD
ENDBRANCH  13  24
BRANCH  14  26
HETATM   26  O13 UNL     1     -62.141  25.365 -31.985  1.00  0.00    -0.390 OA
ATOM     27  H13 UNL     1     -62.652  24.566 -31.942  1.00  0.00     0.210 HD
ENDBRANCH  14  26
ENDBRANCH   9  10
ENDBRANCH   8   9
ENDBRANCH   5   8
ENDBRANCH   4   5
ENDBRANCH   1   4
BRANCH   1  28
HETATM   28  O9  UNL     1     -65.093  29.605 -32.047  1.00  0.00    -0.287 OA
BRANCH  28  29
HETATM   29  C9  UNL     1     -65.576  29.505 -30.701  1.00  0.00     0.216 C 
BRANCH  29  30
HETATM   30  C10 UNL     1     -66.395  28.292 -30.578  1.00  0.00     0.180 C 
HETATM   31  O10 UNL     1     -66.558  27.712 -31.867  1.00  0.00    -0.353 OA
HETATM   32  C11 UNL     1     -67.288  26.561 -31.507  1.00  0.00     0.262 C 
HETATM   33  C17 UNL     1     -66.200  25.957 -30.579  1.00  0.00     0.198 C 
HETATM   34  C18 UNL     1     -65.882  27.215 -29.721  1.00  0.00     0.182 C 
BRANCH  32  35
HETATM   35  N3  UNL     1     -67.537  25.783 -32.657  1.00  0.00    -0.297 N 
HETATM   36  C12 UNL     1     -67.556  24.412 -32.780  1.00  0.00     0.188 A 
HETATM   37  N4  UNL     1     -67.840  24.057 -34.033  1.00  0.00    -0.346 N 
HETATM   38  C13 UNL     1     -68.019  25.216 -34.734  1.00  0.00     0.119 A 
ATOM     39  H4  UNL     1     -67.910  23.107 -34.397  1.00  0.00     0.167 HD
HETATM   40  C14 UNL     1     -68.315  25.434 -36.048  1.00  0.00     0.148 A 
HETATM   41  C16 UNL     1     -67.822  26.274 -33.860  1.00  0.00     0.142 A 
HETATM   42  N5  UNL     1     -68.553  24.348 -36.938  1.00  0.00    -0.080 NA
HETATM   43  N6  UNL     1     -68.406  26.691 -36.512  1.00  0.00    -0.339 N 
HETATM   44  C15 UNL     1     -68.210  27.729 -35.694  1.00  0.00     0.183 A 
ATOM     45  H6  UNL     1     -68.626  26.854 -37.495  1.00  0.00     0.167 HD
HETATM   46  N7  UNL     1     -67.922  27.505 -34.376  1.00  0.00    -0.336 N 
ATOM     47  H7  UNL     1     -67.778  28.308 -33.763  1.00  0.00     0.168 HD
ENDBRANCH  32  35
BRANCH  33  48
HETATM   48  O11 UNL     1     -66.608  24.880 -29.872  1.00  0.00    -0.388 OA
ATOM     49  H11 UNL     1     -65.966  24.552 -29.253  1.00  0.00     0.210 HD
ENDBRANCH  33  48
BRANCH  34  50
HETATM   50  O12 UNL     1     -66.715  27.089 -28.566  1.00  0.00    -0.390 OA
ATOM     51  H12 UNL     1     -66.644  27.876 -28.039  1.00  0.00     0.210 HD
ENDBRANCH  34  50
ENDBRANCH  29  30
ENDBRANCH  28  29
ENDBRANCH   1  28
TORSDOF 15
ENDMDL
