MODEL 16
REMARK VINA RESULT: -3.034892006      7.364      8.666
REMARK  0 active torsions:
REMARK  status: ('A' for Active; 'I' for Inactive)
ROOT
HETATM    1  O1  UNL     1       0.346  33.487  18.338  1.00  0.00    -0.247 OA
HETATM    2  C1  UNL     1       0.235  34.132  17.273  1.00  0.00     0.327 A 
HETATM    3  N1  UNL     1       1.337  34.410  16.559  1.00  0.00    -0.316 N 
ATOM      4  H1  UNL     1       2.259  34.104  16.872  1.00  0.00     0.170 HD
HETATM    5  C2  UNL     1       1.187  35.107  15.412  1.00  0.00     0.140 A 
HETATM    6  C3  UNL     1      -0.066  35.523  14.989  1.00  0.00     0.199 A 
HETATM    7  F1  UNL     1      -0.227  36.228  13.832  1.00  0.00    -0.199 F 
HETATM    8  C4  UNL     1      -1.170  35.223  15.740  1.00  0.00     0.289 A 
HETATM    9  O2  UNL     1      -2.336  35.588  15.382  1.00  0.00    -0.265 OA
HETATM   10  N2  UNL     1      -1.000  34.527  16.880  1.00  0.00    -0.273 N 
ATOM     11  H2  UNL     1      -1.810  34.294  17.454  1.00  0.00     0.173 HD
ENDROOT
TORSDOF 0
ENDMDL
