MODEL 11
REMARK VINA RESULT: -4.467712261      2.241      2.902
REMARK  0 active torsions:
REMARK  status: ('A' for Active; 'I' for Inactive)
ROOT
HETATM    1  O1  UNL     1      -3.331  39.955  11.950  1.00  0.00    -0.247 OA
HETATM    2  C1  UNL     1      -4.019  39.826  12.986  1.00  0.00     0.327 A 
HETATM    3  N1  UNL     1      -3.436  40.002  14.183  1.00  0.00    -0.316 N 
ATOM      4  H1  UNL     1      -2.446  40.236  14.258  1.00  0.00     0.170 HD
HETATM    5  C2  UNL     1      -4.204  39.858  15.285  1.00  0.00     0.140 A 
HETATM    6  C3  UNL     1      -5.549  39.539  15.181  1.00  0.00     0.199 A 
HETATM    7  F1  UNL     1      -6.331  39.392  16.289  1.00  0.00    -0.199 F 
HETATM    8  C4  UNL     1      -6.112  39.367  13.946  1.00  0.00     0.289 A 
HETATM    9  O2  UNL     1      -7.344  39.074  13.813  1.00  0.00    -0.265 OA
HETATM   10  N2  UNL     1      -5.331  39.515  12.859  1.00  0.00    -0.273 N 
ATOM     11  H2  UNL     1      -5.731  39.391  11.929  1.00  0.00     0.173 HD
ENDROOT
TORSDOF 0
ENDMDL
