MODEL 2
REMARK VINA RESULT: -6.286961370      1.453      2.093
REMARK  0 active torsions:
REMARK  status: ('A' for Active; 'I' for Inactive)
ROOT
HETATM    1  O1  UNL     1      -5.489  41.971  10.762  1.00  0.00    -0.247 OA
HETATM    2  C1  UNL     1      -5.216  41.185  11.696  1.00  0.00     0.327 A 
HETATM    3  N1  UNL     1      -3.938  40.824  11.893  1.00  0.00    -0.316 N 
ATOM      4  H1  UNL     1      -3.191  41.179  11.294  1.00  0.00     0.170 HD
HETATM    5  C2  UNL     1      -3.672  39.975  12.910  1.00  0.00     0.140 A 
HETATM    6  C3  UNL     1      -4.688  39.494  13.721  1.00  0.00     0.199 A 
HETATM    7  F1  UNL     1      -4.429  38.636  14.750  1.00  0.00    -0.199 F 
HETATM    8  C4  UNL     1      -5.980  39.882  13.493  1.00  0.00     0.289 A 
HETATM    9  O2  UNL     1      -6.939  39.460  14.218  1.00  0.00    -0.265 OA
HETATM   10  N2  UNL     1      -6.225  40.729  12.475  1.00  0.00    -0.273 N 
ATOM     11  H2  UNL     1      -7.182  41.030  12.288  1.00  0.00     0.173 HD
ENDROOT
TORSDOF 0
ENDMDL
