MODEL 14
REMARK VINA RESULT: -3.538606286      9.157      9.570
REMARK  0 active torsions:
REMARK  status: ('A' for Active; 'I' for Inactive)
ROOT
HETATM    1  O1  UNL     1      -8.153  39.444  21.260  1.00  0.00    -0.247 OA
HETATM    2  C1  UNL     1      -8.114  40.694  21.271  1.00  0.00     0.327 A 
HETATM    3  N1  UNL     1      -9.255  41.382  21.431  1.00  0.00    -0.316 N 
ATOM      4  H1  UNL     1     -10.149  40.902  21.542  1.00  0.00     0.170 HD
HETATM    5  C2  UNL     1      -9.182  42.731  21.440  1.00  0.00     0.140 A 
HETATM    6  C3  UNL     1      -7.968  43.381  21.288  1.00  0.00     0.199 A 
HETATM    7  F1  UNL     1      -7.885  44.742  21.296  1.00  0.00    -0.199 F 
HETATM    8  C4  UNL     1      -6.822  42.650  21.127  1.00  0.00     0.289 A 
HETATM    9  O2  UNL     1      -5.688  43.213  20.985  1.00  0.00    -0.265 OA
HETATM   10  N2  UNL     1      -6.915  41.306  21.121  1.00  0.00    -0.273 N 
ATOM     11  H2  UNL     1      -6.073  40.742  21.002  1.00  0.00     0.173 HD
ENDROOT
TORSDOF 0
ENDMDL
