MODEL 15
REMARK VINA RESULT: -3.378788028      9.329      9.540
REMARK  0 active torsions:
REMARK  status: ('A' for Active; 'I' for Inactive)
ROOT
HETATM    1  O1  UNL     1      -8.272  47.878  20.139  1.00  0.00    -0.247 OA
HETATM    2  C1  UNL     1      -7.470  46.922  20.047  1.00  0.00     0.327 A 
HETATM    3  N1  UNL     1      -6.274  47.127  19.472  1.00  0.00    -0.316 N 
ATOM      4  H1  UNL     1      -6.013  48.045  19.112  1.00  0.00     0.170 HD
HETATM    5  C2  UNL     1      -5.428  46.077  19.387  1.00  0.00     0.140 A 
HETATM    6  C3  UNL     1      -5.785  44.831  19.877  1.00  0.00     0.199 A 
HETATM    7  F1  UNL     1      -4.937  43.766  19.795  1.00  0.00    -0.199 F 
HETATM    8  C4  UNL     1      -7.012  44.656  20.457  1.00  0.00     0.289 A 
HETATM    9  O2  UNL     1      -7.375  43.526  20.918  1.00  0.00    -0.265 OA
HETATM   10  N2  UNL     1      -7.842  45.714  20.533  1.00  0.00    -0.273 N 
ATOM     11  H2  UNL     1      -8.762  45.605  20.962  1.00  0.00     0.173 HD
ENDROOT
TORSDOF 0
ENDMDL
