MODEL 12
REMARK VINA RESULT: -6.206636499      7.330      8.602
REMARK  6 active torsions:
REMARK  status: ('A' for Active; 'I' for Inactive)
REMARK    1  A    between atoms: C1_2  and  C2_4 
REMARK    2  A    between atoms: C2_4  and  C3_5 
REMARK    3  A    between atoms: C3_5  and  O3_6 
REMARK    4  A    between atoms: C3_5  and  C4_8 
REMARK    5  A    between atoms: C3_5  and  C6_12 
REMARK    6  A    between atoms: C4_8  and  C5_9 
ROOT
HETATM    1  C3  UNL     1     -50.132 -36.130  26.953  1.00  0.00     0.164 C 
ENDROOT
BRANCH   1   2
HETATM    2  C2  UNL     1     -48.942 -36.797  27.528  1.00  0.00     0.163 C 
BRANCH   2   3
HETATM    3  C1  UNL     1     -48.954 -37.032  28.982  1.00  0.00     0.176 C 
HETATM    4  O1  UNL     1     -48.499 -36.142  29.738  1.00  0.00    -0.648 OA
HETATM    5  O2  UNL     1     -49.434 -38.178  29.597  1.00  0.00    -0.648 OA
ENDBRANCH   2   3
ENDBRANCH   1   2
BRANCH   1   6
HETATM    6  O3  UNL     1     -50.332 -34.929  27.641  1.00  0.00    -0.378 OA
ATOM      7  H3  UNL     1     -50.379 -35.126  28.570  1.00  0.00     0.211 HD
ENDBRANCH   1   6
BRANCH   1   8
HETATM    8  C4  UNL     1     -51.398 -36.906  26.903  1.00  0.00     0.163 C 
BRANCH   8   9
HETATM    9  C5  UNL     1     -52.480 -36.305  26.096  1.00  0.00     0.176 C 
HETATM   10  O4  UNL     1     -52.853 -36.864  25.047  1.00  0.00    -0.648 OA
HETATM   11  O5  UNL     1     -53.042 -35.122  26.551  1.00  0.00    -0.648 OA
ENDBRANCH   8   9
ENDBRANCH   1   8
BRANCH   1  12
HETATM   12  C6  UNL     1     -49.794 -35.787  25.545  1.00  0.00     0.210 C 
HETATM   13  O6  UNL     1     -49.369 -36.695  24.803  1.00  0.00    -0.646 OA
HETATM   14  O7  UNL     1     -49.939 -34.512  25.049  1.00  0.00    -0.646 OA
ENDBRANCH   1  12
TORSDOF 6
ENDMDL
