MODEL 3
REMARK VINA RESULT: -6.617136997      1.103      1.735
REMARK  6 active torsions:
REMARK  status: ('A' for Active; 'I' for Inactive)
REMARK    1  A    between atoms: C1_2  and  C2_4 
REMARK    2  A    between atoms: C2_4  and  C3_5 
REMARK    3  A    between atoms: C3_5  and  O3_6 
REMARK    4  A    between atoms: C3_5  and  C4_8 
REMARK    5  A    between atoms: C3_5  and  C6_12 
REMARK    6  A    between atoms: C4_8  and  C5_9 
ROOT
HETATM    1  C3  UNL     1     -54.973 -37.209  20.687  1.00  0.00     0.164 C 
ENDROOT
BRANCH   1   2
HETATM    2  C2  UNL     1     -53.530 -37.506  20.837  1.00  0.00     0.163 C 
BRANCH   2   3
HETATM    3  C1  UNL     1     -53.079 -37.943  22.169  1.00  0.00     0.176 C 
HETATM    4  O1  UNL     1     -53.085 -39.168  22.433  1.00  0.00    -0.648 OA
HETATM    5  O2  UNL     1     -52.640 -37.097  23.176  1.00  0.00    -0.648 OA
ENDBRANCH   2   3
ENDBRANCH   1   2
BRANCH   1   6
HETATM    6  O3  UNL     1     -55.560 -37.259  21.955  1.00  0.00    -0.378 OA
ATOM      7  H3  UNL     1     -56.352 -36.734  21.935  1.00  0.00     0.211 HD
ENDBRANCH   1   6
BRANCH   1   8
HETATM    8  C4  UNL     1     -55.749 -38.040  19.731  1.00  0.00     0.163 C 
BRANCH   8   9
HETATM    9  C5  UNL     1     -57.000 -38.619  20.264  1.00  0.00     0.176 C 
HETATM   10  O4  UNL     1     -56.949 -39.480  21.163  1.00  0.00    -0.648 OA
HETATM   11  O5  UNL     1     -58.197 -38.169  19.728  1.00  0.00    -0.648 OA
ENDBRANCH   8   9
ENDBRANCH   1   8
BRANCH   1  12
HETATM   12  C6  UNL     1     -55.075 -35.806  20.203  1.00  0.00     0.210 C 
HETATM   13  O6  UNL     1     -54.227 -34.982  20.600  1.00  0.00    -0.646 OA
HETATM   14  O7  UNL     1     -56.067 -35.402  19.340  1.00  0.00    -0.646 OA
ENDBRANCH   1  12
TORSDOF 6
ENDMDL
