MODEL 19
REMARK VINA RESULT: -6.051427836      7.484      9.342
REMARK  6 active torsions:
REMARK  status: ('A' for Active; 'I' for Inactive)
REMARK    1  A    between atoms: C1_2  and  C2_4 
REMARK    2  A    between atoms: C2_4  and  C3_5 
REMARK    3  A    between atoms: C3_5  and  O3_6 
REMARK    4  A    between atoms: C3_5  and  C4_8 
REMARK    5  A    between atoms: C3_5  and  C6_12 
REMARK    6  A    between atoms: C4_8  and  C5_9 
ROOT
HETATM    1  C3  UNL     1     -50.597 -36.903  27.645  1.00  0.00     0.164 C 
ENDROOT
BRANCH   1   2
HETATM    2  C2  UNL     1     -52.017 -36.490  27.692  1.00  0.00     0.163 C 
BRANCH   2   3
HETATM    3  C1  UNL     1     -52.649 -36.147  26.407  1.00  0.00     0.176 C 
HETATM    4  O1  UNL     1     -53.260 -35.057  26.310  1.00  0.00    -0.648 OA
HETATM    5  O2  UNL     1     -52.625 -36.944  25.273  1.00  0.00    -0.648 OA
ENDBRANCH   2   3
ENDBRANCH   1   2
BRANCH   1   6
HETATM    6  O3  UNL     1     -50.532 -38.169  27.056  1.00  0.00    -0.378 OA
ATOM      7  H3  UNL     1     -49.881 -38.680  27.523  1.00  0.00     0.211 HD
ENDBRANCH   1   6
BRANCH   1   8
HETATM    8  C4  UNL     1     -49.837 -36.895  28.922  1.00  0.00     0.163 C 
BRANCH   8   9
HETATM    9  C5  UNL     1     -48.854 -37.987  29.083  1.00  0.00     0.176 C 
HETATM   10  O4  UNL     1     -49.067 -38.894  29.911  1.00  0.00    -0.648 OA
HETATM   11  O5  UNL     1     -47.717 -37.952  28.291  1.00  0.00    -0.648 OA
ENDBRANCH   8   9
ENDBRANCH   1   8
BRANCH   1  12
HETATM   12  C6  UNL     1     -49.901 -35.951  26.738  1.00  0.00     0.210 C 
HETATM   13  O6  UNL     1     -49.973 -34.733  26.995  1.00  0.00    -0.646 OA
HETATM   14  O7  UNL     1     -49.191 -36.376  25.639  1.00  0.00    -0.646 OA
ENDBRANCH   1  12
TORSDOF 6
ENDMDL
