MODEL 2
REMARK VINA RESULT: -6.660014600      0.812      1.384
REMARK  6 active torsions:
REMARK  status: ('A' for Active; 'I' for Inactive)
REMARK    1  A    between atoms: C1_2  and  C2_4 
REMARK    2  A    between atoms: C2_4  and  C3_5 
REMARK    3  A    between atoms: C3_5  and  O3_6 
REMARK    4  A    between atoms: C3_5  and  C4_8 
REMARK    5  A    between atoms: C3_5  and  C6_12 
REMARK    6  A    between atoms: C4_8  and  C5_9 
ROOT
HETATM    1  C3  UNL     1     -55.246 -37.091  20.302  1.00  0.00     0.164 C 
ENDROOT
BRANCH   1   2
HETATM    2  C2  UNL     1     -54.186 -37.596  19.401  1.00  0.00     0.163 C 
BRANCH   2   3
HETATM    3  C1  UNL     1     -53.063 -38.306  20.034  1.00  0.00     0.176 C 
HETATM    4  O1  UNL     1     -52.063 -37.645  20.399  1.00  0.00    -0.648 OA
HETATM    5  O2  UNL     1     -53.016 -39.672  20.264  1.00  0.00    -0.648 OA
ENDBRANCH   2   3
ENDBRANCH   1   2
BRANCH   1   6
HETATM    6  O3  UNL     1     -54.942 -37.502  21.603  1.00  0.00    -0.378 OA
ATOM      7  H3  UNL     1     -55.260 -36.839  22.205  1.00  0.00     0.211 HD
ENDBRANCH   1   6
BRANCH   1   8
HETATM    8  C4  UNL     1     -56.653 -37.440  19.972  1.00  0.00     0.163 C 
BRANCH   8   9
HETATM    9  C5  UNL     1     -56.993 -38.874  20.080  1.00  0.00     0.176 C 
HETATM   10  O4  UNL     1     -56.995 -39.426  21.197  1.00  0.00    -0.648 OA
HETATM   11  O5  UNL     1     -57.300 -39.553  18.911  1.00  0.00    -0.648 OA
ENDBRANCH   8   9
ENDBRANCH   1   8
BRANCH   1  12
HETATM   12  C6  UNL     1     -55.165 -35.606  20.273  1.00  0.00     0.210 C 
HETATM   13  O6  UNL     1     -56.144 -34.971  19.829  1.00  0.00    -0.646 OA
HETATM   14  O7  UNL     1     -54.055 -34.926  20.717  1.00  0.00    -0.646 OA
ENDBRANCH   1  12
TORSDOF 6
ENDMDL
