MODEL 1
REMARK VINA RESULT: -6.789203833      0.000      0.000
REMARK  6 active torsions:
REMARK  status: ('A' for Active; 'I' for Inactive)
REMARK    1  A    between atoms: C1_2  and  C2_4 
REMARK    2  A    between atoms: C2_4  and  C3_5 
REMARK    3  A    between atoms: C3_5  and  O3_6 
REMARK    4  A    between atoms: C3_5  and  C4_8 
REMARK    5  A    between atoms: C3_5  and  C6_12 
REMARK    6  A    between atoms: C4_8  and  C5_9 
ROOT
HETATM    1  C3  UNL     1     -55.328 -37.097  20.458  1.00  0.00     0.164 C 
ENDROOT
BRANCH   1   2
HETATM    2  C2  UNL     1     -54.128 -37.789  19.936  1.00  0.00     0.163 C 
BRANCH   2   3
HETATM    3  C1  UNL     1     -53.686 -38.989  20.668  1.00  0.00     0.176 C 
HETATM    4  O1  UNL     1     -53.675 -40.088  20.067  1.00  0.00    -0.648 OA
HETATM    5  O2  UNL     1     -53.272 -39.004  21.991  1.00  0.00    -0.648 OA
ENDBRANCH   2   3
ENDBRANCH   1   2
BRANCH   1   6
HETATM    6  O3  UNL     1     -55.402 -37.333  21.834  1.00  0.00    -0.378 OA
ATOM      7  H3  UNL     1     -55.785 -36.567  22.245  1.00  0.00     0.211 HD
ENDBRANCH   1   6
BRANCH   1   8
HETATM    8  C4  UNL     1     -56.633 -37.407  19.816  1.00  0.00     0.163 C 
BRANCH   8   9
HETATM    9  C5  UNL     1     -57.075 -38.813  19.924  1.00  0.00     0.176 C 
HETATM   10  O4  UNL     1     -57.392 -39.442  18.896  1.00  0.00    -0.648 OA
HETATM   11  O5  UNL     1     -57.119 -39.380  21.188  1.00  0.00    -0.648 OA
ENDBRANCH   8   9
ENDBRANCH   1   8
BRANCH   1  12
HETATM   12  C6  UNL     1     -55.102 -35.640  20.265  1.00  0.00     0.210 C 
HETATM   13  O6  UNL     1     -56.040 -34.953  19.812  1.00  0.00    -0.646 OA
HETATM   14  O7  UNL     1     -53.903 -35.040  20.572  1.00  0.00    -0.646 OA
ENDBRANCH   1  12
TORSDOF 6
ENDMDL
