MODEL 3
REMARK VINA RESULT: -12.766134380      2.572     12.499
REMARK  7 active torsions:
REMARK  status: ('A' for Active; 'I' for Inactive)
REMARK    1  A    between atoms: C3_3  and  C4_4 
REMARK    2  A    between atoms: C5_5  and  C6_6 
REMARK    3  A    between atoms: C10_14  and  C11_15 
REMARK    4  A    between atoms: C21_27  and  C22_28 
REMARK       I    between atoms: C22_28  and  N5_30 
REMARK    5  A    between atoms: N5_30  and  C23_32 
REMARK    6  A    between atoms: C25_34  and  C26_35 
REMARK    7  A    between atoms: C30_39  and  N6_40 
ROOT
HETATM    1  C1  UNL     1     -13.134 -16.067  16.410  1.00  0.00     0.050 C 
HETATM    2  C2  UNL     1     -12.908 -16.653  17.736  1.00  0.00    -0.028 A 
HETATM    3  C3  UNL     1     -13.991 -16.666  18.626  1.00  0.00     0.025 A 
HETATM    4  C18 UNL     1     -13.828 -17.209  19.889  1.00  0.00     0.021 A 
HETATM    5  C19 UNL     1     -12.622 -17.745  20.309  1.00  0.00     0.002 A 
HETATM    6  C20 UNL     1     -11.564 -17.717  19.405  1.00  0.00     0.017 A 
HETATM    7  C21 UNL     1     -11.707 -17.183  18.147  1.00  0.00     0.039 A 
ENDROOT
BRANCH   3   8
HETATM    8  C4  UNL     1     -15.236 -16.111  18.192  1.00  0.00    -0.059 C 
HETATM    9  C5  UNL     1     -16.301 -15.661  17.818  1.00  0.00    -0.041 C 
BRANCH   9  10
HETATM   10  C6  UNL     1     -17.568 -15.141  17.373  1.00  0.00     0.110 A 
HETATM   11  C7  UNL     1     -18.815 -15.362  17.940  1.00  0.00     0.129 A 
HETATM   12  N1  UNL     1     -19.757 -14.712  17.251  1.00  0.00    -0.348 N 
HETATM   13  C8  UNL     1     -19.133 -14.070  16.242  1.00  0.00     0.128 A 
ATOM     14  H1  UNL     1     -20.758 -14.704  17.449  1.00  0.00     0.167 HD
HETATM   15  C9  UNL     1     -19.557 -13.253  15.216  1.00  0.00     0.137 A 
HETATM   16  N4  UNL     1     -17.812 -14.328  16.314  1.00  0.00    -0.296 N 
HETATM   17  N2  UNL     1     -18.724 -12.725  14.319  1.00  0.00    -0.361 N 
HETATM   18  C10 UNL     1     -17.384 -13.002  14.412  1.00  0.00     0.058 A 
ATOM     19  H2  UNL     1     -19.078 -12.124  13.574  1.00  0.00     0.165 HD
HETATM   20  C17 UNL     1     -16.928 -13.811  15.421  1.00  0.00     0.130 A 
BRANCH  18  21
HETATM   21  C11 UNL     1     -16.457 -12.437  13.444  1.00  0.00    -0.008 A 
HETATM   22  C12 UNL     1     -15.259 -13.013  13.137  1.00  0.00     0.015 A 
HETATM   23  C13 UNL     1     -14.454 -12.380  12.195  1.00  0.00     0.027 A 
HETATM   24  C14 UNL     1     -14.837 -11.209  11.583  1.00  0.00     0.046 A 
HETATM   25  N3  UNL     1     -14.009 -10.561  10.616  1.00  0.00    -0.102 NA
HETATM   26  C15 UNL     1     -16.044 -10.617  11.884  1.00  0.00     0.027 A 
HETATM   27  C16 UNL     1     -16.838 -11.244  12.815  1.00  0.00     0.015 A 
ENDBRANCH  18  21
ENDBRANCH   9  10
ENDBRANCH   3   8
BRANCH   7  28
HETATM   28  C22 UNL     1     -10.568 -17.163  17.201  1.00  0.00     0.256 C 
HETATM   29  O1  UNL     1     -10.752 -17.324  15.977  1.00  0.00    -0.267 OA
HETATM   30  N5  UNL     1      -9.262 -16.958  17.701  1.00  0.00    -0.323 N 
ATOM     31  H5  UNL     1      -9.165 -16.831  18.708  1.00  0.00     0.169 HD
BRANCH  30  32
HETATM   32  C23 UNL     1      -8.093 -16.912  16.942  1.00  0.00     0.037 A 
HETATM   33  C24 UNL     1      -7.876 -17.483  15.720  1.00  0.00     0.037 A 
HETATM   34  C25 UNL     1      -6.668 -17.375  15.048  1.00  0.00    -0.050 A 
HETATM   35  C29 UNL     1      -5.630 -16.683  15.591  1.00  0.00     0.037 A 
HETATM   36  C30 UNL     1      -5.793 -16.082  16.830  1.00  0.00     0.033 A 
HETATM   37  C36 UNL     1      -7.016 -16.209  17.477  1.00  0.00     0.058 A 
BRANCH  34  38
HETATM   38  C26 UNL     1      -6.491 -18.025  13.710  1.00  0.00     0.010 C 
HETATM   39  C27 UNL     1      -5.192 -17.550  13.113  1.00  0.00     0.015 C 
HETATM   40  C28 UNL     1      -7.599 -17.593  12.768  1.00  0.00     0.015 C 
ENDBRANCH  34  38
BRANCH  36  41
HETATM   41  N6  UNL     1      -4.732 -15.344  17.415  1.00  0.00    -0.378 N 
HETATM   42  C31 UNL     1      -3.399 -15.361  16.861  1.00  0.00     0.142 C 
HETATM   43  C32 UNL     1      -2.436 -15.994  17.877  1.00  0.00     0.136 C 
HETATM   44  N7  UNL     1      -3.123 -16.039  19.120  1.00  0.00    -0.414 N 
HETATM   45  C33 UNL     1      -2.545 -16.847  20.136  1.00  0.00     0.143 C 
HETATM   46  C34 UNL     1      -3.716 -14.813  19.542  1.00  0.00     0.136 C 
HETATM   47  C35 UNL     1      -4.912 -14.539  18.617  1.00  0.00     0.142 C 
ENDBRANCH  36  41
ENDBRANCH  30  32
ENDBRANCH   7  28
TORSDOF 7
ENDMDL
