MODEL 1
REMARK VINA RESULT: -14.040755657      0.000      0.000
REMARK  7 active torsions:
REMARK  status: ('A' for Active; 'I' for Inactive)
REMARK    1  A    between atoms: C3_3  and  C4_4 
REMARK    2  A    between atoms: C5_5  and  C6_6 
REMARK    3  A    between atoms: C10_14  and  C11_15 
REMARK    4  A    between atoms: C21_27  and  C22_28 
REMARK       I    between atoms: C22_28  and  N5_30 
REMARK    5  A    between atoms: N5_30  and  C23_32 
REMARK    6  A    between atoms: C25_34  and  C26_35 
REMARK    7  A    between atoms: C30_39  and  N6_40 
ROOT
HETATM    1  C1  UNL     1     -10.041 -15.482  12.478  1.00  0.00     0.050 C 
HETATM    2  C2  UNL     1     -10.691 -16.198  13.582  1.00  0.00    -0.028 A 
HETATM    3  C3  UNL     1      -9.917 -17.129  14.289  1.00  0.00     0.025 A 
HETATM    4  C18 UNL     1     -10.484 -17.829  15.338  1.00  0.00     0.021 A 
HETATM    5  C19 UNL     1     -11.802 -17.642  15.721  1.00  0.00     0.002 A 
HETATM    6  C20 UNL     1     -12.548 -16.712  15.001  1.00  0.00     0.017 A 
HETATM    7  C21 UNL     1     -12.001 -16.007  13.955  1.00  0.00     0.039 A 
ENDROOT
BRANCH   3   8
HETATM    8  C4  UNL     1      -8.556 -17.324  13.893  1.00  0.00    -0.059 C 
HETATM    9  C5  UNL     1      -7.394 -17.485  13.578  1.00  0.00    -0.041 C 
BRANCH   9  10
HETATM   10  C6  UNL     1      -6.012 -17.676  13.219  1.00  0.00     0.110 A 
HETATM   11  C7  UNL     1      -5.508 -18.059  11.983  1.00  0.00     0.129 A 
HETATM   12  N1  UNL     1      -4.175 -18.129  12.030  1.00  0.00    -0.348 N 
HETATM   13  C8  UNL     1      -3.808 -17.796  13.284  1.00  0.00     0.128 A 
ATOM     14  H1  UNL     1      -3.553 -18.388  11.264  1.00  0.00     0.167 HD
HETATM   15  C9  UNL     1      -2.597 -17.688  13.934  1.00  0.00     0.137 A 
HETATM   16  N4  UNL     1      -4.916 -17.522  14.003  1.00  0.00    -0.296 N 
HETATM   17  N2  UNL     1      -2.490 -17.330  15.214  1.00  0.00    -0.361 N 
HETATM   18  C10 UNL     1      -3.631 -17.057  15.925  1.00  0.00     0.058 A 
ATOM     19  H2  UNL     1      -1.574 -17.261  15.657  1.00  0.00     0.165 HD
HETATM   20  C17 UNL     1      -4.853 -17.154  15.310  1.00  0.00     0.130 A 
BRANCH  18  21
HETATM   21  C11 UNL     1      -3.539 -16.666  17.322  1.00  0.00    -0.008 A 
HETATM   22  C12 UNL     1      -3.107 -17.509  18.304  1.00  0.00     0.015 A 
HETATM   23  C13 UNL     1      -3.063 -17.024  19.608  1.00  0.00     0.027 A 
HETATM   24  C14 UNL     1      -3.437 -15.737  19.915  1.00  0.00     0.046 A 
HETATM   25  N3  UNL     1      -3.390 -15.240  21.254  1.00  0.00    -0.102 NA
HETATM   26  C15 UNL     1      -3.874 -14.874  18.934  1.00  0.00     0.027 A 
HETATM   27  C16 UNL     1      -3.918 -15.356  17.647  1.00  0.00     0.015 A 
ENDBRANCH  18  21
ENDBRANCH   9  10
ENDBRANCH   3   8
BRANCH   7  28
HETATM   28  C22 UNL     1     -12.811 -15.023  13.203  1.00  0.00     0.256 C 
HETATM   29  O1  UNL     1     -12.673 -14.892  11.969  1.00  0.00    -0.267 OA
HETATM   30  N5  UNL     1     -13.751 -14.229  13.900  1.00  0.00    -0.323 N 
ATOM     31  H5  UNL     1     -13.825 -14.375  14.906  1.00  0.00     0.169 HD
BRANCH  30  32
HETATM   32  C23 UNL     1     -14.585 -13.264  13.336  1.00  0.00     0.037 A 
HETATM   33  C24 UNL     1     -14.285 -12.402  12.320  1.00  0.00     0.037 A 
HETATM   34  C25 UNL     1     -15.195 -11.476  11.832  1.00  0.00    -0.050 A 
HETATM   35  C29 UNL     1     -16.446 -11.388  12.358  1.00  0.00     0.037 A 
HETATM   36  C30 UNL     1     -16.807 -12.239  13.392  1.00  0.00     0.033 A 
HETATM   37  C36 UNL     1     -15.872 -13.156  13.857  1.00  0.00     0.058 A 
BRANCH  34  38
HETATM   38  C26 UNL     1     -14.806 -10.556  10.716  1.00  0.00     0.010 C 
HETATM   39  C27 UNL     1     -14.236  -9.294  11.309  1.00  0.00     0.015 C 
HETATM   40  C28 UNL     1     -16.031 -10.158   9.914  1.00  0.00     0.015 C 
ENDBRANCH  34  38
BRANCH  36  41
HETATM   41  N6  UNL     1     -18.109 -12.178  13.951  1.00  0.00    -0.378 N 
HETATM   42  C31 UNL     1     -18.604 -10.985  14.595  1.00  0.00     0.142 C 
HETATM   43  C32 UNL     1     -18.862 -11.280  16.081  1.00  0.00     0.136 C 
HETATM   44  N7  UNL     1     -18.839 -12.694  16.227  1.00  0.00    -0.414 N 
HETATM   45  C33 UNL     1     -18.762 -13.193  17.555  1.00  0.00     0.143 C 
HETATM   46  C34 UNL     1     -19.664 -13.422  15.320  1.00  0.00     0.136 C 
HETATM   47  C35 UNL     1     -19.021 -13.315  13.928  1.00  0.00     0.142 C 
ENDBRANCH  36  41
ENDBRANCH  30  32
ENDBRANCH   7  28
TORSDOF 7
ENDMDL
