MODEL 2
REMARK VINA RESULT: -13.529251942      6.514     10.231
REMARK  7 active torsions:
REMARK  status: ('A' for Active; 'I' for Inactive)
REMARK    1  A    between atoms: C3_3  and  C4_4 
REMARK    2  A    between atoms: C5_5  and  C6_6 
REMARK    3  A    between atoms: C10_14  and  C11_15 
REMARK    4  A    between atoms: C21_27  and  C22_28 
REMARK       I    between atoms: C22_28  and  N5_30 
REMARK    5  A    between atoms: N5_30  and  C23_32 
REMARK    6  A    between atoms: C25_34  and  C26_35 
REMARK    7  A    between atoms: C30_39  and  N6_40 
ROOT
HETATM    1  C1  UNL     1      -7.246 -16.705  18.177  1.00  0.00     0.050 C 
HETATM    2  C2  UNL     1      -8.691 -16.907  18.339  1.00  0.00    -0.028 A 
HETATM    3  C3  UNL     1      -9.429 -17.224  17.191  1.00  0.00     0.025 A 
HETATM    4  C18 UNL     1     -10.794 -17.424  17.292  1.00  0.00     0.021 A 
HETATM    5  C19 UNL     1     -11.465 -17.322  18.500  1.00  0.00     0.002 A 
HETATM    6  C20 UNL     1     -10.707 -17.005  19.624  1.00  0.00     0.017 A 
HETATM    7  C21 UNL     1      -9.350 -16.803  19.542  1.00  0.00     0.039 A 
ENDROOT
BRANCH   3   8
HETATM    8  C4  UNL     1      -8.737 -17.328  15.943  1.00  0.00    -0.059 C 
HETATM    9  C5  UNL     1      -8.132 -17.428  14.894  1.00  0.00    -0.041 C 
BRANCH   9  10
HETATM   10  C6  UNL     1      -7.405 -17.555  13.657  1.00  0.00     0.110 A 
HETATM   11  C7  UNL     1      -7.932 -17.612  12.373  1.00  0.00     0.129 A 
HETATM   12  N1  UNL     1      -6.948 -17.729  11.477  1.00  0.00    -0.348 N 
HETATM   13  C8  UNL     1      -5.789 -17.747  12.165  1.00  0.00     0.128 A 
ATOM     14  H1  UNL     1      -7.054 -17.793  10.464  1.00  0.00     0.167 HD
HETATM   15  C9  UNL     1      -4.461 -17.847  11.808  1.00  0.00     0.137 A 
HETATM   16  N4  UNL     1      -6.063 -17.642  13.481  1.00  0.00    -0.296 N 
HETATM   17  N2  UNL     1      -3.468 -17.841  12.698  1.00  0.00    -0.361 N 
HETATM   18  C10 UNL     1      -3.772 -17.734  14.031  1.00  0.00     0.058 A 
ATOM     19  H2  UNL     1      -2.498 -17.916  12.392  1.00  0.00     0.165 HD
HETATM   20  C17 UNL     1      -5.082 -17.633  14.422  1.00  0.00     0.130 A 
BRANCH  18  21
HETATM   21  C11 UNL     1      -2.705 -17.727  15.020  1.00  0.00    -0.008 A 
HETATM   22  C12 UNL     1      -1.409 -18.026  14.718  1.00  0.00     0.015 A 
HETATM   23  C13 UNL     1      -0.474 -17.989  15.747  1.00  0.00     0.027 A 
HETATM   24  C14 UNL     1      -0.827 -17.663  17.036  1.00  0.00     0.046 A 
HETATM   25  N3  UNL     1       0.134 -17.624  18.093  1.00  0.00    -0.102 NA
HETATM   26  C15 UNL     1      -2.133 -17.359  17.355  1.00  0.00     0.027 A 
HETATM   27  C16 UNL     1      -3.055 -17.397  16.336  1.00  0.00     0.015 A 
ENDBRANCH  18  21
ENDBRANCH   9  10
ENDBRANCH   3   8
BRANCH   7  28
HETATM   28  C22 UNL     1      -8.563 -16.466  20.750  1.00  0.00     0.256 C 
HETATM   29  O1  UNL     1      -8.608 -17.192  21.764  1.00  0.00    -0.267 OA
HETATM   30  N5  UNL     1      -7.753 -15.307  20.742  1.00  0.00    -0.323 N 
ATOM     31  H5  UNL     1      -7.751 -14.749  19.889  1.00  0.00     0.169 HD
BRANCH  30  32
HETATM   32  C23 UNL     1      -6.957 -14.858  21.795  1.00  0.00     0.037 A 
HETATM   33  C24 UNL     1      -6.062 -15.588  22.526  1.00  0.00     0.037 A 
HETATM   34  C25 UNL     1      -5.316 -15.040  23.558  1.00  0.00    -0.050 A 
HETATM   35  C29 UNL     1      -5.448 -13.727  23.890  1.00  0.00     0.037 A 
HETATM   36  C30 UNL     1      -6.342 -12.937  23.181  1.00  0.00     0.033 A 
HETATM   37  C36 UNL     1      -7.074 -13.518  22.152  1.00  0.00     0.058 A 
BRANCH  34  38
HETATM   38  C26 UNL     1      -4.351 -15.893  24.324  1.00  0.00     0.010 C 
HETATM   39  C27 UNL     1      -3.137 -15.065  24.656  1.00  0.00     0.015 C 
HETATM   40  C28 UNL     1      -3.881 -17.051  23.465  1.00  0.00     0.015 C 
ENDBRANCH  34  38
BRANCH  36  41
HETATM   41  N6  UNL     1      -6.492 -11.563  23.497  1.00  0.00    -0.378 N 
HETATM   42  C31 UNL     1      -5.591 -10.562  22.978  1.00  0.00     0.142 C 
HETATM   43  C32 UNL     1      -4.830  -9.910  24.144  1.00  0.00     0.136 C 
HETATM   44  N7  UNL     1      -5.509 -10.284  25.335  1.00  0.00    -0.414 N 
HETATM   45  C33 UNL     1      -4.824 -10.045  26.557  1.00  0.00     0.143 C 
HETATM   46  C34 UNL     1      -6.916 -10.058  25.340  1.00  0.00     0.136 C 
HETATM   47  C35 UNL     1      -7.548 -11.075  24.376  1.00  0.00     0.142 C 
ENDBRANCH  36  41
ENDBRANCH  30  32
ENDBRANCH   7  28
TORSDOF 7
ENDMDL
