MODEL 4
REMARK VINA RESULT: -12.674335022      6.556     10.540
REMARK  7 active torsions:
REMARK  status: ('A' for Active; 'I' for Inactive)
REMARK    1  A    between atoms: C3_3  and  C4_4 
REMARK    2  A    between atoms: C5_5  and  C6_6 
REMARK    3  A    between atoms: C10_14  and  C11_15 
REMARK    4  A    between atoms: C21_27  and  C22_28 
REMARK       I    between atoms: C22_28  and  N5_30 
REMARK    5  A    between atoms: N5_30  and  C23_32 
REMARK    6  A    between atoms: C25_34  and  C26_35 
REMARK    7  A    between atoms: C30_39  and  N6_40 
ROOT
HETATM    1  C1  UNL     1      -7.193 -16.438  18.267  1.00  0.00     0.050 C 
HETATM    2  C2  UNL     1      -8.609 -16.749  18.497  1.00  0.00    -0.028 A 
HETATM    3  C3  UNL     1      -9.360 -17.184  17.396  1.00  0.00     0.025 A 
HETATM    4  C18 UNL     1     -10.698 -17.490  17.562  1.00  0.00     0.021 A 
HETATM    5  C19 UNL     1     -11.331 -17.381  18.789  1.00  0.00     0.002 A 
HETATM    6  C20 UNL     1     -10.562 -16.946  19.866  1.00  0.00     0.017 A 
HETATM    7  C21 UNL     1      -9.231 -16.637  19.719  1.00  0.00     0.039 A 
ENDROOT
BRANCH   3   8
HETATM    8  C4  UNL     1      -8.706 -17.295  16.128  1.00  0.00    -0.059 C 
HETATM    9  C5  UNL     1      -8.135 -17.402  15.061  1.00  0.00    -0.041 C 
BRANCH   9  10
HETATM   10  C6  UNL     1      -7.450 -17.538  13.801  1.00  0.00     0.110 A 
HETATM   11  C7  UNL     1      -8.018 -17.596  12.536  1.00  0.00     0.129 A 
HETATM   12  N1  UNL     1      -7.065 -17.724  11.608  1.00  0.00    -0.348 N 
HETATM   13  C8  UNL     1      -5.884 -17.748  12.259  1.00  0.00     0.128 A 
ATOM     14  H1  UNL     1      -7.204 -17.790  10.600  1.00  0.00     0.167 HD
HETATM   15  C9  UNL     1      -4.569 -17.859  11.860  1.00  0.00     0.137 A 
HETATM   16  N4  UNL     1      -6.115 -17.636  13.583  1.00  0.00    -0.296 N 
HETATM   17  N2  UNL     1      -3.548 -17.858  12.717  1.00  0.00    -0.361 N 
HETATM   18  C10 UNL     1      -3.808 -17.743  14.060  1.00  0.00     0.058 A 
ATOM     19  H2  UNL     1      -2.589 -17.940  12.381  1.00  0.00     0.165 HD
HETATM   20  C17 UNL     1      -5.104 -17.632  14.492  1.00  0.00     0.130 A 
BRANCH  18  21
HETATM   21  C11 UNL     1      -2.710 -17.741  15.013  1.00  0.00    -0.008 A 
HETATM   22  C12 UNL     1      -1.420 -18.013  14.663  1.00  0.00     0.015 A 
HETATM   23  C13 UNL     1      -0.453 -17.983  15.663  1.00  0.00     0.027 A 
HETATM   24  C14 UNL     1      -0.769 -17.690  16.970  1.00  0.00     0.046 A 
HETATM   25  N3  UNL     1       0.225 -17.659  17.995  1.00  0.00    -0.102 NA
HETATM   26  C15 UNL     1      -2.068 -17.413  17.337  1.00  0.00     0.027 A 
HETATM   27  C16 UNL     1      -3.022 -17.443  16.347  1.00  0.00     0.015 A 
ENDBRANCH  18  21
ENDBRANCH   9  10
ENDBRANCH   3   8
BRANCH   7  28
HETATM   28  C22 UNL     1      -8.431 -16.176  20.877  1.00  0.00     0.256 C 
HETATM   29  O1  UNL     1      -8.134 -16.961  21.800  1.00  0.00    -0.267 OA
HETATM   30  N5  UNL     1      -8.004 -14.829  20.925  1.00  0.00    -0.323 N 
ATOM     31  H5  UNL     1      -8.273 -14.229  20.145  1.00  0.00     0.169 HD
BRANCH  30  32
HETATM   32  C23 UNL     1      -7.248 -14.246  21.941  1.00  0.00     0.037 A 
HETATM   33  C24 UNL     1      -7.630 -13.241  22.784  1.00  0.00     0.037 A 
HETATM   34  C25 UNL     1      -6.794 -12.731  23.766  1.00  0.00    -0.050 A 
HETATM   35  C29 UNL     1      -5.536 -13.222  23.932  1.00  0.00     0.037 A 
HETATM   36  C30 UNL     1      -5.094 -14.244  23.104  1.00  0.00     0.033 A 
HETATM   37  C36 UNL     1      -5.957 -14.732  22.130  1.00  0.00     0.058 A 
BRANCH  34  38
HETATM   38  C26 UNL     1      -7.270 -11.627  24.660  1.00  0.00     0.010 C 
HETATM   39  C27 UNL     1      -8.379 -10.887  23.960  1.00  0.00     0.015 C 
HETATM   40  C28 UNL     1      -6.152 -10.630  24.901  1.00  0.00     0.015 C 
ENDBRANCH  34  38
BRANCH  36  41
HETATM   41  N6  UNL     1      -3.793 -14.783  23.262  1.00  0.00    -0.378 N 
HETATM   42  C31 UNL     1      -3.073 -15.368  22.155  1.00  0.00     0.142 C 
HETATM   43  C32 UNL     1      -2.843 -16.862  22.432  1.00  0.00     0.136 C 
HETATM   44  N7  UNL     1      -3.124 -17.071  23.810  1.00  0.00    -0.414 N 
HETATM   45  C33 UNL     1      -3.264 -18.421  24.231  1.00  0.00     0.143 C 
HETATM   46  C34 UNL     1      -2.465 -16.187  24.714  1.00  0.00     0.136 C 
HETATM   47  C35 UNL     1      -3.105 -14.800  24.548  1.00  0.00     0.142 C 
ENDBRANCH  36  41
ENDBRANCH  30  32
ENDBRANCH   7  28
TORSDOF 7
ENDMDL
