MODEL 2
REMARK VINA RESULT: -8.532174601      1.992      2.308
REMARK  1 active torsions:
REMARK  status: ('A' for Active; 'I' for Inactive)
REMARK    1  A    between atoms: C5_6  and  C6_7 
ROOT
HETATM    1  N1  UNL     1      51.733 -46.335  -1.794  1.00  0.00    -0.191 NA
HETATM    2  C1  UNL     1      51.688 -45.948  -2.886  1.00  0.00     0.099 C 
HETATM    3  C2  UNL     1      51.617 -45.480  -4.257  1.00  0.00     0.044 A 
HETATM    4  C3  UNL     1      50.668 -44.550  -4.635  1.00  0.00     0.023 A 
HETATM    5  C4  UNL     1      50.567 -44.081  -5.917  1.00  0.00     0.011 A 
HETATM    6  C5  UNL     1      51.434 -44.544  -6.871  1.00  0.00    -0.035 A 
HETATM    7  C13 UNL     1      52.386 -45.471  -6.515  1.00  0.00     0.011 A 
HETATM    8  C14 UNL     1      52.480 -45.937  -5.217  1.00  0.00     0.023 A 
ENDROOT
BRANCH   6   9
HETATM    9  C6  UNL     1      51.366 -44.066  -8.251  1.00  0.00     0.123 C 
HETATM   10  C7  UNL     1      50.612 -42.782  -8.341  1.00  0.00     0.031 C 
HETATM   11  C8  UNL     1      50.094 -42.490  -9.713  1.00  0.00     0.008 C 
HETATM   12  C9  UNL     1      50.930 -43.251 -10.720  1.00  0.00     0.059 C 
HETATM   13  C10 UNL     1      50.697 -44.679 -10.431  1.00  0.00     0.028 A 
HETATM   14  C11 UNL     1      50.285 -45.731 -11.190  1.00  0.00     0.114 A 
HETATM   15  N3  UNL     1      50.914 -45.097  -9.176  1.00  0.00    -0.336 N 
HETATM   16  N2  UNL     1      50.250 -46.815 -10.376  1.00  0.00    -0.360 N 
HETATM   17  C12 UNL     1      50.638 -46.402  -9.152  1.00  0.00     0.183 A 
ATOM     18  H2  UNL     1      49.981 -47.763 -10.639  1.00  0.00     0.166 HD
ENDBRANCH   6   9
TORSDOF 1
ENDMDL
