MODEL 5
REMARK VINA RESULT: -8.367496809      2.876      5.775
REMARK  1 active torsions:
REMARK  status: ('A' for Active; 'I' for Inactive)
REMARK    1  A    between atoms: C5_6  and  C6_7 
ROOT
HETATM    1  N1  UNL     1      49.548 -41.887 -10.401  1.00  0.00    -0.191 NA
HETATM    2  C1  UNL     1      50.009 -42.379  -9.458  1.00  0.00     0.099 C 
HETATM    3  C2  UNL     1      50.601 -43.001  -8.290  1.00  0.00     0.044 A 
HETATM    4  C3  UNL     1      51.495 -42.305  -7.498  1.00  0.00     0.023 A 
HETATM    5  C4  UNL     1      52.077 -42.854  -6.387  1.00  0.00     0.011 A 
HETATM    6  C5  UNL     1      51.770 -44.142  -6.036  1.00  0.00    -0.035 A 
HETATM    7  C13 UNL     1      50.884 -44.853  -6.812  1.00  0.00     0.011 A 
HETATM    8  C14 UNL     1      50.302 -44.289  -7.931  1.00  0.00     0.023 A 
ENDROOT
BRANCH   6   9
HETATM    9  C6  UNL     1      52.363 -44.766  -4.855  1.00  0.00     0.123 C 
HETATM   10  C7  UNL     1      53.164 -45.969  -5.224  1.00  0.00     0.031 C 
HETATM   11  C8  UNL     1      53.389 -46.909  -4.084  1.00  0.00     0.008 C 
HETATM   12  C9  UNL     1      53.247 -46.142  -2.787  1.00  0.00     0.059 C 
HETATM   13  C10 UNL     1      51.844 -45.690  -2.745  1.00  0.00     0.028 A 
HETATM   14  C11 UNL     1      50.844 -45.829  -1.832  1.00  0.00     0.114 A 
HETATM   15  N3  UNL     1      51.389 -44.994  -3.796  1.00  0.00    -0.336 N 
HETATM   16  N2  UNL     1      49.754 -45.202  -2.341  1.00  0.00    -0.360 N 
HETATM   17  C12 UNL     1      50.112 -44.701  -3.541  1.00  0.00     0.183 A 
ATOM     18  H2  UNL     1      48.837 -45.125  -1.900  1.00  0.00     0.166 HD
ENDBRANCH   6   9
TORSDOF 1
ENDMDL
