MODEL 1
REMARK VINA RESULT: -9.603317442      0.000      0.000
REMARK  1 active torsions:
REMARK  status: ('A' for Active; 'I' for Inactive)
REMARK    1  A    between atoms: C5_6  and  C6_7 
ROOT
HETATM    1  N1  UNL     1      49.976 -44.416  -1.691  1.00  0.00    -0.191 NA
HETATM    2  C1  UNL     1      50.575 -44.496  -2.681  1.00  0.00     0.099 C 
HETATM    3  C2  UNL     1      51.309 -44.606  -3.927  1.00  0.00     0.044 A 
HETATM    4  C3  UNL     1      51.150 -43.661  -4.923  1.00  0.00     0.023 A 
HETATM    5  C4  UNL     1      51.823 -43.727  -6.114  1.00  0.00     0.011 A 
HETATM    6  C5  UNL     1      52.689 -44.764  -6.338  1.00  0.00    -0.035 A 
HETATM    7  C13 UNL     1      52.860 -45.716  -5.360  1.00  0.00     0.011 A 
HETATM    8  C14 UNL     1      52.177 -45.639  -4.161  1.00  0.00     0.023 A 
ENDROOT
BRANCH   6   9
HETATM    9  C6  UNL     1      53.432 -44.871  -7.592  1.00  0.00     0.123 C 
HETATM   10  C7  UNL     1      54.060 -43.568  -7.960  1.00  0.00     0.031 C 
HETATM   11  C8  UNL     1      54.411 -43.463  -9.410  1.00  0.00     0.008 C 
HETATM   12  C9  UNL     1      54.561 -44.860  -9.975  1.00  0.00     0.059 C 
HETATM   13  C10 UNL     1      53.226 -45.478  -9.865  1.00  0.00     0.028 A 
HETATM   14  C11 UNL     1      52.397 -46.077 -10.763  1.00  0.00     0.114 A 
HETATM   15  N3  UNL     1      52.647 -45.482  -8.656  1.00  0.00    -0.336 N 
HETATM   16  N2  UNL     1      51.285 -46.455 -10.083  1.00  0.00    -0.360 N 
HETATM   17  C12 UNL     1      51.463 -46.080  -8.799  1.00  0.00     0.183 A 
ATOM     18  H2  UNL     1      50.470 -46.931 -10.469  1.00  0.00     0.166 HD
ENDBRANCH   6   9
TORSDOF 1
ENDMDL
