MODEL 4
REMARK VINA RESULT: -8.443685163      1.146      2.339
REMARK  1 active torsions:
REMARK  status: ('A' for Active; 'I' for Inactive)
REMARK    1  A    between atoms: C5_6  and  C6_7 
ROOT
HETATM    1  N1  UNL     1      50.282 -44.531  -1.509  1.00  0.00    -0.191 NA
HETATM    2  C1  UNL     1      50.580 -44.622  -2.626  1.00  0.00     0.099 C 
HETATM    3  C2  UNL     1      50.936 -44.748  -4.026  1.00  0.00     0.044 A 
HETATM    4  C3  UNL     1      50.363 -43.924  -4.976  1.00  0.00     0.023 A 
HETATM    5  C4  UNL     1      50.671 -44.009  -6.307  1.00  0.00     0.011 A 
HETATM    6  C5  UNL     1      51.580 -44.943  -6.726  1.00  0.00    -0.035 A 
HETATM    7  C13 UNL     1      52.162 -45.775  -5.797  1.00  0.00     0.011 A 
HETATM    8  C14 UNL     1      51.844 -45.679  -4.455  1.00  0.00     0.023 A 
ENDROOT
BRANCH   6   9
HETATM    9  C6  UNL     1      51.944 -45.065  -8.137  1.00  0.00     0.123 C 
HETATM   10  C7  UNL     1      51.790 -46.470  -8.615  1.00  0.00     0.031 C 
HETATM   11  C8  UNL     1      52.573 -46.769  -9.853  1.00  0.00     0.008 C 
HETATM   12  C9  UNL     1      52.839 -45.470 -10.584  1.00  0.00     0.059 C 
HETATM   13  C10 UNL     1      53.688 -44.672  -9.679  1.00  0.00     0.028 A 
HETATM   14  C11 UNL     1      54.897 -44.063  -9.827  1.00  0.00     0.114 A 
HETATM   15  N3  UNL     1      53.239 -44.467  -8.433  1.00  0.00    -0.336 N 
HETATM   16  N2  UNL     1      55.189 -43.474  -8.641  1.00  0.00    -0.360 N 
HETATM   17  C12 UNL     1      54.162 -43.736  -7.807  1.00  0.00     0.183 A 
ATOM     18  H2  UNL     1      56.027 -42.935  -8.421  1.00  0.00     0.166 HD
ENDBRANCH   6   9
TORSDOF 1
ENDMDL
