MODEL 6
REMARK VINA RESULT: -7.581374242      2.738      4.772
REMARK  7 active torsions:
REMARK  status: ('A' for Active; 'I' for Inactive)
REMARK    1  A    between atoms: C2_3  and  O2_4 
REMARK    2  A    between atoms: C3_6  and  C4_7 
REMARK    3  A    between atoms: C6_9  and  O3_10 
REMARK    4  A    between atoms: C7_12  and  O4_13 
REMARK    5  A    between atoms: C8_15  and  O5_16 
REMARK    6  A    between atoms: C12_22  and  O7_23 
REMARK    7  A    between atoms: C14_26  and  O8_27 
ROOT
HETATM    1  O1  UNL     1       7.530  24.177  26.180  1.00  0.00    -0.284 OA
HETATM    2  C1  UNL     1       6.666  24.936  26.659  1.00  0.00     0.223 A 
HETATM    3  C2  UNL     1       6.266  24.756  27.995  1.00  0.00     0.152 A 
HETATM    4  C3  UNL     1       5.332  25.549  28.571  1.00  0.00     0.123 A 
HETATM    5  O6  UNL     1       4.812  26.511  27.802  1.00  0.00    -0.306 OA
HETATM    6  C10 UNL     1       5.151  26.714  26.564  1.00  0.00     0.096 A 
HETATM    7  C11 UNL     1       4.553  27.743  25.840  1.00  0.00     0.075 A 
HETATM    8  C12 UNL     1       4.871  27.998  24.547  1.00  0.00     0.071 A 
HETATM    9  C13 UNL     1       5.811  27.217  23.928  1.00  0.00     0.074 A 
HETATM   10  C14 UNL     1       6.449  26.164  24.607  1.00  0.00     0.085 A 
HETATM   11  C15 UNL     1       6.100  25.942  25.907  1.00  0.00     0.084 A 
ENDROOT
BRANCH   4  12
HETATM   12  C4  UNL     1       4.874  25.421  29.940  1.00  0.00     0.006 A 
HETATM   13  C5  UNL     1       3.736  24.779  30.317  1.00  0.00     0.054 A 
HETATM   14  C6  UNL     1       3.344  24.689  31.669  1.00  0.00     0.102 A 
HETATM   15  C7  UNL     1       4.099  25.248  32.672  1.00  0.00     0.132 A 
HETATM   16  C8  UNL     1       5.241  25.891  32.278  1.00  0.00     0.102 A 
HETATM   17  C9  UNL     1       5.634  25.988  30.978  1.00  0.00     0.054 A 
BRANCH  14  18
HETATM   18  O3  UNL     1       2.176  24.026  32.027  1.00  0.00    -0.358 OA
ATOM     19  H3  UNL     1       1.866  23.281  31.525  1.00  0.00     0.217 HD
ENDBRANCH  14  18
BRANCH  15  20
HETATM   20  O4  UNL     1       3.700  25.150  33.998  1.00  0.00    -0.356 OA
ATOM     21  H4  UNL     1       3.625  25.927  34.540  1.00  0.00     0.218 HD
ENDBRANCH  15  20
BRANCH  16  22
HETATM   22  O5  UNL     1       6.024  26.468  33.285  1.00  0.00    -0.358 OA
ATOM     23  H5  UNL     1       6.961  26.315  33.243  1.00  0.00     0.217 HD
ENDBRANCH  16  22
ENDBRANCH   4  12
BRANCH   3  24
HETATM   24  O2  UNL     1       6.874  23.733  28.680  1.00  0.00    -0.355 OA
ATOM     25  H2  UNL     1       7.590  23.296  28.235  1.00  0.00     0.218 HD
ENDBRANCH   3  24
BRANCH  10  26
HETATM   26  O8  UNL     1       7.361  25.438  23.944  1.00  0.00    -0.360 OA
ATOM     27  H8  UNL     1       7.377  24.498  24.082  1.00  0.00     0.217 HD
ENDBRANCH  10  26
BRANCH   8  28
HETATM   28  O7  UNL     1       4.245  29.041  23.858  1.00  0.00    -0.361 OA
ATOM     29  H7  UNL     1       4.214  29.913  24.234  1.00  0.00     0.217 HD
ENDBRANCH   8  28
TORSDOF 7
ENDMDL
