MODEL 5
REMARK VINA RESULT: -7.598817532      2.660      4.499
REMARK  7 active torsions:
REMARK  status: ('A' for Active; 'I' for Inactive)
REMARK    1  A    between atoms: C2_3  and  O2_4 
REMARK    2  A    between atoms: C3_6  and  C4_7 
REMARK    3  A    between atoms: C6_9  and  O3_10 
REMARK    4  A    between atoms: C7_12  and  O4_13 
REMARK    5  A    between atoms: C8_15  and  O5_16 
REMARK    6  A    between atoms: C12_22  and  O7_23 
REMARK    7  A    between atoms: C14_26  and  O8_27 
ROOT
HETATM    1  O1  UNL     1       7.605  24.191  26.171  1.00  0.00    -0.284 OA
HETATM    2  C1  UNL     1       6.748  24.971  26.629  1.00  0.00     0.223 A 
HETATM    3  C2  UNL     1       6.365  24.848  27.977  1.00  0.00     0.152 A 
HETATM    4  C3  UNL     1       5.439  25.665  28.531  1.00  0.00     0.123 A 
HETATM    5  O6  UNL     1       4.909  26.594  27.729  1.00  0.00    -0.306 OA
HETATM    6  C10 UNL     1       5.232  26.744  26.479  1.00  0.00     0.096 A 
HETATM    7  C11 UNL     1       4.625  27.742  25.720  1.00  0.00     0.075 A 
HETATM    8  C12 UNL     1       4.925  27.941  24.413  1.00  0.00     0.071 A 
HETATM    9  C13 UNL     1       5.857  27.134  23.815  1.00  0.00     0.074 A 
HETATM   10  C14 UNL     1       6.503  26.110  24.529  1.00  0.00     0.085 A 
HETATM   11  C15 UNL     1       6.172  25.944  25.843  1.00  0.00     0.084 A 
ENDROOT
BRANCH   4  12
HETATM   12  C4  UNL     1       4.999  25.595  29.909  1.00  0.00     0.006 A 
HETATM   13  C5  UNL     1       5.616  26.216  30.950  1.00  0.00     0.054 A 
HETATM   14  C6  UNL     1       5.137  26.107  32.272  1.00  0.00     0.102 A 
HETATM   15  C7  UNL     1       4.019  25.366  32.571  1.00  0.00     0.132 A 
HETATM   16  C8  UNL     1       3.409  24.747  31.514  1.00  0.00     0.102 A 
HETATM   17  C9  UNL     1       3.858  24.840  30.231  1.00  0.00     0.054 A 
BRANCH  14  18
HETATM   18  O3  UNL     1       5.788  26.752  33.318  1.00  0.00    -0.358 OA
ATOM     19  H3  UNL     1       5.469  26.674  34.210  1.00  0.00     0.217 HD
ENDBRANCH  14  18
BRANCH  15  20
HETATM   20  O4  UNL     1       3.561  25.269  33.877  1.00  0.00    -0.356 OA
ATOM     21  H4  UNL     1       2.671  25.515  34.099  1.00  0.00     0.218 HD
ENDBRANCH  15  20
BRANCH  16  22
HETATM   22  O5  UNL     1       2.268  23.986  31.796  1.00  0.00    -0.358 OA
ATOM     23  H5  UNL     1       2.014  23.336  31.152  1.00  0.00     0.217 HD
ENDBRANCH  16  22
ENDBRANCH   4  12
BRANCH   3  24
HETATM   24  O2  UNL     1       6.982  23.855  28.697  1.00  0.00    -0.355 OA
ATOM     25  H2  UNL     1       6.430  23.137  28.983  1.00  0.00     0.218 HD
ENDBRANCH   3  24
BRANCH  10  26
HETATM   26  O8  UNL     1       7.406  25.356  23.886  1.00  0.00    -0.360 OA
ATOM     27  H8  UNL     1       8.216  25.764  23.604  1.00  0.00     0.217 HD
ENDBRANCH  10  26
BRANCH   8  28
HETATM   28  O7  UNL     1       4.290  28.955  23.689  1.00  0.00    -0.361 OA
ATOM     29  H7  UNL     1       4.774  29.458  23.044  1.00  0.00     0.217 HD
ENDBRANCH   8  28
TORSDOF 7
ENDMDL
