MODEL 2
REMARK VINA RESULT: -7.962897596      0.687      1.738
REMARK  7 active torsions:
REMARK  status: ('A' for Active; 'I' for Inactive)
REMARK    1  A    between atoms: C2_3  and  O2_4 
REMARK    2  A    between atoms: C3_6  and  C4_7 
REMARK    3  A    between atoms: C6_9  and  O3_10 
REMARK    4  A    between atoms: C7_12  and  O4_13 
REMARK    5  A    between atoms: C8_15  and  O5_16 
REMARK    6  A    between atoms: C12_22  and  O7_23 
REMARK    7  A    between atoms: C14_26  and  O8_27 
ROOT
HETATM    1  O1  UNL     1       4.439  28.061  22.291  1.00  0.00    -0.284 OA
HETATM    2  C1  UNL     1       4.998  27.568  23.289  1.00  0.00     0.223 A 
HETATM    3  C2  UNL     1       4.735  28.116  24.557  1.00  0.00     0.152 A 
HETATM    4  C3  UNL     1       5.311  27.623  25.679  1.00  0.00     0.123 A 
HETATM    5  O6  UNL     1       6.142  26.589  25.516  1.00  0.00    -0.306 OA
HETATM    6  C10 UNL     1       6.414  26.050  24.365  1.00  0.00     0.096 A 
HETATM    7  C11 UNL     1       7.294  24.973  24.293  1.00  0.00     0.075 A 
HETATM    8  C12 UNL     1       7.612  24.375  23.119  1.00  0.00     0.071 A 
HETATM    9  C13 UNL     1       7.050  24.844  21.961  1.00  0.00     0.074 A 
HETATM   10  C14 UNL     1       6.155  25.928  21.970  1.00  0.00     0.085 A 
HETATM   11  C15 UNL     1       5.862  26.501  23.174  1.00  0.00     0.084 A 
ENDROOT
BRANCH   4  12
HETATM   12  C4  UNL     1       5.086  28.139  27.014  1.00  0.00     0.006 A 
HETATM   13  C5  UNL     1       4.273  27.561  27.939  1.00  0.00     0.054 A 
HETATM   14  C6  UNL     1       4.095  28.114  29.224  1.00  0.00     0.102 A 
HETATM   15  C7  UNL     1       4.739  29.268  29.603  1.00  0.00     0.132 A 
HETATM   16  C8  UNL     1       5.553  29.838  28.663  1.00  0.00     0.102 A 
HETATM   17  C9  UNL     1       5.736  29.318  27.417  1.00  0.00     0.054 A 
BRANCH  14  18
HETATM   18  O3  UNL     1       3.258  27.502  30.150  1.00  0.00    -0.358 OA
ATOM     19  H3  UNL     1       3.257  27.777  31.060  1.00  0.00     0.217 HD
ENDBRANCH  14  18
BRANCH  15  20
HETATM   20  O4  UNL     1       4.553  29.798  30.872  1.00  0.00    -0.356 OA
ATOM     21  H4  UNL     1       4.764  29.290  31.646  1.00  0.00     0.218 HD
ENDBRANCH  15  20
BRANCH  16  22
HETATM   22  O5  UNL     1       6.218  31.015  29.029  1.00  0.00    -0.358 OA
ATOM     23  H5  UNL     1       6.935  30.930  29.646  1.00  0.00     0.217 HD
ENDBRANCH  16  22
ENDBRANCH   4  12
BRANCH   3  24
HETATM   24  O2  UNL     1       3.863  29.177  24.593  1.00  0.00    -0.355 OA
ATOM     25  H2  UNL     1       4.219  30.022  24.348  1.00  0.00     0.218 HD
ENDBRANCH   3  24
BRANCH  10  26
HETATM   26  O8  UNL     1       5.639  26.339  20.803  1.00  0.00    -0.360 OA
ATOM     27  H8  UNL     1       6.201  26.342  20.037  1.00  0.00     0.217 HD
ENDBRANCH  10  26
BRANCH   8  28
HETATM   28  O7  UNL     1       8.501  23.296  23.094  1.00  0.00    -0.361 OA
ATOM     29  H7  UNL     1       9.423  23.430  23.278  1.00  0.00     0.217 HD
ENDBRANCH   8  28
TORSDOF 7
ENDMDL
