MODEL 1
REMARK VINA RESULT: -8.014746273      0.000      0.000
REMARK  7 active torsions:
REMARK  status: ('A' for Active; 'I' for Inactive)
REMARK    1  A    between atoms: C2_3  and  O2_4 
REMARK    2  A    between atoms: C3_6  and  C4_7 
REMARK    3  A    between atoms: C6_9  and  O3_10 
REMARK    4  A    between atoms: C7_12  and  O4_13 
REMARK    5  A    between atoms: C8_15  and  O5_16 
REMARK    6  A    between atoms: C12_22  and  O7_23 
REMARK    7  A    between atoms: C14_26  and  O8_27 
ROOT
HETATM    1  O1  UNL     1       4.323  27.971  22.302  1.00  0.00    -0.284 OA
HETATM    2  C1  UNL     1       4.825  27.487  23.335  1.00  0.00     0.223 A 
HETATM    3  C2  UNL     1       4.451  28.012  24.585  1.00  0.00     0.152 A 
HETATM    4  C3  UNL     1       4.962  27.529  25.742  1.00  0.00     0.123 A 
HETATM    5  O6  UNL     1       5.839  26.527  25.632  1.00  0.00    -0.306 OA
HETATM    6  C10 UNL     1       6.214  26.011  24.499  1.00  0.00     0.096 A 
HETATM    7  C11 UNL     1       7.136  24.966  24.484  1.00  0.00     0.075 A 
HETATM    8  C12 UNL     1       7.560  24.393  23.331  1.00  0.00     0.071 A 
HETATM    9  C13 UNL     1       7.068  24.854  22.139  1.00  0.00     0.074 A 
HETATM   10  C14 UNL     1       6.135  25.905  22.091  1.00  0.00     0.085 A 
HETATM   11  C15 UNL     1       5.734  26.454  23.274  1.00  0.00     0.084 A 
ENDROOT
BRANCH   4  12
HETATM   12  C4  UNL     1       4.621  28.021  27.061  1.00  0.00     0.006 A 
HETATM   13  C5  UNL     1       4.657  29.329  27.431  1.00  0.00     0.054 A 
HETATM   14  C6  UNL     1       4.313  29.745  28.734  1.00  0.00     0.102 A 
HETATM   15  C7  UNL     1       3.922  28.842  29.695  1.00  0.00     0.132 A 
HETATM   16  C8  UNL     1       3.890  27.529  29.308  1.00  0.00     0.102 A 
HETATM   17  C9  UNL     1       4.220  27.111  28.055  1.00  0.00     0.054 A 
BRANCH  14  18
HETATM   18  O3  UNL     1       4.359  31.089  29.086  1.00  0.00    -0.358 OA
ATOM     19  H3  UNL     1       3.646  31.675  28.861  1.00  0.00     0.217 HD
ENDBRANCH  14  18
BRANCH  15  20
HETATM   20  O4  UNL     1       3.587  29.267  30.972  1.00  0.00    -0.356 OA
ATOM     21  H4  UNL     1       3.231  28.659  31.608  1.00  0.00     0.218 HD
ENDBRANCH  15  20
BRANCH  16  22
HETATM   22  O5  UNL     1       3.496  26.593  30.271  1.00  0.00    -0.358 OA
ATOM     23  H5  UNL     1       2.562  26.482  30.406  1.00  0.00     0.217 HD
ENDBRANCH  16  22
ENDBRANCH   4  12
BRANCH   3  24
HETATM   24  O2  UNL     1       3.541  29.041  24.565  1.00  0.00    -0.355 OA
ATOM     25  H2  UNL     1       3.724  29.775  25.139  1.00  0.00     0.218 HD
ENDBRANCH   3  24
BRANCH  10  26
HETATM   26  O8  UNL     1       5.691  26.309  20.892  1.00  0.00    -0.360 OA
ATOM     27  H8  UNL     1       5.930  27.178  20.591  1.00  0.00     0.217 HD
ENDBRANCH  10  26
BRANCH   8  28
HETATM   28  O7  UNL     1       8.487  23.347  23.362  1.00  0.00    -0.361 OA
ATOM     29  H7  UNL     1       8.205  22.462  23.561  1.00  0.00     0.217 HD
ENDBRANCH   8  28
TORSDOF 7
ENDMDL
