MODEL 9
REMARK VINA RESULT: -7.446275535      1.534      6.874
REMARK  7 active torsions:
REMARK  status: ('A' for Active; 'I' for Inactive)
REMARK    1  A    between atoms: C2_3  and  O2_4 
REMARK    2  A    between atoms: C3_6  and  C4_7 
REMARK    3  A    between atoms: C6_9  and  O3_10 
REMARK    4  A    between atoms: C7_12  and  O4_13 
REMARK    5  A    between atoms: C8_15  and  O5_16 
REMARK    6  A    between atoms: C12_22  and  O7_23 
REMARK    7  A    between atoms: C14_26  and  O8_27 
ROOT
HETATM    1  O1  UNL     1       3.770  29.890  29.073  1.00  0.00    -0.284 OA
HETATM    2  C1  UNL     1       4.018  28.732  28.686  1.00  0.00     0.223 A 
HETATM    3  C2  UNL     1       4.435  28.532  27.358  1.00  0.00     0.152 A 
HETATM    4  C3  UNL     1       4.720  27.298  26.879  1.00  0.00     0.123 A 
HETATM    5  O6  UNL     1       4.583  26.282  27.736  1.00  0.00    -0.306 OA
HETATM    6  C10 UNL     1       4.201  26.419  28.971  1.00  0.00     0.096 A 
HETATM    7  C11 UNL     1       4.087  25.299  29.791  1.00  0.00     0.075 A 
HETATM    8  C12 UNL     1       3.693  25.387  31.085  1.00  0.00     0.071 A 
HETATM    9  C13 UNL     1       3.395  26.617  31.607  1.00  0.00     0.074 A 
HETATM   10  C14 UNL     1       3.492  27.784  30.828  1.00  0.00     0.085 A 
HETATM   11  C15 UNL     1       3.892  27.651  29.531  1.00  0.00     0.084 A 
ENDROOT
BRANCH   4  12
HETATM   12  C4  UNL     1       5.154  27.020  25.525  1.00  0.00     0.006 A 
HETATM   13  C5  UNL     1       4.611  27.576  24.410  1.00  0.00     0.054 A 
HETATM   14  C6  UNL     1       5.079  27.263  23.117  1.00  0.00     0.102 A 
HETATM   15  C7  UNL     1       6.113  26.378  22.924  1.00  0.00     0.132 A 
HETATM   16  C8  UNL     1       6.650  25.826  24.055  1.00  0.00     0.102 A 
HETATM   17  C9  UNL     1       6.210  26.116  25.311  1.00  0.00     0.054 A 
BRANCH  14  18
HETATM   18  O3  UNL     1       4.505  27.846  21.993  1.00  0.00    -0.358 OA
ATOM     19  H3  UNL     1       4.061  27.314  21.343  1.00  0.00     0.217 HD
ENDBRANCH  14  18
BRANCH  15  20
HETATM   20  O4  UNL     1       6.562  26.081  21.645  1.00  0.00    -0.356 OA
ATOM     21  H4  UNL     1       7.216  25.406  21.505  1.00  0.00     0.218 HD
ENDBRANCH  15  20
BRANCH  16  22
HETATM   22  O5  UNL     1       7.704  24.921  23.881  1.00  0.00    -0.358 OA
ATOM     23  H5  UNL     1       7.973  24.421  24.643  1.00  0.00     0.217 HD
ENDBRANCH  16  22
ENDBRANCH   4  12
BRANCH   3  24
HETATM   24  O2  UNL     1       4.537  29.656  26.576  1.00  0.00    -0.355 OA
ATOM     25  H2  UNL     1       5.071  29.578  25.794  1.00  0.00     0.218 HD
ENDBRANCH   3  24
BRANCH  10  26
HETATM   26  O8  UNL     1       3.187  28.959  31.399  1.00  0.00    -0.360 OA
ATOM     27  H8  UNL     1       2.847  29.654  30.848  1.00  0.00     0.217 HD
ENDBRANCH  10  26
BRANCH   8  28
HETATM   28  O7  UNL     1       3.592  24.235  31.872  1.00  0.00    -0.361 OA
ATOM     29  H7  UNL     1       3.715  24.286  32.813  1.00  0.00     0.217 HD
ENDBRANCH   8  28
TORSDOF 7
ENDMDL
