MODEL 1
REMARK VINA RESULT: -8.303445891      0.000      0.000
REMARK  10 active torsions:
REMARK  status: ('A' for Active; 'I' for Inactive)
REMARK    1  A    between atoms: O1_2  and  C2_3 
REMARK    2  A    between atoms: C7_8  and  C8_9 
REMARK    3  A    between atoms: C8_9  and  N1_10 
REMARK    4  A    between atoms: C8_9  and  C18_27 
REMARK    5  A    between atoms: N1_10  and  S1_12 
REMARK    6  A    between atoms: S1_12  and  C9_15 
REMARK       I    between atoms: C18_27  and  N3_29 
REMARK    7  A    between atoms: N3_29  and  C19_30 
REMARK    8  A    between atoms: N3_29  and  C21_34 
REMARK    9  A    between atoms: C19_30  and  C20_31 
REMARK   10  A    between atoms: C21_34  and  C22_35 
ROOT
HETATM    1  C8  UNL     1      -1.857 -41.873  16.809  1.00  0.00     0.221 C 
ENDROOT
BRANCH   1   2
HETATM    2  C7  UNL     1      -1.551 -40.603  17.483  1.00  0.00     0.007 A 
HETATM    3  C2  UNL     1      -1.479 -40.560  18.852  1.00  0.00     0.077 A 
HETATM    4  C3  UNL     1      -1.151 -39.360  19.499  1.00  0.00     0.037 A 
HETATM    5  C4  UNL     1      -0.900 -38.213  18.753  1.00  0.00     0.003 A 
HETATM    6  C5  UNL     1      -0.974 -38.259  17.378  1.00  0.00     0.001 A 
HETATM    7  C6  UNL     1      -1.302 -39.467  16.755  1.00  0.00     0.012 A 
BRANCH   3   8
HETATM    8  O1  UNL     1      -1.722 -41.679  19.636  1.00  0.00    -0.355 OA
HETATM    9  C1  UNL     1      -0.738 -42.210  20.482  1.00  0.00     0.210 C 
ENDBRANCH   3   8
ENDBRANCH   1   2
BRANCH   1  10
HETATM   10  N1  UNL     1      -0.552 -42.509  16.667  1.00  0.00    -0.297 N 
ATOM     11  H1  UNL     1       0.270 -42.001  16.338  1.00  0.00     0.173 HD
BRANCH  10  12
HETATM   12  S1  UNL     1      -0.494 -44.144  17.085  1.00  0.00     0.259 S 
HETATM   13  O2  UNL     1      -1.602 -44.610  17.947  1.00  0.00    -0.201 OA
HETATM   14  O3  UNL     1       0.784 -44.336  17.900  1.00  0.00    -0.201 OA
BRANCH  12  15
HETATM   15  C9  UNL     1      -0.286 -45.116  15.650  1.00  0.00     0.080 A 
HETATM   16  C10 UNL     1       0.597 -46.175  15.621  1.00  0.00     0.027 A 
HETATM   17  C11 UNL     1       0.799 -46.964  14.532  1.00  0.00     0.032 A 
HETATM   18  C12 UNL     1       0.101 -46.726  13.369  1.00  0.00     0.045 A 
HETATM   19  N2  UNL     1       0.292 -47.505  12.269  1.00  0.00    -0.323 N 
HETATM   20  C16 UNL     1      -0.790 -45.676  13.357  1.00  0.00    -0.008 A 
HETATM   21  C13 UNL     1      -0.364 -47.309  11.116  1.00  0.00     0.245 A 
ATOM     22  H2  UNL     1       0.963 -48.270  12.325  1.00  0.00     0.169 HD
HETATM   23  O4  UNL     1      -0.171 -48.043  10.112  1.00  0.00    -0.268 OA
HETATM   24  C14 UNL     1      -1.272 -46.252  11.079  1.00  0.00     0.075 A 
HETATM   25  C15 UNL     1      -1.483 -45.445  12.191  1.00  0.00     0.019 A 
HETATM   26  C17 UNL     1      -0.981 -44.887  14.476  1.00  0.00     0.038 A 
ENDBRANCH  12  15
ENDBRANCH  10  12
ENDBRANCH   1  10
BRANCH   1  27
HETATM   27  C18 UNL     1      -2.536 -41.687  15.550  1.00  0.00     0.248 C 
HETATM   28  O5  UNL     1      -1.875 -41.623  14.441  1.00  0.00    -0.271 OA
HETATM   29  N3  UNL     1      -3.920 -41.577  15.395  1.00  0.00    -0.335 N 
BRANCH  29  30
HETATM   30  C19 UNL     1      -4.505 -41.496  14.022  1.00  0.00     0.239 C 
BRANCH  30  31
HETATM   31  C20 UNL     1      -5.196 -42.726  13.645  1.00  0.00     0.191 C 
HETATM   32  O6  UNL     1      -6.439 -42.832  13.772  1.00  0.00    -0.647 OA
HETATM   33  O7  UNL     1      -4.470 -43.788  13.143  1.00  0.00    -0.647 OA
ENDBRANCH  30  31
ENDBRANCH  29  30
BRANCH  29  34
HETATM   34  C21 UNL     1      -4.891 -41.496  16.432  1.00  0.00     0.172 C 
BRANCH  34  35
HETATM   35  C22 UNL     1      -4.908 -40.218  17.190  1.00  0.00     0.000 A 
HETATM   36  C23 UNL     1      -4.741 -38.975  16.559  1.00  0.00     0.017 A 
HETATM   37  C24 UNL     1      -4.789 -37.893  17.332  1.00  0.00     0.008 A 
HETATM   38  C25 UNL     1      -4.995 -38.067  18.673  1.00  0.00     0.050 A 
HETATM   39  S2  UNL     1      -5.116 -39.759  18.802  1.00  0.00    -0.105 SA
ENDBRANCH  34  35
ENDBRANCH  29  34
ENDBRANCH   1  27
TORSDOF 10
ENDMDL
