MODEL 2
REMARK VINA RESULT: -8.006458161      2.735      5.239
REMARK  10 active torsions:
REMARK  status: ('A' for Active; 'I' for Inactive)
REMARK    1  A    between atoms: O1_2  and  C2_3 
REMARK    2  A    between atoms: C7_8  and  C8_9 
REMARK    3  A    between atoms: C8_9  and  N1_10 
REMARK    4  A    between atoms: C8_9  and  C18_27 
REMARK    5  A    between atoms: N1_10  and  S1_12 
REMARK    6  A    between atoms: S1_12  and  C9_15 
REMARK       I    between atoms: C18_27  and  N3_29 
REMARK    7  A    between atoms: N3_29  and  C19_30 
REMARK    8  A    between atoms: N3_29  and  C21_34 
REMARK    9  A    between atoms: C19_30  and  C20_31 
REMARK   10  A    between atoms: C21_34  and  C22_35 
ROOT
HETATM    1  C8  UNL     1      -3.586 -40.418  16.552  1.00  0.00     0.221 C 
ENDROOT
BRANCH   1   2
HETATM    2  C7  UNL     1      -3.045 -39.079  16.827  1.00  0.00     0.007 A 
HETATM    3  C2  UNL     1      -3.903 -38.025  17.018  1.00  0.00     0.077 A 
HETATM    4  C3  UNL     1      -3.394 -36.753  17.318  1.00  0.00     0.037 A 
HETATM    5  C4  UNL     1      -2.021 -36.560  17.419  1.00  0.00     0.003 A 
HETATM    6  C5  UNL     1      -1.161 -37.619  17.227  1.00  0.00     0.001 A 
HETATM    7  C6  UNL     1      -1.692 -38.879  16.929  1.00  0.00     0.012 A 
BRANCH   3   8
HETATM    8  O1  UNL     1      -5.280 -38.172  16.924  1.00  0.00    -0.355 OA
HETATM    9  C1  UNL     1      -6.129 -37.820  17.983  1.00  0.00     0.210 C 
ENDBRANCH   3   8
ENDBRANCH   1   2
BRANCH   1  10
HETATM   10  N1  UNL     1      -4.482 -40.202  15.422  1.00  0.00    -0.297 N 
ATOM     11  H1  UNL     1      -5.406 -39.783  15.532  1.00  0.00     0.173 HD
BRANCH  10  12
HETATM   12  S1  UNL     1      -3.885 -40.692  13.921  1.00  0.00     0.259 S 
HETATM   13  O2  UNL     1      -3.424 -39.595  13.042  1.00  0.00    -0.201 OA
HETATM   14  O3  UNL     1      -5.051 -41.357  13.190  1.00  0.00    -0.201 OA
BRANCH  12  15
HETATM   15  C9  UNL     1      -2.691 -41.945  14.137  1.00  0.00     0.080 A 
HETATM   16  C10 UNL     1      -3.053 -43.270  14.267  1.00  0.00     0.027 A 
HETATM   17  C11 UNL     1      -2.165 -44.285  14.438  1.00  0.00     0.032 A 
HETATM   18  C12 UNL     1      -0.815 -44.020  14.491  1.00  0.00     0.045 A 
HETATM   19  N2  UNL     1       0.087 -45.024  14.663  1.00  0.00    -0.323 N 
HETATM   20  C16 UNL     1      -0.412 -42.708  14.366  1.00  0.00    -0.008 A 
HETATM   21  C13 UNL     1       1.410 -44.811  14.722  1.00  0.00     0.245 A 
ATOM     22  H2  UNL     1      -0.258 -45.979  14.751  1.00  0.00     0.169 HD
HETATM   23  O4  UNL     1       2.226 -45.757  14.882  1.00  0.00    -0.268 OA
HETATM   24  C14 UNL     1       1.843 -43.492  14.598  1.00  0.00     0.075 A 
HETATM   25  C15 UNL     1       0.939 -42.452  14.421  1.00  0.00     0.019 A 
HETATM   26  C17 UNL     1      -1.331 -41.692  14.192  1.00  0.00     0.038 A 
ENDBRANCH  12  15
ENDBRANCH  10  12
ENDBRANCH   1  10
BRANCH   1  27
HETATM   27  C18 UNL     1      -4.246 -40.997  17.696  1.00  0.00     0.248 C 
HETATM   28  O5  UNL     1      -5.508 -41.278  17.664  1.00  0.00    -0.271 OA
HETATM   29  N3  UNL     1      -3.622 -41.320  18.904  1.00  0.00    -0.335 N 
BRANCH  29  30
HETATM   30  C19 UNL     1      -4.399 -42.017  19.974  1.00  0.00     0.239 C 
BRANCH  30  31
HETATM   31  C20 UNL     1      -5.126 -41.079  20.825  1.00  0.00     0.191 C 
HETATM   32  O6  UNL     1      -4.516 -40.305  21.600  1.00  0.00    -0.647 OA
HETATM   33  O7  UNL     1      -6.505 -41.046  20.775  1.00  0.00    -0.647 OA
ENDBRANCH  30  31
ENDBRANCH  29  30
BRANCH  29  34
HETATM   34  C21 UNL     1      -2.281 -41.024  19.276  1.00  0.00     0.172 C 
BRANCH  34  35
HETATM   35  C22 UNL     1      -1.337 -42.170  19.223  1.00  0.00     0.000 A 
HETATM   36  C23 UNL     1      -1.098 -42.885  18.040  1.00  0.00     0.017 A 
HETATM   37  C24 UNL     1      -0.222 -43.885  18.103  1.00  0.00     0.008 A 
HETATM   38  C25 UNL     1       0.378 -44.142  19.304  1.00  0.00     0.050 A 
HETATM   39  S2  UNL     1      -0.315 -42.960  20.313  1.00  0.00    -0.105 SA
ENDBRANCH  34  35
ENDBRANCH  29  34
ENDBRANCH   1  27
TORSDOF 10
ENDMDL
