MODEL 3
REMARK VINA RESULT: -7.988558644      2.790      4.843
REMARK  10 active torsions:
REMARK  status: ('A' for Active; 'I' for Inactive)
REMARK    1  A    between atoms: O1_2  and  C2_3 
REMARK    2  A    between atoms: C7_8  and  C8_9 
REMARK    3  A    between atoms: C8_9  and  N1_10 
REMARK    4  A    between atoms: C8_9  and  C18_27 
REMARK    5  A    between atoms: N1_10  and  S1_12 
REMARK    6  A    between atoms: S1_12  and  C9_15 
REMARK       I    between atoms: C18_27  and  N3_29 
REMARK    7  A    between atoms: N3_29  and  C19_30 
REMARK    8  A    between atoms: N3_29  and  C21_34 
REMARK    9  A    between atoms: C19_30  and  C20_31 
REMARK   10  A    between atoms: C21_34  and  C22_35 
ROOT
HETATM    1  C8  UNL     1      -3.625 -40.525  16.662  1.00  0.00     0.221 C 
ENDROOT
BRANCH   1   2
HETATM    2  C7  UNL     1      -2.952 -39.232  16.851  1.00  0.00     0.007 A 
HETATM    3  C2  UNL     1      -3.700 -38.088  16.980  1.00  0.00     0.077 A 
HETATM    4  C3  UNL     1      -3.066 -36.857  17.199  1.00  0.00     0.037 A 
HETATM    5  C4  UNL     1      -1.679 -36.795  17.284  1.00  0.00     0.003 A 
HETATM    6  C5  UNL     1      -0.930 -37.944  17.154  1.00  0.00     0.001 A 
HETATM    7  C6  UNL     1      -1.585 -39.161  16.937  1.00  0.00     0.012 A 
BRANCH   3   8
HETATM    8  O1  UNL     1      -5.086 -38.104  16.900  1.00  0.00    -0.355 OA
HETATM    9  C1  UNL     1      -5.886 -37.654  17.960  1.00  0.00     0.210 C 
ENDBRANCH   3   8
ENDBRANCH   1   2
BRANCH   1  10
HETATM   10  N1  UNL     1      -4.504 -40.291  15.522  1.00  0.00    -0.297 N 
ATOM     11  H1  UNL     1      -5.435 -39.885  15.625  1.00  0.00     0.173 HD
BRANCH  10  12
HETATM   12  S1  UNL     1      -3.876 -40.738  14.020  1.00  0.00     0.259 S 
HETATM   13  O2  UNL     1      -3.428 -39.614  13.169  1.00  0.00    -0.201 OA
HETATM   14  O3  UNL     1      -5.015 -41.415  13.259  1.00  0.00    -0.201 OA
BRANCH  12  15
HETATM   15  C9  UNL     1      -2.655 -41.968  14.229  1.00  0.00     0.080 A 
HETATM   16  C10 UNL     1      -2.993 -43.292  14.412  1.00  0.00     0.027 A 
HETATM   17  C11 UNL     1      -2.085 -44.290  14.581  1.00  0.00     0.032 A 
HETATM   18  C12 UNL     1      -0.737 -44.004  14.575  1.00  0.00     0.045 A 
HETATM   19  N2  UNL     1       0.185 -44.991  14.743  1.00  0.00    -0.323 N 
HETATM   20  C16 UNL     1      -0.359 -42.692  14.395  1.00  0.00    -0.008 A 
HETATM   21  C13 UNL     1       1.506 -44.758  14.745  1.00  0.00     0.245 A 
ATOM     22  H2  UNL     1      -0.142 -45.947  14.873  1.00  0.00     0.169 HD
HETATM   23  O4  UNL     1       2.341 -45.687  14.903  1.00  0.00    -0.268 OA
HETATM   24  C14 UNL     1       1.915 -43.438  14.565  1.00  0.00     0.075 A 
HETATM   25  C15 UNL     1       0.989 -42.416  14.391  1.00  0.00     0.019 A 
HETATM   26  C17 UNL     1      -1.299 -41.694  14.225  1.00  0.00     0.038 A 
ENDBRANCH  12  15
ENDBRANCH  10  12
ENDBRANCH   1  10
BRANCH   1  27
HETATM   27  C18 UNL     1      -4.331 -40.963  17.841  1.00  0.00     0.248 C 
HETATM   28  O5  UNL     1      -5.623 -40.944  17.888  1.00  0.00    -0.271 OA
HETATM   29  N3  UNL     1      -3.726 -41.452  19.002  1.00  0.00    -0.335 N 
BRANCH  29  30
HETATM   30  C19 UNL     1      -4.578 -41.976  20.113  1.00  0.00     0.239 C 
BRANCH  30  31
HETATM   31  C20 UNL     1      -4.833 -43.408  19.980  1.00  0.00     0.191 C 
HETATM   32  O6  UNL     1      -5.985 -43.838  19.735  1.00  0.00    -0.647 OA
HETATM   33  O7  UNL     1      -3.791 -44.301  20.128  1.00  0.00    -0.647 OA
ENDBRANCH  30  31
ENDBRANCH  29  30
BRANCH  29  34
HETATM   34  C21 UNL     1      -2.333 -41.484  19.289  1.00  0.00     0.172 C 
BRANCH  34  35
HETATM   35  C22 UNL     1      -1.917 -40.751  20.513  1.00  0.00     0.000 A 
HETATM   36  C23 UNL     1      -1.820 -39.351  20.547  1.00  0.00     0.017 A 
HETATM   37  C24 UNL     1      -1.452 -38.799  21.700  1.00  0.00     0.008 A 
HETATM   38  C25 UNL     1      -1.198 -39.624  22.760  1.00  0.00     0.050 A 
HETATM   39  S2  UNL     1      -1.486 -41.163  22.093  1.00  0.00    -0.105 SA
ENDBRANCH  34  35
ENDBRANCH  29  34
ENDBRANCH   1  27
TORSDOF 10
ENDMDL
