MODEL 1
REMARK VINA RESULT: -9.290429583      0.000      0.000
REMARK  14 active torsions:
REMARK  status: ('A' for Active; 'I' for Inactive)
REMARK    1  A    between atoms: C1_2  and  C2_4 
REMARK    2  A    between atoms: C2_4  and  C3_5 
REMARK    3  A    between atoms: C3_5  and  C4_6 
REMARK    4  A    between atoms: C4_6  and  O3_7 
REMARK    5  A    between atoms: O3_7  and  C5_8 
REMARK    6  A    between atoms: C10_13  and  C11_14 
REMARK    7  A    between atoms: C11_14  and  N1_15 
REMARK    8  A    between atoms: C11_14  and  C21_32 
REMARK    9  A    between atoms: N1_15  and  S1_17 
REMARK   10  A    between atoms: S1_17  and  C12_20 
REMARK       I    between atoms: C21_32  and  N3_34 
REMARK   11  A    between atoms: N3_34  and  C22_35 
REMARK   12  A    between atoms: N3_34  and  C24_39 
REMARK   13  A    between atoms: C22_35  and  C23_36 
REMARK   14  A    between atoms: C24_39  and  C25_40 
ROOT
HETATM    1  C11 UNL     1      -1.425 -42.982  15.769  1.00  0.00     0.221 C 
ENDROOT
BRANCH   1   2
HETATM    2  C10 UNL     1      -2.243 -44.047  15.108  1.00  0.00     0.007 A 
HETATM    3  C5  UNL     1      -2.311 -45.289  15.780  1.00  0.00     0.077 A 
HETATM    4  C6  UNL     1      -3.095 -46.249  15.182  1.00  0.00     0.037 A 
HETATM    5  C7  UNL     1      -3.795 -46.066  13.999  1.00  0.00     0.003 A 
HETATM    6  C8  UNL     1      -3.712 -44.859  13.371  1.00  0.00     0.001 A 
HETATM    7  C9  UNL     1      -2.936 -43.877  13.942  1.00  0.00     0.012 A 
BRANCH   3   8
HETATM    8  O3  UNL     1      -1.606 -45.438  16.944  1.00  0.00    -0.350 OA
BRANCH   8   9
HETATM    9  C4  UNL     1      -1.990 -45.533  18.262  1.00  0.00     0.176 C 
BRANCH   9  10
HETATM   10  C3  UNL     1      -3.432 -45.296  18.550  1.00  0.00     0.037 C 
BRANCH  10  11
HETATM   11  C2  UNL     1      -3.551 -44.579  19.888  1.00  0.00     0.115 C 
BRANCH  11  12
HETATM   12  C1  UNL     1      -4.867 -43.892  19.904  1.00  0.00     0.172 C 
HETATM   13  O1  UNL     1      -5.030 -42.706  19.537  1.00  0.00    -0.648 OA
HETATM   14  O2  UNL     1      -5.966 -44.595  20.344  1.00  0.00    -0.648 OA
ENDBRANCH  11  12
ENDBRANCH  10  11
ENDBRANCH   9  10
ENDBRANCH   8   9
ENDBRANCH   3   8
ENDBRANCH   1   2
BRANCH   1  15
HETATM   15  N1  UNL     1      -0.528 -42.516  14.751  1.00  0.00    -0.297 N 
ATOM     16  H1  UNL     1      -0.781 -41.727  14.155  1.00  0.00     0.173 HD
BRANCH  15  17
HETATM   17  S1  UNL     1       0.947 -43.298  14.563  1.00  0.00     0.259 S 
HETATM   18  O4  UNL     1       1.888 -42.288  13.905  1.00  0.00    -0.201 OA
HETATM   19  O5  UNL     1       1.619 -43.641  15.866  1.00  0.00    -0.201 OA
BRANCH  17  20
HETATM   20  C12 UNL     1       0.928 -44.675  13.482  1.00  0.00     0.080 A 
HETATM   21  C13 UNL     1       2.045 -45.486  13.418  1.00  0.00     0.027 A 
HETATM   22  C14 UNL     1       2.032 -46.560  12.574  1.00  0.00     0.032 A 
HETATM   23  C15 UNL     1       0.942 -46.861  11.784  1.00  0.00     0.045 A 
HETATM   24  N2  UNL     1       0.984 -47.934  10.970  1.00  0.00    -0.323 N 
HETATM   25  C19 UNL     1      -0.173 -46.054  11.846  1.00  0.00    -0.008 A 
HETATM   26  C16 UNL     1      -0.073 -48.242  10.191  1.00  0.00     0.245 A 
ATOM     27  H2  UNL     1       1.821 -48.516  10.942  1.00  0.00     0.169 HD
HETATM   28  O6  UNL     1       0.018 -49.270   9.438  1.00  0.00    -0.268 OA
HETATM   29  C17 UNL     1      -1.190 -47.451  10.240  1.00  0.00     0.075 A 
HETATM   30  C18 UNL     1      -1.261 -46.353  11.059  1.00  0.00     0.019 A 
HETATM   31  C20 UNL     1      -0.192 -44.948  12.699  1.00  0.00     0.038 A 
ENDBRANCH  17  20
ENDBRANCH  15  17
ENDBRANCH   1  15
BRANCH   1  32
HETATM   32  C21 UNL     1      -2.218 -41.954  16.401  1.00  0.00     0.248 C 
HETATM   33  O7  UNL     1      -2.481 -42.066  17.626  1.00  0.00    -0.271 OA
HETATM   34  N3  UNL     1      -2.729 -40.828  15.754  1.00  0.00    -0.335 N 
BRANCH  34  35
HETATM   35  C22 UNL     1      -2.480 -40.604  14.359  1.00  0.00     0.239 C 
BRANCH  35  36
HETATM   36  C23 UNL     1      -3.717 -40.356  13.572  1.00  0.00     0.191 C 
HETATM   37  O8  UNL     1      -3.701 -39.418  12.736  1.00  0.00    -0.647 OA
HETATM   38  O9  UNL     1      -4.883 -41.090  13.697  1.00  0.00    -0.647 OA
ENDBRANCH  35  36
ENDBRANCH  34  35
BRANCH  34  39
HETATM   39  C24 UNL     1      -3.532 -39.823  16.447  1.00  0.00     0.172 C 
BRANCH  39  40
HETATM   40  C25 UNL     1      -2.641 -38.652  16.744  1.00  0.00     0.000 A 
HETATM   41  C26 UNL     1      -2.570 -37.440  16.134  1.00  0.00     0.017 A 
HETATM   42  C27 UNL     1      -1.679 -36.543  16.605  1.00  0.00     0.008 A 
HETATM   43  C28 UNL     1      -0.911 -36.932  17.671  1.00  0.00     0.050 A 
HETATM   44  S2  UNL     1      -1.450 -38.518  17.978  1.00  0.00    -0.105 SA
ENDBRANCH  39  40
ENDBRANCH  34  39
ENDBRANCH   1  32
TORSDOF 14
ENDMDL
