MODEL 2
REMARK VINA RESULT: -9.186121846      1.529      2.906
REMARK  14 active torsions:
REMARK  status: ('A' for Active; 'I' for Inactive)
REMARK    1  A    between atoms: C1_2  and  C2_4 
REMARK    2  A    between atoms: C2_4  and  C3_5 
REMARK    3  A    between atoms: C3_5  and  C4_6 
REMARK    4  A    between atoms: C4_6  and  O3_7 
REMARK    5  A    between atoms: O3_7  and  C5_8 
REMARK    6  A    between atoms: C10_13  and  C11_14 
REMARK    7  A    between atoms: C11_14  and  N1_15 
REMARK    8  A    between atoms: C11_14  and  C21_32 
REMARK    9  A    between atoms: N1_15  and  S1_17 
REMARK   10  A    between atoms: S1_17  and  C12_20 
REMARK       I    between atoms: C21_32  and  N3_34 
REMARK   11  A    between atoms: N3_34  and  C22_35 
REMARK   12  A    between atoms: N3_34  and  C24_39 
REMARK   13  A    between atoms: C22_35  and  C23_36 
REMARK   14  A    between atoms: C24_39  and  C25_40 
ROOT
HETATM    1  C11 UNL     1      -1.437 -42.997  15.756  1.00  0.00     0.221 C 
ENDROOT
BRANCH   1   2
HETATM    2  C10 UNL     1      -2.262 -44.040  15.070  1.00  0.00     0.007 A 
HETATM    3  C5  UNL     1      -2.330 -45.300  15.707  1.00  0.00     0.077 A 
HETATM    4  C6  UNL     1      -3.120 -46.241  15.086  1.00  0.00     0.037 A 
HETATM    5  C7  UNL     1      -3.826 -46.022  13.912  1.00  0.00     0.003 A 
HETATM    6  C8  UNL     1      -3.742 -44.798  13.319  1.00  0.00     0.001 A 
HETATM    7  C9  UNL     1      -2.960 -43.834  13.913  1.00  0.00     0.012 A 
BRANCH   3   8
HETATM    8  O3  UNL     1      -1.620 -45.485  16.862  1.00  0.00    -0.350 OA
BRANCH   8   9
HETATM    9  C4  UNL     1      -0.826 -46.513  17.315  1.00  0.00     0.176 C 
BRANCH   9  10
HETATM   10  C3  UNL     1       0.458 -46.726  16.590  1.00  0.00     0.037 C 
BRANCH  10  11
HETATM   11  C2  UNL     1       0.312 -47.941  15.683  1.00  0.00     0.115 C 
BRANCH  11  12
HETATM   12  C1  UNL     1       1.505 -48.797  15.897  1.00  0.00     0.172 C 
HETATM   13  O1  UNL     1       2.637 -48.528  15.437  1.00  0.00    -0.648 OA
HETATM   14  O2  UNL     1       1.360 -49.947  16.640  1.00  0.00    -0.648 OA
ENDBRANCH  11  12
ENDBRANCH  10  11
ENDBRANCH   9  10
ENDBRANCH   8   9
ENDBRANCH   3   8
ENDBRANCH   1   2
BRANCH   1  15
HETATM   15  N1  UNL     1      -0.541 -42.507  14.749  1.00  0.00    -0.297 N 
ATOM     16  H1  UNL     1      -0.799 -41.713  14.163  1.00  0.00     0.173 HD
BRANCH  15  17
HETATM   17  S1  UNL     1       0.941 -43.273  14.554  1.00  0.00     0.259 S 
HETATM   18  O4  UNL     1       1.866 -42.255  13.882  1.00  0.00    -0.201 OA
HETATM   19  O5  UNL     1       1.628 -43.600  15.854  1.00  0.00    -0.201 OA
BRANCH  17  20
HETATM   20  C12 UNL     1       0.931 -44.657  13.482  1.00  0.00     0.080 A 
HETATM   21  C13 UNL     1       2.050 -45.467  13.430  1.00  0.00     0.027 A 
HETATM   22  C14 UNL     1       2.043 -46.546  12.593  1.00  0.00     0.032 A 
HETATM   23  C15 UNL     1       0.958 -46.854  11.798  1.00  0.00     0.045 A 
HETATM   24  N2  UNL     1       1.007 -47.932  10.991  1.00  0.00    -0.323 N 
HETATM   25  C19 UNL     1      -0.158 -46.047  11.848  1.00  0.00    -0.008 A 
HETATM   26  C16 UNL     1      -0.045 -48.247  10.208  1.00  0.00     0.245 A 
ATOM     27  H2  UNL     1       1.845 -48.513  10.972  1.00  0.00     0.169 HD
HETATM   28  O6  UNL     1       0.052 -49.279   9.462  1.00  0.00    -0.268 OA
HETATM   29  C17 UNL     1      -1.163 -47.456  10.245  1.00  0.00     0.075 A 
HETATM   30  C18 UNL     1      -1.241 -46.354  11.056  1.00  0.00     0.019 A 
HETATM   31  C20 UNL     1      -0.183 -44.937  12.693  1.00  0.00     0.038 A 
ENDBRANCH  17  20
ENDBRANCH  15  17
ENDBRANCH   1  15
BRANCH   1  32
HETATM   32  C21 UNL     1      -2.223 -41.983  16.419  1.00  0.00     0.248 C 
HETATM   33  O7  UNL     1      -2.494 -42.133  17.637  1.00  0.00    -0.271 OA
HETATM   34  N3  UNL     1      -2.720 -40.831  15.807  1.00  0.00    -0.335 N 
BRANCH  34  35
HETATM   35  C22 UNL     1      -2.462 -40.563  14.422  1.00  0.00     0.239 C 
BRANCH  35  36
HETATM   36  C23 UNL     1      -3.695 -40.320  13.628  1.00  0.00     0.191 C 
HETATM   37  O8  UNL     1      -3.661 -39.418  12.754  1.00  0.00    -0.647 OA
HETATM   38  O9  UNL     1      -4.877 -41.021  13.786  1.00  0.00    -0.647 OA
ENDBRANCH  35  36
ENDBRANCH  34  35
BRANCH  34  39
HETATM   39  C24 UNL     1      -3.517 -39.842  16.529  1.00  0.00     0.172 C 
BRANCH  39  40
HETATM   40  C25 UNL     1      -2.622 -38.678  16.846  1.00  0.00     0.000 A 
HETATM   41  C26 UNL     1      -2.572 -37.444  16.280  1.00  0.00     0.017 A 
HETATM   42  C27 UNL     1      -1.672 -36.561  16.761  1.00  0.00     0.008 A 
HETATM   43  C28 UNL     1      -0.875 -36.986  17.791  1.00  0.00     0.050 A 
HETATM   44  S2  UNL     1      -1.400 -38.585  18.053  1.00  0.00    -0.105 SA
ENDBRANCH  39  40
ENDBRANCH  34  39
ENDBRANCH   1  32
TORSDOF 14
ENDMDL
