MODEL 3
REMARK VINA RESULT: -9.133417479      1.195      1.663
REMARK  14 active torsions:
REMARK  status: ('A' for Active; 'I' for Inactive)
REMARK    1  A    between atoms: C1_2  and  C2_4 
REMARK    2  A    between atoms: C2_4  and  C3_5 
REMARK    3  A    between atoms: C3_5  and  C4_6 
REMARK    4  A    between atoms: C4_6  and  O3_7 
REMARK    5  A    between atoms: O3_7  and  C5_8 
REMARK    6  A    between atoms: C10_13  and  C11_14 
REMARK    7  A    between atoms: C11_14  and  N1_15 
REMARK    8  A    between atoms: C11_14  and  C21_32 
REMARK    9  A    between atoms: N1_15  and  S1_17 
REMARK   10  A    between atoms: S1_17  and  C12_20 
REMARK       I    between atoms: C21_32  and  N3_34 
REMARK   11  A    between atoms: N3_34  and  C22_35 
REMARK   12  A    between atoms: N3_34  and  C24_39 
REMARK   13  A    between atoms: C22_35  and  C23_36 
REMARK   14  A    between atoms: C24_39  and  C25_40 
ROOT
HETATM    1  C11 UNL     1      -1.393 -42.929  15.805  1.00  0.00     0.221 C 
ENDROOT
BRANCH   1   2
HETATM    2  C10 UNL     1      -2.181 -44.059  15.219  1.00  0.00     0.007 A 
HETATM    3  C5  UNL     1      -2.196 -45.261  15.964  1.00  0.00     0.077 A 
HETATM    4  C6  UNL     1      -2.953 -46.282  15.433  1.00  0.00     0.037 A 
HETATM    5  C7  UNL     1      -3.674 -46.192  14.252  1.00  0.00     0.003 A 
HETATM    6  C8  UNL     1      -3.642 -45.022  13.554  1.00  0.00     0.001 A 
HETATM    7  C9  UNL     1      -2.894 -43.981  14.055  1.00  0.00     0.012 A 
BRANCH   3   8
HETATM    8  O3  UNL     1      -1.472 -45.317  17.123  1.00  0.00    -0.350 OA
BRANCH   8   9
HETATM    9  C4  UNL     1      -1.767 -45.776  18.387  1.00  0.00     0.176 C 
BRANCH   9  10
HETATM   10  C3  UNL     1      -1.327 -44.917  19.522  1.00  0.00     0.037 C 
BRANCH  10  11
HETATM   11  C2  UNL     1      -0.103 -44.123  19.087  1.00  0.00     0.115 C 
BRANCH  11  12
HETATM   12  C1  UNL     1       0.137 -43.083  20.120  1.00  0.00     0.172 C 
HETATM   13  O1  UNL     1      -0.164 -41.878  19.967  1.00  0.00    -0.648 OA
HETATM   14  O2  UNL     1       0.721 -43.464  21.307  1.00  0.00    -0.648 OA
ENDBRANCH  11  12
ENDBRANCH  10  11
ENDBRANCH   9  10
ENDBRANCH   8   9
ENDBRANCH   3   8
ENDBRANCH   1   2
BRANCH   1  15
HETATM   15  N1  UNL     1      -0.556 -42.465  14.737  1.00  0.00    -0.297 N 
ATOM     16  H1  UNL     1      -0.858 -41.701  14.132  1.00  0.00     0.173 HD
BRANCH  15  17
HETATM   17  S1  UNL     1       0.932 -43.209  14.503  1.00  0.00     0.259 S 
HETATM   18  O4  UNL     1       1.820 -42.182  13.799  1.00  0.00    -0.201 OA
HETATM   19  O5  UNL     1       1.661 -43.518  15.784  1.00  0.00    -0.201 OA
BRANCH  17  20
HETATM   20  C12 UNL     1       0.912 -44.600  13.440  1.00  0.00     0.080 A 
HETATM   21  C13 UNL     1       2.027 -45.414  13.386  1.00  0.00     0.027 A 
HETATM   22  C14 UNL     1       2.013 -46.497  12.556  1.00  0.00     0.032 A 
HETATM   23  C15 UNL     1       0.922 -46.808  11.769  1.00  0.00     0.045 A 
HETATM   24  N2  UNL     1       0.963 -47.891  10.969  1.00  0.00    -0.323 N 
HETATM   25  C19 UNL     1      -0.191 -45.998  11.821  1.00  0.00    -0.008 A 
HETATM   26  C16 UNL     1      -0.094 -48.207  10.194  1.00  0.00     0.245 A 
ATOM     27  H2  UNL     1       1.800 -48.475  10.948  1.00  0.00     0.169 HD
HETATM   28  O6  UNL     1      -0.004 -49.244   9.453  1.00  0.00    -0.268 OA
HETATM   29  C17 UNL     1      -1.209 -47.413  10.233  1.00  0.00     0.075 A 
HETATM   30  C18 UNL     1      -1.279 -46.305  11.037  1.00  0.00     0.019 A 
HETATM   31  C20 UNL     1      -0.208 -44.882  12.659  1.00  0.00     0.038 A 
ENDBRANCH  17  20
ENDBRANCH  15  17
ENDBRANCH   1  15
BRANCH   1  32
HETATM   32  C21 UNL     1      -2.213 -41.915  16.424  1.00  0.00     0.248 C 
HETATM   33  O7  UNL     1      -2.491 -42.029  17.645  1.00  0.00    -0.271 OA
HETATM   34  N3  UNL     1      -2.733 -40.798  15.767  1.00  0.00    -0.335 N 
BRANCH  34  35
HETATM   35  C22 UNL     1      -2.468 -40.572  14.376  1.00  0.00     0.239 C 
BRANCH  35  36
HETATM   36  C23 UNL     1      -3.698 -40.361  13.568  1.00  0.00     0.191 C 
HETATM   37  O8  UNL     1      -3.688 -39.438  12.716  1.00  0.00    -0.647 OA
HETATM   38  O9  UNL     1      -4.852 -41.114  13.690  1.00  0.00    -0.647 OA
ENDBRANCH  35  36
ENDBRANCH  34  35
BRANCH  34  39
HETATM   39  C24 UNL     1      -3.563 -39.806  16.447  1.00  0.00     0.172 C 
BRANCH  39  40
HETATM   40  C25 UNL     1      -2.690 -38.630  16.778  1.00  0.00     0.000 A 
HETATM   41  C26 UNL     1      -2.609 -37.414  16.178  1.00  0.00     0.017 A 
HETATM   42  C27 UNL     1      -1.739 -36.514  16.683  1.00  0.00     0.008 A 
HETATM   43  C28 UNL     1      -1.002 -36.905  17.769  1.00  0.00     0.050 A 
HETATM   44  S2  UNL     1      -1.538 -38.496  18.049  1.00  0.00    -0.105 SA
ENDBRANCH  39  40
ENDBRANCH  34  39
ENDBRANCH   1  32
TORSDOF 14
ENDMDL
