MODEL 1
REMARK VINA RESULT: -8.877370347      0.000      0.000
REMARK  15 active torsions:
REMARK  status: ('A' for Active; 'I' for Inactive)
REMARK    1  A    between atoms: C1_2  and  C2_4 
REMARK    2  A    between atoms: C2_4  and  C3_5 
REMARK    3  A    between atoms: C3_5  and  C4_6 
REMARK    4  A    between atoms: C4_6  and  C5_7 
REMARK    5  A    between atoms: C5_7  and  O3_8 
REMARK    6  A    between atoms: O3_8  and  C6_9 
REMARK    7  A    between atoms: C11_14  and  C12_15 
REMARK    8  A    between atoms: C12_15  and  N1_16 
REMARK    9  A    between atoms: C12_15  and  C22_33 
REMARK   10  A    between atoms: N1_16  and  S1_18 
REMARK   11  A    between atoms: S1_18  and  C13_21 
REMARK       I    between atoms: C22_33  and  N3_35 
REMARK   12  A    between atoms: N3_35  and  C23_36 
REMARK   13  A    between atoms: N3_35  and  C25_40 
REMARK   14  A    between atoms: C23_36  and  C24_37 
REMARK   15  A    between atoms: C25_40  and  C26_41 
ROOT
HETATM    1  C12 UNL     1      -1.205 -43.440  14.806  1.00  0.00     0.221 C 
ENDROOT
BRANCH   1   2
HETATM    2  C11 UNL     1      -1.308 -44.213  16.073  1.00  0.00     0.008 A 
HETATM    3  C6  UNL     1      -2.033 -45.416  16.054  1.00  0.00     0.083 A 
HETATM    4  C7  UNL     1      -2.086 -46.185  17.193  1.00  0.00     0.038 A 
HETATM    5  C8  UNL     1      -1.432 -45.780  18.367  1.00  0.00     0.003 A 
HETATM    6  C9  UNL     1      -0.738 -44.609  18.367  1.00  0.00     0.001 A 
HETATM    7  C10 UNL     1      -0.687 -43.844  17.220  1.00  0.00     0.012 A 
BRANCH   3   8
HETATM    8  O3  UNL     1      -2.661 -45.790  14.906  1.00  0.00    -0.323 OA
BRANCH   8   9
HETATM    9  C5  UNL     1      -3.377 -46.861  14.480  1.00  0.00     0.138 C 
BRANCH   9  10
HETATM   10  C4  UNL     1      -2.854 -47.879  13.563  1.00  0.00    -0.002 C 
BRANCH  10  11
HETATM   11  C3  UNL     1      -1.542 -47.785  12.922  1.00  0.00     0.039 C 
BRANCH  11  12
HETATM   12  C2  UNL     1      -1.584 -47.840  11.409  1.00  0.00     0.117 C 
BRANCH  12  13
HETATM   13  C1  UNL     1      -0.368 -48.213  10.734  1.00  0.00     0.172 C 
HETATM   14  O1  UNL     1       0.768 -47.981  11.196  1.00  0.00    -0.648 OA
HETATM   15  O2  UNL     1      -0.383 -48.874   9.496  1.00  0.00    -0.648 OA
ENDBRANCH  12  13
ENDBRANCH  11  12
ENDBRANCH  10  11
ENDBRANCH   9  10
ENDBRANCH   8   9
ENDBRANCH   3   8
ENDBRANCH   1   2
BRANCH   1  16
HETATM   16  N1  UNL     1      -1.087 -44.386  13.689  1.00  0.00    -0.297 N 
ATOM     17  H1  UNL     1      -1.772 -45.110  13.474  1.00  0.00     0.173 HD
BRANCH  16  18
HETATM   18  S1  UNL     1       0.343 -44.118  12.799  1.00  0.00     0.259 S 
HETATM   19  O4  UNL     1       0.554 -42.643  12.521  1.00  0.00    -0.201 OA
HETATM   20  O5  UNL     1       0.316 -44.783  11.448  1.00  0.00    -0.201 OA
BRANCH  18  21
HETATM   21  C13 UNL     1       1.747 -44.640  13.676  1.00  0.00     0.080 A 
HETATM   22  C14 UNL     1       2.315 -43.795  14.599  1.00  0.00     0.027 A 
HETATM   23  C15 UNL     1       3.463 -44.126  15.295  1.00  0.00     0.032 A 
HETATM   24  C16 UNL     1       4.001 -45.368  14.999  1.00  0.00     0.045 A 
HETATM   25  N2  UNL     1       5.137 -45.758  15.643  1.00  0.00    -0.323 N 
HETATM   26  C20 UNL     1       3.471 -46.238  14.090  1.00  0.00    -0.008 A 
HETATM   27  C17 UNL     1       5.714 -46.952  15.391  1.00  0.00     0.245 A 
ATOM     28  H2  UNL     1       5.561 -45.134  16.330  1.00  0.00     0.169 HD
HETATM   29  O6  UNL     1       6.773 -47.270  16.015  1.00  0.00    -0.268 OA
HETATM   30  C18 UNL     1       5.197 -47.849  14.477  1.00  0.00     0.075 A 
HETATM   31  C19 UNL     1       4.048 -47.474  13.816  1.00  0.00     0.019 A 
HETATM   32  C21 UNL     1       2.332 -45.879  13.418  1.00  0.00     0.038 A 
ENDBRANCH  18  21
ENDBRANCH  16  18
ENDBRANCH   1  16
BRANCH   1  33
HETATM   33  C22 UNL     1      -2.474 -42.664  14.623  1.00  0.00     0.248 C 
HETATM   34  O7  UNL     1      -3.394 -43.221  13.976  1.00  0.00    -0.271 OA
HETATM   35  N3  UNL     1      -2.681 -41.380  15.136  1.00  0.00    -0.335 N 
BRANCH  35  36
HETATM   36  C23 UNL     1      -4.026 -40.829  15.064  1.00  0.00     0.239 C 
BRANCH  36  37
HETATM   37  C24 UNL     1      -4.188 -39.718  14.121  1.00  0.00     0.191 C 
HETATM   38  O8  UNL     1      -4.820 -38.683  14.464  1.00  0.00    -0.647 OA
HETATM   39  O9  UNL     1      -3.671 -39.750  12.842  1.00  0.00    -0.647 OA
ENDBRANCH  36  37
ENDBRANCH  35  36
BRANCH  35  40
HETATM   40  C25 UNL     1      -1.593 -40.572  15.655  1.00  0.00     0.172 C 
BRANCH  40  41
HETATM   41  C26 UNL     1      -1.890 -40.058  17.027  1.00  0.00     0.000 A 
HETATM   42  C27 UNL     1      -2.016 -40.652  18.245  1.00  0.00     0.017 A 
HETATM   43  C28 UNL     1      -2.278 -39.858  19.301  1.00  0.00     0.008 A 
HETATM   44  C29 UNL     1      -2.397 -38.516  19.065  1.00  0.00     0.050 A 
HETATM   45  S2  UNL     1      -2.140 -38.403  17.389  1.00  0.00    -0.105 SA
ENDBRANCH  40  41
ENDBRANCH  35  40
ENDBRANCH   1  33
TORSDOF 15
ENDMDL
