MODEL 3
REMARK VINA RESULT: -8.758203226      1.794      3.183
REMARK  15 active torsions:
REMARK  status: ('A' for Active; 'I' for Inactive)
REMARK    1  A    between atoms: C1_2  and  C2_4 
REMARK    2  A    between atoms: C2_4  and  C3_5 
REMARK    3  A    between atoms: C3_5  and  C4_6 
REMARK    4  A    between atoms: C4_6  and  C5_7 
REMARK    5  A    between atoms: C5_7  and  O3_8 
REMARK    6  A    between atoms: O3_8  and  C6_9 
REMARK    7  A    between atoms: C11_14  and  C12_15 
REMARK    8  A    between atoms: C12_15  and  N1_16 
REMARK    9  A    between atoms: C12_15  and  C22_33 
REMARK   10  A    between atoms: N1_16  and  S1_18 
REMARK   11  A    between atoms: S1_18  and  C13_21 
REMARK       I    between atoms: C22_33  and  N3_35 
REMARK   12  A    between atoms: N3_35  and  C23_36 
REMARK   13  A    between atoms: N3_35  and  C25_40 
REMARK   14  A    between atoms: C23_36  and  C24_37 
REMARK   15  A    between atoms: C25_40  and  C26_41 
ROOT
HETATM    1  C12 UNL     1      -1.456 -43.871  13.744  1.00  0.00     0.221 C 
ENDROOT
BRANCH   1   2
HETATM    2  C11 UNL     1      -1.892 -45.293  13.818  1.00  0.00     0.008 A 
HETATM    3  C6  UNL     1      -2.231 -45.813  15.078  1.00  0.00     0.083 A 
HETATM    4  C7  UNL     1      -2.703 -47.102  15.166  1.00  0.00     0.038 A 
HETATM    5  C8  UNL     1      -2.843 -47.898  14.019  1.00  0.00     0.003 A 
HETATM    6  C9  UNL     1      -2.505 -47.378  12.808  1.00  0.00     0.001 A 
HETATM    7  C10 UNL     1      -2.035 -46.084  12.727  1.00  0.00     0.012 A 
BRANCH   3   8
HETATM    8  O3  UNL     1      -2.086 -45.024  16.178  1.00  0.00    -0.323 OA
BRANCH   8   9
HETATM    9  C5  UNL     1      -1.390 -45.076  17.341  1.00  0.00     0.138 C 
BRANCH   9  10
HETATM   10  C4  UNL     1       0.005 -44.642  17.478  1.00  0.00    -0.002 C 
BRANCH  10  11
HETATM   11  C3  UNL     1       1.077 -45.096  16.591  1.00  0.00     0.039 C 
BRANCH  11  12
HETATM   12  C2  UNL     1       1.844 -46.296  17.108  1.00  0.00     0.117 C 
BRANCH  12  13
HETATM   13  C1  UNL     1       1.619 -47.553  16.443  1.00  0.00     0.172 C 
HETATM   14  O1  UNL     1       0.619 -47.778  15.729  1.00  0.00    -0.648 OA
HETATM   15  O2  UNL     1       2.522 -48.621  16.555  1.00  0.00    -0.648 OA
ENDBRANCH  12  13
ENDBRANCH  11  12
ENDBRANCH  10  11
ENDBRANCH   9  10
ENDBRANCH   8   9
ENDBRANCH   3   8
ENDBRANCH   1   2
BRANCH   1  16
HETATM   16  N1  UNL     1      -0.814 -43.646  12.443  1.00  0.00    -0.297 N 
ATOM     17  H1  UNL     1      -1.298 -43.695  11.546  1.00  0.00     0.173 HD
BRANCH  16  18
HETATM   18  S1  UNL     1       0.845 -43.294  12.623  1.00  0.00     0.259 S 
HETATM   19  O4  UNL     1       1.098 -42.426  13.839  1.00  0.00    -0.201 OA
HETATM   20  O5  UNL     1       1.403 -42.526  11.454  1.00  0.00    -0.201 OA
BRANCH  18  21
HETATM   21  C13 UNL     1       1.780 -44.736  12.870  1.00  0.00     0.080 A 
HETATM   22  C14 UNL     1       1.344 -45.921  12.326  1.00  0.00     0.027 A 
HETATM   23  C15 UNL     1       2.011 -47.115  12.527  1.00  0.00     0.032 A 
HETATM   24  C16 UNL     1       3.149 -47.036  13.314  1.00  0.00     0.045 A 
HETATM   25  N2  UNL     1       3.854 -48.177  13.559  1.00  0.00    -0.323 N 
HETATM   26  C20 UNL     1       3.618 -45.882  13.874  1.00  0.00    -0.008 A 
HETATM   27  C17 UNL     1       4.965 -48.166  14.325  1.00  0.00     0.245 A 
ATOM     28  H2  UNL     1       3.534 -49.058  13.156  1.00  0.00     0.169 HD
HETATM   29  O6  UNL     1       5.586 -49.254  14.527  1.00  0.00    -0.268 OA
HETATM   30  C18 UNL     1       5.458 -47.012  14.902  1.00  0.00     0.075 A 
HETATM   31  C19 UNL     1       4.761 -45.848  14.665  1.00  0.00     0.019 A 
HETATM   32  C21 UNL     1       2.932 -44.716  13.654  1.00  0.00     0.038 A 
ENDBRANCH  18  21
ENDBRANCH  16  18
ENDBRANCH   1  16
BRANCH   1  33
HETATM   33  C22 UNL     1      -2.674 -43.001  13.816  1.00  0.00     0.248 C 
HETATM   34  O7  UNL     1      -3.695 -43.400  13.207  1.00  0.00    -0.271 OA
HETATM   35  N3  UNL     1      -2.726 -41.796  14.523  1.00  0.00    -0.335 N 
BRANCH  35  36
HETATM   36  C23 UNL     1      -4.025 -41.160  14.681  1.00  0.00     0.239 C 
BRANCH  36  37
HETATM   37  C24 UNL     1      -4.174 -39.877  13.985  1.00  0.00     0.191 C 
HETATM   38  O8  UNL     1      -4.660 -38.882  14.586  1.00  0.00    -0.647 OA
HETATM   39  O9  UNL     1      -3.797 -39.700  12.669  1.00  0.00    -0.647 OA
ENDBRANCH  36  37
ENDBRANCH  35  36
BRANCH  35  40
HETATM   40  C25 UNL     1      -1.532 -41.141  15.022  1.00  0.00     0.172 C 
BRANCH  40  41
HETATM   41  C26 UNL     1      -1.686 -40.719  16.447  1.00  0.00     0.000 A 
HETATM   42  C27 UNL     1      -1.854 -41.398  17.614  1.00  0.00     0.017 A 
HETATM   43  C28 UNL     1      -1.942 -40.675  18.748  1.00  0.00     0.008 A 
HETATM   44  C29 UNL     1      -1.855 -39.315  18.637  1.00  0.00     0.050 A 
HETATM   45  S2  UNL     1      -1.654 -39.086  16.964  1.00  0.00    -0.105 SA
ENDBRANCH  40  41
ENDBRANCH  35  40
ENDBRANCH   1  33
TORSDOF 15
ENDMDL
