MODEL 2
REMARK VINA RESULT: -8.800996606      3.649      8.544
REMARK  15 active torsions:
REMARK  status: ('A' for Active; 'I' for Inactive)
REMARK    1  A    between atoms: C1_2  and  C2_4 
REMARK    2  A    between atoms: C2_4  and  C3_5 
REMARK    3  A    between atoms: C3_5  and  C4_6 
REMARK    4  A    between atoms: C4_6  and  C5_7 
REMARK    5  A    between atoms: C5_7  and  O3_8 
REMARK    6  A    between atoms: O3_8  and  C6_9 
REMARK    7  A    between atoms: C11_14  and  C12_15 
REMARK    8  A    between atoms: C12_15  and  N1_16 
REMARK    9  A    between atoms: C12_15  and  C22_33 
REMARK   10  A    between atoms: N1_16  and  S1_18 
REMARK   11  A    between atoms: S1_18  and  C13_21 
REMARK       I    between atoms: C22_33  and  N3_35 
REMARK   12  A    between atoms: N3_35  and  C23_36 
REMARK   13  A    between atoms: N3_35  and  C25_40 
REMARK   14  A    between atoms: C23_36  and  C24_37 
REMARK   15  A    between atoms: C25_40  and  C26_41 
ROOT
HETATM    1  C12 UNL     1      -2.810 -39.411  16.794  1.00  0.00     0.221 C 
ENDROOT
BRANCH   1   2
HETATM    2  C11 UNL     1      -2.984 -37.962  17.085  1.00  0.00     0.008 A 
HETATM    3  C6  UNL     1      -3.759 -37.603  18.199  1.00  0.00     0.083 A 
HETATM    4  C7  UNL     1      -3.879 -36.273  18.532  1.00  0.00     0.038 A 
HETATM    5  C8  UNL     1      -3.243 -35.280  17.772  1.00  0.00     0.003 A 
HETATM    6  C9  UNL     1      -2.498 -35.648  16.693  1.00  0.00     0.001 A 
HETATM    7  C10 UNL     1      -2.381 -36.983  16.367  1.00  0.00     0.012 A 
BRANCH   3   8
HETATM    8  O3  UNL     1      -4.369 -38.581  18.922  1.00  0.00    -0.323 OA
BRANCH   8   9
HETATM    9  C5  UNL     1      -4.187 -39.171  20.131  1.00  0.00     0.138 C 
BRANCH   9  10
HETATM   10  C4  UNL     1      -3.401 -38.578  21.218  1.00  0.00    -0.002 C 
BRANCH  10  11
HETATM   11  C3  UNL     1      -1.968 -38.301  21.115  1.00  0.00     0.039 C 
BRANCH  11  12
HETATM   12  C2  UNL     1      -1.257 -38.207  22.449  1.00  0.00     0.117 C 
BRANCH  12  13
HETATM   13  C1  UNL     1      -0.411 -37.061  22.659  1.00  0.00     0.172 C 
HETATM   14  O1  UNL     1       0.284 -36.550  21.756  1.00  0.00    -0.648 OA
HETATM   15  O2  UNL     1      -0.313 -36.434  23.911  1.00  0.00    -0.648 OA
ENDBRANCH  12  13
ENDBRANCH  11  12
ENDBRANCH  10  11
ENDBRANCH   9  10
ENDBRANCH   8   9
ENDBRANCH   3   8
ENDBRANCH   1   2
BRANCH   1  16
HETATM   16  N1  UNL     1      -2.263 -39.554  15.439  1.00  0.00    -0.297 N 
ATOM     17  H1  UNL     1      -1.378 -39.150  15.130  1.00  0.00     0.173 HD
BRANCH  16  18
HETATM   18  S1  UNL     1      -3.296 -40.480  14.447  1.00  0.00     0.259 S 
HETATM   19  O4  UNL     1      -3.586 -39.774  13.138  1.00  0.00    -0.201 OA
HETATM   20  O5  UNL     1      -4.639 -40.725  15.081  1.00  0.00    -0.201 OA
BRANCH  18  21
HETATM   21  C13 UNL     1      -2.572 -41.998  14.014  1.00  0.00     0.080 A 
HETATM   22  C14 UNL     1      -1.265 -42.023  13.592  1.00  0.00     0.027 A 
HETATM   23  C15 UNL     1      -0.642 -43.188  13.183  1.00  0.00     0.032 A 
HETATM   24  C16 UNL     1      -1.426 -44.329  13.230  1.00  0.00     0.045 A 
HETATM   25  N2  UNL     1      -0.880 -45.513  12.835  1.00  0.00    -0.323 N 
HETATM   26  C20 UNL     1      -2.728 -44.350  13.642  1.00  0.00    -0.008 A 
HETATM   27  C17 UNL     1      -1.596 -46.657  12.848  1.00  0.00     0.245 A 
ATOM     28  H2  UNL     1       0.091 -45.536  12.522  1.00  0.00     0.169 HD
HETATM   29  O6  UNL     1      -1.043 -47.736  12.470  1.00  0.00    -0.268 OA
HETATM   30  C18 UNL     1      -2.913 -46.705  13.261  1.00  0.00     0.075 A 
HETATM   31  C19 UNL     1      -3.484 -45.518  13.665  1.00  0.00     0.019 A 
HETATM   32  C21 UNL     1      -3.314 -43.177  14.040  1.00  0.00     0.038 A 
ENDBRANCH  18  21
ENDBRANCH  16  18
ENDBRANCH   1  16
BRANCH   1  33
HETATM   33  C22 UNL     1      -1.808 -39.969  17.758  1.00  0.00     0.248 C 
HETATM   34  O7  UNL     1      -0.843 -39.230  18.068  1.00  0.00    -0.271 OA
HETATM   35  N3  UNL     1      -1.902 -41.244  18.325  1.00  0.00    -0.335 N 
BRANCH  35  36
HETATM   36  C23 UNL     1      -0.980 -41.577  19.400  1.00  0.00     0.239 C 
BRANCH  36  37
HETATM   37  C24 UNL     1      -1.614 -41.861  20.692  1.00  0.00     0.191 C 
HETATM   38  O8  UNL     1      -0.971 -41.697  21.763  1.00  0.00    -0.647 OA
HETATM   39  O9  UNL     1      -2.915 -42.311  20.796  1.00  0.00    -0.647 OA
ENDBRANCH  36  37
ENDBRANCH  35  36
BRANCH  35  40
HETATM   40  C25 UNL     1      -2.824 -42.246  17.824  1.00  0.00     0.172 C 
BRANCH  40  41
HETATM   41  C26 UNL     1      -2.115 -43.490  17.399  1.00  0.00     0.000 A 
HETATM   42  C27 UNL     1      -0.875 -43.737  16.894  1.00  0.00     0.017 A 
HETATM   43  C28 UNL     1      -0.554 -45.019  16.632  1.00  0.00     0.008 A 
HETATM   44  C29 UNL     1      -1.500 -45.971  16.894  1.00  0.00     0.050 A 
HETATM   45  S2  UNL     1      -2.801 -45.056  17.495  1.00  0.00    -0.105 SA
ENDBRANCH  40  41
ENDBRANCH  35  40
ENDBRANCH   1  33
TORSDOF 15
ENDMDL
