MODEL 1
REMARK VINA RESULT: -10.008805083      0.000      0.000
REMARK  10 active torsions:
REMARK  status: ('A' for Active; 'I' for Inactive)
REMARK    1  A    between atoms: O1_2  and  C2_3 
REMARK    2  A    between atoms: C7_8  and  C8_9 
REMARK    3  A    between atoms: C8_9  and  N1_10 
REMARK    4  A    between atoms: C8_9  and  C18_27 
REMARK    5  A    between atoms: N1_10  and  S1_12 
REMARK    6  A    between atoms: S1_12  and  C9_15 
REMARK       I    between atoms: C18_27  and  N3_29 
REMARK    7  A    between atoms: N3_29  and  C19_30 
REMARK    8  A    between atoms: N3_29  and  C21_34 
REMARK    9  A    between atoms: C19_30  and  C20_31 
REMARK   10  A    between atoms: C21_34  and  C22_35 
ROOT
HETATM    1  C8  UNL     1      -1.523 -43.289  15.803  1.00  0.00     0.221 C 
ENDROOT
BRANCH   1   2
HETATM    2  C7  UNL     1      -2.283 -44.400  15.235  1.00  0.00     0.007 A 
HETATM    3  C2  UNL     1      -2.315 -45.625  15.868  1.00  0.00     0.077 A 
HETATM    4  C3  UNL     1      -3.063 -46.614  15.277  1.00  0.00     0.037 A 
HETATM    5  C4  UNL     1      -3.770 -46.445  14.105  1.00  0.00     0.003 A 
HETATM    6  C5  UNL     1      -3.722 -45.214  13.493  1.00  0.00     0.001 A 
HETATM    7  C6  UNL     1      -2.987 -44.195  14.045  1.00  0.00     0.012 A 
BRANCH   3   8
HETATM    8  O1  UNL     1      -1.598 -45.765  17.040  1.00  0.00    -0.355 OA
HETATM    9  C1  UNL     1      -2.311 -46.039  18.228  1.00  0.00     0.210 C 
ENDBRANCH   3   8
ENDBRANCH   1   2
BRANCH   1  10
HETATM   10  N1  UNL     1      -0.704 -42.731  14.742  1.00  0.00    -0.297 N 
ATOM     11  H1  UNL     1      -1.012 -41.954  14.159  1.00  0.00     0.173 HD
BRANCH  10  12
HETATM   12  S1  UNL     1       0.811 -43.479  14.552  1.00  0.00     0.259 S 
HETATM   13  O2  UNL     1       1.426 -43.831  15.894  1.00  0.00    -0.201 OA
HETATM   14  O3  UNL     1       1.745 -42.444  13.948  1.00  0.00    -0.201 OA
BRANCH  12  15
HETATM   15  C9  UNL     1       0.787 -44.830  13.480  1.00  0.00     0.080 A 
HETATM   16  C10 UNL     1       1.909 -45.650  13.445  1.00  0.00     0.027 A 
HETATM   17  C11 UNL     1       2.010 -46.754  12.633  1.00  0.00     0.032 A 
HETATM   18  C12 UNL     1       0.911 -47.038  11.814  1.00  0.00     0.045 A 
HETATM   19  N2  UNL     1       0.971 -48.106  11.009  1.00  0.00    -0.323 N 
HETATM   20  C16 UNL     1      -0.216 -46.245  11.823  1.00  0.00    -0.008 A 
HETATM   21  C13 UNL     1      -0.059 -48.408  10.211  1.00  0.00     0.245 A 
ATOM     22  H2  UNL     1       1.806 -48.692  11.004  1.00  0.00     0.169 HD
HETATM   23  O4  UNL     1       0.010 -49.419   9.455  1.00  0.00    -0.268 OA
HETATM   24  C14 UNL     1      -1.202 -47.637  10.196  1.00  0.00     0.075 A 
HETATM   25  C15 UNL     1      -1.293 -46.544  11.003  1.00  0.00     0.019 A 
HETATM   26  C17 UNL     1      -0.279 -45.138  12.658  1.00  0.00     0.038 A 
ENDBRANCH  12  15
ENDBRANCH  10  12
ENDBRANCH   1  10
BRANCH   1  27
HETATM   27  C18 UNL     1      -2.354 -42.219  16.415  1.00  0.00     0.248 C 
HETATM   28  O5  UNL     1      -2.658 -42.370  17.625  1.00  0.00    -0.271 OA
HETATM   29  N3  UNL     1      -2.820 -41.064  15.745  1.00  0.00    -0.335 N 
BRANCH  29  30
HETATM   30  C19 UNL     1      -2.514 -40.783  14.338  1.00  0.00     0.239 C 
BRANCH  30  31
HETATM   31  C20 UNL     1      -3.741 -40.506  13.554  1.00  0.00     0.191 C 
HETATM   32  O6  UNL     1      -3.756 -39.665  12.622  1.00  0.00    -0.647 OA
HETATM   33  O7  UNL     1      -4.923 -41.173  13.831  1.00  0.00    -0.647 OA
ENDBRANCH  30  31
ENDBRANCH  29  30
BRANCH  29  34
HETATM   34  C21 UNL     1      -3.632 -40.126  16.518  1.00  0.00     0.172 C 
BRANCH  34  35
HETATM   35  C22 UNL     1      -2.935 -38.824  16.754  1.00  0.00     0.000 A 
HETATM   36  C23 UNL     1      -3.271 -37.590  16.302  1.00  0.00     0.017 A 
HETATM   37  C24 UNL     1      -2.485 -36.550  16.656  1.00  0.00     0.008 A 
HETATM   38  C25 UNL     1      -1.405 -36.840  17.451  1.00  0.00     0.050 A 
HETATM   39  S2  UNL     1      -1.526 -38.525  17.671  1.00  0.00    -0.105 SA
ENDBRANCH  34  35
ENDBRANCH  29  34
ENDBRANCH   1  27
TORSDOF 10
ENDMDL
