MODEL 3
REMARK VINA RESULT: -9.229524060      1.550      2.557
REMARK  10 active torsions:
REMARK  status: ('A' for Active; 'I' for Inactive)
REMARK    1  A    between atoms: O1_2  and  C2_3 
REMARK    2  A    between atoms: C7_8  and  C8_9 
REMARK    3  A    between atoms: C8_9  and  N1_10 
REMARK    4  A    between atoms: C8_9  and  C18_27 
REMARK    5  A    between atoms: N1_10  and  S1_12 
REMARK    6  A    between atoms: S1_12  and  C9_15 
REMARK       I    between atoms: C18_27  and  N3_29 
REMARK    7  A    between atoms: N3_29  and  C19_30 
REMARK    8  A    between atoms: N3_29  and  C21_34 
REMARK    9  A    between atoms: C19_30  and  C20_31 
REMARK   10  A    between atoms: C21_34  and  C22_35 
ROOT
HETATM    1  C8  UNL     1      -1.338 -43.130  15.728  1.00  0.00     0.221 C 
ENDROOT
BRANCH   1   2
HETATM    2  C7  UNL     1      -2.146 -44.202  15.151  1.00  0.00     0.007 A 
HETATM    3  C2  UNL     1      -2.162 -45.455  15.727  1.00  0.00     0.077 A 
HETATM    4  C3  UNL     1      -2.956 -46.405  15.133  1.00  0.00     0.037 A 
HETATM    5  C4  UNL     1      -3.724 -46.171  14.011  1.00  0.00     0.003 A 
HETATM    6  C5  UNL     1      -3.691 -44.914  13.456  1.00  0.00     0.001 A 
HETATM    7  C6  UNL     1      -2.911 -43.931  14.014  1.00  0.00     0.012 A 
BRANCH   3   8
HETATM    8  O1  UNL     1      -1.384 -45.660  16.850  1.00  0.00    -0.355 OA
HETATM    9  C1  UNL     1      -1.639 -46.804  17.636  1.00  0.00     0.210 C 
ENDBRANCH   3   8
ENDBRANCH   1   2
BRANCH   1  10
HETATM   10  N1  UNL     1      -0.487 -42.607  14.674  1.00  0.00    -0.297 N 
ATOM     11  H1  UNL     1      -0.757 -41.818  14.087  1.00  0.00     0.173 HD
BRANCH  10  12
HETATM   12  S1  UNL     1       0.996 -43.419  14.497  1.00  0.00     0.259 S 
HETATM   13  O2  UNL     1       1.596 -43.773  15.846  1.00  0.00    -0.201 OA
HETATM   14  O3  UNL     1       1.972 -42.432  13.877  1.00  0.00    -0.201 OA
BRANCH  12  15
HETATM   15  C9  UNL     1       0.919 -44.785  13.447  1.00  0.00     0.080 A 
HETATM   16  C10 UNL     1       2.023 -45.628  13.398  1.00  0.00     0.027 A 
HETATM   17  C11 UNL     1       2.081 -46.746  12.601  1.00  0.00     0.032 A 
HETATM   18  C12 UNL     1       0.957 -47.020  11.813  1.00  0.00     0.045 A 
HETATM   19  N2  UNL     1       0.975 -48.100  11.024  1.00  0.00    -0.323 N 
HETATM   20  C16 UNL     1      -0.153 -46.204  11.838  1.00  0.00    -0.008 A 
HETATM   21  C13 UNL     1      -0.081 -48.394  10.256  1.00  0.00     0.245 A 
ATOM     22  H2  UNL     1       1.798 -48.704  11.008  1.00  0.00     0.169 HD
HETATM   23  O4  UNL     1      -0.051 -49.417   9.515  1.00  0.00    -0.268 OA
HETATM   24  C14 UNL     1      -1.208 -47.600  10.258  1.00  0.00     0.075 A 
HETATM   25  C15 UNL     1      -1.256 -46.494  11.050  1.00  0.00     0.019 A 
HETATM   26  C17 UNL     1      -0.174 -45.083  12.657  1.00  0.00     0.038 A 
ENDBRANCH  12  15
ENDBRANCH  10  12
ENDBRANCH   1  10
BRANCH   1  27
HETATM   27  C18 UNL     1      -2.123 -42.023  16.337  1.00  0.00     0.248 C 
HETATM   28  O5  UNL     1      -2.586 -41.164  15.545  1.00  0.00    -0.271 OA
HETATM   29  N3  UNL     1      -2.380 -41.869  17.719  1.00  0.00    -0.335 N 
BRANCH  29  30
HETATM   30  C19 UNL     1      -1.896 -42.818  18.728  1.00  0.00     0.239 C 
BRANCH  30  31
HETATM   31  C20 UNL     1      -3.015 -43.446  19.472  1.00  0.00     0.191 C 
HETATM   32  O6  UNL     1      -3.804 -44.255  18.925  1.00  0.00    -0.647 OA
HETATM   33  O7  UNL     1      -3.225 -43.154  20.810  1.00  0.00    -0.647 OA
ENDBRANCH  30  31
ENDBRANCH  29  30
BRANCH  29  34
HETATM   34  C21 UNL     1      -3.168 -40.709  18.126  1.00  0.00     0.172 C 
BRANCH  34  35
HETATM   35  C22 UNL     1      -2.334 -39.642  18.762  1.00  0.00     0.000 A 
HETATM   36  C23 UNL     1      -1.408 -38.836  18.184  1.00  0.00     0.017 A 
HETATM   37  C24 UNL     1      -0.779 -37.933  18.966  1.00  0.00     0.008 A 
HETATM   38  C25 UNL     1      -1.138 -37.912  20.291  1.00  0.00     0.050 A 
HETATM   39  S2  UNL     1      -2.321 -39.134  20.391  1.00  0.00    -0.105 SA
ENDBRANCH  34  35
ENDBRANCH  29  34
ENDBRANCH   1  27
TORSDOF 10
ENDMDL
