MODEL 2
REMARK VINA RESULT: -9.320397514      1.031      2.120
REMARK  10 active torsions:
REMARK  status: ('A' for Active; 'I' for Inactive)
REMARK    1  A    between atoms: O1_2  and  C2_3 
REMARK    2  A    between atoms: C7_8  and  C8_9 
REMARK    3  A    between atoms: C8_9  and  N1_10 
REMARK    4  A    between atoms: C8_9  and  C18_27 
REMARK    5  A    between atoms: N1_10  and  S1_12 
REMARK    6  A    between atoms: S1_12  and  C9_15 
REMARK       I    between atoms: C18_27  and  N3_29 
REMARK    7  A    between atoms: N3_29  and  C19_30 
REMARK    8  A    between atoms: N3_29  and  C21_34 
REMARK    9  A    between atoms: C19_30  and  C20_31 
REMARK   10  A    between atoms: C21_34  and  C22_35 
ROOT
HETATM    1  C8  UNL     1      -1.587 -42.727  15.426  1.00  0.00     0.221 C 
ENDROOT
BRANCH   1   2
HETATM    2  C7  UNL     1      -2.279 -43.952  15.034  1.00  0.00     0.007 A 
HETATM    3  C2  UNL     1      -2.246 -45.066  15.846  1.00  0.00     0.077 A 
HETATM    4  C3  UNL     1      -2.932 -46.175  15.414  1.00  0.00     0.037 A 
HETATM    5  C4  UNL     1      -3.639 -46.226  14.229  1.00  0.00     0.003 A 
HETATM    6  C5  UNL     1      -3.656 -45.102  13.438  1.00  0.00     0.001 A 
HETATM    7  C6  UNL     1      -2.984 -43.971  13.828  1.00  0.00     0.012 A 
BRANCH   3   8
HETATM    8  O1  UNL     1      -1.532 -44.985  17.025  1.00  0.00    -0.355 OA
HETATM    9  C1  UNL     1      -2.042 -45.653  18.160  1.00  0.00     0.210 C 
ENDBRANCH   3   8
ENDBRANCH   1   2
BRANCH   1  10
HETATM   10  N1  UNL     1      -0.653 -42.393  14.365  1.00  0.00    -0.297 N 
ATOM     11  H1  UNL     1      -0.852 -41.686  13.658  1.00  0.00     0.173 HD
BRANCH  10  12
HETATM   12  S1  UNL     1       0.799 -43.276  14.399  1.00  0.00     0.259 S 
HETATM   13  O2  UNL     1       1.203 -43.621  15.821  1.00  0.00    -0.201 OA
HETATM   14  O3  UNL     1       1.893 -42.353  13.889  1.00  0.00    -0.201 OA
BRANCH  12  15
HETATM   15  C9  UNL     1       0.790 -44.665  13.377  1.00  0.00     0.080 A 
HETATM   16  C10 UNL     1       1.934 -45.454  13.343  1.00  0.00     0.027 A 
HETATM   17  C11 UNL     1       2.047 -46.584  12.569  1.00  0.00     0.032 A 
HETATM   18  C12 UNL     1       0.939 -46.928  11.788  1.00  0.00     0.045 A 
HETATM   19  N2  UNL     1       1.011 -48.022  11.021  1.00  0.00    -0.323 N 
HETATM   20  C16 UNL     1      -0.211 -46.168  11.797  1.00  0.00    -0.008 A 
HETATM   21  C13 UNL     1      -0.030 -48.383  10.260  1.00  0.00     0.245 A 
ATOM     22  H2  UNL     1       1.862 -48.585  11.016  1.00  0.00     0.169 HD
HETATM   23  O4  UNL     1       0.051 -49.418   9.540  1.00  0.00    -0.268 OA
HETATM   24  C14 UNL     1      -1.194 -47.646  10.246  1.00  0.00     0.075 A 
HETATM   25  C15 UNL     1      -1.298 -46.528  11.016  1.00  0.00     0.019 A 
HETATM   26  C17 UNL     1      -0.287 -45.033  12.593  1.00  0.00     0.038 A 
ENDBRANCH  12  15
ENDBRANCH  10  12
ENDBRANCH   1  10
BRANCH   1  27
HETATM   27  C18 UNL     1      -2.481 -41.569  15.693  1.00  0.00     0.248 C 
HETATM   28  O5  UNL     1      -3.038 -41.050  14.693  1.00  0.00    -0.271 OA
HETATM   29  N3  UNL     1      -2.744 -41.019  16.969  1.00  0.00    -0.335 N 
BRANCH  29  30
HETATM   30  C19 UNL     1      -2.157 -41.553  18.202  1.00  0.00     0.239 C 
BRANCH  30  31
HETATM   31  C20 UNL     1      -3.195 -41.890  19.205  1.00  0.00     0.191 C 
HETATM   32  O6  UNL     1      -3.958 -42.878  19.063  1.00  0.00    -0.647 OA
HETATM   33  O7  UNL     1      -3.358 -41.115  20.342  1.00  0.00    -0.647 OA
ENDBRANCH  30  31
ENDBRANCH  29  30
BRANCH  29  34
HETATM   34  C21 UNL     1      -3.650 -39.874  17.028  1.00  0.00     0.172 C 
BRANCH  34  35
HETATM   35  C22 UNL     1      -2.922 -38.573  17.153  1.00  0.00     0.000 A 
HETATM   36  C23 UNL     1      -2.559 -37.709  16.172  1.00  0.00     0.017 A 
HETATM   37  C24 UNL     1      -1.908 -36.581  16.532  1.00  0.00     0.008 A 
HETATM   38  C25 UNL     1      -1.671 -36.410  17.872  1.00  0.00     0.050 A 
HETATM   39  S2  UNL     1      -2.355 -37.806  18.569  1.00  0.00    -0.105 SA
ENDBRANCH  34  35
ENDBRANCH  29  34
ENDBRANCH   1  27
TORSDOF 10
ENDMDL
