MODEL 7
REMARK VINA RESULT: -6.075616110      2.848      6.305
REMARK  3 active torsions:
REMARK  status: ('A' for Active; 'I' for Inactive)
REMARK    1  A    between atoms: C2_2  and  N1_3 
REMARK    2  A    between atoms: N1_3  and  C3_4 
REMARK    3  A    between atoms: N1_3  and  C5_6 
ROOT
HETATM    1  C5  UNL     1      -3.773 -17.198  33.474  1.00  0.00     0.032 A 
HETATM    2  C6  UNL     1      -2.537 -17.631  33.041  1.00  0.00     0.030 A 
HETATM    3  C7  UNL     1      -1.902 -18.725  33.625  1.00  0.00     0.017 A 
HETATM    4  C8  UNL     1      -2.529 -19.378  34.651  1.00  0.00     0.004 A 
HETATM    5  C9  UNL     1      -1.941 -20.461  35.257  1.00  0.00    -0.043 A 
HETATM    6  C10 UNL     1      -0.599 -20.983  34.842  1.00  0.00     0.049 C 
HETATM    7  C11 UNL     1      -2.639 -21.071  36.291  1.00  0.00     0.090 A 
HETATM    8  C12 UNL     1      -3.867 -20.595  36.678  1.00  0.00     0.288 A 
HETATM    9  O1  UNL     1      -4.518 -21.131  37.610  1.00  0.00    -0.260 OA
HETATM   10  O2  UNL     1      -4.413 -19.566  36.093  1.00  0.00    -0.275 OA
HETATM   11  C13 UNL     1      -3.781 -18.961  35.109  1.00  0.00     0.092 A 
HETATM   12  C14 UNL     1      -4.390 -17.877  34.518  1.00  0.00     0.067 A 
ENDROOT
BRANCH   1  13
HETATM   13  N1  UNL     1      -4.487 -16.101  32.903  1.00  0.00    -0.382 N 
BRANCH  13  14
HETATM   14  C2  UNL     1      -4.999 -15.018  33.760  1.00  0.00     0.118 C 
HETATM   15  C1  UNL     1      -4.287 -13.731  33.313  1.00  0.00     0.026 C 
ENDBRANCH  13  14
BRANCH  13  16
HETATM   16  C3  UNL     1      -4.701 -16.052  31.496  1.00  0.00     0.118 C 
HETATM   17  C4  UNL     1      -5.723 -17.049  31.062  1.00  0.00     0.026 C 
ENDBRANCH  13  16
ENDBRANCH   1  13
TORSDOF 3
ENDMDL
