MODEL 2
REMARK VINA RESULT: -9.182275492      0.094      1.568
REMARK  3 active torsions:
REMARK  status: ('A' for Active; 'I' for Inactive)
REMARK    1  A    between atoms: C2_2  and  N1_3 
REMARK    2  A    between atoms: N1_3  and  C3_4 
REMARK    3  A    between atoms: N1_3  and  C5_6 
ROOT
HETATM    1  C5  UNL     1      -0.913 -21.673  35.599  1.00  0.00     0.032 A 
HETATM    2  C6  UNL     1      -0.699 -20.643  34.707  1.00  0.00     0.030 A 
HETATM    3  C7  UNL     1      -1.633 -19.625  34.532  1.00  0.00     0.017 A 
HETATM    4  C8  UNL     1      -2.786 -19.657  35.268  1.00  0.00     0.004 A 
HETATM    5  C9  UNL     1      -3.735 -18.673  35.128  1.00  0.00    -0.043 A 
HETATM    6  C10 UNL     1      -3.572 -17.529  34.176  1.00  0.00     0.049 C 
HETATM    7  C11 UNL     1      -4.879 -18.775  35.910  1.00  0.00     0.090 A 
HETATM    8  C12 UNL     1      -5.036 -19.824  36.781  1.00  0.00     0.288 A 
HETATM    9  O1  UNL     1      -6.061 -19.937  37.499  1.00  0.00    -0.260 OA
HETATM   10  O2  UNL     1      -4.126 -20.750  36.903  1.00  0.00    -0.275 OA
HETATM   11  C13 UNL     1      -3.028 -20.688  36.179  1.00  0.00     0.092 A 
HETATM   12  C14 UNL     1      -2.092 -21.685  36.335  1.00  0.00     0.067 A 
ENDROOT
BRANCH   1  13
HETATM   13  N1  UNL     1       0.013 -22.733  35.843  1.00  0.00    -0.382 N 
BRANCH  13  14
HETATM   14  C2  UNL     1       1.232 -22.860  35.028  1.00  0.00     0.118 C 
HETATM   15  C1  UNL     1       2.394 -22.338  35.889  1.00  0.00     0.026 C 
ENDBRANCH  13  14
BRANCH  13  16
HETATM   16  C3  UNL     1      -0.243 -23.668  36.886  1.00  0.00     0.118 C 
HETATM   17  C4  UNL     1      -0.233 -25.072  36.378  1.00  0.00     0.026 C 
ENDBRANCH  13  16
ENDBRANCH   1  13
TORSDOF 3
ENDMDL
