MODEL 6
REMARK VINA RESULT: -6.468650053      2.244      5.620
REMARK  3 active torsions:
REMARK  status: ('A' for Active; 'I' for Inactive)
REMARK    1  A    between atoms: C2_2  and  N1_3 
REMARK    2  A    between atoms: N1_3  and  C3_4 
REMARK    3  A    between atoms: N1_3  and  C5_6 
ROOT
HETATM    1  C5  UNL     1      -2.253 -20.304  35.574  1.00  0.00     0.032 A 
HETATM    2  C6  UNL     1      -1.108 -19.856  34.950  1.00  0.00     0.030 A 
HETATM    3  C7  UNL     1       0.042 -20.639  34.886  1.00  0.00     0.017 A 
HETATM    4  C8  UNL     1       0.022 -21.883  35.458  1.00  0.00     0.004 A 
HETATM    5  C9  UNL     1       1.133 -22.690  35.419  1.00  0.00    -0.043 A 
HETATM    6  C10 UNL     1       2.411 -22.267  34.763  1.00  0.00     0.049 C 
HETATM    7  C11 UNL     1       1.036 -23.938  36.022  1.00  0.00     0.090 A 
HETATM    8  C12 UNL     1      -0.132 -24.330  36.627  1.00  0.00     0.288 A 
HETATM    9  O1  UNL     1      -0.245 -25.453  37.178  1.00  0.00    -0.260 OA
HETATM   10  O2  UNL     1      -1.178 -23.552  36.656  1.00  0.00    -0.275 OA
HETATM   11  C13 UNL     1      -1.125 -22.361  36.095  1.00  0.00     0.092 A 
HETATM   12  C14 UNL     1      -2.249 -21.569  36.148  1.00  0.00     0.067 A 
ENDROOT
BRANCH   1  13
HETATM   13  N1  UNL     1      -3.471 -19.561  35.653  1.00  0.00    -0.382 N 
BRANCH  13  14
HETATM   14  C2  UNL     1      -4.622 -20.094  36.401  1.00  0.00     0.118 C 
HETATM   15  C1  UNL     1      -5.376 -18.881  36.970  1.00  0.00     0.026 C 
ENDBRANCH  13  14
BRANCH  13  16
HETATM   16  C3  UNL     1      -3.569 -18.294  35.010  1.00  0.00     0.118 C 
HETATM   17  C4  UNL     1      -4.034 -18.431  33.599  1.00  0.00     0.026 C 
ENDBRANCH  13  16
ENDBRANCH   1  13
TORSDOF 3
ENDMDL
