MODEL 1
REMARK VINA RESULT: -9.238470751      0.000      0.000
REMARK  3 active torsions:
REMARK  status: ('A' for Active; 'I' for Inactive)
REMARK    1  A    between atoms: C2_2  and  N1_3 
REMARK    2  A    between atoms: N1_3  and  C3_4 
REMARK    3  A    between atoms: N1_3  and  C5_6 
ROOT
HETATM    1  C5  UNL     1      -0.877 -21.726  35.616  1.00  0.00     0.032 A 
HETATM    2  C6  UNL     1      -0.662 -20.709  34.709  1.00  0.00     0.030 A 
HETATM    3  C7  UNL     1      -1.593 -19.691  34.520  1.00  0.00     0.017 A 
HETATM    4  C8  UNL     1      -2.746 -19.709  35.258  1.00  0.00     0.004 A 
HETATM    5  C9  UNL     1      -3.693 -18.726  35.105  1.00  0.00    -0.043 A 
HETATM    6  C10 UNL     1      -3.528 -17.596  34.137  1.00  0.00     0.049 C 
HETATM    7  C11 UNL     1      -4.836 -18.814  35.889  1.00  0.00     0.090 A 
HETATM    8  C12 UNL     1      -4.995 -19.850  36.776  1.00  0.00     0.288 A 
HETATM    9  O1  UNL     1      -6.020 -19.951  37.496  1.00  0.00    -0.260 OA
HETATM   10  O2  UNL     1      -4.087 -20.776  36.910  1.00  0.00    -0.275 OA
HETATM   11  C13 UNL     1      -2.989 -20.727  36.184  1.00  0.00     0.092 A 
HETATM   12  C14 UNL     1      -2.055 -21.724  36.353  1.00  0.00     0.067 A 
ENDROOT
BRANCH   1  13
HETATM   13  N1  UNL     1       0.047 -22.784  35.874  1.00  0.00    -0.382 N 
BRANCH  13  14
HETATM   14  C2  UNL     1      -0.171 -23.704  37.003  1.00  0.00     0.118 C 
HETATM   15  C1  UNL     1      -0.210 -25.123  36.412  1.00  0.00     0.026 C 
ENDBRANCH  13  14
BRANCH  13  16
HETATM   16  C3  UNL     1       1.182 -22.953  35.030  1.00  0.00     0.118 C 
HETATM   17  C4  UNL     1       2.430 -22.468  35.688  1.00  0.00     0.026 C 
ENDBRANCH  13  16
ENDBRANCH   1  13
TORSDOF 3
ENDMDL
