MODEL 5
REMARK VINA RESULT: -6.481983068      2.752      6.254
REMARK  3 active torsions:
REMARK  status: ('A' for Active; 'I' for Inactive)
REMARK    1  A    between atoms: C2_2  and  N1_3 
REMARK    2  A    between atoms: N1_3  and  C3_4 
REMARK    3  A    between atoms: N1_3  and  C5_6 
ROOT
HETATM    1  C5  UNL     1      -2.084 -20.328  35.286  1.00  0.00     0.032 A 
HETATM    2  C6  UNL     1      -2.550 -21.261  36.189  1.00  0.00     0.030 A 
HETATM    3  C7  UNL     1      -1.754 -22.318  36.621  1.00  0.00     0.017 A 
HETATM    4  C8  UNL     1      -0.480 -22.424  36.133  1.00  0.00     0.004 A 
HETATM    5  C9  UNL     1       0.342 -23.450  36.531  1.00  0.00    -0.043 A 
HETATM    6  C10 UNL     1      -0.099 -24.501  37.503  1.00  0.00     0.049 C 
HETATM    7  C11 UNL     1       1.621 -23.490  35.992  1.00  0.00     0.090 A 
HETATM    8  C12 UNL     1       2.030 -22.531  35.098  1.00  0.00     0.288 A 
HETATM    9  O1  UNL     1       3.182 -22.545  34.597  1.00  0.00    -0.260 OA
HETATM   10  O2  UNL     1       1.239 -21.563  34.729  1.00  0.00    -0.275 OA
HETATM   11  C13 UNL     1       0.018 -21.492  35.219  1.00  0.00     0.092 A 
HETATM   12  C14 UNL     1      -0.787 -20.455  34.804  1.00  0.00     0.067 A 
ENDROOT
BRANCH   1  13
HETATM   13  N1  UNL     1      -2.840 -19.208  34.822  1.00  0.00    -0.382 N 
BRANCH  13  14
HETATM   14  C2  UNL     1      -2.510 -18.566  33.539  1.00  0.00     0.118 C 
HETATM   15  C1  UNL     1      -3.597 -17.510  33.282  1.00  0.00     0.026 C 
ENDBRANCH  13  14
BRANCH  13  16
HETATM   16  C3  UNL     1      -3.924 -18.714  35.603  1.00  0.00     0.118 C 
HETATM   17  C4  UNL     1      -4.618 -19.814  36.335  1.00  0.00     0.026 C 
ENDBRANCH  13  16
ENDBRANCH   1  13
TORSDOF 3
ENDMDL
