MODEL 2
REMARK VINA RESULT: -8.218737700      3.632      8.107
REMARK  10 active torsions:
REMARK  status: ('A' for Active; 'I' for Inactive)
REMARK    1  A    between atoms: N5_13  and  C6_14 
REMARK    2  A    between atoms: C7_16  and  C8_17 
REMARK    3  A    between atoms: C8_17  and  S1_18 
REMARK    4  A    between atoms: S1_18  and  C9_19 
REMARK    5  A    between atoms: C9_19  and  C10_20 
REMARK    6  A    between atoms: C10_20  and  C11_21 
REMARK    7  A    between atoms: C11_21  and  N6_22 
REMARK    8  A    between atoms: C11_21  and  C12_26 
REMARK    9  A    between atoms: C13_29  and  O4_30 
REMARK   10  A    between atoms: C14_32  and  O5_33 
ROOT
HETATM    1  C6  UNL     1     -63.462  28.842  -5.624  1.00  0.00     0.262 C 
HETATM    2  O1  UNL     1     -63.086  29.449  -6.834  1.00  0.00    -0.355 OA
HETATM    3  C7  UNL     1     -62.016  30.286  -6.471  1.00  0.00     0.165 C 
HETATM    4  C13 UNL     1     -61.234  29.499  -5.448  1.00  0.00     0.180 C 
HETATM    5  C14 UNL     1     -62.130  28.307  -5.190  1.00  0.00     0.198 C 
ENDROOT
BRANCH   1   6
HETATM    6  N5  UNL     1     -64.478  27.863  -5.841  1.00  0.00    -0.297 N 
HETATM    7  C3  UNL     1     -65.662  28.086  -6.436  1.00  0.00     0.142 A 
HETATM    8  N3  UNL     1     -66.236  29.177  -6.968  1.00  0.00    -0.336 N 
HETATM    9  C4  UNL     1     -66.333  26.863  -6.440  1.00  0.00     0.119 A 
HETATM   10  C2  UNL     1     -67.462  29.058  -7.497  1.00  0.00     0.183 A 
ATOM     11  H3  UNL     1     -65.751  30.074  -6.970  1.00  0.00     0.168 HD
HETATM   12  N2  UNL     1     -68.123  27.894  -7.512  1.00  0.00    -0.339 N 
HETATM   13  C1  UNL     1     -67.576  26.787  -6.988  1.00  0.00     0.148 A 
ATOM     14  H2  UNL     1     -69.055  27.849  -7.925  1.00  0.00     0.167 HD
HETATM   15  N1  UNL     1     -68.284  25.545  -7.006  1.00  0.00    -0.080 NA
HETATM   16  N4  UNL     1     -65.504  25.972  -5.842  1.00  0.00    -0.346 N 
HETATM   17  C5  UNL     1     -64.377  26.570  -5.475  1.00  0.00     0.188 A 
ATOM     18  H4  UNL     1     -65.715  24.985  -5.694  1.00  0.00     0.167 HD
ENDBRANCH   1   6
BRANCH   5  19
HETATM   19  O5  UNL     1     -62.085  27.903  -3.864  1.00  0.00    -0.388 OA
ATOM     20  H5  UNL     1     -61.859  26.988  -3.745  1.00  0.00     0.210 HD
ENDBRANCH   5  19
BRANCH   3  21
HETATM   21  C8  UNL     1     -61.146  30.494  -7.674  1.00  0.00     0.108 C 
BRANCH  21  22
HETATM   22  S1  UNL     1     -59.536  29.777  -7.653  1.00  0.00    -0.166 SA
BRANCH  22  23
HETATM   23  C9  UNL     1     -58.835  29.359  -9.221  1.00  0.00     0.076 C 
BRANCH  23  24
HETATM   24  C10 UNL     1     -57.395  28.938  -9.156  1.00  0.00     0.054 C 
BRANCH  24  25
HETATM   25  C11 UNL     1     -56.564  29.694 -10.132  1.00  0.00     0.284 C 
BRANCH  25  26
HETATM   26  N6  UNL     1     -55.503  28.916 -10.690  1.00  0.00    -0.065 N 
ATOM     27  H63 UNL     1     -54.733  28.823 -10.027  1.00  0.00     0.275 HD
ATOM     28  H62 UNL     1     -55.775  27.936 -10.769  1.00  0.00     0.275 HD
ATOM     29  H61 UNL     1     -55.171  29.274 -11.585  1.00  0.00     0.275 HD
ENDBRANCH  25  26
BRANCH  25  30
HETATM   30  C12 UNL     1     -56.033  30.956  -9.597  1.00  0.00     0.204 C 
HETATM   31  O2  UNL     1     -54.867  31.004  -9.163  1.00  0.00    -0.646 OA
HETATM   32  O3  UNL     1     -56.818  32.088  -9.573  1.00  0.00    -0.646 OA
ENDBRANCH  25  30
ENDBRANCH  24  25
ENDBRANCH  23  24
ENDBRANCH  22  23
ENDBRANCH  21  22
ENDBRANCH   3  21
BRANCH   4  33
HETATM   33  O4  UNL     1     -61.142  30.223  -4.243  1.00  0.00    -0.390 OA
ATOM     34  H4  UNL     1     -60.243  30.239  -3.938  1.00  0.00     0.210 HD
ENDBRANCH   4  33
TORSDOF 10
ENDMDL
