MODEL 4
REMARK VINA RESULT: -8.075025970      3.867      7.891
REMARK  10 active torsions:
REMARK  status: ('A' for Active; 'I' for Inactive)
REMARK    1  A    between atoms: N5_13  and  C6_14 
REMARK    2  A    between atoms: C7_16  and  C8_17 
REMARK    3  A    between atoms: C8_17  and  S1_18 
REMARK    4  A    between atoms: S1_18  and  C9_19 
REMARK    5  A    between atoms: C9_19  and  C10_20 
REMARK    6  A    between atoms: C10_20  and  C11_21 
REMARK    7  A    between atoms: C11_21  and  N6_22 
REMARK    8  A    between atoms: C11_21  and  C12_26 
REMARK    9  A    between atoms: C13_29  and  O4_30 
REMARK   10  A    between atoms: C14_32  and  O5_33 
ROOT
HETATM    1  C6  UNL     1     -63.041  28.895  -5.588  1.00  0.00     0.262 C 
HETATM    2  O1  UNL     1     -62.461  29.374  -6.775  1.00  0.00    -0.355 OA
HETATM    3  C7  UNL     1     -61.367  30.137  -6.329  1.00  0.00     0.165 C 
HETATM    4  C13 UNL     1     -60.799  29.364  -5.165  1.00  0.00     0.180 C 
HETATM    5  C14 UNL     1     -61.831  28.278  -4.952  1.00  0.00     0.198 C 
ENDROOT
BRANCH   1   6
HETATM    6  N5  UNL     1     -64.113  27.996  -5.873  1.00  0.00    -0.297 N 
HETATM    7  C3  UNL     1     -65.209  28.292  -6.592  1.00  0.00     0.142 A 
HETATM    8  N3  UNL     1     -65.629  29.403  -7.217  1.00  0.00    -0.336 N 
HETATM    9  C4  UNL     1     -65.981  27.130  -6.623  1.00  0.00     0.119 A 
HETATM   10  C2  UNL     1     -66.803  29.365  -7.864  1.00  0.00     0.183 A 
ATOM     11  H3  UNL     1     -65.069  30.256  -7.201  1.00  0.00     0.168 HD
HETATM   12  N2  UNL     1     -67.559  28.261  -7.905  1.00  0.00    -0.339 N 
HETATM   13  C1  UNL     1     -67.165  27.136  -7.291  1.00  0.00     0.148 A 
ATOM     14  H2  UNL     1     -68.446  28.276  -8.410  1.00  0.00     0.167 HD
HETATM   15  N1  UNL     1     -67.974  25.958  -7.337  1.00  0.00    -0.080 NA
HETATM   16  N4  UNL     1     -65.295  26.200  -5.913  1.00  0.00    -0.346 N 
HETATM   17  C5  UNL     1     -64.161  26.716  -5.455  1.00  0.00     0.188 A 
ATOM     18  H4  UNL     1     -65.606  25.242  -5.754  1.00  0.00     0.167 HD
ENDBRANCH   1   6
BRANCH   5  19
HETATM   19  O5  UNL     1     -61.991  27.973  -3.608  1.00  0.00    -0.388 OA
ATOM     20  H5  UNL     1     -61.199  28.067  -3.092  1.00  0.00     0.210 HD
ENDBRANCH   5  19
BRANCH   3  21
HETATM   21  C8  UNL     1     -60.338  30.176  -7.420  1.00  0.00     0.108 C 
BRANCH  21  22
HETATM   22  S1  UNL     1     -60.171  31.675  -8.331  1.00  0.00    -0.166 SA
BRANCH  22  23
HETATM   23  C9  UNL     1     -61.299  31.918  -9.671  1.00  0.00     0.076 C 
BRANCH  23  24
HETATM   24  C10 UNL     1     -62.672  32.351  -9.245  1.00  0.00     0.054 C 
BRANCH  24  25
HETATM   25  C11 UNL     1     -63.685  31.298  -9.527  1.00  0.00     0.284 C 
BRANCH  25  26
HETATM   26  N6  UNL     1     -63.105  30.032  -9.849  1.00  0.00    -0.065 N 
ATOM     27  H63 UNL     1     -63.223  29.820 -10.840  1.00  0.00     0.275 HD
ATOM     28  H62 UNL     1     -62.087  30.079  -9.808  1.00  0.00     0.275 HD
ATOM     29  H61 UNL     1     -63.457  29.271  -9.269  1.00  0.00     0.275 HD
ENDBRANCH  25  26
BRANCH  25  30
HETATM   30  C12 UNL     1     -64.658  31.681 -10.560  1.00  0.00     0.204 C 
HETATM   31  O2  UNL     1     -65.647  30.957 -10.779  1.00  0.00    -0.646 OA
HETATM   32  O3  UNL     1     -64.484  32.838 -11.288  1.00  0.00    -0.646 OA
ENDBRANCH  25  30
ENDBRANCH  24  25
ENDBRANCH  23  24
ENDBRANCH  22  23
ENDBRANCH  21  22
ENDBRANCH   3  21
BRANCH   4  33
HETATM   33  O4  UNL     1     -60.786  30.166  -4.007  1.00  0.00    -0.390 OA
ATOM     34  H4  UNL     1     -60.286  29.742  -3.320  1.00  0.00     0.210 HD
ENDBRANCH   4  33
TORSDOF 10
ENDMDL
