MODEL 1
REMARK VINA RESULT: -8.297191676      0.000      0.000
REMARK  10 active torsions:
REMARK  status: ('A' for Active; 'I' for Inactive)
REMARK    1  A    between atoms: N5_13  and  C6_14 
REMARK    2  A    between atoms: C7_16  and  C8_17 
REMARK    3  A    between atoms: C8_17  and  S1_18 
REMARK    4  A    between atoms: S1_18  and  C9_19 
REMARK    5  A    between atoms: C9_19  and  C10_20 
REMARK    6  A    between atoms: C10_20  and  C11_21 
REMARK    7  A    between atoms: C11_21  and  N6_22 
REMARK    8  A    between atoms: C11_21  and  C12_26 
REMARK    9  A    between atoms: C13_29  and  O4_30 
REMARK   10  A    between atoms: C14_32  and  O5_33 
ROOT
HETATM    1  C6  UNL     1     -60.275  31.206  -8.917  1.00  0.00     0.262 C 
HETATM    2  O1  UNL     1     -61.400  30.436  -8.577  1.00  0.00    -0.355 OA
HETATM    3  C7  UNL     1     -62.392  31.396  -8.305  1.00  0.00     0.165 C 
HETATM    4  C13 UNL     1     -62.180  32.479  -9.334  1.00  0.00     0.180 C 
HETATM    5  C14 UNL     1     -60.878  32.069  -9.985  1.00  0.00     0.198 C 
ENDROOT
BRANCH   1   6
HETATM    6  N5  UNL     1     -59.196  30.370  -9.336  1.00  0.00    -0.297 N 
HETATM    7  C3  UNL     1     -57.937  30.777  -9.567  1.00  0.00     0.142 A 
HETATM    8  N3  UNL     1     -57.326  31.970  -9.495  1.00  0.00    -0.336 N 
HETATM    9  C4  UNL     1     -57.222  29.640  -9.948  1.00  0.00     0.119 A 
HETATM   10  C2  UNL     1     -56.022  32.038  -9.799  1.00  0.00     0.183 A 
ATOM     11  H3  UNL     1     -57.841  32.805  -9.216  1.00  0.00     0.168 HD
HETATM   12  N2  UNL     1     -55.318  30.960 -10.167  1.00  0.00    -0.339 N 
HETATM   13  C1  UNL     1     -55.900  29.755 -10.248  1.00  0.00     0.148 A 
ATOM     14  H2  UNL     1     -54.327  31.057 -10.390  1.00  0.00     0.167 HD
HETATM   15  N1  UNL     1     -55.146  28.605 -10.640  1.00  0.00    -0.080 NA
HETATM   16  N4  UNL     1     -58.105  28.611  -9.923  1.00  0.00    -0.346 N 
HETATM   17  C5  UNL     1     -59.304  29.044  -9.553  1.00  0.00     0.188 A 
ATOM     18  H4  UNL     1     -57.880  27.644 -10.155  1.00  0.00     0.167 HD
ENDBRANCH   1   6
BRANCH   5  19
HETATM   19  O5  UNL     1     -60.104  33.166 -10.332  1.00  0.00    -0.388 OA
ATOM     20  H5  UNL     1     -59.180  32.973 -10.432  1.00  0.00     0.210 HD
ENDBRANCH   5  19
BRANCH   3  21
HETATM   21  C8  UNL     1     -63.734  30.772  -8.544  1.00  0.00     0.108 C 
BRANCH  21  22
HETATM   22  S1  UNL     1     -64.539  30.016  -7.170  1.00  0.00    -0.166 SA
BRANCH  22  23
HETATM   23  C9  UNL     1     -63.588  28.853  -6.237  1.00  0.00     0.076 C 
BRANCH  23  24
HETATM   24  C10 UNL     1     -62.482  29.472  -5.432  1.00  0.00     0.054 C 
BRANCH  24  25
HETATM   25  C11 UNL     1     -61.545  28.438  -4.914  1.00  0.00     0.284 C 
BRANCH  25  26
HETATM   26  N6  UNL     1     -61.860  28.006  -3.589  1.00  0.00    -0.065 N 
ATOM     27  H63 UNL     1     -61.078  27.497  -3.177  1.00  0.00     0.275 HD
ATOM     28  H62 UNL     1     -61.900  28.799  -2.949  1.00  0.00     0.275 HD
ATOM     29  H61 UNL     1     -62.719  27.457  -3.540  1.00  0.00     0.275 HD
ENDBRANCH  25  26
BRANCH  25  30
HETATM   30  C12 UNL     1     -60.132  28.837  -4.989  1.00  0.00     0.204 C 
HETATM   31  O2  UNL     1     -59.667  29.274  -6.059  1.00  0.00    -0.646 OA
HETATM   32  O3  UNL     1     -59.317  28.729  -3.883  1.00  0.00    -0.646 OA
ENDBRANCH  25  30
ENDBRANCH  24  25
ENDBRANCH  23  24
ENDBRANCH  22  23
ENDBRANCH  21  22
ENDBRANCH   3  21
BRANCH   4  33
HETATM   33  O4  UNL     1     -61.960  33.717  -8.698  1.00  0.00    -0.390 OA
ATOM     34  H4  UNL     1     -61.032  33.915  -8.678  1.00  0.00     0.210 HD
ENDBRANCH   4  33
TORSDOF 10
ENDMDL
