MODEL 3
REMARK VINA RESULT: -8.137291582      3.600      7.959
REMARK  10 active torsions:
REMARK  status: ('A' for Active; 'I' for Inactive)
REMARK    1  A    between atoms: N5_13  and  C6_14 
REMARK    2  A    between atoms: C7_16  and  C8_17 
REMARK    3  A    between atoms: C8_17  and  S1_18 
REMARK    4  A    between atoms: S1_18  and  C9_19 
REMARK    5  A    between atoms: C9_19  and  C10_20 
REMARK    6  A    between atoms: C10_20  and  C11_21 
REMARK    7  A    between atoms: C11_21  and  N6_22 
REMARK    8  A    between atoms: C11_21  and  C12_26 
REMARK    9  A    between atoms: C13_29  and  O4_30 
REMARK   10  A    between atoms: C14_32  and  O5_33 
ROOT
HETATM    1  C6  UNL     1     -63.049  28.745  -5.412  1.00  0.00     0.262 C 
HETATM    2  O1  UNL     1     -62.422  29.219  -6.577  1.00  0.00    -0.355 OA
HETATM    3  C7  UNL     1     -61.336  29.970  -6.091  1.00  0.00     0.165 C 
HETATM    4  C13 UNL     1     -60.819  29.188  -4.908  1.00  0.00     0.180 C 
HETATM    5  C14 UNL     1     -61.870  28.114  -4.734  1.00  0.00     0.198 C 
ENDROOT
BRANCH   1   6
HETATM    6  N5  UNL     1     -64.121  27.859  -5.738  1.00  0.00    -0.297 N 
HETATM    7  C3  UNL     1     -65.196  28.174  -6.479  1.00  0.00     0.142 A 
HETATM    8  N3  UNL     1     -65.593  29.298  -7.097  1.00  0.00    -0.336 N 
HETATM    9  C4  UNL     1     -65.976  27.019  -6.546  1.00  0.00     0.119 A 
HETATM   10  C2  UNL     1     -66.751  29.279  -7.773  1.00  0.00     0.183 A 
ATOM     11  H3  UNL     1     -65.028  30.146  -7.054  1.00  0.00     0.168 HD
HETATM   12  N2  UNL     1     -67.514  28.181  -7.849  1.00  0.00    -0.339 N 
HETATM   13  C1  UNL     1     -67.143  27.043  -7.243  1.00  0.00     0.148 A 
ATOM     14  H2  UNL     1     -68.388  28.211  -8.375  1.00  0.00     0.167 HD
HETATM   15  N1  UNL     1     -67.959  25.873  -7.327  1.00  0.00    -0.080 NA
HETATM   16  N4  UNL     1     -65.314  26.073  -5.834  1.00  0.00    -0.346 N 
HETATM   17  C5  UNL     1     -64.189  26.574  -5.340  1.00  0.00     0.188 A 
ATOM     18  H4  UNL     1     -65.636  25.115  -5.697  1.00  0.00     0.167 HD
ENDBRANCH   1   6
BRANCH   5  19
HETATM   19  O5  UNL     1     -62.081  27.809  -3.398  1.00  0.00    -0.388 OA
ATOM     20  H5  UNL     1     -62.494  26.966  -3.253  1.00  0.00     0.210 HD
ENDBRANCH   5  19
BRANCH   3  21
HETATM   21  C8  UNL     1     -60.269  29.998  -7.144  1.00  0.00     0.108 C 
BRANCH  21  22
HETATM   22  S1  UNL     1     -60.166  31.432  -8.163  1.00  0.00    -0.166 SA
BRANCH  22  23
HETATM   23  C9  UNL     1     -58.994  31.380  -9.486  1.00  0.00     0.076 C 
BRANCH  23  24
HETATM   24  C10 UNL     1     -58.396  30.023  -9.722  1.00  0.00     0.054 C 
BRANCH  24  25
HETATM   25  C11 UNL     1     -56.910  30.063  -9.635  1.00  0.00     0.284 C 
BRANCH  25  26
HETATM   26  N6  UNL     1     -56.374  31.379  -9.779  1.00  0.00    -0.065 N 
ATOM     27  H63 UNL     1     -57.107  32.083  -9.686  1.00  0.00     0.275 HD
ATOM     28  H62 UNL     1     -55.801  31.627  -8.973  1.00  0.00     0.275 HD
ATOM     29  H61 UNL     1     -55.854  31.507 -10.647  1.00  0.00     0.275 HD
ENDBRANCH  25  26
BRANCH  25  30
HETATM   30  C12 UNL     1     -56.243  29.143 -10.566  1.00  0.00     0.204 C 
HETATM   31  O2  UNL     1     -55.199  29.498 -11.146  1.00  0.00    -0.646 OA
HETATM   32  O3  UNL     1     -56.763  27.890 -10.804  1.00  0.00    -0.646 OA
ENDBRANCH  25  30
ENDBRANCH  24  25
ENDBRANCH  23  24
ENDBRANCH  22  23
ENDBRANCH  21  22
ENDBRANCH   3  21
BRANCH   4  33
HETATM   33  O4  UNL     1     -60.839  29.988  -3.749  1.00  0.00    -0.390 OA
ATOM     34  H4  UNL     1     -61.002  29.452  -2.983  1.00  0.00     0.210 HD
ENDBRANCH   4  33
TORSDOF 10
ENDMDL
