MODEL 3
REMARK VINA RESULT: -8.232365861      2.562      3.791
REMARK  5 active torsions:
REMARK  status: ('A' for Active; 'I' for Inactive)
REMARK    1  A    between atoms: C4_5  and  C5_6 
REMARK    2  A    between atoms: N3_19  and  C14_20 
REMARK    3  A    between atoms: C14_20  and  O1_21 
REMARK    4  A    between atoms: C14_20  and  C15_23 
REMARK    5  A    between atoms: C15_23  and  O2_24 
ROOT
HETATM    1  C5  UNL     1      35.493  12.627  10.715  1.00  0.00    -0.010 A 
HETATM    2  C6  UNL     1      34.127  12.291  10.571  1.00  0.00     0.039 A 
HETATM    3  C7  UNL     1      33.800  10.975  10.571  1.00  0.00     0.059 A 
HETATM    4 CL1  UNL     1      32.116  10.533  10.394  1.00  0.00    -0.082 Cl
HETATM    5  C8  UNL     1      34.747   9.973  10.708  1.00  0.00     0.083 A 
HETATM    6 CL2  UNL     1      34.297   8.300  10.704  1.00  0.00    -0.080 Cl
HETATM    7  C9  UNL     1      36.075  10.319  10.849  1.00  0.00     0.068 A 
HETATM    8  N2  UNL     1      37.179   9.579  11.013  1.00  0.00    -0.357 N 
ATOM      9  H2  UNL     1      37.199   8.560  11.048  1.00  0.00     0.166 HD
HETATM   10  C10 UNL     1      38.250  10.369  11.125  1.00  0.00     0.020 A 
HETATM   11  C11 UNL     1      37.824  11.674  11.029  1.00  0.00    -0.004 A 
HETATM   12  C12 UNL     1      36.432  11.653  10.851  1.00  0.00     0.013 A 
HETATM   13  C13 UNL     1      38.802  12.766  11.127  1.00  0.00     0.166 C 
HETATM   14  N3  UNL     1      40.119  12.340  11.636  1.00  0.00    -0.359 N 
HETATM   15  C16 UNL     1      40.169  11.117  12.355  1.00  0.00     0.131 C 
HETATM   16  C17 UNL     1      39.690  10.050  11.340  1.00  0.00     0.077 C 
ENDROOT
BRANCH   1  17
HETATM   17  C4  UNL     1      35.870  14.030  10.668  1.00  0.00    -0.009 A 
HETATM   18  C3  UNL     1      35.890  14.732  11.848  1.00  0.00     0.017 A 
HETATM   19  C2  UNL     1      36.191  16.068  11.825  1.00  0.00     0.046 A 
HETATM   20  C1  UNL     1      36.476  16.725  10.643  1.00  0.00     0.116 A 
HETATM   21  N1  UNL     1      36.790  18.114  10.610  1.00  0.00    -0.083 NA
HETATM   22  N4  UNL     1      36.447  16.001   9.493  1.00  0.00    -0.354 N 
HETATM   23  C18 UNL     1      36.154  14.690   9.492  1.00  0.00     0.101 A 
ATOM     24  H4  UNL     1      36.653  16.465   8.608  1.00  0.00     0.166 HD
ENDBRANCH   1  17
BRANCH  14  25
HETATM   25  C14 UNL     1      41.202  13.175  11.370  1.00  0.00     0.138 C 
BRANCH  25  26
HETATM   26  O1  UNL     1      41.754  13.787  12.395  1.00  0.00    -0.348 OA
ATOM     27  H1  UNL     1      41.178  14.275  12.971  1.00  0.00     0.219 HD
ENDBRANCH  25  26
BRANCH  25  28
HETATM   28  C15 UNL     1      41.817  13.471  10.098  1.00  0.00     0.247 C 
BRANCH  28  29
HETATM   29  O2  UNL     1      42.763  12.559   9.712  1.00  0.00    -0.393 OA
ATOM     30  H2  UNL     1      43.582  12.949   9.428  1.00  0.00     0.210 HD
ENDBRANCH  28  29
ENDBRANCH  25  28
ENDBRANCH  14  25
TORSDOF 5
ENDMDL
