MODEL 6
REMARK VINA RESULT: -7.952383349      1.835      2.356
REMARK  5 active torsions:
REMARK  status: ('A' for Active; 'I' for Inactive)
REMARK    1  A    between atoms: C4_5  and  C5_6 
REMARK    2  A    between atoms: N3_19  and  C14_20 
REMARK    3  A    between atoms: C14_20  and  O1_21 
REMARK    4  A    between atoms: C14_20  and  C15_23 
REMARK    5  A    between atoms: C15_23  and  O2_24 
ROOT
HETATM    1  C5  UNL     1      35.516  10.775  10.643  1.00  0.00    -0.010 A 
HETATM    2  C6  UNL     1      35.501   9.373  10.832  1.00  0.00     0.039 A 
HETATM    3  C7  UNL     1      36.681   8.764  11.108  1.00  0.00     0.059 A 
HETATM    4 CL1  UNL     1      36.690   7.030  11.345  1.00  0.00    -0.082 Cl
HETATM    5  C8  UNL     1      37.873   9.463  11.210  1.00  0.00     0.083 A 
HETATM    6 CL2  UNL     1      39.365   8.655  11.564  1.00  0.00    -0.080 Cl
HETATM    7  C9  UNL     1      37.868  10.830  11.025  1.00  0.00     0.068 A 
HETATM    8  N2  UNL     1      38.846  11.743  11.080  1.00  0.00    -0.357 N 
ATOM      9  H2  UNL     1      39.827  11.537  11.272  1.00  0.00     0.166 HD
HETATM   10  C10 UNL     1      38.352  12.962  10.847  1.00  0.00     0.020 A 
HETATM   11  C11 UNL     1      36.999  12.834  10.630  1.00  0.00    -0.004 A 
HETATM   12  C12 UNL     1      36.680  11.472  10.741  1.00  0.00     0.013 A 
HETATM   13  C13 UNL     1      36.192  14.030  10.354  1.00  0.00     0.166 C 
HETATM   14  N3  UNL     1      36.886  15.297  10.650  1.00  0.00    -0.359 N 
HETATM   15  C16 UNL     1      37.999  15.234  11.530  1.00  0.00     0.131 C 
HETATM   16  C17 UNL     1      39.006  14.300  10.817  1.00  0.00     0.077 C 
ENDROOT
BRANCH   1  17
HETATM   17  C4  UNL     1      34.271  11.439  10.298  1.00  0.00    -0.009 A 
HETATM   18  C3  UNL     1      34.013  11.679   8.970  1.00  0.00     0.017 A 
HETATM   19  C2  UNL     1      32.872  12.350   8.621  1.00  0.00     0.046 A 
HETATM   20  C1  UNL     1      31.973  12.791   9.574  1.00  0.00     0.116 A 
HETATM   21  N1  UNL     1      30.783  13.490   9.220  1.00  0.00    -0.083 NA
HETATM   22  N4  UNL     1      32.257  12.539  10.878  1.00  0.00    -0.354 N 
HETATM   23  C18 UNL     1      33.371  11.882  11.243  1.00  0.00     0.101 A 
ATOM     24  H4  UNL     1      31.608  12.855  11.599  1.00  0.00     0.166 HD
ENDBRANCH   1  17
BRANCH  14  25
HETATM   25  C14 UNL     1      36.392  16.448  10.042  1.00  0.00     0.138 C 
BRANCH  25  26
HETATM   26  O1  UNL     1      37.107  16.966   9.066  1.00  0.00    -0.348 OA
ATOM     27  H1  UNL     1      37.069  17.909   8.955  1.00  0.00     0.219 HD
ENDBRANCH  25  26
BRANCH  25  28
HETATM   28  C15 UNL     1      35.178  17.171  10.339  1.00  0.00     0.247 C 
BRANCH  28  29
HETATM   29  O2  UNL     1      34.096  16.768   9.603  1.00  0.00    -0.393 OA
ATOM     30  H2  UNL     1      34.309  16.508   8.714  1.00  0.00     0.210 HD
ENDBRANCH  28  29
ENDBRANCH  25  28
ENDBRANCH  14  25
TORSDOF 5
ENDMDL
