MODEL 5
REMARK VINA RESULT: -8.008863182      2.465      3.109
REMARK  5 active torsions:
REMARK  status: ('A' for Active; 'I' for Inactive)
REMARK    1  A    between atoms: C4_5  and  C5_6 
REMARK    2  A    between atoms: N3_19  and  C14_20 
REMARK    3  A    between atoms: C14_20  and  O1_21 
REMARK    4  A    between atoms: C14_20  and  C15_23 
REMARK    5  A    between atoms: C15_23  and  O2_24 
ROOT
HETATM    1  C5  UNL     1      33.607  10.422  10.590  1.00  0.00    -0.010 A 
HETATM    2  C6  UNL     1      33.575   9.014  10.732  1.00  0.00     0.039 A 
HETATM    3  C7  UNL     1      34.760   8.371  10.878  1.00  0.00     0.059 A 
HETATM    4 CL1  UNL     1      34.748   6.630  11.055  1.00  0.00    -0.082 Cl
HETATM    5  C8  UNL     1      35.973   9.040  10.894  1.00  0.00     0.083 A 
HETATM    6 CL2  UNL     1      37.470   8.189  11.083  1.00  0.00    -0.080 Cl
HETATM    7  C9  UNL     1      35.985  10.413  10.756  1.00  0.00     0.068 A 
HETATM    8  N2  UNL     1      36.986  11.302  10.753  1.00  0.00    -0.357 N 
ATOM      9  H2  UNL     1      37.975  11.069  10.847  1.00  0.00     0.166 HD
HETATM   10  C10 UNL     1      36.503  12.539  10.607  1.00  0.00     0.020 A 
HETATM   11  C11 UNL     1      35.133  12.447  10.511  1.00  0.00    -0.004 A 
HETATM   12  C12 UNL     1      34.791  11.090  10.605  1.00  0.00     0.013 A 
HETATM   13  C13 UNL     1      34.333  13.670  10.351  1.00  0.00     0.166 C 
HETATM   14  N3  UNL     1      35.083  14.910  10.624  1.00  0.00    -0.359 N 
HETATM   15  C16 UNL     1      36.269  14.792  11.397  1.00  0.00     0.131 C 
HETATM   16  C17 UNL     1      37.184  13.863  10.562  1.00  0.00     0.077 C 
ENDROOT
BRANCH   1  17
HETATM   17  C4  UNL     1      32.352  11.125  10.383  1.00  0.00    -0.009 A 
HETATM   18  C3  UNL     1      31.952  11.365   9.091  1.00  0.00     0.017 A 
HETATM   19  C2  UNL     1      30.801  12.071   8.869  1.00  0.00     0.046 A 
HETATM   20  C1  UNL     1      30.031  12.547   9.913  1.00  0.00     0.116 A 
HETATM   21  N1  UNL     1      28.831  13.282   9.691  1.00  0.00    -0.083 NA
HETATM   22  N4  UNL     1      30.454  12.292  11.179  1.00  0.00    -0.354 N 
HETATM   23  C18 UNL     1      31.581  11.602  11.421  1.00  0.00     0.101 A 
ATOM     24  H4  UNL     1      29.902  12.634  11.966  1.00  0.00     0.166 HD
ENDBRANCH   1  17
BRANCH  14  25
HETATM   25  C14 UNL     1      34.564  16.093  10.104  1.00  0.00     0.138 C 
BRANCH  25  26
HETATM   26  O1  UNL     1      35.424  17.033   9.773  1.00  0.00    -0.348 OA
ATOM     27  H1  UNL     1      35.177  17.616   9.065  1.00  0.00     0.219 HD
ENDBRANCH  25  26
BRANCH  25  28
HETATM   28  C15 UNL     1      33.183  16.442   9.871  1.00  0.00     0.247 C 
BRANCH  28  29
HETATM   29  O2  UNL     1      32.787  16.311   8.566  1.00  0.00    -0.393 OA
ATOM     30  H2  UNL     1      32.763  17.130   8.086  1.00  0.00     0.210 HD
ENDBRANCH  28  29
ENDBRANCH  25  28
ENDBRANCH  14  25
TORSDOF 5
ENDMDL
