MODEL 7
REMARK VINA RESULT: -7.842522652      2.749      5.220
REMARK  5 active torsions:
REMARK  status: ('A' for Active; 'I' for Inactive)
REMARK    1  A    between atoms: C4_5  and  C5_6 
REMARK    2  A    between atoms: N3_19  and  C14_20 
REMARK    3  A    between atoms: C14_20  and  O1_21 
REMARK    4  A    between atoms: C14_20  and  C15_23 
REMARK    5  A    between atoms: C15_23  and  O2_24 
ROOT
HETATM    1  C5  UNL     1      37.308  12.514  11.086  1.00  0.00    -0.010 A 
HETATM    2  C6  UNL     1      38.509  11.816  11.354  1.00  0.00     0.039 A 
HETATM    3  C7  UNL     1      38.466  10.461  11.332  1.00  0.00     0.059 A 
HETATM    4 CL1  UNL     1      39.938   9.573  11.662  1.00  0.00    -0.082 Cl
HETATM    5  C8  UNL     1      37.304   9.757  11.058  1.00  0.00     0.083 A 
HETATM    6 CL2  UNL     1      37.282   8.025  11.038  1.00  0.00    -0.080 Cl
HETATM    7  C9  UNL     1      36.143  10.454  10.797  1.00  0.00     0.068 A 
HETATM    8  N2  UNL     1      34.905  10.046  10.490  1.00  0.00    -0.357 N 
ATOM      9  H2  UNL     1      34.614   9.071  10.411  1.00  0.00     0.166 HD
HETATM   10  C10 UNL     1      34.106  11.099  10.302  1.00  0.00     0.020 A 
HETATM   11  C11 UNL     1      34.855  12.237  10.496  1.00  0.00    -0.004 A 
HETATM   12  C12 UNL     1      36.161  11.834  10.814  1.00  0.00     0.013 A 
HETATM   13  C13 UNL     1      34.225  13.556  10.345  1.00  0.00     0.166 C 
HETATM   14  N3  UNL     1      32.906  13.513   9.686  1.00  0.00    -0.359 N 
HETATM   15  C16 UNL     1      32.607  12.358   8.915  1.00  0.00     0.131 C 
HETATM   16  C17 UNL     1      32.666  11.189   9.928  1.00  0.00     0.077 C 
ENDROOT
BRANCH   1  17
HETATM   17  C4  UNL     1      37.321  13.965  11.152  1.00  0.00    -0.009 A 
HETATM   18  C3  UNL     1      37.681  14.660  10.024  1.00  0.00     0.017 A 
HETATM   19  C2  UNL     1      37.753  16.026  10.074  1.00  0.00     0.046 A 
HETATM   20  C1  UNL     1      37.470  16.722  11.234  1.00  0.00     0.116 A 
HETATM   21  N1  UNL     1      37.541  18.144  11.296  1.00  0.00    -0.083 NA
HETATM   22  N4  UNL     1      37.117  16.006  12.333  1.00  0.00    -0.354 N 
HETATM   23  C18 UNL     1      37.041  14.664  12.306  1.00  0.00     0.101 A 
ATOM     24  H4  UNL     1      36.904  16.498  13.201  1.00  0.00     0.166 HD
ENDBRANCH   1  17
BRANCH  14  25
HETATM   25  C14 UNL     1      32.067  14.607   9.875  1.00  0.00     0.138 C 
BRANCH  25  26
HETATM   26  O1  UNL     1      30.855  14.365  10.326  1.00  0.00    -0.348 OA
ATOM     27  H1  UNL     1      30.227  14.004   9.710  1.00  0.00     0.219 HD
ENDBRANCH  25  26
BRANCH  25  28
HETATM   28  C15 UNL     1      32.345  16.004   9.639  1.00  0.00     0.247 C 
BRANCH  28  29
HETATM   29  O2  UNL     1      32.604  16.307   8.329  1.00  0.00    -0.393 OA
ATOM     30  H2  UNL     1      32.224  17.129   8.041  1.00  0.00     0.210 HD
ENDBRANCH  28  29
ENDBRANCH  25  28
ENDBRANCH  14  25
TORSDOF 5
ENDMDL
