MODEL 8
REMARK VINA RESULT: -7.827320719      3.033      4.255
REMARK  5 active torsions:
REMARK  status: ('A' for Active; 'I' for Inactive)
REMARK    1  A    between atoms: C4_5  and  C5_6 
REMARK    2  A    between atoms: N3_19  and  C14_20 
REMARK    3  A    between atoms: C14_20  and  O1_21 
REMARK    4  A    between atoms: C14_20  and  C15_23 
REMARK    5  A    between atoms: C15_23  and  O2_24 
ROOT
HETATM    1  C5  UNL     1      37.512  12.978  11.021  1.00  0.00    -0.010 A 
HETATM    2  C6  UNL     1      36.806  11.756  10.926  1.00  0.00     0.039 A 
HETATM    3  C7  UNL     1      37.517  10.607  11.050  1.00  0.00     0.059 A 
HETATM    4 CL1  UNL     1      36.667   9.082  10.935  1.00  0.00    -0.082 Cl
HETATM    5  C8  UNL     1      38.886  10.600  11.264  1.00  0.00     0.083 A 
HETATM    6 CL2  UNL     1      39.766   9.115  11.418  1.00  0.00    -0.080 Cl
HETATM    7  C9  UNL     1      39.558  11.801  11.357  1.00  0.00     0.068 A 
HETATM    8  N2  UNL     1      40.848  12.090  11.573  1.00  0.00    -0.357 N 
ATOM      9  H2  UNL     1      41.588  11.398  11.699  1.00  0.00     0.166 HD
HETATM   10  C10 UNL     1      41.026  13.413  11.599  1.00  0.00     0.020 A 
HETATM   11  C11 UNL     1      39.802  14.007  11.390  1.00  0.00    -0.004 A 
HETATM   12  C12 UNL     1      38.856  12.983  11.233  1.00  0.00     0.013 A 
HETATM   13  C13 UNL     1      39.700  15.473  11.376  1.00  0.00     0.166 C 
HETATM   14  N3  UNL     1      40.895  16.157  11.904  1.00  0.00    -0.359 N 
HETATM   15  C16 UNL     1      41.763  15.395  12.731  1.00  0.00     0.131 C 
HETATM   16  C17 UNL     1      42.246  14.238  11.823  1.00  0.00     0.077 C 
ENDROOT
BRANCH   1  17
HETATM   17  C4  UNL     1      36.777  14.218  10.843  1.00  0.00    -0.009 A 
HETATM   18  C3  UNL     1      36.180  14.779  11.945  1.00  0.00     0.017 A 
HETATM   19  C2  UNL     1      35.437  15.919  11.796  1.00  0.00     0.046 A 
HETATM   20  C1  UNL     1      35.275  16.519  10.561  1.00  0.00     0.116 A 
HETATM   21  N1  UNL     1      34.504  17.706  10.396  1.00  0.00    -0.083 NA
HETATM   22  N4  UNL     1      35.878  15.939   9.491  1.00  0.00    -0.354 N 
HETATM   23  C18 UNL     1      36.611  14.820   9.615  1.00  0.00     0.101 A 
ATOM     24  H4  UNL     1      35.771  16.364   8.569  1.00  0.00     0.166 HD
ENDBRANCH   1  17
BRANCH  14  25
HETATM   25  C14 UNL     1      41.069  17.492  11.550  1.00  0.00     0.138 C 
BRANCH  25  26
HETATM   26  O1  UNL     1      40.247  18.369  12.086  1.00  0.00    -0.348 OA
ATOM     27  H1  UNL     1      39.721  18.890  11.491  1.00  0.00     0.219 HD
ENDBRANCH  25  26
BRANCH  25  28
HETATM   28  C15 UNL     1      42.048  18.064  10.656  1.00  0.00     0.247 C 
BRANCH  28  29
HETATM   29  O2  UNL     1      42.379  17.254   9.602  1.00  0.00    -0.393 OA
ATOM     30  H2  UNL     1      42.672  17.725   8.831  1.00  0.00     0.210 HD
ENDBRANCH  28  29
ENDBRANCH  25  28
ENDBRANCH  14  25
TORSDOF 5
ENDMDL
