MODEL 17
REMARK VINA RESULT: -9.530757475      3.096     12.038
REMARK  10 active torsions:
REMARK  status: ('A' for Active; 'I' for Inactive)
REMARK    1  A    between atoms: O1_2  and  C2_3 
REMARK    2  A    between atoms: C4_7  and  C5_8 
REMARK    3  A    between atoms: C7_11  and  C8_12 
REMARK       I    between atoms: C8_12  and  N2_14 
REMARK    4  A    between atoms: N2_14  and  C9_16 
REMARK    5  A    between atoms: C9_16  and  C10_17 
REMARK    6  A    between atoms: C10_17  and  O3_18 
REMARK    7  A    between atoms: C13_26  and  C14_27 
REMARK    8  A    between atoms: C14_27  and  C15_29 
REMARK       I    between atoms: C15_29  and  N5_31 
REMARK    9  A    between atoms: C18_34  and  C19_35 
REMARK   10  A    between atoms: C19_35  and  C21_38 
ROOT
HETATM    1  C19 UNL     1      56.642 -33.132  16.594  1.00  0.00     0.130 C 
HETATM    2  C20 UNL     1      56.686 -33.524  17.994  1.00  0.00     0.069 C 
HETATM    3  N6  UNL     1      56.713 -33.852  19.101  1.00  0.00    -0.197 NA
ENDROOT
BRANCH   1   4
HETATM    4  C18 UNL     1      55.354 -32.378  16.353  1.00  0.00     0.011 C 
HETATM    5  C17 UNL     1      54.510 -33.089  15.317  1.00  0.00     0.026 C 
HETATM    6  C16 UNL     1      53.236 -32.309  15.055  1.00  0.00     0.126 C 
HETATM    7  N5  UNL     1      52.628 -31.968  16.319  1.00  0.00    -0.345 N 
HETATM    8  C15 UNL     1      51.528 -31.080  16.443  1.00  0.00     0.294 C 
HETATM    9  C28 UNL     1      53.200 -32.571  17.499  1.00  0.00     0.126 C 
HETATM   10  O5  UNL     1      51.102 -30.882  17.632  1.00  0.00    -0.264 OA
HETATM   11  C27 UNL     1      54.619 -31.980  17.588  1.00  0.00     0.026 C 
BRANCH   8  12
HETATM   12  C14 UNL     1      50.934 -30.440  15.282  1.00  0.00     0.251 C 
HETATM   13  O4  UNL     1      51.476 -30.561  14.159  1.00  0.00    -0.281 OA
BRANCH  12  14
HETATM   14  C13 UNL     1      49.717 -29.661  15.375  1.00  0.00     0.051 A 
HETATM   15  C12 UNL     1      49.682 -28.516  16.198  1.00  0.00     0.105 A 
HETATM   16  N4  UNL     1      48.471 -27.970  16.017  1.00  0.00    -0.362 N 
HETATM   17  C11 UNL     1      47.745 -28.679  15.151  1.00  0.00     0.075 A 
ATOM     18  H4  UNL     1      48.147 -27.123  16.481  1.00  0.00     0.165 HD
HETATM   19  C4  UNL     1      46.463 -28.506  14.686  1.00  0.00     0.087 A 
HETATM   20  C29 UNL     1      48.524 -29.755  14.739  1.00  0.00     0.043 A 
HETATM   21  N1  UNL     1      45.980 -29.409  13.816  1.00  0.00    -0.359 N 
HETATM   22  C3  UNL     1      46.711 -30.458  13.402  1.00  0.00     0.126 A 
ATOM     23  H1  UNL     1      45.031 -29.295  13.459  1.00  0.00     0.165 HD
HETATM   24  C2  UNL     1      48.018 -30.653  13.865  1.00  0.00     0.097 A 
BRANCH  19  25
HETATM   25  C5  UNL     1      45.616 -27.362  15.124  1.00  0.00     0.069 A 
HETATM   26  C6  UNL     1      44.914 -27.405  16.318  1.00  0.00     0.084 A 
HETATM   27  S1  UNL     1      44.148 -25.881  16.322  1.00  0.00    -0.076 SA
HETATM   28  C7  UNL     1      44.746 -25.287  14.845  1.00  0.00     0.143 A 
HETATM   29  N3  UNL     1      45.501 -26.282  14.422  1.00  0.00    -0.344 N 
ATOM     30  H3  UNL     1      45.997 -26.198  13.535  1.00  0.00     0.167 HD
BRANCH  28  31
HETATM   31  C8  UNL     1      44.503 -23.996  14.185  1.00  0.00     0.275 C 
HETATM   32  O2  UNL     1      43.416 -23.428  14.423  1.00  0.00    -0.265 OA
HETATM   33  N2  UNL     1      45.436 -23.403  13.319  1.00  0.00    -0.353 N 
ATOM     34  H2  UNL     1      46.312 -23.899  13.152  1.00  0.00     0.162 HD
BRANCH  33  35
HETATM   35  C9  UNL     1      45.238 -22.139  12.651  1.00  0.00     0.149 C 
BRANCH  35  36
HETATM   36  C10 UNL     1      45.897 -22.214  11.291  1.00  0.00     0.183 C 
BRANCH  36  37
HETATM   37  O3  UNL     1      46.580 -20.989  11.111  1.00  0.00    -0.399 OA
ATOM     38  H3  UNL     1      47.500 -21.171  11.267  1.00  0.00     0.209 HD
ENDBRANCH  36  37
ENDBRANCH  35  36
ENDBRANCH  33  35
ENDBRANCH  28  31
ENDBRANCH  19  25
BRANCH  24  39
HETATM   39  O1  UNL     1      48.761 -31.743  13.437  1.00  0.00    -0.354 OA
HETATM   40  C1  UNL     1      49.121 -31.843  12.073  1.00  0.00     0.210 C 
ENDBRANCH  24  39
ENDBRANCH  12  14
ENDBRANCH   8  12
ENDBRANCH   1   4
BRANCH   1  41
HETATM   41  C21 UNL     1      56.916 -34.206  15.637  1.00  0.00    -0.040 A 
HETATM   42  C22 UNL     1      56.798 -34.082  14.275  1.00  0.00     0.008 A 
HETATM   43  C23 UNL     1      57.078 -35.140  13.407  1.00  0.00     0.001 A 
HETATM   44  C24 UNL     1      57.489 -36.358  13.896  1.00  0.00     0.000 A 
HETATM   45  C25 UNL     1      57.612 -36.500  15.249  1.00  0.00     0.001 A 
HETATM   46  C26 UNL     1      57.336 -35.459  16.106  1.00  0.00     0.008 A 
ENDBRANCH   1  41
TORSDOF 10
ENDMDL
