MODEL 3
REMARK VINA RESULT: -11.563234989      3.264     11.938
REMARK  10 active torsions:
REMARK  status: ('A' for Active; 'I' for Inactive)
REMARK    1  A    between atoms: O1_2  and  C2_3 
REMARK    2  A    between atoms: C4_7  and  C5_8 
REMARK    3  A    between atoms: C7_11  and  C8_12 
REMARK       I    between atoms: C8_12  and  N2_14 
REMARK    4  A    between atoms: N2_14  and  C9_16 
REMARK    5  A    between atoms: C9_16  and  C10_17 
REMARK    6  A    between atoms: C10_17  and  O3_18 
REMARK    7  A    between atoms: C13_26  and  C14_27 
REMARK    8  A    between atoms: C14_27  and  C15_29 
REMARK       I    between atoms: C15_29  and  N5_31 
REMARK    9  A    between atoms: C18_34  and  C19_35 
REMARK   10  A    between atoms: C19_35  and  C21_38 
ROOT
HETATM    1  C19 UNL     1      55.333 -32.215  17.587  1.00  0.00     0.130 C 
HETATM    2  C20 UNL     1      55.075 -32.760  18.910  1.00  0.00     0.069 C 
HETATM    3  N6  UNL     1      54.867 -33.210  19.954  1.00  0.00    -0.197 NA
ENDROOT
BRANCH   1   4
HETATM    4  C18 UNL     1      54.039 -31.649  17.048  1.00  0.00     0.011 C 
HETATM    5  C17 UNL     1      53.444 -32.581  16.014  1.00  0.00     0.026 C 
HETATM    6  C16 UNL     1      52.165 -31.991  15.452  1.00  0.00     0.126 C 
HETATM    7  N5  UNL     1      51.330 -31.556  16.546  1.00  0.00    -0.345 N 
HETATM    8  C15 UNL     1      50.149 -30.789  16.371  1.00  0.00     0.294 C 
HETATM    9  C28 UNL     1      51.752 -31.930  17.874  1.00  0.00     0.126 C 
HETATM   10  O5  UNL     1      49.517 -30.485  17.441  1.00  0.00    -0.264 OA
HETATM   11  C27 UNL     1      53.079 -31.176  18.085  1.00  0.00     0.026 C 
BRANCH   8  12
HETATM   12  C14 UNL     1      49.697 -30.380  15.053  1.00  0.00     0.251 C 
HETATM   13  O4  UNL     1      50.145 -30.957  14.034  1.00  0.00    -0.281 OA
BRANCH  12  14
HETATM   14  C13 UNL     1      48.731 -29.317  14.869  1.00  0.00     0.051 A 
HETATM   15  C12 UNL     1      49.015 -28.023  15.351  1.00  0.00     0.105 A 
HETATM   16  N4  UNL     1      47.987 -27.253  14.967  1.00  0.00    -0.362 N 
HETATM   17  C11 UNL     1      47.082 -27.958  14.285  1.00  0.00     0.075 A 
ATOM     18  H4  UNL     1      47.907 -26.257  15.169  1.00  0.00     0.165 HD
HETATM   19  C4  UNL     1      45.883 -27.593  13.723  1.00  0.00     0.087 A 
HETATM   20  C29 UNL     1      47.543 -29.269  14.218  1.00  0.00     0.043 A 
HETATM   21  N1  UNL     1      45.162 -28.542  13.102  1.00  0.00    -0.359 N 
HETATM   22  C3  UNL     1      45.582 -29.816  13.024  1.00  0.00     0.126 A 
ATOM     23  H1  UNL     1      44.269 -28.288  12.679  1.00  0.00     0.165 HD
HETATM   24  C2  UNL     1      46.801 -30.208  13.592  1.00  0.00     0.097 A 
BRANCH  19  25
HETATM   25  C5  UNL     1      45.376 -26.195  13.793  1.00  0.00     0.069 A 
HETATM   26  C6  UNL     1      44.264 -25.871  14.556  1.00  0.00     0.084 A 
HETATM   27  S1  UNL     1      44.140 -24.191  14.287  1.00  0.00    -0.076 SA
HETATM   28  C7  UNL     1      45.471 -23.996  13.247  1.00  0.00     0.143 A 
HETATM   29  N3  UNL     1      45.945 -25.223  13.157  1.00  0.00    -0.344 N 
ATOM     30  H3  UNL     1      46.767 -25.407  12.581  1.00  0.00     0.167 HD
BRANCH  28  31
HETATM   31  C8  UNL     1      45.987 -22.780  12.602  1.00  0.00     0.275 C 
HETATM   32  O2  UNL     1      47.154 -22.433  12.885  1.00  0.00    -0.265 OA
HETATM   33  N2  UNL     1      45.223 -22.021  11.701  1.00  0.00    -0.353 N 
ATOM     34  H2  UNL     1      44.275 -22.338  11.495  1.00  0.00     0.162 HD
BRANCH  33  35
HETATM   35  C9  UNL     1      45.689 -20.822  11.046  1.00  0.00     0.149 C 
BRANCH  35  36
HETATM   36  C10 UNL     1      44.712 -19.707  11.346  1.00  0.00     0.183 C 
BRANCH  36  37
HETATM   37  O3  UNL     1      43.543 -20.325  11.845  1.00  0.00    -0.399 OA
ATOM     38  H3  UNL     1      43.230 -19.773  12.553  1.00  0.00     0.209 HD
ENDBRANCH  36  37
ENDBRANCH  35  36
ENDBRANCH  33  35
ENDBRANCH  28  31
ENDBRANCH  19  25
BRANCH  24  39
HETATM   39  O1  UNL     1      47.222 -31.527  13.511  1.00  0.00    -0.354 OA
HETATM   40  C1  UNL     1      47.470 -32.099  12.241  1.00  0.00     0.210 C 
ENDBRANCH  24  39
ENDBRANCH  12  14
ENDBRANCH   8  12
ENDBRANCH   1   4
BRANCH   1  41
HETATM   41  C21 UNL     1      56.044 -33.109  16.671  1.00  0.00    -0.040 A 
HETATM   42  C22 UNL     1      55.747 -33.254  15.339  1.00  0.00     0.008 A 
HETATM   43  C23 UNL     1      56.463 -34.119  14.509  1.00  0.00     0.001 A 
HETATM   44  C24 UNL     1      57.506 -34.865  15.008  1.00  0.00     0.000 A 
HETATM   45  C25 UNL     1      57.816 -34.735  16.332  1.00  0.00     0.001 A 
HETATM   46  C26 UNL     1      57.111 -33.882  17.151  1.00  0.00     0.008 A 
ENDBRANCH   1  41
TORSDOF 10
ENDMDL
