MODEL 7
REMARK VINA RESULT: -10.935589526      2.013      3.532
REMARK  10 active torsions:
REMARK  status: ('A' for Active; 'I' for Inactive)
REMARK    1  A    between atoms: O1_2  and  C2_3 
REMARK    2  A    between atoms: C4_7  and  C5_8 
REMARK    3  A    between atoms: C7_11  and  C8_12 
REMARK       I    between atoms: C8_12  and  N2_14 
REMARK    4  A    between atoms: N2_14  and  C9_16 
REMARK    5  A    between atoms: C9_16  and  C10_17 
REMARK    6  A    between atoms: C10_17  and  O3_18 
REMARK    7  A    between atoms: C13_26  and  C14_27 
REMARK    8  A    between atoms: C14_27  and  C15_29 
REMARK       I    between atoms: C15_29  and  N5_31 
REMARK    9  A    between atoms: C18_34  and  C19_35 
REMARK   10  A    between atoms: C19_35  and  C21_38 
ROOT
HETATM    1  C19 UNL     1      45.741 -25.069  14.242  1.00  0.00     0.130 C 
HETATM    2  C20 UNL     1      45.672 -24.281  13.022  1.00  0.00     0.069 C 
HETATM    3  N6  UNL     1      45.598 -23.663  12.048  1.00  0.00    -0.197 NA
ENDROOT
BRANCH   1   4
HETATM    4  C18 UNL     1      46.442 -26.371  13.925  1.00  0.00     0.011 C 
HETATM    5  C17 UNL     1      45.442 -27.502  13.831  1.00  0.00     0.026 C 
HETATM    6  C16 UNL     1      46.154 -28.810  13.549  1.00  0.00     0.126 C 
HETATM    7  N5  UNL     1      47.075 -28.614  12.453  1.00  0.00    -0.345 N 
HETATM    8  C15 UNL     1      48.036 -29.581  12.057  1.00  0.00     0.294 C 
HETATM    9  C28 UNL     1      46.992 -27.356  11.753  1.00  0.00     0.126 C 
HETATM   10  O5  UNL     1      48.775 -29.258  11.065  1.00  0.00    -0.264 OA
HETATM   11  C27 UNL     1      47.413 -26.303  12.796  1.00  0.00     0.026 C 
BRANCH   8  12
HETATM   12  C14 UNL     1      48.161 -30.854  12.745  1.00  0.00     0.251 C 
HETATM   13  O4  UNL     1      47.254 -31.712  12.638  1.00  0.00    -0.281 OA
BRANCH  12  14
HETATM   14  C13 UNL     1      49.314 -31.175  13.559  1.00  0.00     0.051 A 
HETATM   15  C12 UNL     1      50.395 -31.881  12.992  1.00  0.00     0.105 A 
HETATM   16  N4  UNL     1      51.329 -31.956  13.951  1.00  0.00    -0.362 N 
HETATM   17  C11 UNL     1      50.922 -31.357  15.072  1.00  0.00     0.075 A 
ATOM     18  H4  UNL     1      52.234 -32.412  13.839  1.00  0.00     0.165 HD
HETATM   19  C4  UNL     1      51.532 -31.207  16.294  1.00  0.00     0.087 A 
HETATM   20  C29 UNL     1      49.644 -30.860  14.836  1.00  0.00     0.043 A 
HETATM   21  N1  UNL     1      50.858 -30.562  17.261  1.00  0.00    -0.359 N 
HETATM   22  C3  UNL     1      49.622 -30.072  17.061  1.00  0.00     0.126 A 
ATOM     23  H1  UNL     1      51.297 -30.440  18.174  1.00  0.00     0.165 HD
HETATM   24  C2  UNL     1      48.983 -30.217  15.823  1.00  0.00     0.097 A 
BRANCH  19  25
HETATM   25  C5  UNL     1      52.897 -31.740  16.561  1.00  0.00     0.069 A 
HETATM   26  C6  UNL     1      53.463 -31.663  17.825  1.00  0.00     0.084 A 
HETATM   27  S1  UNL     1      54.976 -32.406  17.569  1.00  0.00    -0.076 SA
HETATM   28  C7  UNL     1      54.813 -32.764  15.915  1.00  0.00     0.143 A 
HETATM   29  N3  UNL     1      53.611 -32.299  15.639  1.00  0.00    -0.344 N 
ATOM     30  H3  UNL     1      53.241 -32.381  14.692  1.00  0.00     0.167 HD
BRANCH  28  31
HETATM   31  C8  UNL     1      55.755 -33.427  15.001  1.00  0.00     0.275 C 
HETATM   32  O2  UNL     1      56.774 -32.786  14.667  1.00  0.00    -0.265 OA
HETATM   33  N2  UNL     1      55.542 -34.725  14.508  1.00  0.00    -0.353 N 
ATOM     34  H2  UNL     1      54.698 -35.214  14.805  1.00  0.00     0.162 HD
BRANCH  33  35
HETATM   35  C9  UNL     1      56.439 -35.411  13.609  1.00  0.00     0.149 C 
BRANCH  35  36
HETATM   36  C10 UNL     1      56.582 -36.841  14.083  1.00  0.00     0.183 C 
BRANCH  36  37
HETATM   37  O3  UNL     1      55.296 -37.255  14.498  1.00  0.00    -0.399 OA
ATOM     38  H3  UNL     1      55.344 -38.195  14.622  1.00  0.00     0.209 HD
ENDBRANCH  36  37
ENDBRANCH  35  36
ENDBRANCH  33  35
ENDBRANCH  28  31
ENDBRANCH  19  25
BRANCH  24  39
HETATM   39  O1  UNL     1      47.705 -29.715  15.629  1.00  0.00    -0.354 OA
HETATM   40  C1  UNL     1      47.177 -28.787  16.557  1.00  0.00     0.210 C 
ENDBRANCH  24  39
ENDBRANCH  12  14
ENDBRANCH   8  12
ENDBRANCH   1   4
BRANCH   1  41
HETATM   41  C21 UNL     1      44.477 -25.210  14.966  1.00  0.00    -0.040 A 
HETATM   42  C22 UNL     1      43.277 -24.694  14.544  1.00  0.00     0.008 A 
HETATM   43  C23 UNL     1      42.098 -24.863  15.273  1.00  0.00     0.001 A 
HETATM   44  C24 UNL     1      42.102 -25.565  16.457  1.00  0.00     0.000 A 
HETATM   45  C25 UNL     1      43.286 -26.085  16.893  1.00  0.00     0.001 A 
HETATM   46  C26 UNL     1      44.449 -25.919  16.175  1.00  0.00     0.008 A 
ENDBRANCH   1  41
TORSDOF 10
ENDMDL
