MODEL 6
REMARK VINA RESULT: -11.293357917      3.415     11.797
REMARK  10 active torsions:
REMARK  status: ('A' for Active; 'I' for Inactive)
REMARK    1  A    between atoms: O1_2  and  C2_3 
REMARK    2  A    between atoms: C4_7  and  C5_8 
REMARK    3  A    between atoms: C7_11  and  C8_12 
REMARK       I    between atoms: C8_12  and  N2_14 
REMARK    4  A    between atoms: N2_14  and  C9_16 
REMARK    5  A    between atoms: C9_16  and  C10_17 
REMARK    6  A    between atoms: C10_17  and  O3_18 
REMARK    7  A    between atoms: C13_26  and  C14_27 
REMARK    8  A    between atoms: C14_27  and  C15_29 
REMARK       I    between atoms: C15_29  and  N5_31 
REMARK    9  A    between atoms: C18_34  and  C19_35 
REMARK   10  A    between atoms: C19_35  and  C21_38 
ROOT
HETATM    1  C19 UNL     1      55.232 -32.137  17.796  1.00  0.00     0.130 C 
HETATM    2  C20 UNL     1      54.843 -32.680  19.088  1.00  0.00     0.069 C 
HETATM    3  N6  UNL     1      54.532 -33.129  20.106  1.00  0.00    -0.197 NA
ENDROOT
BRANCH   1   4
HETATM    4  C18 UNL     1      53.993 -31.602  17.115  1.00  0.00     0.011 C 
HETATM    5  C17 UNL     1      53.467 -32.602  16.108  1.00  0.00     0.026 C 
HETATM    6  C16 UNL     1      52.246 -32.044  15.404  1.00  0.00     0.126 C 
HETATM    7  N5  UNL     1      51.333 -31.522  16.394  1.00  0.00    -0.345 N 
HETATM    8  C15 UNL     1      50.181 -30.759  16.070  1.00  0.00     0.294 C 
HETATM    9  C28 UNL     1      51.644 -31.801  17.775  1.00  0.00     0.126 C 
HETATM   10  O5  UNL     1      49.471 -30.372  17.061  1.00  0.00    -0.264 OA
HETATM   11  C27 UNL     1      52.961 -31.045  18.036  1.00  0.00     0.026 C 
BRANCH   8  12
HETATM   12  C14 UNL     1      49.841 -30.445  14.693  1.00  0.00     0.251 C 
HETATM   13  O4  UNL     1      50.260 -31.175  13.766  1.00  0.00    -0.281 OA
BRANCH  12  14
HETATM   14  C13 UNL     1      49.019 -29.304  14.349  1.00  0.00     0.051 A 
HETATM   15  C12 UNL     1      48.850 -28.258  15.278  1.00  0.00     0.105 A 
HETATM   16  N4  UNL     1      48.117 -27.325  14.653  1.00  0.00    -0.362 N 
HETATM   17  C11 UNL     1      47.812 -27.701  13.410  1.00  0.00     0.075 A 
ATOM     18  H4  UNL     1      47.830 -26.442  15.073  1.00  0.00     0.165 HD
HETATM   19  C4  UNL     1      47.078 -27.081  12.428  1.00  0.00     0.087 A 
HETATM   20  C29 UNL     1      48.377 -28.956  13.206  1.00  0.00     0.043 A 
HETATM   21  N1  UNL     1      46.919 -27.722  11.258  1.00  0.00    -0.359 N 
HETATM   22  C3  UNL     1      47.453 -28.935  11.034  1.00  0.00     0.126 A 
ATOM     23  H1  UNL     1      46.378 -27.275  10.517  1.00  0.00     0.165 HD
HETATM   24  C2  UNL     1      48.203 -29.585  12.023  1.00  0.00     0.097 A 
BRANCH  19  25
HETATM   25  C5  UNL     1      46.463 -25.740  12.636  1.00  0.00     0.069 A 
HETATM   26  C6  UNL     1      46.920 -24.626  11.948  1.00  0.00     0.084 A 
HETATM   27  S1  UNL     1      45.889 -23.407  12.545  1.00  0.00    -0.076 SA
HETATM   28  C7  UNL     1      44.958 -24.352  13.609  1.00  0.00     0.143 A 
HETATM   29  N3  UNL     1      45.480 -25.553  13.455  1.00  0.00    -0.344 N 
ATOM     30  H3  UNL     1      45.106 -26.339  13.986  1.00  0.00     0.167 HD
BRANCH  28  31
HETATM   31  C8  UNL     1      43.845 -23.958  14.486  1.00  0.00     0.275 C 
HETATM   32  O2  UNL     1      43.671 -22.735  14.674  1.00  0.00    -0.265 OA
HETATM   33  N2  UNL     1      42.999 -24.896  15.099  1.00  0.00    -0.353 N 
ATOM     34  H2  UNL     1      43.175 -25.885  14.919  1.00  0.00     0.162 HD
BRANCH  33  35
HETATM   35  C9  UNL     1      41.897 -24.554  15.966  1.00  0.00     0.149 C 
BRANCH  35  36
HETATM   36  C10 UNL     1      42.453 -24.239  17.338  1.00  0.00     0.183 C 
BRANCH  36  37
HETATM   37  O3  UNL     1      42.244 -22.856  17.545  1.00  0.00    -0.399 OA
ATOM     38  H3  UNL     1      42.781 -22.613  18.290  1.00  0.00     0.209 HD
ENDBRANCH  36  37
ENDBRANCH  35  36
ENDBRANCH  33  35
ENDBRANCH  28  31
ENDBRANCH  19  25
BRANCH  24  39
HETATM   39  O1  UNL     1      48.743 -30.839  11.785  1.00  0.00    -0.354 OA
HETATM   40  C1  UNL     1      47.926 -31.985  11.934  1.00  0.00     0.210 C 
ENDBRANCH  24  39
ENDBRANCH  12  14
ENDBRANCH   8  12
ENDBRANCH   1   4
BRANCH   1  41
HETATM   41  C21 UNL     1      56.055 -33.022  16.970  1.00  0.00    -0.040 A 
HETATM   42  C22 UNL     1      55.988 -33.093  15.601  1.00  0.00     0.008 A 
HETATM   43  C23 UNL     1      56.803 -33.953  14.861  1.00  0.00     0.001 A 
HETATM   44  C24 UNL     1      57.714 -34.768  15.491  1.00  0.00     0.000 A 
HETATM   45  C25 UNL     1      57.795 -34.712  16.853  1.00  0.00     0.001 A 
HETATM   46  C26 UNL     1      56.993 -33.865  17.583  1.00  0.00     0.008 A 
ENDBRANCH   1  41
TORSDOF 10
ENDMDL
