MODEL 11
REMARK VINA RESULT: -10.295537893      2.144      3.830
REMARK  10 active torsions:
REMARK  status: ('A' for Active; 'I' for Inactive)
REMARK    1  A    between atoms: O1_2  and  C2_3 
REMARK    2  A    between atoms: C4_7  and  C5_8 
REMARK    3  A    between atoms: C7_11  and  C8_12 
REMARK       I    between atoms: C8_12  and  N2_14 
REMARK    4  A    between atoms: N2_14  and  C9_16 
REMARK    5  A    between atoms: C9_16  and  C10_17 
REMARK    6  A    between atoms: C10_17  and  O3_18 
REMARK    7  A    between atoms: C13_26  and  C14_27 
REMARK    8  A    between atoms: C14_27  and  C15_29 
REMARK       I    between atoms: C15_29  and  N5_31 
REMARK    9  A    between atoms: C18_34  and  C19_35 
REMARK   10  A    between atoms: C19_35  and  C21_38 
ROOT
HETATM    1  C19 UNL     1      45.581 -24.970  14.287  1.00  0.00     0.130 C 
HETATM    2  C20 UNL     1      45.529 -24.124  13.105  1.00  0.00     0.069 C 
HETATM    3  N6  UNL     1      45.470 -23.459  12.162  1.00  0.00    -0.197 NA
ENDROOT
BRANCH   1   4
HETATM    4  C18 UNL     1      46.262 -26.266  13.912  1.00  0.00     0.011 C 
HETATM    5  C17 UNL     1      47.618 -26.364  14.577  1.00  0.00     0.026 C 
HETATM    6  C16 UNL     1      48.310 -27.650  14.169  1.00  0.00     0.126 C 
HETATM    7  N5  UNL     1      47.386 -28.749  14.327  1.00  0.00    -0.345 N 
HETATM    8  C15 UNL     1      47.646 -30.063  13.857  1.00  0.00     0.294 C 
HETATM    9  C28 UNL     1      46.140 -28.459  14.993  1.00  0.00     0.126 C 
HETATM   10  O5  UNL     1      46.729 -30.926  14.078  1.00  0.00    -0.264 OA
HETATM   11  C27 UNL     1      45.413 -27.484  14.048  1.00  0.00     0.026 C 
BRANCH   8  12
HETATM   12  C14 UNL     1      48.882 -30.393  13.169  1.00  0.00     0.251 C 
HETATM   13  O4  UNL     1      48.966 -30.237  11.928  1.00  0.00    -0.281 OA
BRANCH  12  14
HETATM   14  C13 UNL     1      50.041 -30.898  13.875  1.00  0.00     0.051 A 
HETATM   15  C12 UNL     1      51.117 -31.448  13.148  1.00  0.00     0.105 A 
HETATM   16  N4  UNL     1      52.058 -31.749  14.055  1.00  0.00    -0.362 N 
HETATM   17  C11 UNL     1      51.659 -31.435  15.289  1.00  0.00     0.075 A 
ATOM     18  H4  UNL     1      52.961 -32.164  13.831  1.00  0.00     0.165 HD
HETATM   19  C4  UNL     1      52.278 -31.580  16.507  1.00  0.00     0.087 A 
HETATM   20  C29 UNL     1      50.380 -30.897  15.187  1.00  0.00     0.043 A 
HETATM   21  N1  UNL     1      51.611 -31.184  17.605  1.00  0.00    -0.359 N 
HETATM   22  C3  UNL     1      50.375 -30.662  17.536  1.00  0.00     0.126 A 
ATOM     23  H1  UNL     1      52.057 -31.284  18.517  1.00  0.00     0.165 HD
HETATM   24  C2  UNL     1      49.727 -30.507  16.304  1.00  0.00     0.097 A 
BRANCH  19  25
HETATM   25  C5  UNL     1      53.644 -32.161  16.630  1.00  0.00     0.069 A 
HETATM   26  C6  UNL     1      54.344 -32.102  17.825  1.00  0.00     0.084 A 
HETATM   27  S1  UNL     1      55.795 -32.899  17.413  1.00  0.00    -0.076 SA
HETATM   28  C7  UNL     1      55.443 -33.254  15.788  1.00  0.00     0.143 A 
HETATM   29  N3  UNL     1      54.235 -32.747  15.640  1.00  0.00    -0.344 N 
ATOM     30  H3  UNL     1      53.763 -32.817  14.738  1.00  0.00     0.167 HD
BRANCH  28  31
HETATM   31  C8  UNL     1      56.258 -33.951  14.782  1.00  0.00     0.275 C 
HETATM   32  O2  UNL     1      57.323 -33.402  14.428  1.00  0.00    -0.265 OA
HETATM   33  N2  UNL     1      55.878 -35.183  14.225  1.00  0.00    -0.353 N 
ATOM     34  H2  UNL     1      55.001 -35.598  14.541  1.00  0.00     0.162 HD
BRANCH  33  35
HETATM   35  C9  UNL     1      56.646 -35.900  13.236  1.00  0.00     0.149 C 
BRANCH  35  36
HETATM   36  C10 UNL     1      56.038 -37.276  13.069  1.00  0.00     0.183 C 
BRANCH  36  37
HETATM   37  O3  UNL     1      55.388 -37.574  14.288  1.00  0.00    -0.399 OA
ATOM     38  H3  UNL     1      55.257 -36.745  14.732  1.00  0.00     0.209 HD
ENDBRANCH  36  37
ENDBRANCH  35  36
ENDBRANCH  33  35
ENDBRANCH  28  31
ENDBRANCH  19  25
BRANCH  24  39
HETATM   39  O1  UNL     1      48.449 -29.974  16.244  1.00  0.00    -0.354 OA
HETATM   40  C1  UNL     1      48.016 -29.096  17.266  1.00  0.00     0.210 C 
ENDBRANCH  24  39
ENDBRANCH  12  14
ENDBRANCH   8  12
ENDBRANCH   1   4
BRANCH   1  41
HETATM   41  C21 UNL     1      44.312 -25.123  15.001  1.00  0.00    -0.040 A 
HETATM   42  C22 UNL     1      43.090 -24.750  14.501  1.00  0.00     0.008 A 
HETATM   43  C23 UNL     1      41.908 -24.924  15.224  1.00  0.00     0.001 A 
HETATM   44  C24 UNL     1      41.931 -25.487  16.480  1.00  0.00     0.000 A 
HETATM   45  C25 UNL     1      43.139 -25.864  16.994  1.00  0.00     0.001 A 
HETATM   46  C26 UNL     1      44.305 -25.692  16.282  1.00  0.00     0.008 A 
ENDBRANCH   1  41
TORSDOF 10
ENDMDL
