MODEL 3
REMARK VINA RESULT: -7.574348561      3.823      6.856
REMARK  10 active torsions:
REMARK  status: ('A' for Active; 'I' for Inactive)
REMARK    1  A    between atoms: N4_17  and  C9_18 
REMARK    2  A    between atoms: C9_18  and  C10_19 
REMARK    3  A    between atoms: C10_19  and  O3_20 
REMARK    4  A    between atoms: C10_19  and  C11_22 
REMARK    5  A    between atoms: C11_22  and  O4_23 
REMARK    6  A    between atoms: C11_22  and  C12_25 
REMARK    7  A    between atoms: C12_25  and  O5_26 
REMARK    8  A    between atoms: C12_25  and  C13_28 
REMARK    9  A    between atoms: C13_28  and  O6_29 
REMARK   10  A    between atoms: O6_29  and  P1_30 
ROOT
HETATM    1  C1  UNL     1     -25.539  28.152  27.411  1.00  0.00     0.049 C 
HETATM    2  C2  UNL     1     -25.442  28.046  28.887  1.00  0.00    -0.054 A 
HETATM    3  C3  UNL     1     -24.246  27.738  29.498  1.00  0.00     0.039 A 
HETATM    4  C4  UNL     1     -24.128  27.633  30.876  1.00  0.00     0.060 A 
HETATM    5  N1  UNL     1     -22.933  27.334  31.416  1.00  0.00    -0.347 N 
ATOM      6  H1  UNL     1     -22.128  27.184  30.808  1.00  0.00     0.166 HD
HETATM    7  C5  UNL     1     -22.789  27.232  32.743  1.00  0.00     0.146 A 
HETATM    8  C6  UNL     1     -21.568  26.924  33.356  1.00  0.00     0.280 A 
HETATM    9  O1  UNL     1     -20.582  26.740  32.620  1.00  0.00    -0.265 OA
HETATM   10  N2  UNL     1     -21.496  26.837  34.707  1.00  0.00    -0.273 N 
ATOM     11  H2  UNL     1     -20.609  26.612  35.157  1.00  0.00     0.173 HD
HETATM   12  C7  UNL     1     -22.595  27.046  35.454  1.00  0.00     0.328 A 
HETATM   13  O2  UNL     1     -22.459  26.951  36.702  1.00  0.00    -0.247 OA
HETATM   14  N3  UNL     1     -23.805  27.349  34.899  1.00  0.00    -0.292 N 
ATOM     15  H3  UNL     1     -24.610  27.499  35.507  1.00  0.00     0.172 HD
HETATM   16  C8  UNL     1     -23.957  27.453  33.570  1.00  0.00     0.145 A 
HETATM   17  N4  UNL     1     -25.152  27.754  32.976  1.00  0.00    -0.327 N 
HETATM   18  C14 UNL     1     -25.279  27.853  31.642  1.00  0.00     0.063 A 
HETATM   19  C15 UNL     1     -26.481  28.163  31.038  1.00  0.00     0.039 A 
HETATM   20  C16 UNL     1     -26.565  28.261  29.662  1.00  0.00    -0.054 A 
HETATM   21  C17 UNL     1     -27.849  28.593  28.996  1.00  0.00     0.049 C 
ENDROOT
BRANCH  17  22
HETATM   22  C9  UNL     1     -26.287  27.966  33.848  1.00  0.00     0.165 C 
BRANCH  22  23
HETATM   23  C10 UNL     1     -26.319  29.455  34.219  1.00  0.00     0.167 C 
BRANCH  23  24
HETATM   24  O3  UNL     1     -26.277  29.694  35.565  1.00  0.00    -0.391 OA
ATOM     25  H3  UNL     1     -25.948  30.555  35.794  1.00  0.00     0.210 HD
ENDBRANCH  23  24
BRANCH  23  26
HETATM   26  C11 UNL     1     -27.362  30.218  33.537  1.00  0.00     0.179 C 
BRANCH  26  27
HETATM   27  O4  UNL     1     -26.805  31.303  32.855  1.00  0.00    -0.390 OA
ATOM     28  H4  UNL     1     -27.307  32.092  33.022  1.00  0.00     0.210 HD
ENDBRANCH  26  27
BRANCH  26  29
HETATM   29  C12 UNL     1     -28.611  30.616  34.189  1.00  0.00     0.173 C 
BRANCH  29  30
HETATM   30  O5  UNL     1     -29.106  29.398  34.788  1.00  0.00    -0.391 OA
ATOM     31  H5  UNL     1     -29.638  29.694  35.517  1.00  0.00     0.210 HD
ENDBRANCH  29  30
BRANCH  29  32
HETATM   32  C13 UNL     1     -29.762  30.992  33.262  1.00  0.00     0.217 C 
BRANCH  32  33
HETATM   33  O6  UNL     1     -29.834  32.415  33.183  1.00  0.00    -0.280 OA
BRANCH  33  34
HETATM   34  P1  UNL     1     -29.377  32.927  31.647  1.00  0.00     0.422 P 
HETATM   35  O7  UNL     1     -28.216  33.856  31.778  1.00  0.00    -0.617 OA
HETATM   36  O8  UNL     1     -30.630  33.728  30.848  1.00  0.00    -0.617 OA
HETATM   37  O9  UNL     1     -28.894  31.620  30.674  1.00  0.00    -0.617 OA
ENDBRANCH  33  34
ENDBRANCH  32  33
ENDBRANCH  29  32
ENDBRANCH  26  29
ENDBRANCH  23  26
ENDBRANCH  22  23
ENDBRANCH  17  22
TORSDOF 10
ENDMDL
