MODEL 2
REMARK VINA RESULT: -7.593485565      1.439      1.697
REMARK  10 active torsions:
REMARK  status: ('A' for Active; 'I' for Inactive)
REMARK    1  A    between atoms: N4_17  and  C9_18 
REMARK    2  A    between atoms: C9_18  and  C10_19 
REMARK    3  A    between atoms: C10_19  and  O3_20 
REMARK    4  A    between atoms: C10_19  and  C11_22 
REMARK    5  A    between atoms: C11_22  and  O4_23 
REMARK    6  A    between atoms: C11_22  and  C12_25 
REMARK    7  A    between atoms: C12_25  and  O5_26 
REMARK    8  A    between atoms: C12_25  and  C13_28 
REMARK    9  A    between atoms: C13_28  and  O6_29 
REMARK   10  A    between atoms: O6_29  and  P1_30 
ROOT
HETATM    1  C1  UNL     1     -23.678  28.033  34.835  1.00  0.00     0.049 C 
HETATM    2  C2  UNL     1     -25.048  28.492  34.505  1.00  0.00    -0.054 A 
HETATM    3  C3  UNL     1     -25.432  28.693  33.197  1.00  0.00     0.039 A 
HETATM    4  C4  UNL     1     -26.708  29.122  32.861  1.00  0.00     0.060 A 
HETATM    5  N1  UNL     1     -27.027  29.295  31.566  1.00  0.00    -0.347 N 
ATOM      6  H1  UNL     1     -26.329  29.114  30.845  1.00  0.00     0.166 HD
HETATM    7  C5  UNL     1     -28.253  29.702  31.212  1.00  0.00     0.146 A 
HETATM    8  C6  UNL     1     -28.636  29.897  29.880  1.00  0.00     0.280 A 
HETATM    9  O1  UNL     1     -27.788  29.679  28.995  1.00  0.00    -0.265 OA
HETATM   10  N2  UNL     1     -29.895  30.312  29.596  1.00  0.00    -0.273 N 
ATOM     11  H2  UNL     1     -30.178  30.456  28.626  1.00  0.00     0.173 HD
HETATM   12  C7  UNL     1     -30.772  30.534  30.591  1.00  0.00     0.328 A 
HETATM   13  O2  UNL     1     -31.924  30.917  30.259  1.00  0.00    -0.247 OA
HETATM   14  N3  UNL     1     -30.440  30.357  31.904  1.00  0.00    -0.292 N 
ATOM     15  H3  UNL     1     -31.139  30.537  32.625  1.00  0.00     0.172 HD
HETATM   16  C8  UNL     1     -29.215  29.948  32.266  1.00  0.00     0.145 A 
HETATM   17  N4  UNL     1     -28.844  29.759  33.570  1.00  0.00    -0.327 N 
HETATM   18  C14 UNL     1     -27.611  29.349  33.906  1.00  0.00     0.063 A 
HETATM   19  C15 UNL     1     -27.235  29.150  35.220  1.00  0.00     0.039 A 
HETATM   20  C16 UNL     1     -25.956  28.722  35.522  1.00  0.00    -0.054 A 
HETATM   21  C17 UNL     1     -25.534  28.503  36.928  1.00  0.00     0.049 C 
ENDROOT
BRANCH  17  22
HETATM   22  C9  UNL     1     -29.844  30.017  34.583  1.00  0.00     0.165 C 
BRANCH  22  23
HETATM   23  C10 UNL     1     -30.956  28.972  34.421  1.00  0.00     0.167 C 
BRANCH  23  24
HETATM   24  O3  UNL     1     -32.210  29.505  34.313  1.00  0.00    -0.391 OA
ATOM     25  H3  UNL     1     -32.819  29.200  34.975  1.00  0.00     0.210 HD
ENDBRANCH  23  24
BRANCH  23  26
HETATM   26  C11 UNL     1     -30.884  27.871  35.379  1.00  0.00     0.179 C 
BRANCH  26  27
HETATM   27  O4  UNL     1     -30.691  26.658  34.713  1.00  0.00    -0.390 OA
ATOM     28  H4  UNL     1     -29.814  26.615  34.349  1.00  0.00     0.210 HD
ENDBRANCH  26  27
BRANCH  26  29
HETATM   29  C12 UNL     1     -31.846  27.704  36.470  1.00  0.00     0.173 C 
BRANCH  29  30
HETATM   30  O5  UNL     1     -31.236  28.379  37.592  1.00  0.00    -0.391 OA
ATOM     31  H5  UNL     1     -30.834  29.151  37.211  1.00  0.00     0.210 HD
ENDBRANCH  29  30
BRANCH  29  32
HETATM   32  C13 UNL     1     -32.005  26.287  37.014  1.00  0.00     0.217 C 
BRANCH  32  33
HETATM   33  O6  UNL     1     -30.732  25.832  37.471  1.00  0.00    -0.280 OA
BRANCH  33  34
HETATM   34  P1  UNL     1     -30.810  25.466  39.111  1.00  0.00     0.422 P 
HETATM   35  O7  UNL     1     -32.215  25.093  39.451  1.00  0.00    -0.617 OA
HETATM   36  O8  UNL     1     -30.343  26.771  40.074  1.00  0.00    -0.617 OA
HETATM   37  O9  UNL     1     -29.810  24.149  39.502  1.00  0.00    -0.617 OA
ENDBRANCH  33  34
ENDBRANCH  32  33
ENDBRANCH  29  32
ENDBRANCH  26  29
ENDBRANCH  23  26
ENDBRANCH  22  23
ENDBRANCH  17  22
TORSDOF 10
ENDMDL
