MODEL 1
REMARK VINA RESULT: -7.752110377      0.000      0.000
REMARK  10 active torsions:
REMARK  status: ('A' for Active; 'I' for Inactive)
REMARK    1  A    between atoms: N4_17  and  C9_18 
REMARK    2  A    between atoms: C9_18  and  C10_19 
REMARK    3  A    between atoms: C10_19  and  O3_20 
REMARK    4  A    between atoms: C10_19  and  C11_22 
REMARK    5  A    between atoms: C11_22  and  O4_23 
REMARK    6  A    between atoms: C11_22  and  C12_25 
REMARK    7  A    between atoms: C12_25  and  O5_26 
REMARK    8  A    between atoms: C12_25  and  C13_28 
REMARK    9  A    between atoms: C13_28  and  O6_29 
REMARK   10  A    between atoms: O6_29  and  P1_30 
ROOT
HETATM    1  C1  UNL     1     -23.192  27.725  35.811  1.00  0.00     0.049 C 
HETATM    2  C2  UNL     1     -24.394  28.134  35.043  1.00  0.00    -0.054 A 
HETATM    3  C3  UNL     1     -24.441  27.991  33.673  1.00  0.00     0.039 A 
HETATM    4  C4  UNL     1     -25.552  28.365  32.932  1.00  0.00     0.060 A 
HETATM    5  N1  UNL     1     -25.543  28.198  31.597  1.00  0.00    -0.347 N 
ATOM      6  H1  UNL     1     -24.719  27.803  31.144  1.00  0.00     0.166 HD
HETATM    7  C5  UNL     1     -26.603  28.544  30.858  1.00  0.00     0.146 A 
HETATM    8  C6  UNL     1     -26.644  28.391  29.467  1.00  0.00     0.280 A 
HETATM    9  O1  UNL     1     -25.642  27.909  28.907  1.00  0.00    -0.265 OA
HETATM   10  N2  UNL     1     -27.753  28.764  28.781  1.00  0.00    -0.273 N 
ATOM     11  H2  UNL     1     -27.787  28.654  27.767  1.00  0.00     0.173 HD
HETATM   12  C7  UNL     1     -28.808  29.280  29.436  1.00  0.00     0.328 A 
HETATM   13  O2  UNL     1     -29.806  29.605  28.741  1.00  0.00    -0.247 OA
HETATM   14  N3  UNL     1     -28.811  29.447  30.792  1.00  0.00    -0.292 N 
ATOM     15  H3  UNL     1     -29.635  29.842  31.245  1.00  0.00     0.172 HD
HETATM   16  C8  UNL     1     -27.752  29.102  31.540  1.00  0.00     0.145 A 
HETATM   17  N4  UNL     1     -27.716  29.254  32.899  1.00  0.00    -0.327 N 
HETATM   18  C14 UNL     1     -26.643  28.900  33.626  1.00  0.00     0.063 A 
HETATM   19  C15 UNL     1     -26.605  29.046  34.999  1.00  0.00     0.039 A 
HETATM   20  C16 UNL     1     -25.482  28.663  35.709  1.00  0.00    -0.054 A 
HETATM   21  C17 UNL     1     -25.423  28.812  37.185  1.00  0.00     0.049 C 
ENDROOT
BRANCH  17  22
HETATM   22  C9  UNL     1     -28.890  29.814  33.531  1.00  0.00     0.165 C 
BRANCH  22  23
HETATM   23  C10 UNL     1     -29.888  28.671  33.762  1.00  0.00     0.167 C 
BRANCH  23  24
HETATM   24  O3  UNL     1     -30.873  28.593  32.818  1.00  0.00    -0.391 OA
ATOM     25  H3  UNL     1     -31.111  27.704  32.580  1.00  0.00     0.210 HD
ENDBRANCH  23  24
BRANCH  23  26
HETATM   26  C11 UNL     1     -30.399  28.593  35.129  1.00  0.00     0.179 C 
BRANCH  26  27
HETATM   27  O4  UNL     1     -29.342  28.500  36.039  1.00  0.00    -0.390 OA
ATOM     28  H4  UNL     1     -29.580  27.933  36.765  1.00  0.00     0.210 HD
ENDBRANCH  26  27
BRANCH  26  29
HETATM   29  C12 UNL     1     -31.486  27.693  35.520  1.00  0.00     0.173 C 
BRANCH  29  30
HETATM   30  O5  UNL     1     -32.684  28.481  35.342  1.00  0.00    -0.391 OA
ATOM     31  H5  UNL     1     -33.214  28.278  36.104  1.00  0.00     0.210 HD
ENDBRANCH  29  30
BRANCH  29  32
HETATM   32  C13 UNL     1     -31.567  27.343  37.002  1.00  0.00     0.217 C 
BRANCH  32  33
HETATM   33  O6  UNL     1     -30.895  26.101  37.212  1.00  0.00    -0.280 OA
BRANCH  33  34
HETATM   34  P1  UNL     1     -30.875  25.730  38.852  1.00  0.00     0.422 P 
HETATM   35  O7  UNL     1     -32.220  25.214  39.242  1.00  0.00    -0.617 OA
HETATM   36  O8  UNL     1     -30.511  27.078  39.801  1.00  0.00    -0.617 OA
HETATM   37  O9  UNL     1     -29.730  24.525  39.203  1.00  0.00    -0.617 OA
ENDBRANCH  33  34
ENDBRANCH  32  33
ENDBRANCH  29  32
ENDBRANCH  26  29
ENDBRANCH  23  26
ENDBRANCH  22  23
ENDBRANCH  17  22
TORSDOF 10
ENDMDL
