MODEL 3
REMARK VINA RESULT: -8.125814640      2.341      4.133
REMARK  6 active torsions:
REMARK  status: ('A' for Active; 'I' for Inactive)
REMARK    1  A    between atoms: N4_10  and  C5_11 
REMARK    2  A    between atoms: C6_13  and  C7_14 
REMARK    3  A    between atoms: C7_14  and  O2_15 
REMARK    4  A    between atoms: O2_15  and  P1_16 
REMARK    5  A    between atoms: C8_20  and  O6_21 
REMARK    6  A    between atoms: C9_23  and  O7_24 
ROOT
HETATM    1  C5  UNL     1       6.944  -4.213 -24.916  1.00  0.00     0.262 C 
HETATM    2  O1  UNL     1       5.662  -3.881 -24.419  1.00  0.00    -0.353 OA
HETATM    3  C6  UNL     1       5.875  -3.969 -23.058  1.00  0.00     0.180 C 
HETATM    4  C8  UNL     1       7.070  -3.075 -22.855  1.00  0.00     0.182 C 
HETATM    5  C9  UNL     1       7.912  -3.428 -24.089  1.00  0.00     0.198 C 
ENDROOT
BRANCH   1   6
HETATM    6  N4  UNL     1       7.054  -4.000 -26.324  1.00  0.00    -0.297 N 
HETATM    7  C2  UNL     1       6.135  -3.409 -27.093  1.00  0.00     0.146 A 
HETATM    8  N2  UNL     1       4.932  -2.871 -26.847  1.00  0.00    -0.314 N 
HETATM    9  C3  UNL     1       6.588  -3.378 -28.419  1.00  0.00     0.146 A 
HETATM   10  C1  UNL     1       4.151  -2.316 -27.786  1.00  0.00     0.196 A 
ATOM     11  H2  UNL     1       4.589  -2.885 -25.886  1.00  0.00     0.170 HD
HETATM   12  N1  UNL     1       2.873  -1.755 -27.468  1.00  0.00    -0.063 NA
HETATM   13  N5  UNL     1       4.623  -2.304 -29.054  1.00  0.00    -0.295 N 
HETATM   14  C10 UNL     1       5.810  -2.813 -29.408  1.00  0.00     0.278 A 
ATOM     15  H5  UNL     1       4.042  -1.885 -29.780  1.00  0.00     0.171 HD
HETATM   16  O8  UNL     1       6.250  -2.804 -30.584  1.00  0.00    -0.265 OA
HETATM   17  N3  UNL     1       7.784  -3.964 -28.386  1.00  0.00    -0.345 N 
HETATM   18  C4  UNL     1       8.067  -4.338 -27.135  1.00  0.00     0.188 A 
ATOM     19  H3  UNL     1       8.392  -4.105 -29.193  1.00  0.00     0.167 HD
ENDBRANCH   1   6
BRANCH   5  20
HETATM   20  O7  UNL     1       8.962  -4.247 -23.645  1.00  0.00    -0.388 OA
ATOM     21  H7  UNL     1       8.851  -5.134 -23.964  1.00  0.00     0.210 HD
ENDBRANCH   5  20
BRANCH   3  22
HETATM   22  C7  UNL     1       4.685  -3.532 -22.245  1.00  0.00     0.217 C 
BRANCH  22  23
HETATM   23  O2  UNL     1       4.929  -2.396 -21.501  1.00  0.00    -0.280 OA
BRANCH  23  24
HETATM   24  P1  UNL     1       4.652  -2.811 -19.866  1.00  0.00     0.422 P 
HETATM   25  O3  UNL     1       5.918  -3.391 -19.266  1.00  0.00    -0.617 OA
HETATM   26  O4  UNL     1       4.259  -1.363 -19.069  1.00  0.00    -0.617 OA
HETATM   27  O5  UNL     1       3.439  -3.957 -19.724  1.00  0.00    -0.617 OA
ENDBRANCH  23  24
ENDBRANCH  22  23
ENDBRANCH   3  22
BRANCH   4  28
HETATM   28  O6  UNL     1       7.745  -3.338 -21.686  1.00  0.00    -0.390 OA
ATOM     29  H6  UNL     1       7.165  -3.496 -20.951  1.00  0.00     0.210 HD
ENDBRANCH   4  28
TORSDOF 6
ENDMDL
