MODEL 4
REMARK VINA RESULT: -8.118462887      2.637      4.675
REMARK  6 active torsions:
REMARK  status: ('A' for Active; 'I' for Inactive)
REMARK    1  A    between atoms: N4_10  and  C5_11 
REMARK    2  A    between atoms: C6_13  and  C7_14 
REMARK    3  A    between atoms: C7_14  and  O2_15 
REMARK    4  A    between atoms: O2_15  and  P1_16 
REMARK    5  A    between atoms: C8_20  and  O6_21 
REMARK    6  A    between atoms: C9_23  and  O7_24 
ROOT
HETATM    1  C5  UNL     1       6.408  -3.888 -25.214  1.00  0.00     0.262 C 
HETATM    2  O1  UNL     1       5.245  -3.682 -24.434  1.00  0.00    -0.353 OA
HETATM    3  C6  UNL     1       5.732  -3.924 -23.165  1.00  0.00     0.180 C 
HETATM    4  C8  UNL     1       6.921  -3.002 -23.090  1.00  0.00     0.182 C 
HETATM    5  C9  UNL     1       7.503  -3.161 -24.501  1.00  0.00     0.198 C 
ENDROOT
BRANCH   1   6
HETATM    6  N4  UNL     1       6.224  -3.501 -26.576  1.00  0.00    -0.297 N 
HETATM    7  C2  UNL     1       5.300  -2.646 -27.022  1.00  0.00     0.146 A 
HETATM    8  N2  UNL     1       4.335  -1.934 -26.422  1.00  0.00    -0.314 N 
HETATM    9  C3  UNL     1       5.421  -2.511 -28.411  1.00  0.00     0.146 A 
HETATM   10  C1  UNL     1       3.493  -1.114 -27.071  1.00  0.00     0.196 A 
ATOM     11  H2  UNL     1       4.235  -2.020 -25.410  1.00  0.00     0.170 HD
HETATM   12  N1  UNL     1       2.479  -0.376 -26.381  1.00  0.00    -0.063 NA
HETATM   13  N5  UNL     1       3.642  -1.010 -28.411  1.00  0.00    -0.295 N 
HETATM   14  C10 UNL     1       4.572  -1.676 -29.108  1.00  0.00     0.278 A 
ATOM     15  H5  UNL     1       3.010  -0.392 -28.920  1.00  0.00     0.171 HD
HETATM   16  O8  UNL     1       4.712  -1.582 -30.352  1.00  0.00    -0.265 OA
HETATM   17  N3  UNL     1       6.435  -3.309 -28.746  1.00  0.00    -0.345 N 
HETATM   18  C4  UNL     1       6.918  -3.903 -27.651  1.00  0.00     0.188 A 
ATOM     19  H3  UNL     1       6.789  -3.445 -29.692  1.00  0.00     0.167 HD
ENDBRANCH   1   6
BRANCH   5  20
HETATM   20  O7  UNL     1       8.641  -3.975 -24.384  1.00  0.00    -0.388 OA
ATOM     21  H7  UNL     1       9.118  -3.769 -23.589  1.00  0.00     0.210 HD
ENDBRANCH   5  20
BRANCH   3  22
HETATM   22  C7  UNL     1       4.721  -3.647 -22.082  1.00  0.00     0.217 C 
BRANCH  22  23
HETATM   23  O2  UNL     1       4.921  -2.435 -21.456  1.00  0.00    -0.280 OA
BRANCH  23  24
HETATM   24  P1  UNL     1       4.832  -2.731 -19.775  1.00  0.00     0.422 P 
HETATM   25  O3  UNL     1       3.905  -3.902 -19.512  1.00  0.00    -0.617 OA
HETATM   26  O4  UNL     1       6.407  -3.132 -19.280  1.00  0.00    -0.617 OA
HETATM   27  O5  UNL     1       4.233  -1.402 -18.952  1.00  0.00    -0.617 OA
ENDBRANCH  23  24
ENDBRANCH  22  23
ENDBRANCH   3  22
BRANCH   4  28
HETATM   28  O6  UNL     1       7.826  -3.371 -22.121  1.00  0.00    -0.390 OA
ATOM     29  H6  UNL     1       8.673  -3.612 -22.478  1.00  0.00     0.210 HD
ENDBRANCH   4  28
TORSDOF 6
ENDMDL
