MODEL 2
REMARK VINA RESULT: -8.214460522      4.216      7.308
REMARK  6 active torsions:
REMARK  status: ('A' for Active; 'I' for Inactive)
REMARK    1  A    between atoms: N4_10  and  C5_11 
REMARK    2  A    between atoms: C6_13  and  C7_14 
REMARK    3  A    between atoms: C7_14  and  O2_15 
REMARK    4  A    between atoms: O2_15  and  P1_16 
REMARK    5  A    between atoms: C8_20  and  O6_21 
REMARK    6  A    between atoms: C9_23  and  O7_24 
ROOT
HETATM    1  C5  UNL     1       5.653  -2.817 -24.457  1.00  0.00     0.262 C 
HETATM    2  O1  UNL     1       6.542  -2.579 -25.531  1.00  0.00    -0.353 OA
HETATM    3  C6  UNL     1       5.773  -2.980 -26.605  1.00  0.00     0.180 C 
HETATM    4  C8  UNL     1       4.510  -2.181 -26.419  1.00  0.00     0.182 C 
HETATM    5  C9  UNL     1       4.336  -2.261 -24.896  1.00  0.00     0.198 C 
ENDROOT
BRANCH   1   6
HETATM    6  N4  UNL     1       6.139  -2.290 -23.222  1.00  0.00    -0.297 N 
HETATM    7  C2  UNL     1       5.567  -2.462 -22.026  1.00  0.00     0.146 A 
HETATM    8  N2  UNL     1       4.469  -3.111 -21.613  1.00  0.00    -0.314 N 
HETATM    9  C3  UNL     1       6.323  -1.802 -21.049  1.00  0.00     0.146 A 
HETATM   10  C1  UNL     1       4.062  -3.160 -20.335  1.00  0.00     0.196 A 
ATOM     11  H2  UNL     1       3.908  -3.597 -22.313  1.00  0.00     0.170 HD
HETATM   12  N1  UNL     1       2.880  -3.867 -19.948  1.00  0.00    -0.063 NA
HETATM   13  N5  UNL     1       4.818  -2.511 -19.421  1.00  0.00    -0.295 N 
HETATM   14  C10 UNL     1       5.933  -1.834 -19.727  1.00  0.00     0.278 A 
ATOM     15  H5  UNL     1       4.524  -2.538 -18.445  1.00  0.00     0.171 HD
HETATM   16  O8  UNL     1       6.637  -1.230 -18.879  1.00  0.00    -0.265 OA
HETATM   17  N3  UNL     1       7.338  -1.252 -21.715  1.00  0.00    -0.345 N 
HETATM   18  C4  UNL     1       7.231  -1.541 -23.014  1.00  0.00     0.188 A 
ATOM     19  H3  UNL     1       8.083  -0.695 -21.296  1.00  0.00     0.167 HD
ENDBRANCH   1   6
BRANCH   5  20
HETATM   20  O7  UNL     1       3.305  -3.182 -24.652  1.00  0.00    -0.388 OA
ATOM     21  H7  UNL     1       2.511  -2.733 -24.387  1.00  0.00     0.210 HD
ENDBRANCH   5  20
BRANCH   3  22
HETATM   22  C7  UNL     1       6.431  -2.714 -27.935  1.00  0.00     0.217 C 
BRANCH  22  23
HETATM   23  O2  UNL     1       5.659  -3.113 -29.006  1.00  0.00    -0.280 OA
BRANCH  23  24
HETATM   24  P1  UNL     1       5.518  -1.758 -30.039  1.00  0.00     0.422 P 
HETATM   25  O3  UNL     1       4.103  -1.217 -29.981  1.00  0.00    -0.617 OA
HETATM   26  O4  UNL     1       6.596  -0.590 -29.438  1.00  0.00    -0.617 OA
HETATM   27  O5  UNL     1       5.853  -2.164 -31.628  1.00  0.00    -0.617 OA
ENDBRANCH  23  24
ENDBRANCH  22  23
ENDBRANCH   3  22
BRANCH   4  28
HETATM   28  O6  UNL     1       3.432  -2.718 -27.084  1.00  0.00    -0.390 OA
ATOM     29  H6  UNL     1       2.862  -3.225 -26.517  1.00  0.00     0.210 HD
ENDBRANCH   4  28
TORSDOF 6
ENDMDL
