MODEL 6
REMARK VINA RESULT: -10.083153429      4.304     10.341
REMARK  9 active torsions:
REMARK  status: ('A' for Active; 'I' for Inactive)
REMARK    1  A    between atoms: C5_5  and  N1_6 
REMARK       I    between atoms: N1_6  and  C6_8 
REMARK    2  A    between atoms: C6_8  and  C7_10 
REMARK    3  A    between atoms: C10_15  and  C11_16 
REMARK    4  A    between atoms: C14_22  and  C15_23 
REMARK    5  A    between atoms: C17_25  and  O2_26 
REMARK    6  A    between atoms: O2_26  and  C18_27 
REMARK    7  A    between atoms: C18_27  and  C19_28 
REMARK    8  A    between atoms: C19_28  and  O3_29 
REMARK    9  A    between atoms: C20_33  and  N4_34 
ROOT
HETATM    1  C1  UNL     1     -27.815   2.138  -8.925  1.00  0.00     0.049 C 
HETATM    2  C2  UNL     1     -26.542   2.791  -9.285  1.00  0.00    -0.051 A 
HETATM    3  C3  UNL     1     -26.115   2.941 -10.559  1.00  0.00     0.010 A 
HETATM    4  C4  UNL     1     -24.913   3.550 -10.788  1.00  0.00     0.030 A 
HETATM    5  C5  UNL     1     -24.073   4.037  -9.794  1.00  0.00     0.035 A 
HETATM    6  C13 UNL     1     -24.506   3.889  -8.502  1.00  0.00     0.042 A 
HETATM    7  C14 UNL     1     -25.702   3.288  -8.222  1.00  0.00    -0.018 A 
ENDROOT
BRANCH   7   8
HETATM    8  C15 UNL     1     -26.347   3.027  -6.951  1.00  0.00    -0.018 A 
HETATM    9  C16 UNL     1     -26.642   4.059  -6.060  1.00  0.00     0.068 A 
HETATM   10  C17 UNL     1     -26.950   3.819  -4.723  1.00  0.00     0.144 A 
HETATM   11  N3  UNL     1     -26.949   2.532  -4.347  1.00  0.00    -0.323 N 
HETATM   12  C20 UNL     1     -26.686   1.489  -5.136  1.00  0.00     0.105 A 
ATOM     13  H3  UNL     1     -27.170   2.333  -3.371  1.00  0.00     0.169 HD
HETATM   14  C25 UNL     1     -26.381   1.748  -6.472  1.00  0.00     0.060 A 
BRANCH  10  15
HETATM   15  O2  UNL     1     -27.233   4.841  -3.874  1.00  0.00    -0.334 OA
BRANCH  15  16
HETATM   16  C18 UNL     1     -27.988   4.846  -2.712  1.00  0.00     0.203 C 
BRANCH  16  17
HETATM   17  C19 UNL     1     -27.148   4.727  -1.460  1.00  0.00     0.191 C 
BRANCH  17  18
HETATM   18  O3  UNL     1     -26.402   3.557  -1.426  1.00  0.00    -0.399 OA
ATOM     19  H3  UNL     1     -25.932   3.446  -0.608  1.00  0.00     0.209 HD
ENDBRANCH  17  18
ENDBRANCH  16  17
ENDBRANCH  15  16
ENDBRANCH  10  15
BRANCH  12  20
HETATM   20  N4  UNL     1     -26.717   0.154  -4.624  1.00  0.00    -0.363 N 
HETATM   21  C21 UNL     1     -25.601  -0.691  -4.885  1.00  0.00     0.150 C 
HETATM   22  C22 UNL     1     -25.850  -2.125  -4.487  1.00  0.00     0.187 C 
HETATM   23  O4  UNL     1     -27.202  -2.442  -4.493  1.00  0.00    -0.388 OA
HETATM   24  C23 UNL     1     -27.781  -1.703  -3.451  1.00  0.00     0.187 C 
HETATM   25  C24 UNL     1     -27.864  -0.277  -3.877  1.00  0.00     0.150 C 
ENDBRANCH  12  20
ENDBRANCH   7   8
BRANCH   5  26
HETATM   26  N1  UNL     1     -22.799   4.565 -10.220  1.00  0.00    -0.323 N 
HETATM   27  C6  UNL     1     -22.705   5.944 -10.551  1.00  0.00     0.256 C 
HETATM   28  O1  UNL     1     -23.844   6.565 -10.484  1.00  0.00    -0.267 OA
ATOM     29  H1  UNL     1     -21.981   3.959 -10.282  1.00  0.00     0.169 HD
BRANCH  27  30
HETATM   30  C7  UNL     1     -21.573   6.740 -10.940  1.00  0.00     0.035 A 
HETATM   31  C8  UNL     1     -20.298   6.303 -11.198  1.00  0.00     0.034 A 
HETATM   32  C9  UNL     1     -19.247   7.168 -11.488  1.00  0.00     0.089 A 
HETATM   33  N2  UNL     1     -19.502   8.509 -11.515  1.00  0.00    -0.362 N 
HETATM   34  C10 UNL     1     -20.721   9.006 -11.274  1.00  0.00     0.117 A 
ATOM     35  H2  UNL     1     -18.739   9.152 -11.727  1.00  0.00     0.165 HD
HETATM   36  C12 UNL     1     -21.743   8.127 -10.991  1.00  0.00     0.051 A 
BRANCH  34  37
HETATM   37  C11 UNL     1     -20.958  10.489 -11.302  1.00  0.00     0.432 C 
HETATM   38  F1  UNL     1     -20.998  11.039 -10.029  1.00  0.00    -0.165 F 
HETATM   39  F2  UNL     1     -22.122  10.754 -12.017  1.00  0.00    -0.165 F 
HETATM   40  F3  UNL     1     -19.911  11.101 -11.945  1.00  0.00    -0.165 F 
ENDBRANCH  34  37
ENDBRANCH  27  30
ENDBRANCH   5  26
TORSDOF 9
ENDMDL
