MODEL 8
REMARK VINA RESULT: -9.252949267      3.684      6.902
REMARK  9 active torsions:
REMARK  status: ('A' for Active; 'I' for Inactive)
REMARK    1  A    between atoms: C5_5  and  N1_6 
REMARK       I    between atoms: N1_6  and  C6_8 
REMARK    2  A    between atoms: C6_8  and  C7_10 
REMARK    3  A    between atoms: C10_15  and  C11_16 
REMARK    4  A    between atoms: C14_22  and  C15_23 
REMARK    5  A    between atoms: C17_25  and  O2_26 
REMARK    6  A    between atoms: O2_26  and  C18_27 
REMARK    7  A    between atoms: C18_27  and  C19_28 
REMARK    8  A    between atoms: C19_28  and  O3_29 
REMARK    9  A    between atoms: C20_33  and  N4_34 
ROOT
HETATM    1  C1  UNL     1     -19.234  10.995 -11.550  1.00  0.00     0.049 C 
HETATM    2  C2  UNL     1     -20.320  10.031 -11.288  1.00  0.00    -0.051 A 
HETATM    3  C3  UNL     1     -21.632  10.331 -11.422  1.00  0.00     0.010 A 
HETATM    4  C4  UNL     1     -22.563   9.371 -11.141  1.00  0.00     0.030 A 
HETATM    5  C5  UNL     1     -22.264   8.081 -10.718  1.00  0.00     0.035 A 
HETATM    6  C13 UNL     1     -20.935   7.775 -10.586  1.00  0.00     0.042 A 
HETATM    7  C14 UNL     1     -19.966   8.701 -10.855  1.00  0.00    -0.018 A 
ENDROOT
BRANCH   7   8
HETATM    8  C15 UNL     1     -18.523   8.598 -10.783  1.00  0.00    -0.018 A 
HETATM    9  C16 UNL     1     -17.721   8.810 -11.904  1.00  0.00     0.068 A 
HETATM   10  C17 UNL     1     -16.390   8.404 -11.952  1.00  0.00     0.144 A 
HETATM   11  N3  UNL     1     -15.925   7.799 -10.849  1.00  0.00    -0.323 N 
HETATM   12  C20 UNL     1     -16.622   7.565  -9.736  1.00  0.00     0.105 A 
ATOM     13  H3  UNL     1     -14.953   7.491 -10.863  1.00  0.00     0.169 HD
HETATM   14  C25 UNL     1     -17.953   7.980  -9.706  1.00  0.00     0.060 A 
BRANCH  10  15
HETATM   15  O2  UNL     1     -15.629   8.622 -13.056  1.00  0.00    -0.334 OA
BRANCH  15  16
HETATM   16  C18 UNL     1     -14.732   9.642 -13.329  1.00  0.00     0.203 C 
BRANCH  16  17
HETATM   17  C19 UNL     1     -15.149  10.969 -12.736  1.00  0.00     0.191 C 
BRANCH  17  18
HETATM   18  O3  UNL     1     -16.047  11.656 -13.541  1.00  0.00    -0.399 OA
ATOM     19  H3  UNL     1     -15.845  11.578 -14.466  1.00  0.00     0.209 HD
ENDBRANCH  17  18
ENDBRANCH  16  17
ENDBRANCH  15  16
ENDBRANCH  10  15
BRANCH  12  20
HETATM   20  N4  UNL     1     -16.018   6.911  -8.616  1.00  0.00    -0.363 N 
HETATM   21  C21 UNL     1     -15.891   5.493  -8.656  1.00  0.00     0.150 C 
HETATM   22  C22 UNL     1     -15.447   4.910  -7.337  1.00  0.00     0.187 C 
HETATM   23  O4  UNL     1     -15.789   5.725  -6.264  1.00  0.00    -0.388 OA
HETATM   24  C23 UNL     1     -15.013   6.886  -6.393  1.00  0.00     0.187 C 
HETATM   25  C24 UNL     1     -15.573   7.703  -7.506  1.00  0.00     0.150 C 
ENDBRANCH  12  20
ENDBRANCH   7   8
BRANCH   5  26
HETATM   26  N1  UNL     1     -23.382   7.233 -10.379  1.00  0.00    -0.323 N 
HETATM   27  C6  UNL     1     -23.376   5.882 -10.821  1.00  0.00     0.256 C 
HETATM   28  O1  UNL     1     -22.348   5.590 -11.561  1.00  0.00    -0.267 OA
ATOM     29  H1  UNL     1     -24.162   7.596  -9.832  1.00  0.00     0.169 HD
BRANCH  27  30
HETATM   30  C7  UNL     1     -24.308   4.814 -10.585  1.00  0.00     0.035 A 
HETATM   31  C8  UNL     1     -24.996   4.086 -11.523  1.00  0.00     0.034 A 
HETATM   32  C9  UNL     1     -25.943   3.124 -11.189  1.00  0.00     0.089 A 
HETATM   33  N2  UNL     1     -26.196   2.899  -9.866  1.00  0.00    -0.362 N 
HETATM   34  C10 UNL     1     -25.565   3.571  -8.896  1.00  0.00     0.117 A 
ATOM     35  H2  UNL     1     -26.889   2.196  -9.608  1.00  0.00     0.165 HD
HETATM   36  C12 UNL     1     -24.630   4.517  -9.257  1.00  0.00     0.051 A 
BRANCH  34  37
HETATM   37  C11 UNL     1     -25.880   3.302  -7.453  1.00  0.00     0.432 C 
HETATM   38  F1  UNL     1     -25.180   4.141  -6.597  1.00  0.00    -0.165 F 
HETATM   39  F2  UNL     1     -25.639   1.961  -7.172  1.00  0.00    -0.165 F 
HETATM   40  F3  UNL     1     -27.210   3.556  -7.227  1.00  0.00    -0.165 F 
ENDBRANCH  34  37
ENDBRANCH  27  30
ENDBRANCH   5  26
TORSDOF 9
ENDMDL
