MODEL 2
REMARK VINA RESULT: -11.503744505      1.785      2.245
REMARK  9 active torsions:
REMARK  status: ('A' for Active; 'I' for Inactive)
REMARK    1  A    between atoms: C5_5  and  N1_6 
REMARK       I    between atoms: N1_6  and  C6_8 
REMARK    2  A    between atoms: C6_8  and  C7_10 
REMARK    3  A    between atoms: C10_15  and  C11_16 
REMARK    4  A    between atoms: C14_22  and  C15_23 
REMARK    5  A    between atoms: C17_25  and  O2_26 
REMARK    6  A    between atoms: O2_26  and  C18_27 
REMARK    7  A    between atoms: C18_27  and  C19_28 
REMARK    8  A    between atoms: C19_28  and  O3_29 
REMARK    9  A    between atoms: C20_33  and  N4_34 
ROOT
HETATM    1  C1  UNL     1     -24.712   4.574 -12.434  1.00  0.00     0.049 C 
HETATM    2  C2  UNL     1     -24.984   3.863 -11.171  1.00  0.00    -0.051 A 
HETATM    3  C3  UNL     1     -26.130   3.189 -10.925  1.00  0.00     0.010 A 
HETATM    4  C4  UNL     1     -26.291   2.574  -9.716  1.00  0.00     0.030 A 
HETATM    5  C5  UNL     1     -25.351   2.586  -8.692  1.00  0.00     0.035 A 
HETATM    6  C13 UNL     1     -24.187   3.265  -8.941  1.00  0.00     0.042 A 
HETATM    7  C14 UNL     1     -23.978   3.897 -10.135  1.00  0.00    -0.018 A 
ENDROOT
BRANCH   7   8
HETATM    8  C15 UNL     1     -22.843   4.663 -10.607  1.00  0.00    -0.018 A 
HETATM    9  C16 UNL     1     -21.566   4.105 -10.675  1.00  0.00     0.068 A 
HETATM   10  C17 UNL     1     -20.420   4.887 -10.802  1.00  0.00     0.144 A 
HETATM   11  N3  UNL     1     -20.622   6.211 -10.861  1.00  0.00    -0.323 N 
HETATM   12  C20 UNL     1     -21.808   6.822 -10.811  1.00  0.00     0.105 A 
ATOM     13  H3  UNL     1     -19.797   6.804 -10.952  1.00  0.00     0.169 HD
HETATM   14  C25 UNL     1     -22.943   6.023 -10.685  1.00  0.00     0.060 A 
BRANCH  10  15
HETATM   15  O2  UNL     1     -19.187   4.321 -10.865  1.00  0.00    -0.334 OA
BRANCH  15  16
HETATM   16  C18 UNL     1     -17.967   4.796 -10.411  1.00  0.00     0.203 C 
BRANCH  16  17
HETATM   17  C19 UNL     1     -16.790   4.215 -11.160  1.00  0.00     0.191 C 
BRANCH  17  18
HETATM   18  O3  UNL     1     -17.171   3.537 -12.310  1.00  0.00    -0.399 OA
ATOM     19  H3  UNL     1     -16.709   2.714 -12.421  1.00  0.00     0.209 HD
ENDBRANCH  17  18
ENDBRANCH  16  17
ENDBRANCH  15  16
ENDBRANCH  10  15
BRANCH  12  20
HETATM   20  N4  UNL     1     -21.903   8.248 -10.886  1.00  0.00    -0.363 N 
HETATM   21  C21 UNL     1     -20.870   8.953 -11.569  1.00  0.00     0.150 C 
HETATM   22  C22 UNL     1     -20.969  10.448 -11.388  1.00  0.00     0.187 C 
HETATM   23  O4  UNL     1     -21.630  10.790 -10.216  1.00  0.00    -0.388 OA
HETATM   24  C23 UNL     1     -22.962  10.388 -10.386  1.00  0.00     0.187 C 
HETATM   25  C24 UNL     1     -23.021   8.903 -10.273  1.00  0.00     0.150 C 
ENDBRANCH  12  20
ENDBRANCH   7   8
BRANCH   5  26
HETATM   26  N1  UNL     1     -25.734   1.960  -7.450  1.00  0.00    -0.323 N 
HETATM   27  C6  UNL     1     -26.330   2.758  -6.435  1.00  0.00     0.256 C 
HETATM   28  O1  UNL     1     -26.397   4.017  -6.748  1.00  0.00    -0.267 OA
ATOM     29  H1  UNL     1     -25.581   0.963  -7.302  1.00  0.00     0.169 HD
BRANCH  27  30
HETATM   30  C7  UNL     1     -26.856   2.398  -5.147  1.00  0.00     0.035 A 
HETATM   31  C8  UNL     1     -26.921   3.184  -4.024  1.00  0.00     0.034 A 
HETATM   32  C9  UNL     1     -27.374   2.713  -2.796  1.00  0.00     0.089 A 
HETATM   33  N2  UNL     1     -27.770   1.409  -2.711  1.00  0.00    -0.362 N 
HETATM   34  C10 UNL     1     -27.734   0.584  -3.763  1.00  0.00     0.117 A 
ATOM     35  H2  UNL     1     -28.104   1.052  -1.815  1.00  0.00     0.165 HD
HETATM   36  C12 UNL     1     -27.282   1.078  -4.968  1.00  0.00     0.051 A 
BRANCH  34  37
HETATM   37  C11 UNL     1     -28.168  -0.847  -3.625  1.00  0.00     0.432 C 
HETATM   38  F1  UNL     1     -27.251  -1.730  -4.179  1.00  0.00    -0.165 F 
HETATM   39  F2  UNL     1     -29.433  -1.000  -4.182  1.00  0.00    -0.165 F 
HETATM   40  F3  UNL     1     -28.244  -1.169  -2.292  1.00  0.00    -0.165 F 
ENDBRANCH  34  37
ENDBRANCH  27  30
ENDBRANCH   5  26
TORSDOF 9
ENDMDL
