MODEL 3
REMARK VINA RESULT: -11.354185219      1.829      2.443
REMARK  9 active torsions:
REMARK  status: ('A' for Active; 'I' for Inactive)
REMARK    1  A    between atoms: C5_5  and  N1_6 
REMARK       I    between atoms: N1_6  and  C6_8 
REMARK    2  A    between atoms: C6_8  and  C7_10 
REMARK    3  A    between atoms: C10_15  and  C11_16 
REMARK    4  A    between atoms: C14_22  and  C15_23 
REMARK    5  A    between atoms: C17_25  and  O2_26 
REMARK    6  A    between atoms: O2_26  and  C18_27 
REMARK    7  A    between atoms: C18_27  and  C19_28 
REMARK    8  A    between atoms: C19_28  and  O3_29 
REMARK    9  A    between atoms: C20_33  and  N4_34 
ROOT
HETATM    1  C1  UNL     1     -24.569   4.601 -12.580  1.00  0.00     0.049 C 
HETATM    2  C2  UNL     1     -24.965   3.908 -11.339  1.00  0.00    -0.051 A 
HETATM    3  C3  UNL     1     -26.151   3.279 -11.181  1.00  0.00     0.010 A 
HETATM    4  C4  UNL     1     -26.428   2.677  -9.986  1.00  0.00     0.030 A 
HETATM    5  C5  UNL     1     -25.570   2.661  -8.892  1.00  0.00     0.035 A 
HETATM    6  C13 UNL     1     -24.366   3.295  -9.052  1.00  0.00     0.042 A 
HETATM    7  C14 UNL     1     -24.042   3.911 -10.228  1.00  0.00    -0.018 A 
ENDROOT
BRANCH   7   8
HETATM    8  C15 UNL     1     -22.846   4.632 -10.613  1.00  0.00    -0.018 A 
HETATM    9  C16 UNL     1     -21.596   4.013 -10.625  1.00  0.00     0.068 A 
HETATM   10  C17 UNL     1     -20.408   4.740 -10.664  1.00  0.00     0.144 A 
HETATM   11  N3  UNL     1     -20.542   6.074 -10.695  1.00  0.00    -0.323 N 
HETATM   12  C20 UNL     1     -21.697   6.742 -10.694  1.00  0.00     0.105 A 
ATOM     13  H3  UNL     1     -19.685   6.627 -10.723  1.00  0.00     0.169 HD
HETATM   14  C25 UNL     1     -22.876   5.997 -10.656  1.00  0.00     0.060 A 
BRANCH  10  15
HETATM   15  O2  UNL     1     -19.202   4.115 -10.674  1.00  0.00    -0.334 OA
BRANCH  15  16
HETATM   16  C18 UNL     1     -18.063   4.395 -11.411  1.00  0.00     0.203 C 
BRANCH  16  17
HETATM   17  C19 UNL     1     -17.067   5.248 -10.659  1.00  0.00     0.191 C 
BRANCH  17  18
HETATM   18  O3  UNL     1     -17.433   6.587 -10.618  1.00  0.00    -0.399 OA
ATOM     19  H3  UNL     1     -18.347   6.724 -10.836  1.00  0.00     0.209 HD
ENDBRANCH  17  18
ENDBRANCH  16  17
ENDBRANCH  15  16
ENDBRANCH  10  15
BRANCH  12  20
HETATM   20  N4  UNL     1     -21.719   8.171 -10.733  1.00  0.00    -0.363 N 
HETATM   21  C21 UNL     1     -22.774   8.844 -10.053  1.00  0.00     0.150 C 
HETATM   22  C22 UNL     1     -22.810  10.323 -10.351  1.00  0.00     0.187 C 
HETATM   23  O4  UNL     1     -22.234  10.622 -11.579  1.00  0.00    -0.388 OA
HETATM   24  C23 UNL     1     -20.866  10.343 -11.449  1.00  0.00     0.187 C 
HETATM   25  C24 UNL     1     -20.688   8.863 -11.451  1.00  0.00     0.150 C 
ENDBRANCH  12  20
ENDBRANCH   7   8
BRANCH   5  26
HETATM   26  N1  UNL     1     -26.072   2.057  -7.681  1.00  0.00    -0.323 N 
HETATM   27  C6  UNL     1     -26.218   2.866  -6.521  1.00  0.00     0.256 C 
HETATM   28  O1  UNL     1     -25.801   4.085  -6.691  1.00  0.00    -0.267 OA
ATOM     29  H1  UNL     1     -26.319   1.068  -7.658  1.00  0.00     0.169 HD
BRANCH  27  30
HETATM   30  C7  UNL     1     -26.740   2.552  -5.219  1.00  0.00     0.035 A 
HETATM   31  C8  UNL     1     -26.751   3.360  -4.110  1.00  0.00     0.034 A 
HETATM   32  C9  UNL     1     -27.206   2.931  -2.867  1.00  0.00     0.089 A 
HETATM   33  N2  UNL     1     -27.661   1.649  -2.753  1.00  0.00    -0.362 N 
HETATM   34  C10 UNL     1     -27.680   0.805  -3.791  1.00  0.00     0.117 A 
ATOM     35  H2  UNL     1     -27.997   1.323  -1.846  1.00  0.00     0.165 HD
HETATM   36  C12 UNL     1     -27.224   1.257  -5.011  1.00  0.00     0.051 A 
BRANCH  34  37
HETATM   37  C11 UNL     1     -28.177  -0.602  -3.621  1.00  0.00     0.432 C 
HETATM   38  F1  UNL     1     -29.388  -0.813  -4.265  1.00  0.00    -0.165 F 
HETATM   39  F2  UNL     1     -28.255  -0.900  -2.264  1.00  0.00    -0.165 F 
HETATM   40  F3  UNL     1     -27.285  -1.469  -4.201  1.00  0.00    -0.165 F 
ENDBRANCH  34  37
ENDBRANCH  27  30
ENDBRANCH   5  26
TORSDOF 9
ENDMDL
