MODEL 7
REMARK VINA RESULT: -9.362827711      5.471     11.852
REMARK  9 active torsions:
REMARK  status: ('A' for Active; 'I' for Inactive)
REMARK    1  A    between atoms: C5_5  and  N1_6 
REMARK       I    between atoms: N1_6  and  C6_8 
REMARK    2  A    between atoms: C6_8  and  C7_10 
REMARK    3  A    between atoms: C10_15  and  C11_16 
REMARK    4  A    between atoms: C14_22  and  C15_23 
REMARK    5  A    between atoms: C17_25  and  O2_26 
REMARK    6  A    between atoms: O2_26  and  C18_27 
REMARK    7  A    between atoms: C18_27  and  C19_28 
REMARK    8  A    between atoms: C19_28  and  O3_29 
REMARK    9  A    between atoms: C20_33  and  N4_34 
ROOT
HETATM    1  C1  UNL     1     -26.879   1.447  -0.681  1.00  0.00     0.049 C 
HETATM    2  C2  UNL     1     -26.883   1.549  -2.153  1.00  0.00    -0.051 A 
HETATM    3  C3  UNL     1     -27.112   2.702  -2.821  1.00  0.00     0.010 A 
HETATM    4  C4  UNL     1     -27.107   2.689  -4.187  1.00  0.00     0.030 A 
HETATM    5  C5  UNL     1     -26.882   1.559  -4.965  1.00  0.00     0.035 A 
HETATM    6  C13 UNL     1     -26.645   0.390  -4.289  1.00  0.00     0.042 A 
HETATM    7  C14 UNL     1     -26.640   0.353  -2.923  1.00  0.00    -0.018 A 
ENDROOT
BRANCH   7   8
HETATM    8  C15 UNL     1     -26.417  -0.754  -2.015  1.00  0.00    -0.018 A 
HETATM    9  C16 UNL     1     -25.241  -1.503  -2.054  1.00  0.00     0.068 A 
HETATM   10  C17 UNL     1     -25.134  -2.749  -1.440  1.00  0.00     0.144 A 
HETATM   11  N3  UNL     1     -26.232  -3.182  -0.805  1.00  0.00    -0.323 N 
HETATM   12  C20 UNL     1     -27.390  -2.526  -0.714  1.00  0.00     0.105 A 
ATOM     13  H3  UNL     1     -26.176  -4.093  -0.349  1.00  0.00     0.169 HD
HETATM   14  C25 UNL     1     -27.479  -1.280  -1.334  1.00  0.00     0.060 A 
BRANCH  10  15
HETATM   15  O2  UNL     1     -23.977  -3.459  -1.493  1.00  0.00    -0.334 OA
BRANCH  15  16
HETATM   16  C18 UNL     1     -22.896  -3.461  -0.625  1.00  0.00     0.203 C 
BRANCH  16  17
HETATM   17  C19 UNL     1     -21.608  -3.895  -1.287  1.00  0.00     0.191 C 
BRANCH  17  18
HETATM   18  O3  UNL     1     -21.102  -2.935  -2.153  1.00  0.00    -0.399 OA
ATOM     19  H3  UNL     1     -20.356  -3.247  -2.651  1.00  0.00     0.209 HD
ENDBRANCH  17  18
ENDBRANCH  16  17
ENDBRANCH  15  16
ENDBRANCH  10  15
BRANCH  12  20
HETATM   20  N4  UNL     1     -28.498  -3.087  -0.005  1.00  0.00    -0.363 N 
HETATM   21  C21 UNL     1     -28.527  -4.499   0.185  1.00  0.00     0.150 C 
HETATM   22  C22 UNL     1     -29.840  -4.984   0.747  1.00  0.00     0.187 C 
HETATM   23  O4  UNL     1     -30.888  -4.124   0.443  1.00  0.00    -0.388 OA
HETATM   24  C23 UNL     1     -30.641  -2.940   1.154  1.00  0.00     0.187 C 
HETATM   25  C24 UNL     1     -29.527  -2.214   0.480  1.00  0.00     0.150 C 
ENDBRANCH  12  20
ENDBRANCH   7   8
BRANCH   5  26
HETATM   26  N1  UNL     1     -27.008   1.718  -6.394  1.00  0.00    -0.323 N 
HETATM   27  C6  UNL     1     -26.164   2.650  -7.057  1.00  0.00     0.256 C 
HETATM   28  O1  UNL     1     -25.398   3.315  -6.245  1.00  0.00    -0.267 OA
ATOM     29  H1  UNL     1     -27.690   1.171  -6.919  1.00  0.00     0.169 HD
BRANCH  27  30
HETATM   30  C7  UNL     1     -26.031   2.966  -8.453  1.00  0.00     0.035 A 
HETATM   31  C8  UNL     1     -26.805   2.507  -9.488  1.00  0.00     0.034 A 
HETATM   32  C9  UNL     1     -26.541   2.808 -10.821  1.00  0.00     0.089 A 
HETATM   33  N2  UNL     1     -25.463   3.596 -11.104  1.00  0.00    -0.362 N 
HETATM   34  C10 UNL     1     -24.663   4.079 -10.146  1.00  0.00     0.117 A 
ATOM     35  H2  UNL     1     -25.259   3.823 -12.078  1.00  0.00     0.165 HD
HETATM   36  C12 UNL     1     -24.949   3.767  -8.835  1.00  0.00     0.051 A 
BRANCH  34  37
HETATM   37  C11 UNL     1     -23.480   4.933 -10.500  1.00  0.00     0.432 C 
HETATM   38  F1  UNL     1     -22.289   4.406 -10.020  1.00  0.00    -0.165 F 
HETATM   39  F2  UNL     1     -23.694   6.228 -10.040  1.00  0.00    -0.165 F 
HETATM   40  F3  UNL     1     -23.349   4.979 -11.866  1.00  0.00    -0.165 F 
ENDBRANCH  34  37
ENDBRANCH  27  30
ENDBRANCH   5  26
TORSDOF 9
ENDMDL
