MODEL 1
REMARK VINA RESULT: -11.832758104      0.000      0.000
REMARK  9 active torsions:
REMARK  status: ('A' for Active; 'I' for Inactive)
REMARK    1  A    between atoms: C5_5  and  N1_6 
REMARK       I    between atoms: N1_6  and  C6_8 
REMARK    2  A    between atoms: C6_8  and  C7_10 
REMARK    3  A    between atoms: C10_15  and  C11_16 
REMARK    4  A    between atoms: C14_22  and  C15_23 
REMARK    5  A    between atoms: C17_25  and  O2_26 
REMARK    6  A    between atoms: O2_26  and  C18_27 
REMARK    7  A    between atoms: C18_27  and  C19_28 
REMARK    8  A    between atoms: C19_28  and  O3_29 
REMARK    9  A    between atoms: C20_33  and  N4_34 
ROOT
HETATM    1  C1  UNL     1     -24.693   4.582 -12.453  1.00  0.00     0.049 C 
HETATM    2  C2  UNL     1     -24.966   3.870 -11.190  1.00  0.00    -0.051 A 
HETATM    3  C3  UNL     1     -26.109   3.190 -10.948  1.00  0.00     0.010 A 
HETATM    4  C4  UNL     1     -26.272   2.575  -9.739  1.00  0.00     0.030 A 
HETATM    5  C5  UNL     1     -25.335   2.593  -8.712  1.00  0.00     0.035 A 
HETATM    6  C13 UNL     1     -24.174   3.278  -8.957  1.00  0.00     0.042 A 
HETATM    7  C14 UNL     1     -23.964   3.910 -10.151  1.00  0.00    -0.018 A 
ENDROOT
BRANCH   7   8
HETATM    8  C15 UNL     1     -22.831   4.682 -10.619  1.00  0.00    -0.018 A 
HETATM    9  C16 UNL     1     -21.552   4.129 -10.687  1.00  0.00     0.068 A 
HETATM   10  C17 UNL     1     -20.409   4.916 -10.811  1.00  0.00     0.144 A 
HETATM   11  N3  UNL     1     -20.616   6.239 -10.865  1.00  0.00    -0.323 N 
HETATM   12  C20 UNL     1     -21.804   6.846 -10.814  1.00  0.00     0.105 A 
ATOM     13  H3  UNL     1     -19.793   6.835 -10.954  1.00  0.00     0.169 HD
HETATM   14  C25 UNL     1     -22.937   6.042 -10.692  1.00  0.00     0.060 A 
BRANCH  10  15
HETATM   15  O2  UNL     1     -19.174   4.354 -10.875  1.00  0.00    -0.334 OA
BRANCH  15  16
HETATM   16  C18 UNL     1     -17.950   4.850 -10.455  1.00  0.00     0.203 C 
BRANCH  16  17
HETATM   17  C19 UNL     1     -16.776   4.148 -11.097  1.00  0.00     0.191 C 
BRANCH  17  18
HETATM   18  O3  UNL     1     -17.105   3.554 -12.308  1.00  0.00    -0.399 OA
ATOM     19  H3  UNL     1     -17.293   2.627 -12.222  1.00  0.00     0.209 HD
ENDBRANCH  17  18
ENDBRANCH  16  17
ENDBRANCH  15  16
ENDBRANCH  10  15
BRANCH  12  20
HETATM   20  N4  UNL     1     -21.904   8.271 -10.884  1.00  0.00    -0.363 N 
HETATM   21  C21 UNL     1     -20.884   8.981 -11.580  1.00  0.00     0.150 C 
HETATM   22  C22 UNL     1     -20.984  10.475 -11.394  1.00  0.00     0.187 C 
HETATM   23  O4  UNL     1     -21.629  10.813 -10.211  1.00  0.00    -0.388 OA
HETATM   24  C23 UNL     1     -22.962  10.407 -10.363  1.00  0.00     0.187 C 
HETATM   25  C24 UNL     1     -23.015   8.922 -10.253  1.00  0.00     0.150 C 
ENDBRANCH  12  20
ENDBRANCH   7   8
BRANCH   5  26
HETATM   26  N1  UNL     1     -25.720   1.965  -7.471  1.00  0.00    -0.323 N 
HETATM   27  C6  UNL     1     -26.331   2.758  -6.462  1.00  0.00     0.256 C 
HETATM   28  O1  UNL     1     -26.411   4.016  -6.779  1.00  0.00    -0.267 OA
ATOM     29  H1  UNL     1     -25.556   0.970  -7.320  1.00  0.00     0.169 HD
BRANCH  27  30
HETATM   30  C7  UNL     1     -26.862   2.395  -5.177  1.00  0.00     0.035 A 
HETATM   31  C8  UNL     1     -27.391   1.185  -4.806  1.00  0.00     0.034 A 
HETATM   32  C9  UNL     1     -27.958   0.958  -3.556  1.00  0.00     0.089 A 
HETATM   33  N2  UNL     1     -27.985   1.990  -2.662  1.00  0.00    -0.362 N 
HETATM   34  C10 UNL     1     -27.487   3.198  -2.954  1.00  0.00     0.117 A 
ATOM     35  H2  UNL     1     -28.398   1.836  -1.742  1.00  0.00     0.165 HD
HETATM   36  C12 UNL     1     -26.931   3.393  -4.199  1.00  0.00     0.051 A 
BRANCH  34  37
HETATM   37  C11 UNL     1     -27.547   4.310  -1.947  1.00  0.00     0.432 C 
HETATM   38  F1  UNL     1     -26.338   4.489  -1.288  1.00  0.00    -0.165 F 
HETATM   39  F2  UNL     1     -28.589   4.068  -1.057  1.00  0.00    -0.165 F 
HETATM   40  F3  UNL     1     -27.802   5.492  -2.596  1.00  0.00    -0.165 F 
ENDBRANCH  34  37
ENDBRANCH  27  30
ENDBRANCH   5  26
TORSDOF 9
ENDMDL
