MODEL 7
REMARK VINA RESULT: -10.211571043      1.079      2.070
REMARK  8 active torsions:
REMARK  status: ('A' for Active; 'I' for Inactive)
REMARK       I    between atoms: C1_2  and  N1_3 
REMARK       I    between atoms: C1_2  and  N2_14 
REMARK    1  A    between atoms: N1_3  and  C2_5 
REMARK    2  A    between atoms: C2_5  and  C3_6 
REMARK    3  A    between atoms: C3_6  and  C4_7 
REMARK    4  A    between atoms: C4_7  and  C5_8 
REMARK    5  A    between atoms: N2_14  and  C11_16 
REMARK    6  A    between atoms: C14_19  and  O2_20 
REMARK    7  A    between atoms: O2_20  and  C15_21 
REMARK    8  A    between atoms: C15_21  and  C16_22 
ROOT
HETATM    1  C11 UNL     1       6.734  88.269 104.569  1.00  0.00     0.086 C 
HETATM    2  C12 UNL     1       7.464  89.512 104.111  1.00  0.00     0.028 C 
HETATM    3  C13 UNL     1       6.599  90.419 103.283  1.00  0.00     0.034 C 
HETATM    4  C14 UNL     1       6.043  89.751 102.061  1.00  0.00     0.122 C 
HETATM    5  C22 UNL     1       6.053  88.267 102.234  1.00  0.00     0.034 C 
HETATM    6  C23 UNL     1       5.587  87.948 103.642  1.00  0.00     0.028 C 
ENDROOT
BRANCH   1   7
HETATM    7  N2  UNL     1       7.708  87.204 104.641  1.00  0.00    -0.339 N 
HETATM    8  C1  UNL     1       7.994  86.477 105.844  1.00  0.00     0.316 C 
HETATM    9  O1  UNL     1       7.350  86.813 106.844  1.00  0.00    -0.247 OA
HETATM   10  N1  UNL     1       8.944  85.442 105.906  1.00  0.00    -0.343 N 
ATOM     11  H1  UNL     1       9.454  85.255 105.043  1.00  0.00     0.164 HD
ATOM     12  H2  UNL     1       8.218  86.956 103.793  1.00  0.00     0.164 HD
BRANCH  10  13
HETATM   13  C2  UNL     1       9.284  84.621 107.023  1.00  0.00     0.125 C 
BRANCH  13  14
HETATM   14  C3  UNL     1      10.666  84.178 107.233  1.00  0.00     0.024 C 
BRANCH  14  15
HETATM   15  C4  UNL     1      11.030  83.518 108.517  1.00  0.00     0.040 C 
BRANCH  15  16
HETATM   16  C5  UNL     1      11.847  82.284 108.178  1.00  0.00    -0.058 A 
HETATM   17  C6  UNL     1      12.624  81.655 109.100  1.00  0.00     0.007 A 
HETATM   18  C7  UNL     1      13.342  80.533 108.720  1.00  0.00     0.001 A 
HETATM   19  C8  UNL     1      13.249  80.093 107.438  1.00  0.00     0.000 A 
HETATM   20  C9  UNL     1      12.467  80.726 106.509  1.00  0.00     0.001 A 
HETATM   21  C10 UNL     1      11.748  81.845 106.879  1.00  0.00     0.007 A 
ENDBRANCH  15  16
ENDBRANCH  14  15
ENDBRANCH  13  14
ENDBRANCH  10  13
ENDBRANCH   1   7
BRANCH   4  22
HETATM   22  O2  UNL     1       4.807  90.279 101.792  1.00  0.00    -0.381 OA
BRANCH  22  23
HETATM   23  C15 UNL     1       4.722  90.971 100.613  1.00  0.00     0.213 C 
BRANCH  23  24
HETATM   24  C16 UNL     1       4.146  90.084  99.570  1.00  0.00     0.043 A 
HETATM   25  C17 UNL     1       4.983  89.437  98.705  1.00  0.00     0.127 A 
HETATM   26  F1  UNL     1       6.330  89.591  98.781  1.00  0.00    -0.205 F 
HETATM   27  C18 UNL     1       4.457  88.606  97.727  1.00  0.00     0.043 A 
HETATM   28  C19 UNL     1       3.082  88.439  97.637  1.00  0.00     0.006 A 
HETATM   29  C20 UNL     1       2.220  89.083  98.502  1.00  0.00     0.043 A 
HETATM   30  C21 UNL     1       2.796  89.904  99.464  1.00  0.00     0.127 A 
HETATM   31  F2  UNL     1       1.995  90.553 100.328  1.00  0.00    -0.205 F 
ENDBRANCH  23  24
ENDBRANCH  22  23
ENDBRANCH   4  22
TORSDOF 8
ENDMDL
