MODEL 6
REMARK VINA RESULT: -10.243135035      1.044      1.686
REMARK  8 active torsions:
REMARK  status: ('A' for Active; 'I' for Inactive)
REMARK       I    between atoms: C1_2  and  N1_3 
REMARK       I    between atoms: C1_2  and  N2_14 
REMARK    1  A    between atoms: N1_3  and  C2_5 
REMARK    2  A    between atoms: C2_5  and  C3_6 
REMARK    3  A    between atoms: C3_6  and  C4_7 
REMARK    4  A    between atoms: C4_7  and  C5_8 
REMARK    5  A    between atoms: N2_14  and  C11_16 
REMARK    6  A    between atoms: C14_19  and  O2_20 
REMARK    7  A    between atoms: O2_20  and  C15_21 
REMARK    8  A    between atoms: C15_21  and  C16_22 
ROOT
HETATM    1  C11 UNL     1       7.448  87.722 103.767  1.00  0.00     0.086 C 
HETATM    2  C12 UNL     1       6.039  87.513 103.256  1.00  0.00     0.028 C 
HETATM    3  C13 UNL     1       5.701  88.419 102.107  1.00  0.00     0.034 C 
HETATM    4  C14 UNL     1       5.845  89.875 102.438  1.00  0.00     0.122 C 
HETATM    5  C22 UNL     1       6.755  90.049 103.612  1.00  0.00     0.034 C 
HETATM    6  C23 UNL     1       7.937  89.113 103.442  1.00  0.00     0.028 C 
ENDROOT
BRANCH   1   7
HETATM    7  N2  UNL     1       7.429  87.456 105.188  1.00  0.00    -0.339 N 
HETATM    8  C1  UNL     1       8.118  86.352 105.792  1.00  0.00     0.316 C 
HETATM    9  O1  UNL     1       8.746  85.619 105.019  1.00  0.00    -0.247 OA
HETATM   10  N1  UNL     1       8.095  86.100 107.175  1.00  0.00    -0.343 N 
ATOM     11  H1  UNL     1       7.524  86.733 107.733  1.00  0.00     0.164 HD
ATOM     12  H2  UNL     1       6.901  88.085 105.792  1.00  0.00     0.164 HD
BRANCH  10  13
HETATM   13  C2  UNL     1       8.770  85.069 107.896  1.00  0.00     0.125 C 
BRANCH  13  14
HETATM   14  C3  UNL     1      10.220  84.894 107.771  1.00  0.00     0.024 C 
BRANCH  14  15
HETATM   15  C4  UNL     1      10.973  84.249 108.882  1.00  0.00     0.040 C 
BRANCH  15  16
HETATM   16  C5  UNL     1      11.803  83.130 108.279  1.00  0.00    -0.058 A 
HETATM   17  C6  UNL     1      11.441  82.498 107.131  1.00  0.00     0.007 A 
HETATM   18  C7  UNL     1      12.248  81.485 106.638  1.00  0.00     0.001 A 
HETATM   19  C8  UNL     1      13.377  81.153 107.316  1.00  0.00     0.000 A 
HETATM   20  C9  UNL     1      13.743  81.789 108.473  1.00  0.00     0.001 A 
HETATM   21  C10 UNL     1      12.944  82.800 108.971  1.00  0.00     0.007 A 
ENDBRANCH  15  16
ENDBRANCH  14  15
ENDBRANCH  13  14
ENDBRANCH  10  13
ENDBRANCH   1   7
BRANCH   4  22
HETATM   22  O2  UNL     1       6.242  90.548 101.312  1.00  0.00    -0.381 OA
BRANCH  22  23
HETATM   23  C15 UNL     1       5.219  91.076 100.569  1.00  0.00     0.213 C 
BRANCH  23  24
HETATM   24  C16 UNL     1       4.910  90.155  99.446  1.00  0.00     0.043 A 
HETATM   25  C17 UNL     1       3.625  89.727  99.267  1.00  0.00     0.127 A 
HETATM   26  F1  UNL     1       2.627  90.126 100.096  1.00  0.00    -0.205 F 
HETATM   27  C18 UNL     1       3.324  88.866  98.221  1.00  0.00     0.043 A 
HETATM   28  C19 UNL     1       4.334  88.449  97.365  1.00  0.00     0.006 A 
HETATM   29  C20 UNL     1       5.637  88.871  97.529  1.00  0.00     0.043 A 
HETATM   30  C21 UNL     1       5.887  89.732  98.591  1.00  0.00     0.127 A 
HETATM   31  F2  UNL     1       7.145  90.169  98.790  1.00  0.00    -0.205 F 
ENDBRANCH  23  24
ENDBRANCH  22  23
ENDBRANCH   4  22
TORSDOF 8
ENDMDL
