MODEL 2
REMARK VINA RESULT: -10.699426274      0.030      1.521
REMARK  8 active torsions:
REMARK  status: ('A' for Active; 'I' for Inactive)
REMARK       I    between atoms: C1_2  and  N1_3 
REMARK       I    between atoms: C1_2  and  N2_14 
REMARK    1  A    between atoms: N1_3  and  C2_5 
REMARK    2  A    between atoms: C2_5  and  C3_6 
REMARK    3  A    between atoms: C3_6  and  C4_7 
REMARK    4  A    between atoms: C4_7  and  C5_8 
REMARK    5  A    between atoms: N2_14  and  C11_16 
REMARK    6  A    between atoms: C14_19  and  O2_20 
REMARK    7  A    between atoms: O2_20  and  C15_21 
REMARK    8  A    between atoms: C15_21  and  C16_22 
ROOT
HETATM    1  C11 UNL     1       6.334  88.235 104.358  1.00  0.00     0.086 C 
HETATM    2  C12 UNL     1       7.140  89.508 104.217  1.00  0.00     0.028 C 
HETATM    3  C13 UNL     1       6.592  90.426 103.163  1.00  0.00     0.034 C 
HETATM    4  C14 UNL     1       6.517  89.792 101.806  1.00  0.00     0.122 C 
HETATM    5  C22 UNL     1       6.511  88.303 101.932  1.00  0.00     0.034 C 
HETATM    6  C23 UNL     1       5.593  87.925 103.079  1.00  0.00     0.028 C 
ENDROOT
BRANCH   1   7
HETATM    7  N2  UNL     1       7.254  87.187 104.737  1.00  0.00    -0.339 N 
HETATM    8  C1  UNL     1       7.556  86.859 106.100  1.00  0.00     0.316 C 
HETATM    9  O1  UNL     1       6.976  87.533 106.959  1.00  0.00    -0.247 OA
HETATM   10  N1  UNL     1       8.453  85.838 106.461  1.00  0.00    -0.343 N 
ATOM     11  H1  UNL     1       8.913  85.357 105.689  1.00  0.00     0.164 HD
ATOM     12  H2  UNL     1       7.712  86.654 103.998  1.00  0.00     0.164 HD
BRANCH  10  13
HETATM   13  C2  UNL     1       8.800  85.389 107.771  1.00  0.00     0.125 C 
BRANCH  13  14
HETATM   14  C3  UNL     1       9.002  83.963 108.045  1.00  0.00     0.024 C 
BRANCH  14  15
HETATM   15  C4  UNL     1       9.639  83.107 107.007  1.00  0.00     0.040 C 
BRANCH  15  16
HETATM   16  C5  UNL     1      11.022  82.735 107.511  1.00  0.00    -0.058 A 
HETATM   17  C6  UNL     1      11.535  83.247 108.662  1.00  0.00     0.007 A 
HETATM   18  C7  UNL     1      12.804  82.862 109.061  1.00  0.00     0.001 A 
HETATM   19  C8  UNL     1      13.500  81.985 108.291  1.00  0.00     0.000 A 
HETATM   20  C9  UNL     1      12.985  81.469 107.132  1.00  0.00     0.001 A 
HETATM   21  C10 UNL     1      11.720  81.848 106.727  1.00  0.00     0.007 A 
ENDBRANCH  15  16
ENDBRANCH  14  15
ENDBRANCH  13  14
ENDBRANCH  10  13
ENDBRANCH   1   7
BRANCH   4  22
HETATM   22  O2  UNL     1       5.437  90.306 101.136  1.00  0.00    -0.381 OA
BRANCH  22  23
HETATM   23  C15 UNL     1       5.727  90.858  99.917  1.00  0.00     0.213 C 
BRANCH  23  24
HETATM   24  C16 UNL     1       5.515  89.837  98.859  1.00  0.00     0.043 A 
HETATM   25  C17 UNL     1       6.598  89.275  98.246  1.00  0.00     0.127 A 
HETATM   26  F1  UNL     1       7.864  89.631  98.585  1.00  0.00    -0.205 F 
HETATM   27  C18 UNL     1       6.413  88.320  97.256  1.00  0.00     0.043 A 
HETATM   28  C19 UNL     1       5.125  87.945  96.899  1.00  0.00     0.006 A 
HETATM   29  C20 UNL     1       4.018  88.501  97.507  1.00  0.00     0.043 A 
HETATM   30  C21 UNL     1       4.257  89.453  98.492  1.00  0.00     0.127 A 
HETATM   31  F2  UNL     1       3.207  90.023  99.112  1.00  0.00    -0.205 F 
ENDBRANCH  23  24
ENDBRANCH  22  23
ENDBRANCH   4  22
TORSDOF 8
ENDMDL
