MODEL 11
REMARK VINA RESULT: -9.728543293      4.519     11.739
REMARK  8 active torsions:
REMARK  status: ('A' for Active; 'I' for Inactive)
REMARK       I    between atoms: C1_2  and  N1_3 
REMARK       I    between atoms: C1_2  and  N2_14 
REMARK    1  A    between atoms: N1_3  and  C2_5 
REMARK    2  A    between atoms: C2_5  and  C3_6 
REMARK    3  A    between atoms: C3_6  and  C4_7 
REMARK    4  A    between atoms: C4_7  and  C5_8 
REMARK    5  A    between atoms: N2_14  and  C11_16 
REMARK    6  A    between atoms: C14_19  and  O2_20 
REMARK    7  A    between atoms: O2_20  and  C15_21 
REMARK    8  A    between atoms: C15_21  and  C16_22 
ROOT
HETATM    1  C11 UNL     1       9.191  84.083 106.988  1.00  0.00     0.086 C 
HETATM    2  C12 UNL     1      10.594  84.448 106.556  1.00  0.00     0.028 C 
HETATM    3  C13 UNL     1      11.623  83.469 107.044  1.00  0.00     0.034 C 
HETATM    4  C14 UNL     1      11.638  83.321 108.536  1.00  0.00     0.122 C 
HETATM    5  C22 UNL     1      10.333  83.767 109.112  1.00  0.00     0.034 C 
HETATM    6  C23 UNL     1       9.217  83.232 108.235  1.00  0.00     0.028 C 
ENDROOT
BRANCH   1   7
HETATM    7  N2  UNL     1       8.466  85.320 107.172  1.00  0.00    -0.339 N 
HETATM    8  C1  UNL     1       8.109  86.193 106.091  1.00  0.00     0.316 C 
HETATM    9  O1  UNL     1       8.461  85.827 104.963  1.00  0.00    -0.247 OA
HETATM   10  N1  UNL     1       7.404  87.395 106.279  1.00  0.00    -0.343 N 
ATOM     11  H1  UNL     1       7.185  87.636 107.245  1.00  0.00     0.164 HD
ATOM     12  H2  UNL     1       8.193  85.585 108.118  1.00  0.00     0.164 HD
BRANCH  10  13
HETATM   13  C2  UNL     1       6.956  88.320 105.288  1.00  0.00     0.125 C 
BRANCH  13  14
HETATM   14  C3  UNL     1       5.878  87.960 104.361  1.00  0.00     0.024 C 
BRANCH  14  15
HETATM   15  C4  UNL     1       6.145  87.974 102.896  1.00  0.00     0.040 C 
BRANCH  15  16
HETATM   16  C5  UNL     1       5.081  88.841 102.248  1.00  0.00    -0.058 A 
HETATM   17  C6  UNL     1       3.831  88.376 101.984  1.00  0.00     0.007 A 
HETATM   18  C7  UNL     1       2.909  89.224 101.391  1.00  0.00     0.001 A 
HETATM   19  C8  UNL     1       3.282  90.495 101.091  1.00  0.00     0.000 A 
HETATM   20  C9  UNL     1       4.540  90.965 101.356  1.00  0.00     0.001 A 
HETATM   21  C10 UNL     1       5.465  90.126 101.947  1.00  0.00     0.007 A 
ENDBRANCH  15  16
ENDBRANCH  14  15
ENDBRANCH  13  14
ENDBRANCH  10  13
ENDBRANCH   1   7
BRANCH   4  22
HETATM   22  O2  UNL     1      11.983  82.032 108.850  1.00  0.00    -0.381 OA
BRANCH  22  23
HETATM   23  C15 UNL     1      13.200  81.630 108.368  1.00  0.00     0.213 C 
BRANCH  23  24
HETATM   24  C16 UNL     1      13.134  80.185 108.030  1.00  0.00     0.043 A 
HETATM   25  C17 UNL     1      13.650  79.270 108.902  1.00  0.00     0.127 A 
HETATM   26  F1  UNL     1      14.221  79.656 110.072  1.00  0.00    -0.205 F 
HETATM   27  C18 UNL     1      13.595  77.917 108.597  1.00  0.00     0.043 A 
HETATM   28  C19 UNL     1      13.014  77.508 107.405  1.00  0.00     0.006 A 
HETATM   29  C20 UNL     1      12.486  78.417 106.511  1.00  0.00     0.043 A 
HETATM   30  C21 UNL     1      12.567  79.759 106.863  1.00  0.00     0.127 A 
HETATM   31  F2  UNL     1      12.066  80.682 106.020  1.00  0.00    -0.205 F 
ENDBRANCH  23  24
ENDBRANCH  22  23
ENDBRANCH   4  22
TORSDOF 8
ENDMDL
