MODEL 5
REMARK VINA RESULT: -10.259407465      1.076      2.287
REMARK  8 active torsions:
REMARK  status: ('A' for Active; 'I' for Inactive)
REMARK       I    between atoms: C1_2  and  N1_3 
REMARK       I    between atoms: C1_2  and  N2_14 
REMARK    1  A    between atoms: N1_3  and  C2_5 
REMARK    2  A    between atoms: C2_5  and  C3_6 
REMARK    3  A    between atoms: C3_6  and  C4_7 
REMARK    4  A    between atoms: C4_7  and  C5_8 
REMARK    5  A    between atoms: N2_14  and  C11_16 
REMARK    6  A    between atoms: C14_19  and  O2_20 
REMARK    7  A    between atoms: O2_20  and  C15_21 
REMARK    8  A    between atoms: C15_21  and  C16_22 
ROOT
HETATM    1  C11 UNL     1       7.464  87.706 103.777  1.00  0.00     0.086 C 
HETATM    2  C12 UNL     1       6.064  87.489 103.248  1.00  0.00     0.028 C 
HETATM    3  C13 UNL     1       5.732  88.398 102.099  1.00  0.00     0.034 C 
HETATM    4  C14 UNL     1       5.860  89.852 102.440  1.00  0.00     0.122 C 
HETATM    5  C22 UNL     1       6.754  90.028 103.625  1.00  0.00     0.034 C 
HETATM    6  C23 UNL     1       7.946  89.103 103.465  1.00  0.00     0.028 C 
ENDROOT
BRANCH   1   7
HETATM    7  N2  UNL     1       7.431  87.433 105.197  1.00  0.00    -0.339 N 
HETATM    8  C1  UNL     1       8.119  86.330 105.803  1.00  0.00     0.316 C 
HETATM    9  O1  UNL     1       8.761  85.605 105.034  1.00  0.00    -0.247 OA
HETATM   10  N1  UNL     1       8.082  86.071 107.184  1.00  0.00    -0.343 N 
ATOM     11  H1  UNL     1       7.501  86.698 107.739  1.00  0.00     0.164 HD
ATOM     12  H2  UNL     1       6.891  88.055 105.797  1.00  0.00     0.164 HD
BRANCH  10  13
HETATM   13  C2  UNL     1       8.755  85.040 107.908  1.00  0.00     0.125 C 
BRANCH  13  14
HETATM   14  C3  UNL     1      10.216  84.931 107.870  1.00  0.00     0.024 C 
BRANCH  14  15
HETATM   15  C4  UNL     1      10.919  84.199 108.960  1.00  0.00     0.040 C 
BRANCH  15  16
HETATM   16  C5  UNL     1      11.756  83.111 108.311  1.00  0.00    -0.058 A 
HETATM   17  C6  UNL     1      11.385  82.509 107.149  1.00  0.00     0.007 A 
HETATM   18  C7  UNL     1      12.198  81.524 106.613  1.00  0.00     0.001 A 
HETATM   19  C8  UNL     1      13.342  81.188 107.265  1.00  0.00     0.000 A 
HETATM   20  C9  UNL     1      13.716  81.793 108.434  1.00  0.00     0.001 A 
HETATM   21  C10 UNL     1      12.911  82.776 108.975  1.00  0.00     0.007 A 
ENDBRANCH  15  16
ENDBRANCH  14  15
ENDBRANCH  13  14
ENDBRANCH  10  13
ENDBRANCH   1   7
BRANCH   4  22
HETATM   22  O2  UNL     1       6.265  90.535 101.322  1.00  0.00    -0.381 OA
BRANCH  22  23
HETATM   23  C15 UNL     1       5.253  91.125 100.612  1.00  0.00     0.213 C 
BRANCH  23  24
HETATM   24  C16 UNL     1       4.816  90.204  99.533  1.00  0.00     0.043 A 
HETATM   25  C17 UNL     1       5.728  89.769  98.614  1.00  0.00     0.127 A 
HETATM   26  F1  UNL     1       7.026  90.164  98.669  1.00  0.00    -0.205 F 
HETATM   27  C18 UNL     1       5.331  88.908  97.600  1.00  0.00     0.043 A 
HETATM   28  C19 UNL     1       4.007  88.497  97.531  1.00  0.00     0.006 A 
HETATM   29  C20 UNL     1       3.070  88.924  98.450  1.00  0.00     0.043 A 
HETATM   30  C21 UNL     1       3.518  89.786  99.445  1.00  0.00     0.127 A 
HETATM   31  F2  UNL     1       2.640  90.229 100.363  1.00  0.00    -0.205 F 
ENDBRANCH  23  24
ENDBRANCH  22  23
ENDBRANCH   4  22
TORSDOF 8
ENDMDL
