MODEL 15
REMARK VINA RESULT: -9.584098250      4.568     11.769
REMARK  8 active torsions:
REMARK  status: ('A' for Active; 'I' for Inactive)
REMARK       I    between atoms: C1_2  and  N1_3 
REMARK       I    between atoms: C1_2  and  N2_14 
REMARK    1  A    between atoms: N1_3  and  C2_5 
REMARK    2  A    between atoms: C2_5  and  C3_6 
REMARK    3  A    between atoms: C3_6  and  C4_7 
REMARK    4  A    between atoms: C4_7  and  C5_8 
REMARK    5  A    between atoms: N2_14  and  C11_16 
REMARK    6  A    between atoms: C14_19  and  O2_20 
REMARK    7  A    between atoms: O2_20  and  C15_21 
REMARK    8  A    between atoms: C15_21  and  C16_22 
ROOT
HETATM    1  C11 UNL     1       9.187  84.164 107.079  1.00  0.00     0.086 C 
HETATM    2  C12 UNL     1      10.604  84.445 106.627  1.00  0.00     0.028 C 
HETATM    3  C13 UNL     1      11.589  83.444 107.159  1.00  0.00     0.034 C 
HETATM    4  C14 UNL     1      11.605  83.367 108.656  1.00  0.00     0.122 C 
HETATM    5  C22 UNL     1      10.324  83.897 109.214  1.00  0.00     0.034 C 
HETATM    6  C23 UNL     1       9.181  83.373 108.365  1.00  0.00     0.028 C 
ENDROOT
BRANCH   1   7
HETATM    7  N2  UNL     1       8.519  85.440 107.207  1.00  0.00    -0.339 N 
HETATM    8  C1  UNL     1       8.047  86.198 106.084  1.00  0.00     0.316 C 
HETATM    9  O1  UNL     1       8.243  85.694 104.972  1.00  0.00    -0.247 OA
HETATM   10  N1  UNL     1       7.399  87.438 106.216  1.00  0.00    -0.343 N 
ATOM     11  H1  UNL     1       7.311  87.795 107.167  1.00  0.00     0.164 HD
ATOM     12  H2  UNL     1       8.376  85.820 108.141  1.00  0.00     0.164 HD
BRANCH  10  13
HETATM   13  C2  UNL     1       6.848  88.261 105.188  1.00  0.00     0.125 C 
BRANCH  13  14
HETATM   14  C3  UNL     1       7.674  88.703 104.060  1.00  0.00     0.024 C 
BRANCH  14  15
HETATM   15  C4  UNL     1       7.285  89.930 103.312  1.00  0.00     0.040 C 
BRANCH  15  16
HETATM   16  C5  UNL     1       6.196  89.538 102.329  1.00  0.00    -0.058 A 
HETATM   17  C6  UNL     1       4.933  89.235 102.732  1.00  0.00     0.007 A 
HETATM   18  C7  UNL     1       3.989  88.886 101.779  1.00  0.00     0.001 A 
HETATM   19  C8  UNL     1       4.354  88.856 100.471  1.00  0.00     0.000 A 
HETATM   20  C9  UNL     1       5.625  89.160 100.064  1.00  0.00     0.001 A 
HETATM   21  C10 UNL     1       6.572  89.509 101.007  1.00  0.00     0.007 A 
ENDBRANCH  15  16
ENDBRANCH  14  15
ENDBRANCH  13  14
ENDBRANCH  10  13
ENDBRANCH   1   7
BRANCH   4  22
HETATM   22  O2  UNL     1      11.893  82.079 109.030  1.00  0.00    -0.381 OA
BRANCH  22  23
HETATM   23  C15 UNL     1      13.223  81.822 109.226  1.00  0.00     0.213 C 
BRANCH  23  24
HETATM   24  C16 UNL     1      13.522  80.438 108.779  1.00  0.00     0.043 A 
HETATM   25  C17 UNL     1      13.407  79.408 109.668  1.00  0.00     0.127 A 
HETATM   26  F1  UNL     1      13.026  79.627 110.953  1.00  0.00    -0.205 F 
HETATM   27  C18 UNL     1      13.683  78.111 109.262  1.00  0.00     0.043 A 
HETATM   28  C19 UNL     1      14.074  77.872 107.952  1.00  0.00     0.006 A 
HETATM   29  C20 UNL     1      14.195  78.898 107.037  1.00  0.00     0.043 A 
HETATM   30  C21 UNL     1      13.907  80.180 107.494  1.00  0.00     0.127 A 
HETATM   31  F2  UNL     1      14.013  81.213 106.637  1.00  0.00    -0.205 F 
ENDBRANCH  23  24
ENDBRANCH  22  23
ENDBRANCH   4  22
TORSDOF 8
ENDMDL
