MODEL 1
REMARK VINA RESULT: -10.721864083      0.000      0.000
REMARK  8 active torsions:
REMARK  status: ('A' for Active; 'I' for Inactive)
REMARK       I    between atoms: C1_2  and  N1_3 
REMARK       I    between atoms: C1_2  and  N2_14 
REMARK    1  A    between atoms: N1_3  and  C2_5 
REMARK    2  A    between atoms: C2_5  and  C3_6 
REMARK    3  A    between atoms: C3_6  and  C4_7 
REMARK    4  A    between atoms: C4_7  and  C5_8 
REMARK    5  A    between atoms: N2_14  and  C11_16 
REMARK    6  A    between atoms: C14_19  and  O2_20 
REMARK    7  A    between atoms: O2_20  and  C15_21 
REMARK    8  A    between atoms: C15_21  and  C16_22 
ROOT
HETATM    1  C11 UNL     1       6.333  88.244 104.349  1.00  0.00     0.086 C 
HETATM    2  C12 UNL     1       7.138  89.518 104.212  1.00  0.00     0.028 C 
HETATM    3  C13 UNL     1       6.589  90.438 103.159  1.00  0.00     0.034 C 
HETATM    4  C14 UNL     1       6.518  89.806 101.801  1.00  0.00     0.122 C 
HETATM    5  C22 UNL     1       6.514  88.316 101.924  1.00  0.00     0.034 C 
HETATM    6  C23 UNL     1       5.595  87.935 103.069  1.00  0.00     0.028 C 
ENDROOT
BRANCH   1   7
HETATM    7  N2  UNL     1       7.254  87.196 104.728  1.00  0.00    -0.339 N 
HETATM    8  C1  UNL     1       7.561  86.871 106.091  1.00  0.00     0.316 C 
HETATM    9  O1  UNL     1       6.984  87.548 106.950  1.00  0.00    -0.247 OA
HETATM   10  N1  UNL     1       8.459  85.851 106.451  1.00  0.00    -0.343 N 
ATOM     11  H1  UNL     1       8.916  85.368 105.679  1.00  0.00     0.164 HD
ATOM     12  H2  UNL     1       7.709  86.661 103.989  1.00  0.00     0.164 HD
BRANCH  10  13
HETATM   13  C2  UNL     1       8.811  85.406 107.762  1.00  0.00     0.125 C 
BRANCH  13  14
HETATM   14  C3  UNL     1       8.986  83.978 108.045  1.00  0.00     0.024 C 
BRANCH  14  15
HETATM   15  C4  UNL     1       9.625  83.108 107.020  1.00  0.00     0.040 C 
BRANCH  15  16
HETATM   16  C5  UNL     1      11.006  82.739 107.533  1.00  0.00    -0.058 A 
HETATM   17  C6  UNL     1      11.510  83.254 108.685  1.00  0.00     0.007 A 
HETATM   18  C7  UNL     1      12.778  82.873 109.094  1.00  0.00     0.001 A 
HETATM   19  C8  UNL     1      13.480  81.994 108.330  1.00  0.00     0.000 A 
HETATM   20  C9  UNL     1      12.972  81.475 107.169  1.00  0.00     0.001 A 
HETATM   21  C10 UNL     1      11.710  81.850 106.756  1.00  0.00     0.007 A 
ENDBRANCH  15  16
ENDBRANCH  14  15
ENDBRANCH  13  14
ENDBRANCH  10  13
ENDBRANCH   1   7
BRANCH   4  22
HETATM   22  O2  UNL     1       5.438  90.319 101.130  1.00  0.00    -0.381 OA
BRANCH  22  23
HETATM   23  C15 UNL     1       5.728  90.865  99.908  1.00  0.00     0.213 C 
BRANCH  23  24
HETATM   24  C16 UNL     1       5.514  89.841  98.855  1.00  0.00     0.043 A 
HETATM   25  C17 UNL     1       4.239  89.478  98.525  1.00  0.00     0.127 A 
HETATM   26  F1  UNL     1       3.165  90.035  99.142  1.00  0.00    -0.205 F 
HETATM   27  C18 UNL     1       4.026  88.522  97.541  1.00  0.00     0.043 A 
HETATM   28  C19 UNL     1       5.114  87.944  96.902  1.00  0.00     0.006 A 
HETATM   29  C20 UNL     1       6.409  88.298  97.220  1.00  0.00     0.043 A 
HETATM   30  C21 UNL     1       6.569  89.260  98.211  1.00  0.00     0.127 A 
HETATM   31  F2  UNL     1       7.814  89.636  98.556  1.00  0.00    -0.205 F 
ENDBRANCH  23  24
ENDBRANCH  22  23
ENDBRANCH   4  22
TORSDOF 8
ENDMDL
