MODEL 10
REMARK VINA RESULT: -9.742104061      4.505     11.678
REMARK  8 active torsions:
REMARK  status: ('A' for Active; 'I' for Inactive)
REMARK       I    between atoms: C1_2  and  N1_3 
REMARK       I    between atoms: C1_2  and  N2_14 
REMARK    1  A    between atoms: N1_3  and  C2_5 
REMARK    2  A    between atoms: C2_5  and  C3_6 
REMARK    3  A    between atoms: C3_6  and  C4_7 
REMARK    4  A    between atoms: C4_7  and  C5_8 
REMARK    5  A    between atoms: N2_14  and  C11_16 
REMARK    6  A    between atoms: C14_19  and  O2_20 
REMARK    7  A    between atoms: O2_20  and  C15_21 
REMARK    8  A    between atoms: C15_21  and  C16_22 
ROOT
HETATM    1  C11 UNL     1       9.203  84.102 106.979  1.00  0.00     0.086 C 
HETATM    2  C12 UNL     1      10.603  84.453 106.526  1.00  0.00     0.028 C 
HETATM    3  C13 UNL     1      11.631  83.473 107.013  1.00  0.00     0.034 C 
HETATM    4  C14 UNL     1      11.664  83.343 108.507  1.00  0.00     0.122 C 
HETATM    5  C22 UNL     1      10.369  83.804 109.093  1.00  0.00     0.034 C 
HETATM    6  C23 UNL     1       9.239  83.266 108.236  1.00  0.00     0.028 C 
ENDROOT
BRANCH   1   7
HETATM    7  N2  UNL     1       8.488  85.346 107.158  1.00  0.00    -0.339 N 
HETATM    8  C1  UNL     1       8.134  86.214 106.072  1.00  0.00     0.316 C 
HETATM    9  O1  UNL     1       8.478  85.837 104.945  1.00  0.00    -0.247 OA
HETATM   10  N1  UNL     1       7.439  87.422 106.254  1.00  0.00    -0.343 N 
ATOM     11  H1  UNL     1       7.226  87.672 107.219  1.00  0.00     0.164 HD
ATOM     12  H2  UNL     1       8.221  85.620 108.103  1.00  0.00     0.164 HD
BRANCH  10  13
HETATM   13  C2  UNL     1       6.993  88.344 105.258  1.00  0.00     0.125 C 
BRANCH  13  14
HETATM   14  C3  UNL     1       5.874  88.006 104.373  1.00  0.00     0.024 C 
BRANCH  14  15
HETATM   15  C4  UNL     1       6.100  87.954 102.903  1.00  0.00     0.040 C 
BRANCH  15  16
HETATM   16  C5  UNL     1       5.110  88.907 102.256  1.00  0.00    -0.058 A 
HETATM   17  C6  UNL     1       5.433  90.194 101.960  1.00  0.00     0.007 A 
HETATM   18  C7  UNL     1       4.480  91.007 101.370  1.00  0.00     0.001 A 
HETATM   19  C8  UNL     1       3.250  90.495 101.104  1.00  0.00     0.000 A 
HETATM   20  C9  UNL     1       2.923  89.199 101.402  1.00  0.00     0.001 A 
HETATM   21  C10 UNL     1       3.868  88.382 101.991  1.00  0.00     0.007 A 
ENDBRANCH  15  16
ENDBRANCH  14  15
ENDBRANCH  13  14
ENDBRANCH  10  13
ENDBRANCH   1   7
BRANCH   4  22
HETATM   22  O2  UNL     1      12.005  82.056 108.832  1.00  0.00    -0.381 OA
BRANCH  22  23
HETATM   23  C15 UNL     1      13.212  81.639 108.339  1.00  0.00     0.213 C 
BRANCH  23  24
HETATM   24  C16 UNL     1      13.129  80.194 108.006  1.00  0.00     0.043 A 
HETATM   25  C17 UNL     1      12.577  79.813 106.816  1.00  0.00     0.127 A 
HETATM   26  F1  UNL     1      12.104  80.729 105.933  1.00  0.00    -0.205 F 
HETATM   27  C18 UNL     1      12.494  78.466 106.494  1.00  0.00     0.043 A 
HETATM   28  C19 UNL     1      12.974  77.517 107.386  1.00  0.00     0.006 A 
HETATM   29  C20 UNL     1      13.536  77.882 108.593  1.00  0.00     0.043 A 
HETATM   30  C21 UNL     1      13.596  79.244 108.869  1.00  0.00     0.127 A 
HETATM   31  F2  UNL     1      14.134  79.647 110.034  1.00  0.00    -0.205 F 
ENDBRANCH  23  24
ENDBRANCH  22  23
ENDBRANCH   4  22
TORSDOF 8
ENDMDL
