MODEL 7
REMARK VINA RESULT: -9.397234184      7.347     12.425
REMARK  6 active torsions:
REMARK  status: ('A' for Active; 'I' for Inactive)
REMARK    1  A    between atoms: O1_2  and  C2_3 
REMARK    2  A    between atoms: C6_10  and  S1_11 
REMARK    3  A    between atoms: S1_11  and  N2_14 
REMARK    4  A    between atoms: N2_14  and  C7_16 
REMARK    5  A    between atoms: C11_21  and  C12_22 
REMARK    6  A    between atoms: C13_23  and  C14_24 
ROOT
HETATM    1  C7  UNL     1      -2.058 -19.353  22.070  1.00  0.00     0.083 A 
HETATM    2  C8  UNL     1      -3.172 -19.005  22.800  1.00  0.00     0.036 A 
HETATM    3  C9  UNL     1      -4.121 -18.131  22.281  1.00  0.00     0.046 A 
HETATM    4  C10 UNL     1      -3.907 -17.627  21.016  1.00  0.00     0.138 A 
HETATM    5  F1  UNL     1      -4.804 -16.782  20.488  1.00  0.00    -0.204 F 
HETATM    6  C11 UNL     1      -2.801 -17.957  20.261  1.00  0.00     0.097 A 
HETATM    7  C18 UNL     1      -1.875 -18.831  20.806  1.00  0.00     0.165 A 
HETATM    8  F2  UNL     1      -0.792 -19.166  20.090  1.00  0.00    -0.202 F 
ENDROOT
BRANCH   1   9
HETATM    9  N2  UNL     1      -1.078 -20.252  22.606  1.00  0.00    -0.277 N 
ATOM     10  H2  UNL     1      -0.176 -19.878  22.900  1.00  0.00     0.179 HD
BRANCH   9  11
HETATM   11  S1  UNL     1      -1.370 -21.936  22.773  1.00  0.00     0.267 S 
HETATM   12  O2  UNL     1      -2.849 -22.167  22.822  1.00  0.00    -0.200 OA
HETATM   13  O3  UNL     1      -0.788 -22.715  21.625  1.00  0.00    -0.200 OA
BRANCH  11  14
HETATM   14  C6  UNL     1      -0.705 -22.559  24.282  1.00  0.00     0.132 A 
HETATM   15  C2  UNL     1      -0.933 -21.875  25.463  1.00  0.00     0.165 A 
HETATM   16  N1  UNL     1      -0.447 -22.317  26.629  1.00  0.00    -0.344 N 
HETATM   17  C3  UNL     1       0.285 -23.440  26.727  1.00  0.00     0.114 A 
ATOM     18  H1  UNL     1      -0.640 -21.781  27.476  1.00  0.00     0.167 HD
HETATM   19  C4  UNL     1       0.531 -24.144  25.567  1.00  0.00     0.051 A 
HETATM   20 CL1  UNL     1       1.477 -25.616  25.625  1.00  0.00    -0.083 Cl
HETATM   21  C5  UNL     1       0.041 -23.709  24.354  1.00  0.00     0.055 A 
BRANCH  15  22
HETATM   22  O1  UNL     1      -1.685 -20.706  25.421  1.00  0.00    -0.340 OA
HETATM   23  C1  UNL     1      -2.723 -20.443  26.346  1.00  0.00     0.211 C 
ENDBRANCH  15  22
ENDBRANCH  11  14
ENDBRANCH   9  11
ENDBRANCH   1   9
BRANCH   6  24
HETATM   24  C12 UNL     1      -2.572 -17.437  18.943  1.00  0.00    -0.055 C 
HETATM   25  C13 UNL     1      -2.401 -16.999  17.831  1.00  0.00    -0.058 C 
BRANCH  25  26
HETATM   26  C14 UNL     1      -2.220 -16.479  16.502  1.00  0.00     0.049 A 
HETATM   27  C15 UNL     1      -2.988 -16.950  15.463  1.00  0.00     0.112 A 
HETATM   28  N3  UNL     1      -2.781 -16.434  14.243  1.00  0.00    -0.339 N 
HETATM   29  C16 UNL     1      -1.874 -15.489  13.973  1.00  0.00     0.192 A 
ATOM     30  H3  UNL     1      -3.351 -16.784  13.473  1.00  0.00     0.167 HD
HETATM   31  N4  UNL     1      -1.743 -15.012  12.625  1.00  0.00    -0.063 NA
HETATM   32  N5  UNL     1      -1.119 -15.017  14.963  1.00  0.00    -0.339 N 
HETATM   33  C17 UNL     1      -1.286 -15.504  16.215  1.00  0.00     0.112 A 
ATOM     34  H5  UNL     1      -0.421 -14.296  14.779  1.00  0.00     0.167 HD
ENDBRANCH  25  26
ENDBRANCH   6  24
TORSDOF 6
ENDMDL
