MODEL 6
REMARK VINA RESULT: -9.584611266      6.383     10.897
REMARK  6 active torsions:
REMARK  status: ('A' for Active; 'I' for Inactive)
REMARK    1  A    between atoms: O1_2  and  C2_3 
REMARK    2  A    between atoms: C6_10  and  S1_11 
REMARK    3  A    between atoms: S1_11  and  N2_14 
REMARK    4  A    between atoms: N2_14  and  C7_16 
REMARK    5  A    between atoms: C11_21  and  C12_22 
REMARK    6  A    between atoms: C13_23  and  C14_24 
ROOT
HETATM    1  C7  UNL     1      -2.279 -18.681  21.248  1.00  0.00     0.083 A 
HETATM    2  C8  UNL     1      -3.394 -18.409  22.008  1.00  0.00     0.036 A 
HETATM    3  C9  UNL     1      -4.454 -17.678  21.483  1.00  0.00     0.046 A 
HETATM    4  C10 UNL     1      -4.348 -17.236  20.182  1.00  0.00     0.138 A 
HETATM    5  F1  UNL     1      -5.353 -16.528  19.647  1.00  0.00    -0.204 F 
HETATM    6  C11 UNL     1      -3.243 -17.492  19.396  1.00  0.00     0.097 A 
HETATM    7  C18 UNL     1      -2.205 -18.225  19.948  1.00  0.00     0.165 A 
HETATM    8  F2  UNL     1      -1.121 -18.486  19.204  1.00  0.00    -0.202 F 
ENDROOT
BRANCH   1   9
HETATM    9  N2  UNL     1      -1.185 -19.433  21.791  1.00  0.00    -0.277 N 
ATOM     10  H2  UNL     1      -0.268 -18.989  21.857  1.00  0.00     0.179 HD
BRANCH   9  11
HETATM   11  S1  UNL     1      -1.362 -21.053  22.333  1.00  0.00     0.267 S 
HETATM   12  O2  UNL     1      -0.631 -21.210  23.630  1.00  0.00    -0.200 OA
HETATM   13  O3  UNL     1      -2.808 -21.414  22.536  1.00  0.00    -0.200 OA
BRANCH  11  14
HETATM   14  C6  UNL     1      -0.641 -22.194  21.198  1.00  0.00     0.132 A 
HETATM   15  C2  UNL     1      -0.395 -23.494  21.600  1.00  0.00     0.165 A 
HETATM   16  N1  UNL     1       0.148 -24.390  20.767  1.00  0.00    -0.344 N 
HETATM   17  C3  UNL     1       0.486 -24.087  19.502  1.00  0.00     0.114 A 
ATOM     18  H1  UNL     1       0.312 -25.338  21.105  1.00  0.00     0.167 HD
HETATM   19  C4  UNL     1       0.255 -22.798  19.071  1.00  0.00     0.051 A 
HETATM   20 CL1  UNL     1       0.672 -22.337  17.434  1.00  0.00    -0.083 Cl
HETATM   21  C5  UNL     1      -0.304 -21.857  19.910  1.00  0.00     0.055 A 
BRANCH  15  22
HETATM   22  O1  UNL     1      -0.726 -23.864  22.900  1.00  0.00    -0.340 OA
HETATM   23  C1  UNL     1      -0.802 -25.218  23.302  1.00  0.00     0.211 C 
ENDBRANCH  15  22
ENDBRANCH  11  14
ENDBRANCH   9  11
ENDBRANCH   1   9
BRANCH   6  24
HETATM   24  C12 UNL     1      -3.126 -17.036  18.040  1.00  0.00    -0.055 C 
HETATM   25  C13 UNL     1      -3.049 -16.651  16.899  1.00  0.00    -0.058 C 
BRANCH  25  26
HETATM   26  C14 UNL     1      -2.981 -16.192  15.537  1.00  0.00     0.049 A 
HETATM   27  C15 UNL     1      -1.793 -15.729  15.021  1.00  0.00     0.112 A 
HETATM   28  N3  UNL     1      -1.781 -15.311  13.747  1.00  0.00    -0.339 N 
HETATM   29  C16 UNL     1      -2.852 -15.317  12.946  1.00  0.00     0.192 A 
ATOM     30  H3  UNL     1      -0.900 -14.968  13.365  1.00  0.00     0.167 HD
HETATM   31  N4  UNL     1      -2.717 -14.845  11.597  1.00  0.00    -0.063 NA
HETATM   32  N5  UNL     1      -4.013 -15.761  13.424  1.00  0.00    -0.339 N 
HETATM   33  C17 UNL     1      -4.082 -16.194  14.705  1.00  0.00     0.112 A 
ATOM     34  H5  UNL     1      -4.843 -15.774  12.831  1.00  0.00     0.167 HD
ENDBRANCH  25  26
ENDBRANCH   6  24
TORSDOF 6
ENDMDL
