MODEL 2
REMARK VINA RESULT: -10.685910917      1.016      1.454
REMARK  6 active torsions:
REMARK  status: ('A' for Active; 'I' for Inactive)
REMARK    1  A    between atoms: O1_2  and  C2_3 
REMARK    2  A    between atoms: C6_10  and  S1_11 
REMARK    3  A    between atoms: S1_11  and  N2_14 
REMARK    4  A    between atoms: N2_14  and  C7_16 
REMARK    5  A    between atoms: C11_21  and  C12_22 
REMARK    6  A    between atoms: C13_23  and  C14_24 
ROOT
HETATM    1  C7  UNL     1      -1.685 -15.430  13.336  1.00  0.00     0.083 A 
HETATM    2  C8  UNL     1      -0.880 -14.313  13.337  1.00  0.00     0.036 A 
HETATM    3  C9  UNL     1      -0.414 -13.771  14.529  1.00  0.00     0.046 A 
HETATM    4  C10 UNL     1      -0.786 -14.387  15.705  1.00  0.00     0.138 A 
HETATM    5  F1  UNL     1      -0.353 -13.888  16.871  1.00  0.00    -0.204 F 
HETATM    6  C11 UNL     1      -1.591 -15.507  15.735  1.00  0.00     0.097 A 
HETATM    7  C18 UNL     1      -2.038 -16.024  14.530  1.00  0.00     0.165 A 
HETATM    8  F2  UNL     1      -2.822 -17.111  14.535  1.00  0.00    -0.202 F 
ENDROOT
BRANCH   1   9
HETATM    9  N2  UNL     1      -2.168 -15.988  12.106  1.00  0.00    -0.277 N 
ATOM     10  H2  UNL     1      -1.536 -16.557  11.543  1.00  0.00     0.179 HD
BRANCH   9  11
HETATM   11  S1  UNL     1      -3.772 -15.731  11.548  1.00  0.00     0.267 S 
HETATM   12  O2  UNL     1      -4.072 -16.726  10.470  1.00  0.00    -0.200 OA
HETATM   13  O3  UNL     1      -4.776 -15.888  12.656  1.00  0.00    -0.200 OA
BRANCH  11  14
HETATM   14  C6  UNL     1      -3.955 -14.130  10.831  1.00  0.00     0.132 A 
HETATM   15  C2  UNL     1      -5.220 -13.594  10.672  1.00  0.00     0.165 A 
HETATM   16  N1  UNL     1      -5.400 -12.381  10.135  1.00  0.00    -0.344 N 
HETATM   17  C3  UNL     1      -4.376 -11.616   9.721  1.00  0.00     0.114 A 
ATOM     18  H1  UNL     1      -6.351 -12.025  10.036  1.00  0.00     0.167 HD
HETATM   19  C4  UNL     1      -3.102 -12.123   9.866  1.00  0.00     0.051 A 
HETATM   20 CL1  UNL     1      -1.723 -11.176   9.346  1.00  0.00    -0.083 Cl
HETATM   21  C5  UNL     1      -2.891 -13.369  10.416  1.00  0.00     0.055 A 
BRANCH  15  22
HETATM   22  O1  UNL     1      -6.318 -14.343  11.084  1.00  0.00    -0.340 OA
HETATM   23  C1  UNL     1      -7.472 -14.495  10.279  1.00  0.00     0.211 C 
ENDBRANCH  15  22
ENDBRANCH  11  14
ENDBRANCH   9  11
ENDBRANCH   1   9
BRANCH   6  24
HETATM   24  C12 UNL     1      -1.982 -16.155  16.955  1.00  0.00    -0.055 C 
HETATM   25  C13 UNL     1      -2.306 -16.681  17.992  1.00  0.00    -0.058 C 
BRANCH  25  26
HETATM   26  C14 UNL     1      -2.685 -17.290  19.239  1.00  0.00     0.049 A 
HETATM   27  C15 UNL     1      -1.786 -18.066  19.933  1.00  0.00     0.112 A 
HETATM   28  N3  UNL     1      -2.186 -18.611  21.090  1.00  0.00    -0.339 N 
HETATM   29  C16 UNL     1      -3.407 -18.448  21.613  1.00  0.00     0.192 A 
ATOM     30  H3  UNL     1      -1.519 -19.187  21.604  1.00  0.00     0.167 HD
HETATM   31  N4  UNL     1      -3.722 -19.083  22.862  1.00  0.00    -0.063 NA
HETATM   32  N5  UNL     1      -4.294 -17.701  20.959  1.00  0.00    -0.339 N 
HETATM   33  C17 UNL     1      -3.942 -17.126  19.785  1.00  0.00     0.112 A 
ATOM     34  H5  UNL     1      -5.231 -17.563  21.339  1.00  0.00     0.167 HD
ENDBRANCH  25  26
ENDBRANCH   6  24
TORSDOF 6
ENDMDL
