MODEL 1
REMARK VINA RESULT: -11.407379780      0.000      0.000
REMARK  6 active torsions:
REMARK  status: ('A' for Active; 'I' for Inactive)
REMARK    1  A    between atoms: O1_2  and  C2_3 
REMARK    2  A    between atoms: C6_10  and  S1_11 
REMARK    3  A    between atoms: S1_11  and  N2_14 
REMARK    4  A    between atoms: N2_14  and  C7_16 
REMARK    5  A    between atoms: C11_21  and  C12_22 
REMARK    6  A    between atoms: C13_23  and  C14_24 
ROOT
HETATM    1  C7  UNL     1      -2.053 -15.709  13.735  1.00  0.00     0.083 A 
HETATM    2  C8  UNL     1      -1.212 -14.621  13.661  1.00  0.00     0.036 A 
HETATM    3  C9  UNL     1      -0.592 -14.120  14.800  1.00  0.00     0.046 A 
HETATM    4  C10 UNL     1      -0.847 -14.747  16.000  1.00  0.00     0.138 A 
HETATM    5  F1  UNL     1      -0.262 -14.288  17.116  1.00  0.00    -0.204 F 
HETATM    6  C11 UNL     1      -1.683 -15.839  16.106  1.00  0.00     0.097 A 
HETATM    7  C18 UNL     1      -2.286 -16.315  14.953  1.00  0.00     0.165 A 
HETATM    8  F2  UNL     1      -3.103 -17.374  15.032  1.00  0.00    -0.202 F 
ENDROOT
BRANCH   1   9
HETATM    9  N2  UNL     1      -2.695 -16.223  12.561  1.00  0.00    -0.277 N 
ATOM     10  H2  UNL     1      -3.420 -16.933  12.668  1.00  0.00     0.179 HD
BRANCH   9  11
HETATM   11  S1  UNL     1      -2.288 -15.687  10.981  1.00  0.00     0.267 S 
HETATM   12  O2  UNL     1      -0.813 -15.437  10.922  1.00  0.00    -0.200 OA
HETATM   13  O3  UNL     1      -2.657 -16.707   9.938  1.00  0.00    -0.200 OA
BRANCH  11  14
HETATM   14  C6  UNL     1      -3.081 -14.161  10.595  1.00  0.00     0.132 A 
HETATM   15  C2  UNL     1      -4.446 -14.035  10.778  1.00  0.00     0.165 A 
HETATM   16  N1  UNL     1      -5.084 -12.891  10.498  1.00  0.00    -0.344 N 
HETATM   17  C3  UNL     1      -4.446 -11.806  10.028  1.00  0.00     0.114 A 
ATOM     18  H1  UNL     1      -6.092 -12.842  10.648  1.00  0.00     0.167 HD
HETATM   19  C4  UNL     1      -3.085 -11.900   9.835  1.00  0.00     0.051 A 
HETATM   20 CL1  UNL     1      -2.193 -10.521   9.224  1.00  0.00    -0.083 Cl
HETATM   21  C5  UNL     1      -2.405 -13.066  10.115  1.00  0.00     0.055 A 
BRANCH  15  22
HETATM   22  O1  UNL     1      -5.158 -15.127  11.262  1.00  0.00    -0.340 OA
HETATM   23  C1  UNL     1      -6.572 -15.148  11.305  1.00  0.00     0.211 C 
ENDBRANCH  15  22
ENDBRANCH  11  14
ENDBRANCH   9  11
ENDBRANCH   1   9
BRANCH   6  24
HETATM   24  C12 UNL     1      -1.953 -16.498  17.352  1.00  0.00    -0.055 C 
HETATM   25  C13 UNL     1      -2.187 -17.034  18.408  1.00  0.00    -0.058 C 
BRANCH  25  26
HETATM   26  C14 UNL     1      -2.475 -17.652  19.675  1.00  0.00     0.049 A 
HETATM   27  C15 UNL     1      -3.648 -17.369  20.334  1.00  0.00     0.112 A 
HETATM   28  N3  UNL     1      -3.870 -17.970  21.511  1.00  0.00    -0.339 N 
HETATM   29  C16 UNL     1      -3.020 -18.829  22.086  1.00  0.00     0.192 A 
ATOM     30  H3  UNL     1      -4.740 -17.759  21.999  1.00  0.00     0.167 HD
HETATM   31  N4  UNL     1      -3.367 -19.411  23.352  1.00  0.00    -0.063 NA
HETATM   32  N5  UNL     1      -1.878 -19.118  21.467  1.00  0.00    -0.339 N 
HETATM   33  C17 UNL     1      -1.604 -18.539  20.274  1.00  0.00     0.112 A 
ATOM     34  H5  UNL     1      -1.215 -19.770  21.887  1.00  0.00     0.167 HD
ENDBRANCH  25  26
ENDBRANCH   6  24
TORSDOF 6
ENDMDL
