MODEL 5
REMARK VINA RESULT: -9.768856191      7.144     11.667
REMARK  6 active torsions:
REMARK  status: ('A' for Active; 'I' for Inactive)
REMARK    1  A    between atoms: O1_2  and  C2_3 
REMARK    2  A    between atoms: C6_10  and  S1_11 
REMARK    3  A    between atoms: S1_11  and  N2_14 
REMARK    4  A    between atoms: N2_14  and  C7_16 
REMARK    5  A    between atoms: C11_21  and  C12_22 
REMARK    6  A    between atoms: C13_23  and  C14_24 
ROOT
HETATM    1  C7  UNL     1      -2.122 -19.159  21.739  1.00  0.00     0.083 A 
HETATM    2  C8  UNL     1      -3.119 -18.752  22.597  1.00  0.00     0.036 A 
HETATM    3  C9  UNL     1      -4.078 -17.831  22.190  1.00  0.00     0.046 A 
HETATM    4  C10 UNL     1      -3.995 -17.342  20.904  1.00  0.00     0.138 A 
HETATM    5  F1  UNL     1      -4.906 -16.453  20.482  1.00  0.00    -0.204 F 
HETATM    6  C11 UNL     1      -3.009 -17.731  20.022  1.00  0.00     0.097 A 
HETATM    7  C18 UNL     1      -2.068 -18.651  20.457  1.00  0.00     0.165 A 
HETATM    8  F2  UNL     1      -1.100 -19.043  19.618  1.00  0.00    -0.202 F 
ENDROOT
BRANCH   1   9
HETATM    9  N2  UNL     1      -1.131 -20.106  22.160  1.00  0.00    -0.277 N 
ATOM     10  H2  UNL     1      -0.163 -19.968  21.869  1.00  0.00     0.179 HD
BRANCH   9  11
HETATM   11  S1  UNL     1      -1.516 -21.466  23.137  1.00  0.00     0.267 S 
HETATM   12  O2  UNL     1      -1.309 -21.100  24.575  1.00  0.00    -0.200 OA
HETATM   13  O3  UNL     1      -2.942 -21.904  22.940  1.00  0.00    -0.200 OA
BRANCH  11  14
HETATM   14  C6  UNL     1      -0.447 -22.826  22.796  1.00  0.00     0.132 A 
HETATM   15  C2  UNL     1      -0.158 -23.156  21.484  1.00  0.00     0.165 A 
HETATM   16  N1  UNL     1       0.651 -24.180  21.186  1.00  0.00    -0.344 N 
HETATM   17  C3  UNL     1       1.228 -24.943  22.130  1.00  0.00     0.114 A 
ATOM     18  H1  UNL     1       0.836 -24.389  20.205  1.00  0.00     0.167 HD
HETATM   19  C4  UNL     1       0.959 -24.640  23.447  1.00  0.00     0.051 A 
HETATM   20 CL1  UNL     1       1.679 -25.595  24.727  1.00  0.00    -0.083 Cl
HETATM   21  C5  UNL     1       0.129 -23.590  23.781  1.00  0.00     0.055 A 
BRANCH  15  22
HETATM   22  O1  UNL     1      -0.728 -22.400  20.466  1.00  0.00    -0.340 OA
HETATM   23  C1  UNL     1      -0.054 -22.145  19.248  1.00  0.00     0.211 C 
ENDBRANCH  15  22
ENDBRANCH  11  14
ENDBRANCH   9  11
ENDBRANCH   1   9
BRANCH   6  24
HETATM   24  C12 UNL     1      -2.916 -17.227  18.681  1.00  0.00    -0.055 C 
HETATM   25  C13 UNL     1      -2.854 -16.817  17.548  1.00  0.00    -0.058 C 
BRANCH  25  26
HETATM   26  C14 UNL     1      -2.797 -16.343  16.191  1.00  0.00     0.049 A 
HETATM   27  C15 UNL     1      -3.917 -16.385  15.394  1.00  0.00     0.112 A 
HETATM   28  N3  UNL     1      -3.813 -15.933  14.137  1.00  0.00    -0.339 N 
HETATM   29  C16 UNL     1      -2.686 -15.441  13.608  1.00  0.00     0.192 A 
ATOM     30  H3  UNL     1      -4.644 -15.965  13.546  1.00  0.00     0.167 HD
HETATM   31  N4  UNL     1      -2.696 -14.985  12.246  1.00  0.00    -0.063 NA
HETATM   32  N5  UNL     1      -1.589 -15.390  14.360  1.00  0.00    -0.339 N 
HETATM   33  C17 UNL     1      -1.639 -15.835  15.638  1.00  0.00     0.112 A 
ATOM     34  H5  UNL     1      -0.719 -15.019  13.977  1.00  0.00     0.167 HD
ENDBRANCH  25  26
ENDBRANCH   6  24
TORSDOF 6
ENDMDL
