MODEL 2
REMARK VINA RESULT: -7.726176119      2.771      4.686
REMARK  4 active torsions:
REMARK  status: ('A' for Active; 'I' for Inactive)
REMARK    1  A    between atoms: C1_2  and  C2_4 
REMARK    2  A    between atoms: C5_7  and  C6_8 
REMARK    3  A    between atoms: C8_10  and  O3_11 
REMARK    4  A    between atoms: C10_17  and  C11_18 
ROOT
HETATM    1  C6  UNL     1      10.864  23.094 -11.080  1.00  0.00     0.005 A 
HETATM    2  C7  UNL     1      10.819  23.338  -9.704  1.00  0.00     0.057 A 
HETATM    3  C8  UNL     1      10.122  22.449  -8.922  1.00  0.00     0.135 A 
HETATM    4  C9  UNL     1       9.492  21.361  -9.478  1.00  0.00     0.279 A 
HETATM    5  O4  UNL     1       8.857  20.564  -8.725  1.00  0.00    -0.265 OA
HETATM    6  N1  UNL     1       9.562  21.166 -10.819  1.00  0.00    -0.320 N 
ATOM      7  H1  UNL     1       9.092  20.356 -11.224  1.00  0.00     0.169 HD
HETATM    8  C10 UNL     1      10.232  22.006 -11.632  1.00  0.00     0.056 A 
ENDROOT
BRANCH   1   9
HETATM    9  C5  UNL     1      11.570  24.001 -11.968  1.00  0.00    -0.024 A 
HETATM   10  C4  UNL     1      10.987  25.204 -12.295  1.00  0.00     0.013 A 
HETATM   11  C3  UNL     1      11.620  26.111 -13.150  1.00  0.00     0.019 A 
HETATM   12  C2  UNL     1      12.860  25.770 -13.666  1.00  0.00     0.040 A 
HETATM   13  C18 UNL     1      13.415  24.560 -13.319  1.00  0.00     0.019 A 
HETATM   14  C17 UNL     1      12.790  23.656 -12.471  1.00  0.00     0.013 A 
BRANCH  12  15
HETATM   15  C1  UNL     1      13.555  26.688 -14.559  1.00  0.00     0.209 C 
HETATM   16  O1  UNL     1      12.895  27.229 -15.485  1.00  0.00    -0.644 OA
HETATM   17  O2  UNL     1      14.904  26.972 -14.411  1.00  0.00    -0.644 OA
ENDBRANCH  12  15
ENDBRANCH   1   9
BRANCH   8  18
HETATM   18  C11 UNL     1      10.274  21.723 -13.050  1.00  0.00    -0.008 A 
HETATM   19  C12 UNL     1       9.560  22.436 -13.990  1.00  0.00     0.017 A 
HETATM   20  C13 UNL     1       9.598  22.176 -15.342  1.00  0.00     0.043 A 
HETATM   21  C14 UNL     1      10.375  21.162 -15.794  1.00  0.00     0.116 A 
HETATM   22  F1  UNL     1      10.435  20.876 -17.138  1.00  0.00    -0.206 F 
HETATM   23  C15 UNL     1      11.117  20.408 -14.896  1.00  0.00     0.043 A 
HETATM   24  C16 UNL     1      11.057  20.698 -13.531  1.00  0.00     0.017 A 
ENDBRANCH   8  18
BRANCH   3  25
HETATM   25  O3  UNL     1      10.029  22.615  -7.549  1.00  0.00    -0.356 OA
ATOM     26  H3  UNL     1      10.801  22.618  -6.997  1.00  0.00     0.218 HD
ENDBRANCH   3  25
TORSDOF 4
ENDMDL
