MODEL 3
REMARK VINA RESULT: -7.705300361      3.249      4.616
REMARK  4 active torsions:
REMARK  status: ('A' for Active; 'I' for Inactive)
REMARK    1  A    between atoms: C1_2  and  C2_4 
REMARK    2  A    between atoms: C5_7  and  C6_8 
REMARK    3  A    between atoms: C8_10  and  O3_11 
REMARK    4  A    between atoms: C10_17  and  C11_18 
ROOT
HETATM    1  C6  UNL     1      12.162  22.396 -10.890  1.00  0.00     0.005 A 
HETATM    2  C7  UNL     1      13.469  22.867 -10.729  1.00  0.00     0.057 A 
HETATM    3  C8  UNL     1      13.698  23.778  -9.727  1.00  0.00     0.135 A 
HETATM    4  C9  UNL     1      12.676  24.210  -8.916  1.00  0.00     0.279 A 
HETATM    5  O4  UNL     1      12.925  25.053  -8.004  1.00  0.00    -0.265 OA
HETATM    6  N1  UNL     1      11.423  23.726  -9.111  1.00  0.00    -0.320 N 
ATOM      7  H1  UNL     1      10.669  24.051  -8.505  1.00  0.00     0.169 HD
HETATM    8  C10 UNL     1      11.143  22.830 -10.078  1.00  0.00     0.056 A 
ENDROOT
BRANCH   1   9
HETATM    9  C5  UNL     1      11.846  21.442 -11.939  1.00  0.00    -0.024 A 
HETATM   10  C4  UNL     1      12.032  20.100 -11.698  1.00  0.00     0.013 A 
HETATM   11  C3  UNL     1      11.749  19.139 -12.675  1.00  0.00     0.019 A 
HETATM   12  C2  UNL     1      11.273  19.572 -13.902  1.00  0.00     0.040 A 
HETATM   13  C18 UNL     1      11.097  20.920 -14.109  1.00  0.00     0.019 A 
HETATM   14  C17 UNL     1      11.376  21.878 -13.143  1.00  0.00     0.013 A 
BRANCH  12  15
HETATM   15  C1  UNL     1      10.963  18.604 -14.945  1.00  0.00     0.209 C 
HETATM   16  O1  UNL     1      10.378  17.539 -14.612  1.00  0.00    -0.644 OA
HETATM   17  O2  UNL     1      11.293  18.828 -16.273  1.00  0.00    -0.644 OA
ENDBRANCH  12  15
ENDBRANCH   1   9
BRANCH   8  18
HETATM   18  C11 UNL     1       9.785  22.349 -10.215  1.00  0.00    -0.008 A 
HETATM   19  C12 UNL     1       9.303  21.234  -9.563  1.00  0.00     0.017 A 
HETATM   20  C13 UNL     1       8.011  20.773  -9.684  1.00  0.00     0.043 A 
HETATM   21  C14 UNL     1       7.149  21.441 -10.488  1.00  0.00     0.116 A 
HETATM   22  F1  UNL     1       5.851  21.007 -10.631  1.00  0.00    -0.206 F 
HETATM   23  C15 UNL     1       7.576  22.571 -11.171  1.00  0.00     0.043 A 
HETATM   24  C16 UNL     1       8.893  23.012 -11.026  1.00  0.00     0.017 A 
ENDBRANCH   8  18
BRANCH   3  25
HETATM   25  O3  UNL     1      14.964  24.295  -9.498  1.00  0.00    -0.356 OA
ATOM     26  H3  UNL     1      15.111  24.975  -8.850  1.00  0.00     0.218 HD
ENDBRANCH   3  25
TORSDOF 4
ENDMDL
