MODEL 1
REMARK VINA RESULT: -8.130851978      0.000      0.000
REMARK  4 active torsions:
REMARK  status: ('A' for Active; 'I' for Inactive)
REMARK    1  A    between atoms: C1_2  and  C2_4 
REMARK    2  A    between atoms: C5_7  and  C6_8 
REMARK    3  A    between atoms: C8_10  and  O3_11 
REMARK    4  A    between atoms: C10_17  and  C11_18 
ROOT
HETATM    1  C6  UNL     1      10.285  21.576 -11.688  1.00  0.00     0.005 A 
HETATM    2  C7  UNL     1       9.548  20.759 -10.825  1.00  0.00     0.057 A 
HETATM    3  C8  UNL     1       9.460  21.140  -9.508  1.00  0.00     0.135 A 
HETATM    4  C9  UNL     1      10.077  22.284  -9.060  1.00  0.00     0.279 A 
HETATM    5  O4  UNL     1       9.975  22.602  -7.838  1.00  0.00    -0.265 OA
HETATM    6  N1  UNL     1      10.783  23.045  -9.934  1.00  0.00    -0.320 N 
ATOM      7  H1  UNL     1      11.238  23.892  -9.594  1.00  0.00     0.169 HD
HETATM    8  C10 UNL     1      10.901  22.718 -11.236  1.00  0.00     0.056 A 
ENDROOT
BRANCH   1   9
HETATM    9  C5  UNL     1      10.432  21.225 -13.090  1.00  0.00    -0.024 A 
HETATM   10  C4  UNL     1       9.744  21.951 -14.035  1.00  0.00     0.013 A 
HETATM   11  C3  UNL     1       9.844  21.652 -15.397  1.00  0.00     0.019 A 
HETATM   12  C2  UNL     1      10.660  20.599 -15.779  1.00  0.00     0.040 A 
HETATM   13  C18 UNL     1      11.335  19.895 -14.809  1.00  0.00     0.019 A 
HETATM   14  C17 UNL     1      11.238  20.188 -13.456  1.00  0.00     0.013 A 
BRANCH  12  15
HETATM   15  C1  UNL     1      10.795  20.256 -17.189  1.00  0.00     0.209 C 
HETATM   16  O1  UNL     1      10.185  20.966 -18.032  1.00  0.00    -0.644 OA
HETATM   17  O2  UNL     1      11.567  19.185 -17.611  1.00  0.00    -0.644 OA
ENDBRANCH  12  15
ENDBRANCH   1   9
BRANCH   8  18
HETATM   18  C11 UNL     1      11.658  23.587 -12.110  1.00  0.00    -0.008 A 
HETATM   19  C12 UNL     1      12.939  23.309 -12.538  1.00  0.00     0.017 A 
HETATM   20  C13 UNL     1      13.665  24.129 -13.373  1.00  0.00     0.043 A 
HETATM   21  C14 UNL     1      13.104  25.282 -13.810  1.00  0.00     0.116 A 
HETATM   22  F1  UNL     1      13.801  26.123 -14.645  1.00  0.00    -0.206 F 
HETATM   23  C15 UNL     1      11.817  25.617 -13.414  1.00  0.00     0.043 A 
HETATM   24  C16 UNL     1      11.107  24.763 -12.566  1.00  0.00     0.017 A 
ENDBRANCH   8  18
BRANCH   3  25
HETATM   25  O3  UNL     1       8.749  20.389  -8.585  1.00  0.00    -0.356 OA
ATOM     26  H3  UNL     1       7.800  20.422  -8.546  1.00  0.00     0.218 HD
ENDBRANCH   3  25
TORSDOF 4
ENDMDL
