MODEL 4
REMARK VINA RESULT: -7.663449603      3.303      4.560
REMARK  4 active torsions:
REMARK  status: ('A' for Active; 'I' for Inactive)
REMARK    1  A    between atoms: C1_2  and  C2_4 
REMARK    2  A    between atoms: C5_7  and  C6_8 
REMARK    3  A    between atoms: C8_10  and  O3_11 
REMARK    4  A    between atoms: C10_17  and  C11_18 
ROOT
HETATM    1  C6  UNL     1      12.185  22.430 -10.956  1.00  0.00     0.005 A 
HETATM    2  C7  UNL     1      13.494  22.909 -10.853  1.00  0.00     0.057 A 
HETATM    3  C8  UNL     1      13.741  23.894  -9.929  1.00  0.00     0.135 A 
HETATM    4  C9  UNL     1      12.732  24.388  -9.136  1.00  0.00     0.279 A 
HETATM    5  O4  UNL     1      12.997  25.298  -8.295  1.00  0.00    -0.265 OA
HETATM    6  N1  UNL     1      11.477  23.893  -9.272  1.00  0.00    -0.320 N 
ATOM      7  H1  UNL     1      10.733  24.265  -8.680  1.00  0.00     0.169 HD
HETATM    8  C10 UNL     1      11.179  22.926 -10.163  1.00  0.00     0.056 A 
ENDROOT
BRANCH   1   9
HETATM    9  C5  UNL     1      11.850  21.399 -11.923  1.00  0.00    -0.024 A 
HETATM   10  C4  UNL     1      11.383  21.773 -13.162  1.00  0.00     0.013 A 
HETATM   11  C3  UNL     1      11.040  20.822 -14.129  1.00  0.00     0.019 A 
HETATM   12  C2  UNL     1      11.183  19.481 -13.809  1.00  0.00     0.040 A 
HETATM   13  C18 UNL     1      11.654  19.142 -12.562  1.00  0.00     0.019 A 
HETATM   14  C17 UNL     1      11.995  20.082 -11.600  1.00  0.00     0.013 A 
BRANCH  12  15
HETATM   15  C1  UNL     1      10.840  18.458 -14.787  1.00  0.00     0.209 C 
HETATM   16  O1  UNL     1      11.195  18.638 -15.983  1.00  0.00    -0.644 OA
HETATM   17  O2  UNL     1      10.143  17.312 -14.435  1.00  0.00    -0.644 OA
ENDBRANCH  12  15
ENDBRANCH   1   9
BRANCH   8  18
HETATM   18  C11 UNL     1       9.820  22.438 -10.239  1.00  0.00    -0.008 A 
HETATM   19  C12 UNL     1       9.348  21.376  -9.497  1.00  0.00     0.017 A 
HETATM   20  C13 UNL     1       8.054  20.910  -9.560  1.00  0.00     0.043 A 
HETATM   21  C14 UNL     1       7.178  21.516 -10.398  1.00  0.00     0.116 A 
HETATM   22  F1  UNL     1       5.879  21.074 -10.485  1.00  0.00    -0.206 F 
HETATM   23  C15 UNL     1       7.594  22.590 -11.171  1.00  0.00     0.043 A 
HETATM   24  C16 UNL     1       8.914  23.040 -11.083  1.00  0.00     0.017 A 
ENDBRANCH   8  18
BRANCH   3  25
HETATM   25  O3  UNL     1      15.010  24.425  -9.760  1.00  0.00    -0.356 OA
ATOM     26  H3  UNL     1      15.324  25.139 -10.302  1.00  0.00     0.218 HD
ENDBRANCH   3  25
TORSDOF 4
ENDMDL
