MODEL 1
REMARK VINA RESULT: -6.045623639      0.000      0.000
REMARK  6 active torsions:
REMARK  status: ('A' for Active; 'I' for Inactive)
REMARK    1  A    between atoms: C4_8  and  N2_9 
REMARK    2  A    between atoms: N2_9  and  C5_11 
REMARK    3  A    between atoms: C5_11  and  C6_12 
REMARK    4  A    between atoms: C6_12  and  C7_13 
REMARK    5  A    between atoms: C7_13  and  C8_14 
REMARK    6  A    between atoms: C11_17  and  O3_18 
ROOT
HETATM    1  N2  UNL     1      47.299 -82.296 -39.442  1.00  0.00    -0.389 N 
ATOM      2  H2  UNL     1      46.649 -82.590 -40.171  1.00  0.00     0.159 HD
ENDROOT
BRANCH   1   3
HETATM    3  C4  UNL     1      46.805 -81.905 -38.172  1.00  0.00     0.044 A 
HETATM    4  C3  UNL     1      46.587 -80.592 -37.829  1.00  0.00     0.074 A 
HETATM    5  C2  UNL     1      46.777 -79.361 -38.575  1.00  0.00     0.261 A 
HETATM    6  C17 UNL     1      46.104 -80.228 -36.583  1.00  0.00     0.050 A 
HETATM    7  N1  UNL     1      46.406 -78.229 -37.780  1.00  0.00    -0.289 N 
HETATM    8  O2  UNL     1      47.206 -79.285 -39.754  1.00  0.00    -0.267 OA
HETATM    9  C1  UNL     1      45.986 -78.775 -36.538  1.00  0.00     0.259 A 
ATOM     10  H1  UNL     1      46.437 -77.245 -38.046  1.00  0.00     0.172 HD
HETATM   11  O1  UNL     1      45.578 -78.072 -35.560  1.00  0.00    -0.267 OA
HETATM   12  C16 UNL     1      45.826 -81.209 -35.645  1.00  0.00     0.018 A 
HETATM   13  C15 UNL     1      46.036 -82.526 -35.967  1.00  0.00     0.003 A 
HETATM   14  C14 UNL     1      46.516 -82.873 -37.207  1.00  0.00     0.030 A 
ENDBRANCH   1   3
BRANCH   1  15
HETATM   15  C5  UNL     1      48.724 -82.279 -39.711  1.00  0.00     0.120 C 
BRANCH  15  16
HETATM   16  C6  UNL     1      49.536 -82.212 -38.449  1.00  0.00     0.024 C 
BRANCH  16  17
HETATM   17  C7  UNL     1      50.208 -80.868 -38.284  1.00  0.00     0.040 C 
BRANCH  17  18
HETATM   18  C8  UNL     1      49.988 -80.324 -36.911  1.00  0.00    -0.058 A 
HETATM   19  C9  UNL     1      49.712 -81.136 -35.831  1.00  0.00     0.010 A 
HETATM   20  C10 UNL     1      49.508 -80.627 -34.548  1.00  0.00     0.037 A 
HETATM   21  C11 UNL     1      49.584 -79.268 -34.351  1.00  0.00     0.065 A 
HETATM   22  C12 UNL     1      49.859 -78.457 -35.430  1.00  0.00     0.037 A 
HETATM   23  C13 UNL     1      50.062 -78.943 -36.699  1.00  0.00     0.010 A 
BRANCH  21  24
HETATM   24  O3  UNL     1      49.385 -78.741 -33.088  1.00  0.00    -0.361 OA
ATOM     25  H3  UNL     1      50.129 -78.574 -32.521  1.00  0.00     0.217 HD
ENDBRANCH  21  24
ENDBRANCH  17  18
ENDBRANCH  16  17
ENDBRANCH  15  16
ENDBRANCH   1  15
TORSDOF 6
ENDMDL
