MODEL 4
REMARK VINA RESULT: -5.970602046      1.962      3.374
REMARK  6 active torsions:
REMARK  status: ('A' for Active; 'I' for Inactive)
REMARK    1  A    between atoms: C4_8  and  N2_9 
REMARK    2  A    between atoms: N2_9  and  C5_11 
REMARK    3  A    between atoms: C5_11  and  C6_12 
REMARK    4  A    between atoms: C6_12  and  C7_13 
REMARK    5  A    between atoms: C7_13  and  C8_14 
REMARK    6  A    between atoms: C11_17  and  O3_18 
ROOT
HETATM    1  N2  UNL     1      48.093 -82.943 -39.113  1.00  0.00    -0.389 N 
ATOM      2  H2  UNL     1      48.846 -83.610 -39.278  1.00  0.00     0.159 HD
ENDROOT
BRANCH   1   3
HETATM    3  C4  UNL     1      47.713 -82.621 -37.784  1.00  0.00     0.044 A 
HETATM    4  C3  UNL     1      48.547 -81.967 -36.910  1.00  0.00     0.074 A 
HETATM    5  C2  UNL     1      49.902 -81.470 -37.064  1.00  0.00     0.261 A 
HETATM    6  C17 UNL     1      48.159 -81.661 -35.615  1.00  0.00     0.050 A 
HETATM    7  N1  UNL     1      50.352 -80.852 -35.852  1.00  0.00    -0.289 N 
HETATM    8  O2  UNL     1      50.595 -81.563 -38.108  1.00  0.00    -0.267 OA
HETATM    9  C1  UNL     1      49.262 -80.973 -34.952  1.00  0.00     0.259 A 
ATOM     10  H1  UNL     1      51.259 -80.420 -35.675  1.00  0.00     0.172 HD
HETATM   11  O1  UNL     1      49.281 -80.537 -33.757  1.00  0.00    -0.267 OA
HETATM   12  C16 UNL     1      46.895 -82.019 -35.178  1.00  0.00     0.018 A 
HETATM   13  C15 UNL     1      46.047 -82.673 -36.036  1.00  0.00     0.003 A 
HETATM   14  C14 UNL     1      46.444 -82.970 -37.317  1.00  0.00     0.030 A 
ENDBRANCH   1   3
BRANCH   1  15
HETATM   15  C5  UNL     1      47.416 -82.327 -40.237  1.00  0.00     0.120 C 
BRANCH  15  16
HETATM   16  C6  UNL     1      48.031 -81.011 -40.615  1.00  0.00     0.024 C 
BRANCH  16  17
HETATM   17  C7  UNL     1      47.037 -79.876 -40.514  1.00  0.00     0.040 C 
BRANCH  17  18
HETATM   18  C8  UNL     1      46.934 -79.377 -39.111  1.00  0.00    -0.058 A 
HETATM   19  C9  UNL     1      45.791 -79.532 -38.356  1.00  0.00     0.010 A 
HETATM   20  C10 UNL     1      45.695 -79.068 -37.043  1.00  0.00     0.037 A 
HETATM   21  C11 UNL     1      46.778 -78.432 -36.481  1.00  0.00     0.065 A 
HETATM   22  C12 UNL     1      47.919 -78.277 -37.236  1.00  0.00     0.037 A 
HETATM   23  C13 UNL     1      48.029 -78.729 -38.529  1.00  0.00     0.010 A 
BRANCH  21  24
HETATM   24  O3  UNL     1      46.706 -77.963 -35.182  1.00  0.00    -0.361 OA
ATOM     25  H3  UNL     1      46.030 -77.341 -34.939  1.00  0.00     0.217 HD
ENDBRANCH  21  24
ENDBRANCH  17  18
ENDBRANCH  16  17
ENDBRANCH  15  16
ENDBRANCH   1  15
TORSDOF 6
ENDMDL
