MODEL 2
REMARK VINA RESULT: -6.042151674      0.036      1.014
REMARK  6 active torsions:
REMARK  status: ('A' for Active; 'I' for Inactive)
REMARK    1  A    between atoms: C4_8  and  N2_9 
REMARK    2  A    between atoms: N2_9  and  C5_11 
REMARK    3  A    between atoms: C5_11  and  C6_12 
REMARK    4  A    between atoms: C6_12  and  C7_13 
REMARK    5  A    between atoms: C7_13  and  C8_14 
REMARK    6  A    between atoms: C11_17  and  O3_18 
ROOT
HETATM    1  N2  UNL     1      47.295 -82.311 -39.438  1.00  0.00    -0.389 N 
ATOM      2  H2  UNL     1      46.645 -82.566 -40.181  1.00  0.00     0.159 HD
ENDROOT
BRANCH   1   3
HETATM    3  C4  UNL     1      46.797 -81.913 -38.171  1.00  0.00     0.044 A 
HETATM    4  C3  UNL     1      46.591 -80.597 -37.832  1.00  0.00     0.074 A 
HETATM    5  C2  UNL     1      46.797 -79.370 -38.578  1.00  0.00     0.261 A 
HETATM    6  C17 UNL     1      46.104 -80.227 -36.589  1.00  0.00     0.050 A 
HETATM    7  N1  UNL     1      46.433 -78.232 -37.787  1.00  0.00    -0.289 N 
HETATM    8  O2  UNL     1      47.234 -79.299 -39.754  1.00  0.00    -0.267 OA
HETATM    9  C1  UNL     1      46.001 -78.772 -36.547  1.00  0.00     0.259 A 
ATOM     10  H1  UNL     1      46.476 -77.250 -38.055  1.00  0.00     0.172 HD
HETATM   11  O1  UNL     1      45.593 -78.064 -35.572  1.00  0.00    -0.267 OA
HETATM   12  C16 UNL     1      45.811 -81.203 -35.651  1.00  0.00     0.018 A 
HETATM   13  C15 UNL     1      46.009 -82.523 -35.970  1.00  0.00     0.003 A 
HETATM   14  C14 UNL     1      46.493 -82.876 -37.207  1.00  0.00     0.030 A 
ENDBRANCH   1   3
BRANCH   1  15
HETATM   15  C5  UNL     1      48.723 -82.356 -39.682  1.00  0.00     0.120 C 
BRANCH  15  16
HETATM   16  C6  UNL     1      49.517 -82.261 -38.411  1.00  0.00     0.024 C 
BRANCH  16  17
HETATM   17  C7  UNL     1      50.213 -80.926 -38.281  1.00  0.00     0.040 C 
BRANCH  17  18
HETATM   18  C8  UNL     1      49.999 -80.340 -36.925  1.00  0.00    -0.058 A 
HETATM   19  C9  UNL     1      50.062 -78.983 -36.690  1.00  0.00     0.010 A 
HETATM   20  C10 UNL     1      49.860 -78.434 -35.422  1.00  0.00     0.037 A 
HETATM   21  C11 UNL     1      49.588 -79.276 -34.368  1.00  0.00     0.065 A 
HETATM   22  C12 UNL     1      49.525 -80.632 -34.604  1.00  0.00     0.037 A 
HETATM   23  C13 UNL     1      49.722 -81.187 -35.845  1.00  0.00     0.010 A 
BRANCH  21  24
HETATM   24  O3  UNL     1      49.385 -78.756 -33.103  1.00  0.00    -0.361 OA
ATOM     25  H3  UNL     1      49.510 -79.306 -32.339  1.00  0.00     0.217 HD
ENDBRANCH  21  24
ENDBRANCH  17  18
ENDBRANCH  16  17
ENDBRANCH  15  16
ENDBRANCH   1  15
TORSDOF 6
ENDMDL
