MODEL 2
REMARK VINA RESULT: -9.717703543      1.299      1.963
REMARK  15 active torsions:
REMARK  status: ('A' for Active; 'I' for Inactive)
REMARK    1  A    between atoms: C1_2  and  C2_4 
REMARK    2  A    between atoms: N2_8  and  C6_9 
REMARK    3  A    between atoms: C7_11  and  C8_12 
REMARK    4  A    between atoms: C8_12  and  O3_13 
REMARK    5  A    between atoms: O3_13  and  P1_14 
REMARK    6  A    between atoms: P1_14  and  O6_17 
REMARK    7  A    between atoms: O6_17  and  P2_18 
REMARK    8  A    between atoms: P2_18  and  O9_21 
REMARK    9  A    between atoms: O9_21  and  C9_22 
REMARK   10  A    between atoms: C9_22  and  C10_23 
REMARK   11  A    between atoms: C11_25  and  N3_26 
REMARK   12  A    between atoms: C17_39  and  O11_40 
REMARK   13  A    between atoms: C18_42  and  O12_43 
REMARK   14  A    between atoms: C19_45  and  O13_46 
REMARK   15  A    between atoms: C20_48  and  O14_49 
ROOT
HETATM    1  P2  UNL     1      15.878 -61.837 -55.218  1.00  0.00     0.417 P 
HETATM    2  O7  UNL     1      15.907 -63.336 -55.218  1.00  0.00    -0.624 OA
HETATM    3  O8  UNL     1      17.105 -61.351 -56.367  1.00  0.00    -0.624 OA
ENDROOT
BRANCH   1   4
HETATM    4  O6  UNL     1      14.457 -61.200 -55.636  1.00  0.00    -0.180 OA
BRANCH   4   5
HETATM    5  P1  UNL     1      14.018 -61.249 -57.230  1.00  0.00     0.417 P 
HETATM    6  O4  UNL     1      12.569 -61.281 -57.470  1.00  0.00    -0.624 OA
HETATM    7  O5  UNL     1      14.578 -62.833 -57.860  1.00  0.00    -0.624 OA
BRANCH   5   8
HETATM    8  O3  UNL     1      14.864 -60.157 -58.110  1.00  0.00    -0.287 OA
BRANCH   8   9
HETATM    9  C8  UNL     1      14.716 -60.311 -59.506  1.00  0.00     0.216 C 
BRANCH   9  10
HETATM   10  C7  UNL     1      15.919 -59.455 -60.008  1.00  0.00     0.180 C 
HETATM   11  O2  UNL     1      15.434 -58.322 -60.613  1.00  0.00    -0.353 OA
HETATM   12  C6  UNL     1      16.100 -57.201 -60.174  1.00  0.00     0.259 C 
HETATM   13  C20 UNL     1      17.409 -57.755 -59.601  1.00  0.00     0.198 C 
HETATM   14  C19 UNL     1      16.860 -59.059 -58.952  1.00  0.00     0.182 C 
BRANCH  12  15
HETATM   15  N2  UNL     1      15.315 -56.725 -59.014  1.00  0.00    -0.336 N 
HETATM   16  C5  UNL     1      13.994 -56.555 -59.084  1.00  0.00     0.093 A 
HETATM   17  C4  UNL     1      13.309 -55.993 -58.007  1.00  0.00     0.018 A 
HETATM   18  C3  UNL     1      13.996 -55.617 -56.888  1.00  0.00     0.019 A 
HETATM   19  C2  UNL     1      15.352 -55.805 -56.853  1.00  0.00     0.044 A 
HETATM   20  C21 UNL     1      16.009 -56.364 -57.928  1.00  0.00     0.110 A 
BRANCH  19  21
HETATM   21  C1  UNL     1      16.132 -55.379 -55.706  1.00  0.00     0.266 C 
HETATM   22  N1  UNL     1      17.042 -56.272 -55.097  1.00  0.00    -0.057 NA
HETATM   23  O1  UNL     1      16.038 -54.210 -55.198  1.00  0.00    -0.271 OA
ENDBRANCH  19  21
ENDBRANCH  12  15
BRANCH  13  24
HETATM   24  O14 UNL     1      18.234 -58.181 -60.640  1.00  0.00    -0.388 OA
ATOM     25  H14 UNL     1      18.503 -57.435 -61.164  1.00  0.00     0.210 HD
ENDBRANCH  13  24
BRANCH  14  26
HETATM   26  O13 UNL     1      17.906 -59.960 -58.719  1.00  0.00    -0.390 OA
ATOM     27  H13 UNL     1      18.197 -60.017 -57.817  1.00  0.00     0.210 HD
ENDBRANCH  14  26
ENDBRANCH   9  10
ENDBRANCH   8   9
ENDBRANCH   5   8
ENDBRANCH   4   5
ENDBRANCH   1   4
BRANCH   1  28
HETATM   28  O9  UNL     1      16.585 -61.355 -53.715  1.00  0.00    -0.287 OA
BRANCH  28  29
HETATM   29  C9  UNL     1      16.973 -60.000 -53.980  1.00  0.00     0.216 C 
BRANCH  29  30
HETATM   30  C10 UNL     1      18.287 -59.753 -53.371  1.00  0.00     0.180 C 
HETATM   31  O10 UNL     1      18.223 -58.555 -52.606  1.00  0.00    -0.353 OA
HETATM   32  C11 UNL     1      19.529 -58.558 -52.073  1.00  0.00     0.262 C 
HETATM   33  C17 UNL     1      19.395 -59.905 -51.312  1.00  0.00     0.198 C 
HETATM   34  C18 UNL     1      18.811 -60.778 -52.459  1.00  0.00     0.182 C 
BRANCH  32  35
HETATM   35  N3  UNL     1      19.691 -57.446 -51.219  1.00  0.00    -0.297 N 
HETATM   36  C12 UNL     1      20.345 -57.380 -50.010  1.00  0.00     0.188 A 
HETATM   37  N4  UNL     1      20.284 -56.145 -49.511  1.00  0.00    -0.346 N 
HETATM   38  C13 UNL     1      19.589 -55.394 -50.415  1.00  0.00     0.119 A 
ATOM     39  H4  UNL     1      20.680 -55.824 -48.628  1.00  0.00     0.167 HD
HETATM   40  C14 UNL     1      19.229 -54.078 -50.403  1.00  0.00     0.148 A 
HETATM   41  C16 UNL     1      19.227 -56.224 -51.465  1.00  0.00     0.142 A 
HETATM   42  N5  UNL     1      19.632 -53.216 -49.343  1.00  0.00    -0.080 NA
HETATM   43  N6  UNL     1      18.503 -53.574 -51.413  1.00  0.00    -0.339 N 
HETATM   44  C15 UNL     1      18.131 -54.355 -52.432  1.00  0.00     0.183 A 
ATOM     45  H6  UNL     1      18.233 -52.591 -51.404  1.00  0.00     0.167 HD
HETATM   46  N7  UNL     1      18.501 -55.672 -52.445  1.00  0.00    -0.336 N 
ATOM     47  H7  UNL     1      18.212 -56.255 -53.231  1.00  0.00     0.168 HD
ENDBRANCH  32  35
BRANCH  33  48
HETATM   48  O11 UNL     1      20.553 -60.363 -50.786  1.00  0.00    -0.388 OA
ATOM     49  H11 UNL     1      21.300 -59.795 -50.931  1.00  0.00     0.210 HD
ENDBRANCH  33  48
BRANCH  34  50
HETATM   50  O12 UNL     1      19.948 -61.407 -53.054  1.00  0.00    -0.390 OA
ATOM     51  H12 UNL     1      20.643 -60.767 -53.160  1.00  0.00     0.210 HD
ENDBRANCH  34  50
ENDBRANCH  29  30
ENDBRANCH  28  29
ENDBRANCH   1  28
TORSDOF 15
ENDMDL
