MODEL 3
REMARK VINA RESULT: -9.596946228      5.656     11.385
REMARK  15 active torsions:
REMARK  status: ('A' for Active; 'I' for Inactive)
REMARK    1  A    between atoms: C1_2  and  C2_4 
REMARK    2  A    between atoms: N2_8  and  C6_9 
REMARK    3  A    between atoms: C7_11  and  C8_12 
REMARK    4  A    between atoms: C8_12  and  O3_13 
REMARK    5  A    between atoms: O3_13  and  P1_14 
REMARK    6  A    between atoms: P1_14  and  O6_17 
REMARK    7  A    between atoms: O6_17  and  P2_18 
REMARK    8  A    between atoms: P2_18  and  O9_21 
REMARK    9  A    between atoms: O9_21  and  C9_22 
REMARK   10  A    between atoms: C9_22  and  C10_23 
REMARK   11  A    between atoms: C11_25  and  N3_26 
REMARK   12  A    between atoms: C17_39  and  O11_40 
REMARK   13  A    between atoms: C18_42  and  O12_43 
REMARK   14  A    between atoms: C19_45  and  O13_46 
REMARK   15  A    between atoms: C20_48  and  O14_49 
ROOT
HETATM    1  P2  UNL     1      19.359 -54.887 -50.552  1.00  0.00     0.417 P 
HETATM    2  O7  UNL     1      18.073 -54.118 -50.598  1.00  0.00    -0.624 OA
HETATM    3  O8  UNL     1      19.784 -55.179 -52.224  1.00  0.00    -0.624 OA
ENDROOT
BRANCH   1   4
HETATM    4  O6  UNL     1      20.566 -54.119 -49.809  1.00  0.00    -0.180 OA
BRANCH   4   5
HETATM    5  P1  UNL     1      20.289 -53.509 -48.297  1.00  0.00     0.417 P 
HETATM    6  O4  UNL     1      19.253 -54.210 -47.528  1.00  0.00    -0.624 OA
HETATM    7  O5  UNL     1      19.596 -51.871 -48.531  1.00  0.00    -0.624 OA
BRANCH   5   8
HETATM    8  O3  UNL     1      21.697 -53.228 -47.507  1.00  0.00    -0.287 OA
BRANCH   8   9
HETATM    9  C8  UNL     1      22.387 -52.083 -47.961  1.00  0.00     0.216 C 
BRANCH   9  10
HETATM   10  C7  UNL     1      22.501 -51.282 -46.628  1.00  0.00     0.180 C 
HETATM   11  O2  UNL     1      23.829 -51.068 -46.350  1.00  0.00    -0.353 OA
HETATM   12  C6  UNL     1      24.060 -49.758 -46.004  1.00  0.00     0.259 C 
HETATM   13  C20 UNL     1      22.679 -49.242 -45.585  1.00  0.00     0.198 C 
HETATM   14  C19 UNL     1      21.809 -49.986 -46.642  1.00  0.00     0.182 C 
BRANCH  12  15
HETATM   15  N2  UNL     1      24.380 -49.080 -47.278  1.00  0.00    -0.336 N 
HETATM   16  C5  UNL     1      23.699 -48.011 -47.695  1.00  0.00     0.093 A 
HETATM   17  C4  UNL     1      23.955 -47.475 -48.957  1.00  0.00     0.018 A 
HETATM   18  C3  UNL     1      24.899 -48.047 -49.759  1.00  0.00     0.019 A 
HETATM   19  C2  UNL     1      25.578 -49.145 -49.298  1.00  0.00     0.044 A 
HETATM   20  C21 UNL     1      25.310 -49.658 -48.048  1.00  0.00     0.110 A 
BRANCH  19  21
HETATM   21  C1  UNL     1      26.557 -49.817 -50.132  1.00  0.00     0.266 C 
HETATM   22  N1  UNL     1      27.737 -49.145 -50.522  1.00  0.00    -0.057 NA
HETATM   23  O1  UNL     1      26.407 -51.016 -50.549  1.00  0.00    -0.271 OA
ENDBRANCH  19  21
ENDBRANCH  12  15
BRANCH  13  24
HETATM   24  O14 UNL     1      22.320 -49.798 -44.358  1.00  0.00    -0.388 OA
ATOM     25  H14 UNL     1      21.891 -50.634 -44.498  1.00  0.00     0.210 HD
ENDBRANCH  13  24
BRANCH  14  26
HETATM   26  O13 UNL     1      20.472 -50.021 -46.228  1.00  0.00    -0.390 OA
ATOM     27  H13 UNL     1      19.900 -49.396 -46.658  1.00  0.00     0.210 HD
ENDBRANCH  14  26
ENDBRANCH   9  10
ENDBRANCH   8   9
ENDBRANCH   5   8
ENDBRANCH   4   5
ENDBRANCH   1   4
BRANCH   1  28
HETATM   28  O9  UNL     1      18.936 -56.473 -50.008  1.00  0.00    -0.287 OA
BRANCH  28  29
HETATM   29  C9  UNL     1      20.152 -57.203 -50.218  1.00  0.00     0.216 C 
BRANCH  29  30
HETATM   30  C10 UNL     1      19.821 -58.556 -50.685  1.00  0.00     0.180 C 
HETATM   31  O10 UNL     1      18.832 -58.462 -51.704  1.00  0.00    -0.353 OA
HETATM   32  C11 UNL     1      18.727 -59.827 -52.043  1.00  0.00     0.262 C 
HETATM   33  C17 UNL     1      20.204 -60.002 -52.490  1.00  0.00     0.198 C 
HETATM   34  C18 UNL     1      20.910 -59.356 -51.262  1.00  0.00     0.182 C 
BRANCH  32  35
HETATM   35  N3  UNL     1      17.803 -59.980 -53.098  1.00  0.00    -0.297 N 
HETATM   36  C12 UNL     1      17.358 -59.036 -53.994  1.00  0.00     0.188 A 
HETATM   37  N4  UNL     1      16.489 -59.574 -54.851  1.00  0.00    -0.346 N 
HETATM   38  C13 UNL     1      16.375 -60.892 -54.512  1.00  0.00     0.119 A 
ATOM     39  H4  UNL     1      16.004 -59.096 -55.610  1.00  0.00     0.167 HD
HETATM   40  C14 UNL     1      15.620 -61.895 -55.046  1.00  0.00     0.148 A 
HETATM   41  C16 UNL     1      17.197 -61.120 -53.418  1.00  0.00     0.142 A 
HETATM   42  N5  UNL     1      14.804 -61.671 -56.191  1.00  0.00    -0.080 NA
HETATM   43  N6  UNL     1      15.658 -63.122 -54.502  1.00  0.00    -0.339 N 
HETATM   44  C15 UNL     1      16.432 -63.367 -53.441  1.00  0.00     0.183 A 
ATOM     45  H6  UNL     1      15.092 -63.872 -54.900  1.00  0.00     0.167 HD
HETATM   46  N7  UNL     1      17.194 -62.360 -52.914  1.00  0.00    -0.336 N 
ATOM     47  H7  UNL     1      17.783 -62.563 -52.106  1.00  0.00     0.168 HD
ENDBRANCH  32  35
BRANCH  33  48
HETATM   48  O11 UNL     1      20.562 -61.281 -52.738  1.00  0.00    -0.388 OA
ATOM     49  H11 UNL     1      21.384 -61.541 -52.338  1.00  0.00     0.210 HD
ENDBRANCH  33  48
BRANCH  34  50
HETATM   50  O12 UNL     1      21.206 -60.451 -50.394  1.00  0.00    -0.390 OA
ATOM     51  H12 UNL     1      21.868 -60.186 -49.767  1.00  0.00     0.210 HD
ENDBRANCH  34  50
ENDBRANCH  29  30
ENDBRANCH  28  29
ENDBRANCH   1  28
TORSDOF 15
ENDMDL
