MODEL 2
REMARK VINA RESULT: -8.175046517      2.784      6.826
REMARK  5 active torsions:
REMARK  status: ('A' for Active; 'I' for Inactive)
REMARK    1  A    between atoms: C5_6  and  C6_7 
REMARK    2  A    between atoms: C6_7  and  C7_8 
REMARK       I    between atoms: C7_8  and  N2_10 
REMARK    3  A    between atoms: N2_10  and  C8_12 
REMARK    4  A    between atoms: C8_12  and  C9_13 
REMARK    5  A    between atoms: C16_22  and  C17_23 
ROOT
HETATM    1  N1  UNL     1      22.936  24.411  -9.585  1.00  0.00    -0.191 NA
HETATM    2  C1  UNL     1      22.230  25.324  -9.516  1.00  0.00     0.100 C 
HETATM    3  C2  UNL     1      21.335  26.469  -9.456  1.00  0.00     0.051 A 
HETATM    4  C3  UNL     1      20.381  26.674 -10.422  1.00  0.00     0.024 A 
HETATM    5  C4  UNL     1      19.542  27.757 -10.357  1.00  0.00     0.009 A 
HETATM    6  C5  UNL     1      19.609  28.688  -9.326  1.00  0.00    -0.049 A 
HETATM    7  C15 UNL     1      20.563  28.477  -8.364  1.00  0.00     0.016 A 
HETATM    8  C16 UNL     1      21.424  27.379  -8.418  1.00  0.00    -0.033 A 
ENDROOT
BRANCH   8   9
HETATM    9  C17 UNL     1      22.452  27.170  -7.365  1.00  0.00     0.020 A 
HETATM   10  C18 UNL     1      23.540  28.122  -7.146  1.00  0.00     0.010 A 
HETATM   11  C19 UNL     1      22.424  28.036  -6.137  1.00  0.00     0.010 A 
ENDBRANCH   8   9
BRANCH   6  12
HETATM   12  C6  UNL     1      18.663  29.825  -9.333  1.00  0.00     0.141 C 
BRANCH  12  13
HETATM   13  C7  UNL     1      19.339  31.110  -8.960  1.00  0.00     0.222 C 
HETATM   14  O1  UNL     1      18.863  31.864  -8.081  1.00  0.00    -0.273 OA
HETATM   15  N2  UNL     1      20.542  31.504  -9.600  1.00  0.00    -0.342 N 
ATOM     16  H2  UNL     1      20.920  30.882 -10.315  1.00  0.00     0.163 HD
BRANCH  15  17
HETATM   17  C8  UNL     1      21.277  32.725  -9.316  1.00  0.00     0.121 C 
HETATM   18  C10 UNL     1      22.055  32.701  -8.053  1.00  0.00     0.042 C 
HETATM   19  C11 UNL     1      21.532  33.493  -6.895  1.00  0.00     0.003 C 
HETATM   20  C12 UNL     1      20.831  34.763  -7.240  1.00  0.00     0.000 C 
HETATM   21  C13 UNL     1      21.039  35.097  -8.727  1.00  0.00     0.003 C 
HETATM   22  C14 UNL     1      20.431  33.938  -9.467  1.00  0.00     0.042 C 
BRANCH  17  23
HETATM   23  C9  UNL     1      22.316  32.815 -10.424  1.00  0.00     0.202 C 
HETATM   24  O2  UNL     1      21.975  33.033 -11.611  1.00  0.00    -0.646 OA
HETATM   25  O3  UNL     1      23.632  32.641 -10.035  1.00  0.00    -0.646 OA
ENDBRANCH  17  23
ENDBRANCH  15  17
ENDBRANCH  12  13
ENDBRANCH   6  12
TORSDOF 5
ENDMDL
