MODEL 4
REMARK VINA RESULT: -7.886804022      3.301      7.310
REMARK  5 active torsions:
REMARK  status: ('A' for Active; 'I' for Inactive)
REMARK    1  A    between atoms: C5_6  and  C6_7 
REMARK    2  A    between atoms: C6_7  and  C7_8 
REMARK       I    between atoms: C7_8  and  N2_10 
REMARK    3  A    between atoms: N2_10  and  C8_12 
REMARK    4  A    between atoms: C8_12  and  C9_13 
REMARK    5  A    between atoms: C16_22  and  C17_23 
ROOT
HETATM    1  N1  UNL     1      20.949  25.502  -9.947  1.00  0.00    -0.191 NA
HETATM    2  C1  UNL     1      21.280  26.602 -10.082  1.00  0.00     0.100 C 
HETATM    3  C2  UNL     1      21.687  27.984 -10.278  1.00  0.00     0.051 A 
HETATM    4  C3  UNL     1      21.240  28.709 -11.355  1.00  0.00     0.024 A 
HETATM    5  C4  UNL     1      21.630  30.012 -11.531  1.00  0.00     0.009 A 
HETATM    6  C5  UNL     1      22.484  30.659 -10.645  1.00  0.00    -0.049 A 
HETATM    7  C15 UNL     1      22.928  29.930  -9.571  1.00  0.00     0.016 A 
HETATM    8  C16 UNL     1      22.538  28.602  -9.379  1.00  0.00    -0.033 A 
ENDROOT
BRANCH   8   9
HETATM    9  C17 UNL     1      23.032  27.830  -8.209  1.00  0.00     0.020 A 
HETATM   10  C18 UNL     1      23.749  28.470  -7.107  1.00  0.00     0.010 A 
HETATM   11  C19 UNL     1      22.338  27.990  -6.885  1.00  0.00     0.010 A 
ENDBRANCH   8   9
BRANCH   6  12
HETATM   12  C6  UNL     1      22.851  32.066 -10.912  1.00  0.00     0.141 C 
BRANCH  12  13
HETATM   13  C7  UNL     1      22.226  33.000  -9.918  1.00  0.00     0.222 C 
HETATM   14  O1  UNL     1      21.034  33.363 -10.028  1.00  0.00    -0.273 OA
HETATM   15  N2  UNL     1      22.979  33.494  -8.822  1.00  0.00    -0.342 N 
ATOM     16  H2  UNL     1      23.950  33.191  -8.743  1.00  0.00     0.163 HD
BRANCH  15  17
HETATM   17  C8  UNL     1      22.474  34.400  -7.804  1.00  0.00     0.121 C 
HETATM   18  C10 UNL     1      21.371  35.285  -8.253  1.00  0.00     0.042 C 
HETATM   19  C11 UNL     1      21.687  36.731  -8.487  1.00  0.00     0.003 C 
HETATM   20  C12 UNL     1      22.715  37.325  -7.585  1.00  0.00     0.000 C 
HETATM   21  C13 UNL     1      23.032  36.358  -6.432  1.00  0.00     0.003 C 
HETATM   22  C14 UNL     1      23.567  35.125  -7.104  1.00  0.00     0.042 C 
BRANCH  17  23
HETATM   23  C9  UNL     1      21.854  33.490  -6.753  1.00  0.00     0.202 C 
HETATM   24  O2  UNL     1      22.573  32.802  -5.992  1.00  0.00    -0.646 OA
HETATM   25  O3  UNL     1      20.472  33.477  -6.704  1.00  0.00    -0.646 OA
ENDBRANCH  17  23
ENDBRANCH  15  17
ENDBRANCH  12  13
ENDBRANCH   6  12
TORSDOF 5
ENDMDL
