MODEL 3
REMARK VINA RESULT: -8.126747164      3.308      7.334
REMARK  5 active torsions:
REMARK  status: ('A' for Active; 'I' for Inactive)
REMARK    1  A    between atoms: C5_6  and  C6_7 
REMARK    2  A    between atoms: C6_7  and  C7_8 
REMARK       I    between atoms: C7_8  and  N2_10 
REMARK    3  A    between atoms: N2_10  and  C8_12 
REMARK    4  A    between atoms: C8_12  and  C9_13 
REMARK    5  A    between atoms: C16_22  and  C17_23 
ROOT
HETATM    1  N1  UNL     1      21.597  25.141  -9.762  1.00  0.00    -0.191 NA
HETATM    2  C1  UNL     1      21.896  26.245  -9.926  1.00  0.00     0.100 C 
HETATM    3  C2  UNL     1      22.268  27.632 -10.160  1.00  0.00     0.051 A 
HETATM    4  C3  UNL     1      21.991  28.248 -11.356  1.00  0.00     0.024 A 
HETATM    5  C4  UNL     1      22.347  29.556 -11.568  1.00  0.00     0.009 A 
HETATM    6  C5  UNL     1      22.993  30.315 -10.600  1.00  0.00    -0.049 A 
HETATM    7  C15 UNL     1      23.267  29.696  -9.407  1.00  0.00     0.016 A 
HETATM    8  C16 UNL     1      22.911  28.364  -9.179  1.00  0.00    -0.033 A 
ENDROOT
BRANCH   8   9
HETATM    9  C17 UNL     1      23.218  27.711  -7.879  1.00  0.00     0.020 A 
HETATM   10  C18 UNL     1      23.545  28.485  -6.683  1.00  0.00     0.010 A 
HETATM   11  C19 UNL     1      22.210  27.792  -6.767  1.00  0.00     0.010 A 
ENDBRANCH   8   9
BRANCH   6  12
HETATM   12  C6  UNL     1      23.338  31.719 -10.912  1.00  0.00     0.141 C 
BRANCH  12  13
HETATM   13  C7  UNL     1      22.520  32.683 -10.104  1.00  0.00     0.222 C 
HETATM   14  O1  UNL     1      21.383  33.047 -10.481  1.00  0.00    -0.273 OA
HETATM   15  N2  UNL     1      23.022  33.207  -8.886  1.00  0.00    -0.342 N 
ATOM     16  H2  UNL     1      23.949  32.904  -8.589  1.00  0.00     0.163 HD
BRANCH  15  17
HETATM   17  C8  UNL     1      22.316  34.144  -8.027  1.00  0.00     0.121 C 
HETATM   18  C10 UNL     1      21.390  33.516  -7.053  1.00  0.00     0.042 C 
HETATM   19  C11 UNL     1      19.920  33.623  -7.318  1.00  0.00     0.003 C 
HETATM   20  C12 UNL     1      19.467  34.884  -7.973  1.00  0.00     0.000 C 
HETATM   21  C13 UNL     1      20.612  35.912  -7.993  1.00  0.00     0.003 C 
HETATM   22  C14 UNL     1      21.699  35.257  -8.797  1.00  0.00     0.042 C 
BRANCH  17  23
HETATM   23  C9  UNL     1      23.406  34.790  -7.184  1.00  0.00     0.202 C 
HETATM   24  O2  UNL     1      24.137  35.691  -7.657  1.00  0.00    -0.646 OA
HETATM   25  O3  UNL     1      23.528  34.319  -5.890  1.00  0.00    -0.646 OA
ENDBRANCH  17  23
ENDBRANCH  15  17
ENDBRANCH  12  13
ENDBRANCH   6  12
TORSDOF 5
ENDMDL
