MODEL 4
REMARK VINA RESULT: -6.832657263      1.061      1.203
REMARK  5 active torsions:
REMARK  status: ('A' for Active; 'I' for Inactive)
REMARK    1  A    between atoms: C1_2  and  O2_4 
REMARK    2  A    between atoms: O2_4  and  C2_5 
REMARK    3  A    between atoms: C2_5  and  C3_6 
REMARK    4  A    between atoms: C7_14  and  O3_15 
REMARK    5  A    between atoms: C7_14  and  O4_17 
ROOT
HETATM    1  C3  UNL     1      35.410  68.352  17.505  1.00  0.00     0.135 C 
HETATM    2  N2  UNL     1      35.398  69.676  18.031  1.00  0.00    -0.356 N 
ATOM      3  H2  UNL     1      35.403  70.434  17.348  1.00  0.00     0.162 HD
HETATM    4  C4  UNL     1      35.383  70.022  19.259  1.00  0.00     0.189 C 
HETATM    5  N3  UNL     1      35.373  71.373  19.703  1.00  0.00    -0.064 NA
HETATM    6  N4  UNL     1      35.381  68.987  20.230  1.00  0.00    -0.322 N 
HETATM    7  C5  UNL     1      35.844  68.878  21.605  1.00  0.00     0.134 C 
HETATM    8  C6  UNL     1      36.109  67.369  21.774  1.00  0.00     0.093 C 
HETATM    9  C7  UNL     1      34.998  66.806  20.971  1.00  0.00     0.208 C 
HETATM   10  C8  UNL     1      34.817  67.736  19.832  1.00  0.00     0.190 C 
HETATM   11  N5  UNL     1      33.428  67.781  19.506  1.00  0.00    -0.332 N 
ATOM     12  H5  UNL     1      32.735  68.380  19.955  1.00  0.00     0.165 HD
HETATM   13  C9  UNL     1      33.186  66.947  18.555  1.00  0.00     0.186 C 
HETATM   14  N6  UNL     1      31.916  66.671  17.922  1.00  0.00    -0.064 NA
HETATM   15  N7  UNL     1      34.383  66.298  18.156  1.00  0.00    -0.353 N 
ATOM     16  H7  UNL     1      34.486  65.388  17.706  1.00  0.00     0.162 HD
HETATM   17  C10 UNL     1      35.442  67.245  18.543  1.00  0.00     0.163 C 
ENDROOT
BRANCH   1  18
HETATM   18  C2  UNL     1      36.514  68.141  16.509  1.00  0.00     0.207 C 
BRANCH  18  19
HETATM   19  O2  UNL     1      36.146  68.044  15.176  1.00  0.00    -0.304 OA
BRANCH  19  20
HETATM   20  C1  UNL     1      35.504  68.983  14.420  1.00  0.00     0.372 C 
HETATM   21  N1  UNL     1      35.727  70.382  14.710  1.00  0.00    -0.032 NA
HETATM   22  O1  UNL     1      34.741  68.653  13.503  1.00  0.00    -0.242 OA
ENDBRANCH  19  20
ENDBRANCH  18  19
ENDBRANCH   1  18
BRANCH   9  23
HETATM   23  O3  UNL     1      35.163  65.478  20.614  1.00  0.00    -0.362 OA
ATOM     24  H3  UNL     1      34.514  64.888  20.979  1.00  0.00     0.213 HD
ENDBRANCH   9  23
BRANCH   9  25
HETATM   25  O4  UNL     1      33.829  66.863  21.760  1.00  0.00    -0.362 OA
ATOM     26  H4  UNL     1      33.339  66.064  21.607  1.00  0.00     0.213 HD
ENDBRANCH   9  25
TORSDOF 5
ENDMDL
