MODEL 1
REMARK VINA RESULT: -7.069026028      0.000      0.000
REMARK  5 active torsions:
REMARK  status: ('A' for Active; 'I' for Inactive)
REMARK    1  A    between atoms: C1_2  and  O2_4 
REMARK    2  A    between atoms: O2_4  and  C2_5 
REMARK    3  A    between atoms: C2_5  and  C3_6 
REMARK    4  A    between atoms: C7_14  and  O3_15 
REMARK    5  A    between atoms: C7_14  and  O4_17 
ROOT
HETATM    1  C3  UNL     1      35.009  68.483  17.593  1.00  0.00     0.135 C 
HETATM    2  N2  UNL     1      35.017  69.768  18.209  1.00  0.00    -0.356 N 
ATOM      3  H2  UNL     1      34.928  70.569  17.585  1.00  0.00     0.162 HD
HETATM    4  C4  UNL     1      35.125  70.030  19.453  1.00  0.00     0.189 C 
HETATM    5  N3  UNL     1      35.125  71.347  19.990  1.00  0.00    -0.064 NA
HETATM    6  N4  UNL     1      35.256  68.933  20.344  1.00  0.00    -0.322 N 
HETATM    7  C5  UNL     1      35.868  68.749  21.651  1.00  0.00     0.134 C 
HETATM    8  C6  UNL     1      36.192  67.242  21.684  1.00  0.00     0.093 C 
HETATM    9  C7  UNL     1      35.017  66.695  20.966  1.00  0.00     0.208 C 
HETATM   10  C8  UNL     1      34.688  67.692  19.921  1.00  0.00     0.190 C 
HETATM   11  N5  UNL     1      33.271  67.710  19.747  1.00  0.00    -0.332 N 
ATOM     12  H5  UNL     1      32.614  68.253  20.308  1.00  0.00     0.165 HD
HETATM   13  C9  UNL     1      32.952  66.934  18.771  1.00  0.00     0.186 C 
HETATM   14  N6  UNL     1      31.629  66.655  18.258  1.00  0.00    -0.064 NA
HETATM   15  N7  UNL     1      34.116  66.355  18.203  1.00  0.00    -0.353 N 
ATOM     16  H7  UNL     1      34.195  65.482  17.682  1.00  0.00     0.162 HD
HETATM   17  C10 UNL     1      35.184  67.311  18.542  1.00  0.00     0.163 C 
ENDROOT
BRANCH   1  18
HETATM   18  C2  UNL     1      36.005  68.379  16.474  1.00  0.00     0.207 C 
BRANCH  18  19
HETATM   19  O2  UNL     1      36.106  69.466  15.621  1.00  0.00    -0.304 OA
BRANCH  19  20
HETATM   20  C1  UNL     1      37.153  70.336  15.502  1.00  0.00     0.372 C 
HETATM   21  N1  UNL     1      37.135  71.557  16.277  1.00  0.00    -0.032 NA
HETATM   22  O1  UNL     1      38.104  70.094  14.747  1.00  0.00    -0.242 OA
ENDBRANCH  19  20
ENDBRANCH  18  19
ENDBRANCH   1  18
BRANCH   9  23
HETATM   23  O3  UNL     1      35.180  65.401  20.501  1.00  0.00    -0.362 OA
ATOM     24  H3  UNL     1      34.413  64.849  20.595  1.00  0.00     0.213 HD
ENDBRANCH   9  23
BRANCH   9  25
HETATM   25  O4  UNL     1      33.939  66.658  21.876  1.00  0.00    -0.362 OA
ATOM     26  H4  UNL     1      33.747  65.745  22.058  1.00  0.00     0.213 HD
ENDBRANCH   9  25
TORSDOF 5
ENDMDL
