MODEL 5
REMARK VINA RESULT: -6.815995005      1.780      2.012
REMARK  5 active torsions:
REMARK  status: ('A' for Active; 'I' for Inactive)
REMARK    1  A    between atoms: C1_2  and  O2_4 
REMARK    2  A    between atoms: O2_4  and  C2_5 
REMARK    3  A    between atoms: C2_5  and  C3_6 
REMARK    4  A    between atoms: C7_14  and  O3_15 
REMARK    5  A    between atoms: C7_14  and  O4_17 
ROOT
HETATM    1  C3  UNL     1      33.048  68.355  17.517  1.00  0.00     0.135 C 
HETATM    2  N2  UNL     1      33.482  69.509  18.233  1.00  0.00    -0.356 N 
ATOM      3  H2  UNL     1      33.453  70.394  17.725  1.00  0.00     0.162 HD
HETATM    4  C4  UNL     1      33.902  69.561  19.436  1.00  0.00     0.189 C 
HETATM    5  N3  UNL     1      34.319  70.759  20.080  1.00  0.00    -0.064 NA
HETATM    6  N4  UNL     1      33.956  68.344  20.164  1.00  0.00    -0.322 N 
HETATM    7  C5  UNL     1      34.766  67.852  21.268  1.00  0.00     0.134 C 
HETATM    8  C6  UNL     1      34.731  66.322  21.083  1.00  0.00     0.093 C 
HETATM    9  C7  UNL     1      33.338  66.137  20.610  1.00  0.00     0.208 C 
HETATM   10  C8  UNL     1      33.040  67.320  19.770  1.00  0.00     0.190 C 
HETATM   11  N5  UNL     1      31.662  67.654  19.935  1.00  0.00    -0.332 N 
ATOM     12  H5  UNL     1      31.280  68.233  20.682  1.00  0.00     0.165 HD
HETATM   13  C9  UNL     1      30.977  67.108  18.991  1.00  0.00     0.186 C 
HETATM   14  N6  UNL     1      29.549  67.184  18.778  1.00  0.00    -0.064 NA
HETATM   15  N7  UNL     1      31.831  66.391  18.115  1.00  0.00    -0.353 N 
ATOM     16  H7  UNL     1      31.596  65.604  17.510  1.00  0.00     0.162 HD
HETATM   17  C10 UNL     1      33.138  67.049  18.284  1.00  0.00     0.163 C 
ENDROOT
BRANCH   1  18
HETATM   18  C2  UNL     1      33.739  68.211  16.191  1.00  0.00     0.207 C 
BRANCH  18  19
HETATM   19  O2  UNL     1      35.124  68.181  16.206  1.00  0.00    -0.304 OA
BRANCH  19  20
HETATM   20  C1  UNL     1      35.968  68.212  15.133  1.00  0.00     0.372 C 
HETATM   21  N1  UNL     1      37.118  69.088  15.176  1.00  0.00    -0.032 NA
HETATM   22  O1  UNL     1      35.761  67.510  14.134  1.00  0.00    -0.242 OA
ENDBRANCH  19  20
ENDBRANCH  18  19
ENDBRANCH   1  18
BRANCH   9  23
HETATM   23  O3  UNL     1      33.096  64.918  20.000  1.00  0.00    -0.362 OA
ATOM     24  H3  UNL     1      32.430  64.390  20.424  1.00  0.00     0.213 HD
ENDBRANCH   9  23
BRANCH   9  25
HETATM   25  O4  UNL     1      32.493  66.191  21.740  1.00  0.00    -0.362 OA
ATOM     26  H4  UNL     1      32.922  66.730  22.394  1.00  0.00     0.213 HD
ENDBRANCH   9  25
TORSDOF 5
ENDMDL
