MODEL 2
REMARK VINA RESULT: -9.301329546      1.032      1.205
REMARK  7 active torsions:
REMARK  status: ('A' for Active; 'I' for Inactive)
REMARK    1  A    between atoms: C7_10  and  C8_11 
REMARK    2  A    between atoms: C8_11  and  N3_12 
REMARK       I    between atoms: N3_12  and  C9_14 
REMARK    3  A    between atoms: C9_14  and  C10_16 
REMARK    4  A    between atoms: N5_20  and  C12_21 
REMARK    5  A    between atoms: C12_21  and  C13_22 
REMARK    6  A    between atoms: C16_25  and  C17_26 
REMARK    7  A    between atoms: C17_26  and  N6_27 
ROOT
HETATM    1  C10 UNL     1     -49.742  20.923  30.769  1.00  0.00     0.065 A 
HETATM    2  C11 UNL     1     -49.211  22.063  31.345  1.00  0.00     0.125 A 
HETATM    3  N4  UNL     1     -48.216  21.718  32.138  1.00  0.00    -0.309 N 
ATOM      4  H4  UNL     1     -47.646  22.362  32.686  1.00  0.00     0.186 HD
HETATM    5  N5  UNL     1     -48.073  20.408  32.110  1.00  0.00    -0.298 N 
HETATM    6  C23 UNL     1     -48.984  19.883  31.278  1.00  0.00     0.129 A 
ENDROOT
BRANCH   1   7
HETATM    7  C9  UNL     1     -50.948  20.873  29.916  1.00  0.00     0.254 C 
HETATM    8  N3  UNL     1     -52.182  21.155  30.534  1.00  0.00    -0.352 N 
ATOM      9  H3  UNL     1     -52.215  21.302  31.542  1.00  0.00     0.163 HD
HETATM   10  O1  UNL     1     -50.823  20.606  28.707  1.00  0.00    -0.268 OA
BRANCH   8  11
HETATM   11  C8  UNL     1     -53.429  21.242  29.749  1.00  0.00     0.164 C 
BRANCH  11  12
HETATM   12  C7  UNL     1     -54.476  20.373  30.348  1.00  0.00    -0.012 A 
HETATM   13  C2  UNL     1     -55.422  21.025  31.134  1.00  0.00    -0.049 A 
HETATM   14  C1  UNL     1     -55.269  22.455  31.510  1.00  0.00     0.049 C 
HETATM   15  C3  UNL     1     -56.490  20.306  31.608  1.00  0.00     0.052 A 
HETATM   16  C4  UNL     1     -56.592  18.955  31.289  1.00  0.00     0.117 A 
HETATM   17  N1  UNL     1     -57.683  18.166  31.737  1.00  0.00    -0.083 NA
HETATM   18  N2  UNL     1     -55.649  18.363  30.524  1.00  0.00    -0.348 N 
HETATM   19  C5  UNL     1     -54.571  19.047  30.034  1.00  0.00     0.015 A 
ATOM     20  H2  UNL     1     -55.743  17.371  30.306  1.00  0.00     0.167 HD
HETATM   21  C6  UNL     1     -53.585  18.394  29.138  1.00  0.00     0.069 C 
ENDBRANCH  11  12
ENDBRANCH   8  11
ENDBRANCH   1   7
BRANCH   5  22
HETATM   22  C12 UNL     1     -47.169  19.755  33.025  1.00  0.00     0.186 C 
BRANCH  22  23
HETATM   23  C13 UNL     1     -47.723  18.932  34.085  1.00  0.00    -0.038 A 
HETATM   24  C14 UNL     1     -46.913  17.907  34.588  1.00  0.00     0.009 A 
HETATM   25  C15 UNL     1     -47.413  17.035  35.534  1.00  0.00     0.009 A 
HETATM   26  C16 UNL     1     -48.677  17.107  36.027  1.00  0.00    -0.038 A 
HETATM   27  C21 UNL     1     -49.497  18.131  35.536  1.00  0.00     0.009 A 
HETATM   28  C22 UNL     1     -49.012  19.006  34.593  1.00  0.00     0.009 A 
BRANCH  26  29
HETATM   29  C17 UNL     1     -49.262  16.200  37.041  1.00  0.00     0.186 C 
BRANCH  29  30
HETATM   30  N6  UNL     1     -49.626  14.916  36.478  1.00  0.00    -0.299 N 
HETATM   31  C18 UNL     1     -49.175  14.420  35.286  1.00  0.00     0.112 A 
HETATM   32  C19 UNL     1     -49.735  13.178  35.053  1.00  0.00     0.037 A 
HETATM   33  C20 UNL     1     -50.548  12.943  36.152  1.00  0.00     0.108 A 
HETATM   34  N7  UNL     1     -50.437  14.014  36.961  1.00  0.00    -0.310 N 
ATOM     35  H7  UNL     1     -50.929  14.109  37.849  1.00  0.00     0.186 HD
ENDBRANCH  29  30
ENDBRANCH  26  29
ENDBRANCH  22  23
ENDBRANCH   5  22
TORSDOF 7
ENDMDL
