MODEL 4
REMARK VINA RESULT: -9.139025130      2.170      8.465
REMARK  7 active torsions:
REMARK  status: ('A' for Active; 'I' for Inactive)
REMARK    1  A    between atoms: C7_10  and  C8_11 
REMARK    2  A    between atoms: C8_11  and  N3_12 
REMARK       I    between atoms: N3_12  and  C9_14 
REMARK    3  A    between atoms: C9_14  and  C10_16 
REMARK    4  A    between atoms: N5_20  and  C12_21 
REMARK    5  A    between atoms: C12_21  and  C13_22 
REMARK    6  A    between atoms: C16_25  and  C17_26 
REMARK    7  A    between atoms: C17_26  and  N6_27 
ROOT
HETATM    1  C10 UNL     1     -48.223  20.060  31.812  1.00  0.00     0.065 A 
HETATM    2  C11 UNL     1     -47.922  21.314  31.314  1.00  0.00     0.125 A 
HETATM    3  N4  UNL     1     -48.820  21.640  30.404  1.00  0.00    -0.309 N 
ATOM      4  H4  UNL     1     -48.838  22.514  29.878  1.00  0.00     0.186 HD
HETATM    5  N5  UNL     1     -49.690  20.657  30.282  1.00  0.00    -0.298 N 
HETATM    6  C23 UNL     1     -49.364  19.673  31.131  1.00  0.00     0.129 A 
ENDROOT
BRANCH   1   7
HETATM    7  C9  UNL     1     -47.390  19.289  32.758  1.00  0.00     0.254 C 
HETATM    8  N3  UNL     1     -47.949  19.002  34.019  1.00  0.00    -0.352 N 
ATOM      9  H3  UNL     1     -48.857  19.394  34.264  1.00  0.00     0.163 HD
HETATM   10  O1  UNL     1     -46.257  18.917  32.401  1.00  0.00    -0.268 OA
BRANCH   8  11
HETATM   11  C8  UNL     1     -47.245  18.143  34.992  1.00  0.00     0.164 C 
BRANCH  11  12
HETATM   12  C7  UNL     1     -48.221  17.316  35.748  1.00  0.00    -0.012 A 
HETATM   13  C2  UNL     1     -48.352  15.998  35.320  1.00  0.00    -0.049 A 
HETATM   14  C1  UNL     1     -47.713  15.520  34.066  1.00  0.00     0.049 C 
HETATM   15  C3  UNL     1     -49.134  15.143  36.055  1.00  0.00     0.052 A 
HETATM   16  C4  UNL     1     -49.767  15.620  37.200  1.00  0.00     0.117 A 
HETATM   17  N1  UNL     1     -50.575  14.778  38.007  1.00  0.00    -0.083 NA
HETATM   18  N2  UNL     1     -49.613  16.908  37.576  1.00  0.00    -0.348 N 
HETATM   19  C5  UNL     1     -48.841  17.788  36.869  1.00  0.00     0.015 A 
ATOM     20  H2  UNL     1     -50.089  17.235  38.417  1.00  0.00     0.167 HD
HETATM   21  C6  UNL     1     -48.629  19.179  37.341  1.00  0.00     0.069 C 
ENDBRANCH  11  12
ENDBRANCH   8  11
ENDBRANCH   1   7
BRANCH   5  22
HETATM   22  C12 UNL     1     -50.674  20.684  29.228  1.00  0.00     0.186 C 
BRANCH  22  23
HETATM   23  C13 UNL     1     -52.062  20.929  29.576  1.00  0.00    -0.038 A 
HETATM   24  C14 UNL     1     -52.866  19.810  29.823  1.00  0.00     0.009 A 
HETATM   25  C15 UNL     1     -54.214  19.972  30.073  1.00  0.00     0.009 A 
HETATM   26  C16 UNL     1     -54.833  21.181  30.099  1.00  0.00    -0.038 A 
HETATM   27  C21 UNL     1     -54.039  22.310  29.859  1.00  0.00     0.009 A 
HETATM   28  C22 UNL     1     -52.695  22.163  29.608  1.00  0.00     0.009 A 
BRANCH  26  29
HETATM   29  C17 UNL     1     -56.272  21.410  30.363  1.00  0.00     0.186 C 
BRANCH  29  30
HETATM   30  N6  UNL     1     -56.993  20.171  30.562  1.00  0.00    -0.299 N 
HETATM   31  C18 UNL     1     -57.083  19.491  31.747  1.00  0.00     0.112 A 
HETATM   32  C19 UNL     1     -57.835  18.345  31.573  1.00  0.00     0.037 A 
HETATM   33  C20 UNL     1     -58.194  18.355  30.233  1.00  0.00     0.108 A 
HETATM   34  N7  UNL     1     -57.663  19.467  29.691  1.00  0.00    -0.310 N 
ATOM     35  H7  UNL     1     -57.772  19.730  28.711  1.00  0.00     0.186 HD
ENDBRANCH  29  30
ENDBRANCH  26  29
ENDBRANCH  22  23
ENDBRANCH   5  22
TORSDOF 7
ENDMDL
