MODEL 5
REMARK VINA RESULT: -9.134893976      2.097      8.343
REMARK  7 active torsions:
REMARK  status: ('A' for Active; 'I' for Inactive)
REMARK    1  A    between atoms: C7_10  and  C8_11 
REMARK    2  A    between atoms: C8_11  and  N3_12 
REMARK       I    between atoms: N3_12  and  C9_14 
REMARK    3  A    between atoms: C9_14  and  C10_16 
REMARK    4  A    between atoms: N5_20  and  C12_21 
REMARK    5  A    between atoms: C12_21  and  C13_22 
REMARK    6  A    between atoms: C16_25  and  C17_26 
REMARK    7  A    between atoms: C17_26  and  N6_27 
ROOT
HETATM    1  C10 UNL     1     -48.278  19.803  32.014  1.00  0.00     0.065 A 
HETATM    2  C11 UNL     1     -48.120  21.130  31.658  1.00  0.00     0.125 A 
HETATM    3  N4  UNL     1     -49.043  21.448  30.772  1.00  0.00    -0.309 N 
ATOM      4  H4  UNL     1     -49.158  22.366  30.341  1.00  0.00     0.186 HD
HETATM    5  N5  UNL     1     -49.793  20.392  30.529  1.00  0.00    -0.298 N 
HETATM    6  C23 UNL     1     -49.363  19.365  31.275  1.00  0.00     0.129 A 
ENDROOT
BRANCH   1   7
HETATM    7  C9  UNL     1     -47.367  19.034  32.888  1.00  0.00     0.254 C 
HETATM    8  N3  UNL     1     -47.902  18.539  34.094  1.00  0.00    -0.352 N 
ATOM      9  H3  UNL     1     -48.854  18.788  34.358  1.00  0.00     0.163 HD
HETATM   10  O1  UNL     1     -46.193  18.845  32.521  1.00  0.00    -0.268 OA
BRANCH   8  11
HETATM   11  C8  UNL     1     -47.109  17.665  34.981  1.00  0.00     0.164 C 
BRANCH  11  12
HETATM   12  C7  UNL     1     -47.980  16.627  35.593  1.00  0.00    -0.012 A 
HETATM   13  C2  UNL     1     -48.603  16.990  36.784  1.00  0.00    -0.049 A 
HETATM   14  C1  UNL     1     -48.253  18.249  37.493  1.00  0.00     0.049 C 
HETATM   15  C3  UNL     1     -49.522  16.132  37.332  1.00  0.00     0.052 A 
HETATM   16  C4  UNL     1     -49.801  14.932  36.682  1.00  0.00     0.117 A 
HETATM   17  N1  UNL     1     -50.753  14.014  37.194  1.00  0.00    -0.083 NA
HETATM   18  N2  UNL     1     -49.170  14.621  35.529  1.00  0.00    -0.348 N 
HETATM   19  C5  UNL     1     -48.249  15.451  34.953  1.00  0.00     0.015 A 
ATOM     20  H2  UNL     1     -49.389  13.736  35.072  1.00  0.00     0.167 HD
HETATM   21  C6  UNL     1     -47.622  15.121  33.650  1.00  0.00     0.069 C 
ENDBRANCH  11  12
ENDBRANCH   8  11
ENDBRANCH   1   7
BRANCH   5  22
HETATM   22  C12 UNL     1     -50.768  20.421  29.466  1.00  0.00     0.186 C 
BRANCH  22  23
HETATM   23  C13 UNL     1     -52.159  20.664  29.802  1.00  0.00    -0.038 A 
HETATM   24  C14 UNL     1     -53.026  19.565  29.771  1.00  0.00     0.009 A 
HETATM   25  C15 UNL     1     -54.376  19.747  29.995  1.00  0.00     0.009 A 
HETATM   26  C16 UNL     1     -54.939  20.956  30.253  1.00  0.00    -0.038 A 
HETATM   27  C21 UNL     1     -54.082  22.063  30.291  1.00  0.00     0.009 A 
HETATM   28  C22 UNL     1     -52.735  21.898  30.070  1.00  0.00     0.009 A 
BRANCH  26  29
HETATM   29  C17 UNL     1     -56.377  21.205  30.501  1.00  0.00     0.186 C 
BRANCH  29  30
HETATM   30  N6  UNL     1     -57.124  19.974  30.656  1.00  0.00    -0.299 N 
HETATM   31  C18 UNL     1     -57.221  19.249  31.812  1.00  0.00     0.112 A 
HETATM   32  C19 UNL     1     -57.999  18.127  31.598  1.00  0.00     0.037 A 
HETATM   33  C20 UNL     1     -58.367  18.200  30.263  1.00  0.00     0.108 A 
HETATM   34  N7  UNL     1     -57.816  19.321  29.762  1.00  0.00    -0.310 N 
ATOM     35  H7  UNL     1     -57.926  19.626  28.795  1.00  0.00     0.186 HD
ENDBRANCH  29  30
ENDBRANCH  26  29
ENDBRANCH  22  23
ENDBRANCH   5  22
TORSDOF 7
ENDMDL
