MODEL 3
REMARK VINA RESULT: -9.230225670      2.202      8.687
REMARK  7 active torsions:
REMARK  status: ('A' for Active; 'I' for Inactive)
REMARK    1  A    between atoms: C7_10  and  C8_11 
REMARK    2  A    between atoms: C8_11  and  N3_12 
REMARK       I    between atoms: N3_12  and  C9_14 
REMARK    3  A    between atoms: C9_14  and  C10_16 
REMARK    4  A    between atoms: N5_20  and  C12_21 
REMARK    5  A    between atoms: C12_21  and  C13_22 
REMARK    6  A    between atoms: C16_25  and  C17_26 
REMARK    7  A    between atoms: C17_26  and  N6_27 
ROOT
HETATM    1  C10 UNL     1     -48.749  19.932  31.497  1.00  0.00     0.065 A 
HETATM    2  C11 UNL     1     -48.698  21.173  30.889  1.00  0.00     0.125 A 
HETATM    3  N4  UNL     1     -49.693  21.269  30.028  1.00  0.00    -0.309 N 
ATOM      4  H4  UNL     1     -49.893  22.081  29.444  1.00  0.00     0.186 HD
HETATM    5  N5  UNL     1     -50.387  20.149  30.041  1.00  0.00    -0.298 N 
HETATM    6  C23 UNL     1     -49.846  19.306  30.932  1.00  0.00     0.129 A 
ENDROOT
BRANCH   1   7
HETATM    7  C9  UNL     1     -47.739  19.391  32.430  1.00  0.00     0.254 C 
HETATM    8  N3  UNL     1     -48.183  18.451  33.381  1.00  0.00    -0.352 N 
ATOM      9  H3  UNL     1     -49.178  18.238  33.447  1.00  0.00     0.163 HD
HETATM   10  O1  UNL     1     -46.557  19.769  32.328  1.00  0.00    -0.268 OA
BRANCH   8  11
HETATM   11  C8  UNL     1     -47.235  17.768  34.283  1.00  0.00     0.164 C 
BRANCH  11  12
HETATM   12  C7  UNL     1     -47.974  16.988  35.310  1.00  0.00    -0.012 A 
HETATM   13  C2  UNL     1     -48.494  17.727  36.369  1.00  0.00    -0.049 A 
HETATM   14  C1  UNL     1     -48.152  19.162  36.557  1.00  0.00     0.049 C 
HETATM   15  C3  UNL     1     -49.298  17.093  37.281  1.00  0.00     0.052 A 
HETATM   16  C4  UNL     1     -49.567  15.736  37.119  1.00  0.00     0.117 A 
HETATM   17  N1  UNL     1     -50.404  15.032  38.021  1.00  0.00    -0.083 NA
HETATM   18  N2  UNL     1     -49.038  15.058  36.077  1.00  0.00    -0.348 N 
HETATM   19  C5  UNL     1     -48.233  15.657  35.148  1.00  0.00     0.015 A 
ATOM     20  H2  UNL     1     -49.247  14.064  35.980  1.00  0.00     0.167 HD
HETATM   21  C6  UNL     1     -47.722  14.908  33.974  1.00  0.00     0.069 C 
ENDBRANCH  11  12
ENDBRANCH   8  11
ENDBRANCH   1   7
BRANCH   5  22
HETATM   22  C12 UNL     1     -51.424  19.925  29.064  1.00  0.00     0.186 C 
BRANCH  22  23
HETATM   23  C13 UNL     1     -52.800  19.829  29.517  1.00  0.00    -0.038 A 
HETATM   24  C14 UNL     1     -53.371  20.980  30.075  1.00  0.00     0.009 A 
HETATM   25  C15 UNL     1     -54.645  20.930  30.603  1.00  0.00     0.009 A 
HETATM   26  C16 UNL     1     -55.408  19.806  30.619  1.00  0.00    -0.038 A 
HETATM   27  C21 UNL     1     -54.851  18.649  30.060  1.00  0.00     0.009 A 
HETATM   28  C22 UNL     1     -53.583  18.684  29.530  1.00  0.00     0.009 A 
BRANCH  26  29
HETATM   29  C17 UNL     1     -56.777  19.698  31.171  1.00  0.00     0.186 C 
BRANCH  29  30
HETATM   30  N6  UNL     1     -57.791  19.859  30.150  1.00  0.00    -0.299 N 
HETATM   31  C18 UNL     1     -58.704  18.906  29.786  1.00  0.00     0.112 A 
HETATM   32  C19 UNL     1     -59.509  19.392  28.773  1.00  0.00     0.037 A 
HETATM   33  C20 UNL     1     -59.045  20.677  28.535  1.00  0.00     0.108 A 
HETATM   34  N7  UNL     1     -58.025  20.892  29.387  1.00  0.00    -0.310 N 
ATOM     35  H7  UNL     1     -57.495  21.763  29.432  1.00  0.00     0.186 HD
ENDBRANCH  29  30
ENDBRANCH  26  29
ENDBRANCH  22  23
ENDBRANCH   5  22
TORSDOF 7
ENDMDL
