MODEL 6
REMARK VINA RESULT: -8.915522131      0.666      1.591
REMARK  7 active torsions:
REMARK  status: ('A' for Active; 'I' for Inactive)
REMARK    1  A    between atoms: C7_10  and  C8_11 
REMARK    2  A    between atoms: C8_11  and  N3_12 
REMARK       I    between atoms: N3_12  and  C9_14 
REMARK    3  A    between atoms: C9_14  and  C10_16 
REMARK    4  A    between atoms: N5_20  and  C12_21 
REMARK    5  A    between atoms: C12_21  and  C13_22 
REMARK    6  A    between atoms: C16_25  and  C17_26 
REMARK    7  A    between atoms: C17_26  and  N6_27 
ROOT
HETATM    1  C10 UNL     1     -50.626  20.209  30.329  1.00  0.00     0.065 A 
HETATM    2  C11 UNL     1     -50.718  21.415  30.998  1.00  0.00     0.125 A 
HETATM    3  N4  UNL     1     -49.702  21.520  31.833  1.00  0.00    -0.309 N 
ATOM      4  H4  UNL     1     -49.524  22.312  32.451  1.00  0.00     0.186 HD
HETATM    5  N5  UNL     1     -48.953  20.439  31.743  1.00  0.00    -0.298 N 
HETATM    6  C23 UNL     1     -49.480  19.613  30.827  1.00  0.00     0.129 A 
ENDROOT
BRANCH   1   7
HETATM    7  C9  UNL     1     -51.638  19.663  29.400  1.00  0.00     0.254 C 
HETATM    8  N3  UNL     1     -52.779  19.068  29.973  1.00  0.00    -0.352 N 
ATOM      9  H3  UNL     1     -52.833  18.963  30.986  1.00  0.00     0.163 HD
HETATM   10  O1  UNL     1     -51.451  19.765  28.174  1.00  0.00    -0.268 OA
BRANCH   8  11
HETATM   11  C8  UNL     1     -53.898  18.595  29.135  1.00  0.00     0.164 C 
BRANCH  11  12
HETATM   12  C7  UNL     1     -55.154  18.554  29.930  1.00  0.00    -0.012 A 
HETATM   13  C2  UNL     1     -55.786  17.315  29.995  1.00  0.00    -0.049 A 
HETATM   14  C1  UNL     1     -55.341  16.170  29.156  1.00  0.00     0.049 C 
HETATM   15  C3  UNL     1     -56.874  17.174  30.817  1.00  0.00     0.052 A 
HETATM   16  C4  UNL     1     -57.310  18.271  31.557  1.00  0.00     0.117 A 
HETATM   17  N1  UNL     1     -58.419  18.180  32.436  1.00  0.00    -0.083 NA
HETATM   18  N2  UNL     1     -56.667  19.455  31.461  1.00  0.00    -0.348 N 
HETATM   19  C5  UNL     1     -55.579  19.632  30.652  1.00  0.00     0.015 A 
ATOM     20  H2  UNL     1     -57.006  20.245  32.011  1.00  0.00     0.167 HD
HETATM   21  C6  UNL     1     -54.847  20.922  30.616  1.00  0.00     0.069 C 
ENDBRANCH  11  12
ENDBRANCH   8  11
ENDBRANCH   1   7
BRANCH   5  22
HETATM   22  C12 UNL     1     -47.875  20.221  32.675  1.00  0.00     0.186 C 
BRANCH  22  23
HETATM   23  C13 UNL     1     -48.091  19.319  33.793  1.00  0.00    -0.038 A 
HETATM   24  C14 UNL     1     -47.024  18.491  34.162  1.00  0.00     0.009 A 
HETATM   25  C15 UNL     1     -47.195  17.552  35.159  1.00  0.00     0.009 A 
HETATM   26  C16 UNL     1     -48.364  17.371  35.829  1.00  0.00    -0.038 A 
HETATM   27  C21 UNL     1     -49.438  18.196  35.473  1.00  0.00     0.009 A 
HETATM   28  C22 UNL     1     -49.282  19.136  34.481  1.00  0.00     0.009 A 
BRANCH  26  29
HETATM   29  C17 UNL     1     -48.599  16.381  36.904  1.00  0.00     0.186 C 
BRANCH  29  30
HETATM   30  N6  UNL     1     -49.170  15.150  36.396  1.00  0.00    -0.299 N 
HETATM   31  C18 UNL     1     -48.873  14.582  35.187  1.00  0.00     0.112 A 
HETATM   32  C19 UNL     1     -49.609  13.424  35.022  1.00  0.00     0.037 A 
HETATM   33  C20 UNL     1     -50.367  13.315  36.178  1.00  0.00     0.108 A 
HETATM   34  N7  UNL     1     -50.057  14.372  36.953  1.00  0.00    -0.310 N 
ATOM     35  H7  UNL     1     -50.469  14.544  37.870  1.00  0.00     0.186 HD
ENDBRANCH  29  30
ENDBRANCH  26  29
ENDBRANCH  22  23
ENDBRANCH   5  22
TORSDOF 7
ENDMDL
