MODEL 1
REMARK VINA RESULT: -9.507482082      0.000      0.000
REMARK  7 active torsions:
REMARK  status: ('A' for Active; 'I' for Inactive)
REMARK    1  A    between atoms: C7_10  and  C8_11 
REMARK    2  A    between atoms: C8_11  and  N3_12 
REMARK       I    between atoms: N3_12  and  C9_14 
REMARK    3  A    between atoms: C9_14  and  C10_16 
REMARK    4  A    between atoms: N5_20  and  C12_21 
REMARK    5  A    between atoms: C12_21  and  C13_22 
REMARK    6  A    between atoms: C16_25  and  C17_26 
REMARK    7  A    between atoms: C17_26  and  N6_27 
ROOT
HETATM    1  C10 UNL     1     -50.789  20.294  30.408  1.00  0.00     0.065 A 
HETATM    2  C11 UNL     1     -50.647  21.480  31.105  1.00  0.00     0.125 A 
HETATM    3  N4  UNL     1     -49.555  21.414  31.842  1.00  0.00    -0.309 N 
ATOM      4  H4  UNL     1     -49.210  22.154  32.455  1.00  0.00     0.186 HD
HETATM    5  N5  UNL     1     -48.980  20.242  31.662  1.00  0.00    -0.298 N 
HETATM    6  C23 UNL     1     -49.700  19.528  30.786  1.00  0.00     0.129 A 
ENDROOT
BRANCH   1   7
HETATM    7  C9  UNL     1     -51.948  19.925  29.569  1.00  0.00     0.254 C 
HETATM    8  N3  UNL     1     -53.195  19.805  30.215  1.00  0.00    -0.352 N 
ATOM      9  H3  UNL     1     -53.243  19.896  31.229  1.00  0.00     0.163 HD
HETATM   10  O1  UNL     1     -51.782  19.756  28.348  1.00  0.00    -0.268 OA
BRANCH   8  11
HETATM   11  C8  UNL     1     -54.432  19.552  29.451  1.00  0.00     0.164 C 
BRANCH  11  12
HETATM   12  C7  UNL     1     -55.478  18.981  30.340  1.00  0.00    -0.012 A 
HETATM   13  C2  UNL     1     -56.170  19.901  31.123  1.00  0.00    -0.049 A 
HETATM   14  C1  UNL     1     -55.744  21.323  31.211  1.00  0.00     0.049 C 
HETATM   15  C3  UNL     1     -57.235  19.461  31.866  1.00  0.00     0.052 A 
HETATM   16  C4  UNL     1     -57.589  18.115  31.812  1.00  0.00     0.117 A 
HETATM   17  N1  UNL     1     -58.691  17.607  32.546  1.00  0.00    -0.083 NA
HETATM   18  N2  UNL     1     -56.888  17.258  31.039  1.00  0.00    -0.348 N 
HETATM   19  C5  UNL     1     -55.820  17.660  30.285  1.00  0.00     0.015 A 
ATOM     20  H2  UNL     1     -57.164  16.277  31.017  1.00  0.00     0.167 HD
HETATM   21  C6  UNL     1     -55.110  16.715  29.389  1.00  0.00     0.069 C 
ENDBRANCH  11  12
ENDBRANCH   8  11
ENDBRANCH   1   7
BRANCH   5  22
HETATM   22  C12 UNL     1     -47.863  19.846  32.485  1.00  0.00     0.186 C 
BRANCH  22  23
HETATM   23  C13 UNL     1     -48.116  19.023  33.654  1.00  0.00    -0.038 A 
HETATM   24  C14 UNL     1     -47.056  18.239  34.126  1.00  0.00     0.009 A 
HETATM   25  C15 UNL     1     -47.259  17.371  35.179  1.00  0.00     0.009 A 
HETATM   26  C16 UNL     1     -48.452  17.220  35.811  1.00  0.00    -0.038 A 
HETATM   27  C21 UNL     1     -49.520  18.002  35.352  1.00  0.00     0.009 A 
HETATM   28  C22 UNL     1     -49.333  18.872  34.303  1.00  0.00     0.009 A 
BRANCH  26  29
HETATM   29  C17 UNL     1     -48.722  16.306  36.943  1.00  0.00     0.186 C 
BRANCH  29  30
HETATM   30  N6  UNL     1     -49.312  15.057  36.507  1.00  0.00    -0.299 N 
HETATM   31  C18 UNL     1     -49.021  14.413  35.336  1.00  0.00     0.112 A 
HETATM   32  C19 UNL     1     -49.775  13.260  35.235  1.00  0.00     0.037 A 
HETATM   33  C20 UNL     1     -50.539  13.233  36.393  1.00  0.00     0.108 A 
HETATM   34  N7  UNL     1     -50.215  14.328  37.105  1.00  0.00    -0.310 N 
ATOM     35  H7  UNL     1     -50.627  14.562  38.008  1.00  0.00     0.186 HD
ENDBRANCH  29  30
ENDBRANCH  26  29
ENDBRANCH  22  23
ENDBRANCH   5  22
TORSDOF 7
ENDMDL
