MODEL 9
REMARK VINA RESULT: -7.147927843      3.899      5.003
REMARK  10 active torsions:
REMARK  status: ('A' for Active; 'I' for Inactive)
REMARK    1  A    between atoms: N2_4  and  C3_5 
REMARK    2  A    between atoms: C4_7  and  C5_8 
REMARK    3  A    between atoms: C5_8  and  O2_9 
REMARK    4  A    between atoms: O2_9  and  P1_10 
REMARK    5  A    between atoms: P1_10  and  O5_13 
REMARK    6  A    between atoms: O5_13  and  P2_14 
REMARK    7  A    between atoms: P2_14  and  O8_17 
REMARK    8  A    between atoms: O8_17  and  P3_18 
REMARK    9  A    between atoms: C6_22  and  O12_23 
REMARK   10  A    between atoms: C7_25  and  O13_26 
ROOT
HETATM    1  C3  UNL     1      24.680 -13.911   1.475  1.00  0.00     0.262 C 
HETATM    2  O1  UNL     1      25.579 -14.619   0.654  1.00  0.00    -0.353 OA
HETATM    3  C4  UNL     1      26.653 -14.825   1.403  1.00  0.00     0.180 C 
HETATM    4  C6  UNL     1      26.114 -15.245   2.752  1.00  0.00     0.182 C 
HETATM    5  C7  UNL     1      25.195 -14.010   2.918  1.00  0.00     0.198 C 
ENDROOT
BRANCH   1   6
HETATM    6  N2  UNL     1      23.432 -14.673   1.499  1.00  0.00    -0.297 N 
HETATM    7  C2  UNL     1      22.582 -14.679   2.562  1.00  0.00     0.190 A 
HETATM    8  N1  UNL     1      21.557 -15.453   2.273  1.00  0.00    -0.340 N 
HETATM    9  C1  UNL     1      20.465 -15.809   3.143  1.00  0.00     0.157 C 
HETATM   10  C11 UNL     1      21.714 -15.957   1.041  1.00  0.00     0.148 A 
HETATM   11  C8  UNL     1      22.933 -15.440   0.557  1.00  0.00     0.146 A 
HETATM   12  C10 UNL     1      21.034 -16.803   0.199  1.00  0.00     0.278 A 
HETATM   13  N3  UNL     1      23.363 -15.793  -0.659  1.00  0.00    -0.314 N 
HETATM   14  C9  UNL     1      22.677 -16.621  -1.443  1.00  0.00     0.196 A 
ATOM     15  H3  UNL     1      24.247 -15.413  -0.998  1.00  0.00     0.170 HD
HETATM   16  N4  UNL     1      23.226 -17.063  -2.703  1.00  0.00    -0.063 NA
HETATM   17  N5  UNL     1      21.517 -17.128  -1.024  1.00  0.00    -0.295 N 
ATOM     18  H5  UNL     1      20.991 -17.761  -1.626  1.00  0.00     0.171 HD
HETATM   19  O14 UNL     1      19.928 -17.277   0.596  1.00  0.00    -0.265 OA
ENDBRANCH   1   6
BRANCH   5  20
HETATM   20  O13 UNL     1      26.003 -12.952   3.196  1.00  0.00    -0.388 OA
ATOM     21  H13 UNL     1      25.889 -12.685   4.101  1.00  0.00     0.210 HD
ENDBRANCH   5  20
BRANCH   3  22
HETATM   22  C5  UNL     1      27.843 -15.550   0.918  1.00  0.00     0.216 C 
BRANCH  22  23
HETATM   23  O2  UNL     1      27.416 -16.907   1.114  1.00  0.00    -0.287 OA
BRANCH  23  24
HETATM   24  P1  UNL     1      27.291 -17.641  -0.377  1.00  0.00     0.417 P 
HETATM   25  O3  UNL     1      27.673 -16.560  -1.460  1.00  0.00    -0.624 OA
HETATM   26  O4  UNL     1      28.348 -18.872  -0.583  1.00  0.00    -0.624 OA
BRANCH  24  27
HETATM   27  O5  UNL     1      25.703 -18.085  -0.742  1.00  0.00    -0.180 OA
BRANCH  27  28
HETATM   28  P2  UNL     1      25.156 -19.211   0.417  1.00  0.00     0.428 P 
HETATM   29  O6  UNL     1      26.306 -20.053   0.844  1.00  0.00    -0.624 OA
HETATM   30  O7  UNL     1      24.455 -18.507   1.753  1.00  0.00    -0.624 OA
BRANCH  28  31
HETATM   31  O8  UNL     1      23.953 -20.170  -0.339  1.00  0.00    -0.173 OA
BRANCH  31  32
HETATM   32  P3  UNL     1      24.670 -21.439  -1.173  1.00  0.00     0.431 P 
HETATM   33  O9  UNL     1      23.611 -22.110  -2.034  1.00  0.00    -0.616 OA
HETATM   34  O10 UNL     1      25.887 -20.875  -2.211  1.00  0.00    -0.616 OA
HETATM   35  O11 UNL     1      25.355 -22.576  -0.145  1.00  0.00    -0.616 OA
ENDBRANCH  31  32
ENDBRANCH  28  31
ENDBRANCH  27  28
ENDBRANCH  24  27
ENDBRANCH  23  24
ENDBRANCH  22  23
ENDBRANCH   3  22
BRANCH   4  36
HETATM   36  O12 UNL     1      27.100 -15.236   3.727  1.00  0.00    -0.390 OA
ATOM     37  H12 UNL     1      27.230 -16.097   4.107  1.00  0.00     0.210 HD
ENDBRANCH   4  36
TORSDOF 10
ENDMDL
