MODEL 11
REMARK VINA RESULT: -7.118922392      4.438      6.963
REMARK  10 active torsions:
REMARK  status: ('A' for Active; 'I' for Inactive)
REMARK    1  A    between atoms: N2_4  and  C3_5 
REMARK    2  A    between atoms: C4_7  and  C5_8 
REMARK    3  A    between atoms: C5_8  and  O2_9 
REMARK    4  A    between atoms: O2_9  and  P1_10 
REMARK    5  A    between atoms: P1_10  and  O5_13 
REMARK    6  A    between atoms: O5_13  and  P2_14 
REMARK    7  A    between atoms: P2_14  and  O8_17 
REMARK    8  A    between atoms: O8_17  and  P3_18 
REMARK    9  A    between atoms: C6_22  and  O12_23 
REMARK   10  A    between atoms: C7_25  and  O13_26 
ROOT
HETATM    1  C3  UNL     1      22.426 -12.475   3.085  1.00  0.00     0.262 C 
HETATM    2  O1  UNL     1      22.969 -11.613   2.113  1.00  0.00    -0.353 OA
HETATM    3  C4  UNL     1      23.514 -12.406   1.202  1.00  0.00     0.180 C 
HETATM    4  C6  UNL     1      22.504 -13.511   0.990  1.00  0.00     0.182 C 
HETATM    5  C7  UNL     1      22.405 -13.890   2.488  1.00  0.00     0.198 C 
ENDROOT
BRANCH   1   6
HETATM    6  N2  UNL     1      21.011 -12.133   3.218  1.00  0.00    -0.297 N 
HETATM    7  C2  UNL     1      20.385 -11.222   2.422  1.00  0.00     0.190 A 
HETATM    8  N1  UNL     1      19.124 -11.143   2.789  1.00  0.00    -0.340 N 
HETATM    9  C1  UNL     1      18.124 -10.243   2.273  1.00  0.00     0.157 C 
HETATM   10  C11 UNL     1      18.905 -11.982   3.812  1.00  0.00     0.148 A 
HETATM   11  C8  UNL     1      20.138 -12.614   4.072  1.00  0.00     0.146 A 
HETATM   12  C10 UNL     1      17.852 -12.344   4.617  1.00  0.00     0.278 A 
HETATM   13  N3  UNL     1      20.226 -13.503   5.068  1.00  0.00    -0.314 N 
HETATM   14  C9  UNL     1      19.183 -13.822   5.831  1.00  0.00     0.196 A 
ATOM     15  H3  UNL     1      21.123 -13.953   5.248  1.00  0.00     0.170 HD
HETATM   16  N4  UNL     1      19.343 -14.703   6.963  1.00  0.00    -0.063 NA
HETATM   17  N5  UNL     1      17.998 -13.250   5.612  1.00  0.00    -0.295 N 
ATOM     18  H5  UNL     1      17.199 -13.496   6.196  1.00  0.00     0.171 HD
HETATM   19  O14 UNL     1      16.725 -11.806   4.403  1.00  0.00    -0.265 OA
ENDBRANCH   1   6
BRANCH   5  20
HETATM   20  O13 UNL     1      23.552 -14.546   2.805  1.00  0.00    -0.388 OA
ATOM     21  H13 UNL     1      23.385 -15.180   3.493  1.00  0.00     0.210 HD
ENDBRANCH   5  20
BRANCH   3  22
HETATM   22  C5  UNL     1      24.192 -11.897  -0.005  1.00  0.00     0.216 C 
BRANCH  22  23
HETATM   23  O2  UNL     1      25.148 -12.947  -0.226  1.00  0.00    -0.287 OA
BRANCH  23  24
HETATM   24  P1  UNL     1      26.679 -12.308  -0.064  1.00  0.00     0.417 P 
HETATM   25  O3  UNL     1      27.159 -11.881  -1.504  1.00  0.00    -0.624 OA
HETATM   26  O4  UNL     1      26.721 -10.949   0.842  1.00  0.00    -0.624 OA
BRANCH  24  27
HETATM   27  O5  UNL     1      27.801 -13.461   0.447  1.00  0.00    -0.180 OA
BRANCH  27  28
HETATM   28  P2  UNL     1      27.103 -14.417   1.676  1.00  0.00     0.428 P 
HETATM   29  O6  UNL     1      28.140 -15.346   2.204  1.00  0.00    -0.624 OA
HETATM   30  O7  UNL     1      26.464 -13.528   2.930  1.00  0.00    -0.624 OA
BRANCH  28  31
HETATM   31  O8  UNL     1      25.812 -15.291   0.965  1.00  0.00    -0.173 OA
BRANCH  31  32
HETATM   32  P3  UNL     1      26.415 -16.576   0.067  1.00  0.00     0.431 P 
HETATM   33  O9  UNL     1      25.301 -17.105  -0.824  1.00  0.00    -0.616 OA
HETATM   34  O10 UNL     1      27.679 -16.071  -0.945  1.00  0.00    -0.616 OA
HETATM   35  O11 UNL     1      26.993 -17.820   1.035  1.00  0.00    -0.616 OA
ENDBRANCH  31  32
ENDBRANCH  28  31
ENDBRANCH  27  28
ENDBRANCH  24  27
ENDBRANCH  23  24
ENDBRANCH  22  23
ENDBRANCH   3  22
BRANCH   4  36
HETATM   36  O12 UNL     1      23.038 -14.568   0.268  1.00  0.00    -0.390 OA
ATOM     37  H12 UNL     1      22.478 -15.335   0.296  1.00  0.00     0.210 HD
ENDBRANCH   4  36
TORSDOF 10
ENDMDL
