MODEL 5
REMARK VINA RESULT: -7.337325152      3.918      6.350
REMARK  10 active torsions:
REMARK  status: ('A' for Active; 'I' for Inactive)
REMARK    1  A    between atoms: N2_4  and  C3_5 
REMARK    2  A    between atoms: C4_7  and  C5_8 
REMARK    3  A    between atoms: C5_8  and  O2_9 
REMARK    4  A    between atoms: O2_9  and  P1_10 
REMARK    5  A    between atoms: P1_10  and  O5_13 
REMARK    6  A    between atoms: O5_13  and  P2_14 
REMARK    7  A    between atoms: P2_14  and  O8_17 
REMARK    8  A    between atoms: O8_17  and  P3_18 
REMARK    9  A    between atoms: C6_22  and  O12_23 
REMARK   10  A    between atoms: C7_25  and  O13_26 
ROOT
HETATM    1  C3  UNL     1      22.627 -12.751   3.175  1.00  0.00     0.262 C 
HETATM    2  O1  UNL     1      22.999 -11.831   2.174  1.00  0.00    -0.353 OA
HETATM    3  C4  UNL     1      23.571 -12.556   1.224  1.00  0.00     0.180 C 
HETATM    4  C6  UNL     1      22.686 -13.772   1.072  1.00  0.00     0.182 C 
HETATM    5  C7  UNL     1      22.733 -14.158   2.571  1.00  0.00     0.198 C 
ENDROOT
BRANCH   1   6
HETATM    6  N2  UNL     1      21.194 -12.578   3.404  1.00  0.00    -0.297 N 
HETATM    7  C2  UNL     1      20.458 -13.410   4.191  1.00  0.00     0.190 A 
HETATM    8  N1  UNL     1      19.211 -12.988   4.196  1.00  0.00    -0.340 N 
HETATM    9  C1  UNL     1      18.082 -13.620   4.830  1.00  0.00     0.157 C 
HETATM   10  C11 UNL     1      19.110 -11.894   3.428  1.00  0.00     0.148 A 
HETATM   11  C8  UNL     1      20.404 -11.645   2.926  1.00  0.00     0.146 A 
HETATM   12  C10 UNL     1      18.124 -11.024   3.029  1.00  0.00     0.278 A 
HETATM   13  N3  UNL     1      20.603 -10.610   2.102  1.00  0.00    -0.314 N 
HETATM   14  C9  UNL     1      19.619  -9.794   1.734  1.00  0.00     0.196 A 
ATOM     15  H3  UNL     1      21.543 -10.440   1.744  1.00  0.00     0.170 HD
HETATM   16  N4  UNL     1      19.852  -8.755   0.759  1.00  0.00    -0.063 NA
HETATM   17  N5  UNL     1      18.382  -9.992   2.191  1.00  0.00    -0.295 N 
ATOM     18  H5  UNL     1      17.629  -9.365   1.910  1.00  0.00     0.171 HD
HETATM   19  O14 UNL     1      16.951 -11.210   3.472  1.00  0.00    -0.265 OA
ENDBRANCH   1   6
BRANCH   5  20
HETATM   20  O13 UNL     1      23.969 -14.674   2.806  1.00  0.00    -0.388 OA
ATOM     21  H13 UNL     1      24.636 -14.041   2.567  1.00  0.00     0.210 HD
ENDBRANCH   5  20
BRANCH   3  22
HETATM   22  C5  UNL     1      24.101 -11.971  -0.022  1.00  0.00     0.216 C 
BRANCH  22  23
HETATM   23  O2  UNL     1      25.159 -12.900  -0.313  1.00  0.00    -0.287 OA
BRANCH  23  24
HETATM   24  P1  UNL     1      26.616 -12.154  -0.001  1.00  0.00     0.417 P 
HETATM   25  O3  UNL     1      27.056 -11.422  -1.326  1.00  0.00    -0.624 OA
HETATM   26  O4  UNL     1      26.515 -10.988   1.140  1.00  0.00    -0.624 OA
BRANCH  24  27
HETATM   27  O5  UNL     1      27.848 -13.264   0.316  1.00  0.00    -0.180 OA
BRANCH  27  28
HETATM   28  P2  UNL     1      27.335 -14.337   1.540  1.00  0.00     0.428 P 
HETATM   29  O6  UNL     1      28.448 -15.275   1.848  1.00  0.00    -0.624 OA
HETATM   30  O7  UNL     1      26.849 -13.572   2.936  1.00  0.00    -0.624 OA
BRANCH  28  31
HETATM   31  O8  UNL     1      25.978 -15.187   0.930  1.00  0.00    -0.173 OA
BRANCH  31  32
HETATM   32  P3  UNL     1      26.486 -16.511   0.029  1.00  0.00     0.431 P 
HETATM   33  O9  UNL     1      25.309 -17.018  -0.790  1.00  0.00    -0.616 OA
HETATM   34  O10 UNL     1      27.712 -16.073  -1.058  1.00  0.00    -0.616 OA
HETATM   35  O11 UNL     1      27.071 -17.755   0.993  1.00  0.00    -0.616 OA
ENDBRANCH  31  32
ENDBRANCH  28  31
ENDBRANCH  27  28
ENDBRANCH  24  27
ENDBRANCH  23  24
ENDBRANCH  22  23
ENDBRANCH   3  22
BRANCH   4  36
HETATM   36  O12 UNL     1      23.292 -14.759   0.310  1.00  0.00    -0.390 OA
ATOM     37  H12 UNL     1      23.053 -14.694  -0.608  1.00  0.00     0.210 HD
ENDBRANCH   4  36
TORSDOF 10
ENDMDL
