MODEL 9
REMARK VINA RESULT: -7.459617384      2.977      3.837
REMARK  4 active torsions:
REMARK  status: ('A' for Active; 'I' for Inactive)
REMARK    1  A    between atoms: C7_13  and  S2_14 
REMARK    2  A    between atoms: S2_14  and  C8_15 
REMARK    3  A    between atoms: C8_15  and  C9_16 
REMARK    4  A    between atoms: C9_16  and  N4_17 
ROOT
HETATM    1  C1  UNL     1      -3.228  -6.238  22.989  1.00  0.00     0.163 C 
HETATM    2  N1  UNL     1      -2.973  -7.014  24.189  1.00  0.00    -0.288 N 
HETATM    3  C2  UNL     1      -2.698  -8.349  24.060  1.00  0.00     0.139 A 
HETATM    4  C3  UNL     1      -2.441  -9.129  25.170  1.00  0.00     0.113 A 
HETATM    5  C4  UNL     1      -2.461  -8.565  26.434  1.00  0.00     0.137 A 
HETATM    6  S1  UNL     1      -2.166  -9.446  27.784  1.00  0.00    -0.058 SA
HETATM    7  N2  UNL     1      -2.738  -7.238  26.528  1.00  0.00    -0.292 N 
HETATM    8  C5  UNL     1      -2.761  -6.678  27.870  1.00  0.00     0.162 C 
HETATM    9  C6  UNL     1      -2.979  -6.521  25.423  1.00  0.00     0.330 A 
HETATM   10  O1  UNL     1      -3.230  -5.302  25.571  1.00  0.00    -0.246 OA
HETATM   11  N3  UNL     1      -2.173 -10.479  24.766  1.00  0.00    -0.355 N 
ATOM     12  H3  UNL     1      -1.963 -11.270  25.374  1.00  0.00     0.162 HD
HETATM   13  C7  UNL     1      -2.261 -10.492  23.338  1.00  0.00     0.248 A 
HETATM   14  N5  UNL     1      -2.631  -9.164  22.914  1.00  0.00    -0.344 N 
ATOM     15  H5  UNL     1      -2.813  -8.869  21.955  1.00  0.00     0.164 HD
ENDROOT
BRANCH  13  16
HETATM   16  S2  UNL     1      -0.643 -10.830  22.540  1.00  0.00    -0.121 SA
BRANCH  16  17
HETATM   17  C8  UNL     1       0.428 -11.445  23.900  1.00  0.00     0.097 C 
BRANCH  17  18
HETATM   18  C9  UNL     1       0.733 -12.907  23.552  1.00  0.00     0.132 C 
BRANCH  18  19
HETATM   19  N4  UNL     1      -0.075 -13.707  24.400  1.00  0.00    -0.389 N 
HETATM   20  C10 UNL     1      -1.144 -14.419  23.825  1.00  0.00     0.084 C 
HETATM   21  C11 UNL     1      -2.500 -14.075  24.379  1.00  0.00     0.212 C 
HETATM   22  O2  UNL     1      -2.494 -13.301  25.505  1.00  0.00    -0.385 OA
HETATM   23  C12 UNL     1      -1.484 -13.600  26.406  1.00  0.00     0.187 C 
HETATM   24  C13 UNL     1      -0.124 -13.398  25.776  1.00  0.00     0.148 C 
ENDBRANCH  18  19
ENDBRANCH  17  18
ENDBRANCH  16  17
ENDBRANCH  13  16
TORSDOF 4
ENDMDL
