MODEL 20
REMARK VINA RESULT: -6.942192098      2.463      7.707
REMARK  4 active torsions:
REMARK  status: ('A' for Active; 'I' for Inactive)
REMARK    1  A    between atoms: C7_13  and  S2_14 
REMARK    2  A    between atoms: S2_14  and  C8_15 
REMARK    3  A    between atoms: C8_15  and  C9_16 
REMARK    4  A    between atoms: C9_16  and  N4_17 
ROOT
HETATM    1  C1  UNL     1      -0.990 -14.370  21.035  1.00  0.00     0.163 C 
HETATM    2  N1  UNL     1       0.131 -13.573  21.502  1.00  0.00    -0.288 N 
HETATM    3  C2  UNL     1      -0.126 -12.464  22.262  1.00  0.00     0.139 A 
HETATM    4  C3  UNL     1       0.904 -11.677  22.737  1.00  0.00     0.113 A 
HETATM    5  C4  UNL     1       2.217 -12.003  22.444  1.00  0.00     0.137 A 
HETATM    6  S1  UNL     1       3.476 -11.102  22.980  1.00  0.00    -0.058 SA
HETATM    7  N2  UNL     1       2.438 -13.110  21.687  1.00  0.00    -0.292 N 
HETATM    8  C5  UNL     1       3.828 -13.420  21.390  1.00  0.00     0.162 C 
HETATM    9  C6  UNL     1       1.407 -13.843  21.251  1.00  0.00     0.330 A 
HETATM   10  O1  UNL     1       1.672 -14.852  20.555  1.00  0.00    -0.246 OA
HETATM   11  N3  UNL     1       0.372 -10.591  23.509  1.00  0.00    -0.355 N 
ATOM     12  H3  UNL     1       0.901  -9.851  23.970  1.00  0.00     0.162 HD
HETATM   13  C7  UNL     1      -1.048 -10.756  23.504  1.00  0.00     0.248 A 
HETATM   14  N5  UNL     1      -1.349 -11.906  22.685  1.00  0.00    -0.344 N 
ATOM     15  H5  UNL     1      -2.279 -12.253  22.454  1.00  0.00     0.164 HD
ENDROOT
BRANCH  13  16
HETATM   16  S2  UNL     1      -1.714 -11.152  25.168  1.00  0.00    -0.121 SA
BRANCH  16  17
HETATM   17  C8  UNL     1      -2.168  -9.522  25.886  1.00  0.00     0.097 C 
BRANCH  17  18
HETATM   18  C9  UNL     1      -2.640  -8.669  24.702  1.00  0.00     0.132 C 
BRANCH  18  19
HETATM   19  N4  UNL     1      -2.561  -7.315  25.115  1.00  0.00    -0.389 N 
HETATM   20  C10 UNL     1      -2.324  -7.045  26.475  1.00  0.00     0.084 C 
HETATM   21  C11 UNL     1      -3.397  -6.237  27.154  1.00  0.00     0.212 C 
HETATM   22  O2  UNL     1      -4.329  -5.685  26.321  1.00  0.00    -0.385 OA
HETATM   23  C12 UNL     1      -3.823  -5.210  25.121  1.00  0.00     0.187 C 
HETATM   24  C13 UNL     1      -3.189  -6.330  24.325  1.00  0.00     0.148 C 
ENDBRANCH  18  19
ENDBRANCH  17  18
ENDBRANCH  16  17
ENDBRANCH  13  16
TORSDOF 4
ENDMDL
