MODEL 2
REMARK VINA RESULT: -9.002793117      1.051      2.592
REMARK  12 active torsions:
REMARK  status: ('A' for Active; 'I' for Inactive)
REMARK    1  A    between atoms: C4_4  and  C5_5 
REMARK    2  A    between atoms: C5_5  and  C6_6 
REMARK    3  A    between atoms: C6_6  and  C7_7 
REMARK    4  A    between atoms: C7_7  and  C9_9 
REMARK    5  A    between atoms: C9_9  and  C10_10 
REMARK    6  A    between atoms: C10_10  and  C11_11 
REMARK    7  A    between atoms: C11_11  and  C12_12 
REMARK    8  A    between atoms: C14_14  and  C15_15 
REMARK    9  A    between atoms: C15_15  and  O1_16 
REMARK   10  A    between atoms: O1_16  and  P1_17 
REMARK   11  A    between atoms: P1_17  and  O4_20 
REMARK   12  A    between atoms: O4_20  and  P2_21 
ROOT
HETATM    1  C12 UNL     1       5.956 -67.033  55.556  1.00  0.00    -0.082 C 
HETATM    2  C13 UNL     1       6.340 -67.030  54.142  1.00  0.00     0.043 C 
HETATM    3  C14 UNL     1       5.536 -65.956  56.164  1.00  0.00     0.002 C 
ENDROOT
BRANCH   1   4
HETATM    4  C11 UNL     1       6.050 -68.347  56.320  1.00  0.00     0.060 C 
BRANCH   4   5
HETATM    5  C10 UNL     1       7.451 -68.794  56.350  1.00  0.00    -0.022 C 
BRANCH   5   6
HETATM    6  C9  UNL     1       7.924 -69.777  57.295  1.00  0.00    -0.001 C 
BRANCH   6   7
HETATM    7  C7  UNL     1       8.188 -69.613  58.561  1.00  0.00    -0.084 C 
HETATM    8  C8  UNL     1       8.479 -70.684  59.535  1.00  0.00     0.043 C 
BRANCH   7   9
HETATM    9  C6  UNL     1       8.173 -68.201  59.121  1.00  0.00     0.037 C 
BRANCH   9  10
HETATM   10  C5  UNL     1       6.896 -68.030  59.898  1.00  0.00     0.031 C 
BRANCH  10  11
HETATM   11  C4  UNL     1       7.065 -66.909  60.874  1.00  0.00    -0.024 C 
HETATM   12  C2  UNL     1       7.114 -67.135  62.184  1.00  0.00    -0.091 C 
HETATM   13  C1  UNL     1       7.286 -65.959  63.089  1.00  0.00     0.042 C 
HETATM   14  C3  UNL     1       7.007 -68.479  62.765  1.00  0.00     0.042 C 
ENDBRANCH  10  11
ENDBRANCH   9  10
ENDBRANCH   7   9
ENDBRANCH   6   7
ENDBRANCH   5   6
ENDBRANCH   4   5
ENDBRANCH   1   4
BRANCH   3  15
HETATM   15  C15 UNL     1       5.396 -64.615  55.544  1.00  0.00     0.209 C 
BRANCH  15  16
HETATM   16  O1  UNL     1       6.013 -63.666  56.321  1.00  0.00    -0.286 OA
BRANCH  16  17
HETATM   17  P1  UNL     1       7.462 -63.219  55.595  1.00  0.00     0.418 P 
HETATM   18  O2  UNL     1       7.362 -63.348  54.094  1.00  0.00    -0.624 OA
HETATM   19  O3  UNL     1       7.826 -61.601  55.929  1.00  0.00    -0.624 OA
BRANCH  17  20
HETATM   20  O4  UNL     1       8.675 -64.248  56.166  1.00  0.00    -0.173 OA
BRANCH  20  21
HETATM   21  P2  UNL     1       9.161 -63.704  57.687  1.00  0.00     0.431 P 
HETATM   22  O5  UNL     1       8.022 -62.996  58.399  1.00  0.00    -0.616 OA
HETATM   23  O6  UNL     1      10.466 -62.644  57.447  1.00  0.00    -0.616 OA
HETATM   24  O7  UNL     1       9.690 -65.018  58.587  1.00  0.00    -0.616 OA
ENDBRANCH  20  21
ENDBRANCH  17  20
ENDBRANCH  16  17
ENDBRANCH  15  16
ENDBRANCH   3  15
TORSDOF 12
ENDMDL
