MODEL 3
REMARK VINA RESULT: -8.952552253      1.191      2.347
REMARK  12 active torsions:
REMARK  status: ('A' for Active; 'I' for Inactive)
REMARK    1  A    between atoms: C4_4  and  C5_5 
REMARK    2  A    between atoms: C5_5  and  C6_6 
REMARK    3  A    between atoms: C6_6  and  C7_7 
REMARK    4  A    between atoms: C7_7  and  C9_9 
REMARK    5  A    between atoms: C9_9  and  C10_10 
REMARK    6  A    between atoms: C10_10  and  C11_11 
REMARK    7  A    between atoms: C11_11  and  C12_12 
REMARK    8  A    between atoms: C14_14  and  C15_15 
REMARK    9  A    between atoms: C15_15  and  O1_16 
REMARK   10  A    between atoms: O1_16  and  P1_17 
REMARK   11  A    between atoms: P1_17  and  O4_20 
REMARK   12  A    between atoms: O4_20  and  P2_21 
ROOT
HETATM    1  C12 UNL     1       6.923 -68.395  56.463  1.00  0.00    -0.082 C 
HETATM    2  C13 UNL     1       6.016 -67.698  57.379  1.00  0.00     0.043 C 
HETATM    3  C14 UNL     1       7.057 -68.039  55.213  1.00  0.00     0.002 C 
ENDROOT
BRANCH   1   4
HETATM    4  C11 UNL     1       7.730 -69.565  57.009  1.00  0.00     0.060 C 
BRANCH   4   5
HETATM    5  C10 UNL     1       8.339 -69.181  58.292  1.00  0.00    -0.022 C 
BRANCH   5   6
HETATM    6  C9  UNL     1       8.717 -70.157  59.286  1.00  0.00    -0.001 C 
BRANCH   6   7
HETATM    7  C7  UNL     1       7.938 -70.918  60.002  1.00  0.00    -0.084 C 
HETATM    8  C8  UNL     1       7.354 -72.208  59.582  1.00  0.00     0.043 C 
BRANCH   7   9
HETATM    9  C6  UNL     1       7.555 -70.445  61.395  1.00  0.00     0.037 C 
BRANCH   9  10
HETATM   10  C5  UNL     1       6.536 -69.348  61.241  1.00  0.00     0.031 C 
BRANCH  10  11
HETATM   11  C4  UNL     1       6.760 -68.322  62.305  1.00  0.00    -0.024 C 
HETATM   12  C2  UNL     1       7.098 -67.072  62.001  1.00  0.00    -0.091 C 
HETATM   13  C1  UNL     1       7.303 -66.111  63.125  1.00  0.00     0.042 C 
HETATM   14  C3  UNL     1       7.276 -66.610  60.619  1.00  0.00     0.042 C 
ENDBRANCH  10  11
ENDBRANCH   9  10
ENDBRANCH   7   9
ENDBRANCH   6   7
ENDBRANCH   5   6
ENDBRANCH   4   5
ENDBRANCH   1   4
BRANCH   3  15
HETATM   15  C15 UNL     1       6.335 -66.923  54.554  1.00  0.00     0.209 C 
BRANCH  15  16
HETATM   16  O1  UNL     1       7.192 -65.877  54.318  1.00  0.00    -0.286 OA
BRANCH  16  17
HETATM   17  P1  UNL     1       6.588 -64.493  55.059  1.00  0.00     0.418 P 
HETATM   18  O2  UNL     1       5.083 -64.564  55.160  1.00  0.00    -0.624 OA
HETATM   19  O3  UNL     1       7.185 -64.347  56.634  1.00  0.00    -0.624 OA
BRANCH  17  20
HETATM   20  O4  UNL     1       7.023 -63.160  54.115  1.00  0.00    -0.173 OA
BRANCH  20  21
HETATM   21  P2  UNL     1       6.746 -61.760  55.013  1.00  0.00     0.431 P 
HETATM   22  O5  UNL     1       5.416 -61.837  55.742  1.00  0.00    -0.616 OA
HETATM   23  O6  UNL     1       6.755 -60.456  53.925  1.00  0.00    -0.616 OA
HETATM   24  O7  UNL     1       8.004 -61.562  56.106  1.00  0.00    -0.616 OA
ENDBRANCH  20  21
ENDBRANCH  17  20
ENDBRANCH  16  17
ENDBRANCH  15  16
ENDBRANCH   3  15
TORSDOF 12
ENDMDL
