MODEL 1
REMARK VINA RESULT: -9.077261410      0.000      0.000
REMARK  12 active torsions:
REMARK  status: ('A' for Active; 'I' for Inactive)
REMARK    1  A    between atoms: C4_4  and  C5_5 
REMARK    2  A    between atoms: C5_5  and  C6_6 
REMARK    3  A    between atoms: C6_6  and  C7_7 
REMARK    4  A    between atoms: C7_7  and  C9_9 
REMARK    5  A    between atoms: C9_9  and  C10_10 
REMARK    6  A    between atoms: C10_10  and  C11_11 
REMARK    7  A    between atoms: C11_11  and  C12_12 
REMARK    8  A    between atoms: C14_14  and  C15_15 
REMARK    9  A    between atoms: C15_15  and  O1_16 
REMARK   10  A    between atoms: O1_16  and  P1_17 
REMARK   11  A    between atoms: P1_17  and  O4_20 
REMARK   12  A    between atoms: O4_20  and  P2_21 
ROOT
HETATM    1  C12 UNL     1       6.111 -67.362  55.658  1.00  0.00    -0.082 C 
HETATM    2  C13 UNL     1       6.344 -67.228  54.218  1.00  0.00     0.043 C 
HETATM    3  C14 UNL     1       5.794 -66.341  56.409  1.00  0.00     0.002 C 
ENDROOT
BRANCH   1   4
HETATM    4  C11 UNL     1       6.240 -68.748  56.277  1.00  0.00     0.060 C 
BRANCH   4   5
HETATM    5  C10 UNL     1       7.664 -69.075  56.446  1.00  0.00    -0.022 C 
BRANCH   5   6
HETATM    6  C9  UNL     1       8.128 -69.984  57.468  1.00  0.00    -0.001 C 
BRANCH   6   7
HETATM    7  C7  UNL     1       8.318 -69.740  58.734  1.00  0.00    -0.084 C 
HETATM    8  C8  UNL     1       8.565 -70.746  59.786  1.00  0.00     0.043 C 
BRANCH   7   9
HETATM    9  C6  UNL     1       8.257 -68.296  59.204  1.00  0.00     0.037 C 
BRANCH   9  10
HETATM   10  C5  UNL     1       6.960 -68.112  59.946  1.00  0.00     0.031 C 
BRANCH  10  11
HETATM   11  C4  UNL     1       7.107 -66.978  60.910  1.00  0.00    -0.024 C 
HETATM   12  C2  UNL     1       7.135 -67.185  62.224  1.00  0.00    -0.091 C 
HETATM   13  C1  UNL     1       7.285 -65.997  63.115  1.00  0.00     0.042 C 
HETATM   14  C3  UNL     1       7.024 -68.522  62.821  1.00  0.00     0.042 C 
ENDBRANCH  10  11
ENDBRANCH   9  10
ENDBRANCH   7   9
ENDBRANCH   6   7
ENDBRANCH   5   6
ENDBRANCH   4   5
ENDBRANCH   1   4
BRANCH   3  15
HETATM   15  C15 UNL     1       5.637 -64.943  55.939  1.00  0.00     0.209 C 
BRANCH  15  16
HETATM   16  O1  UNL     1       6.410 -64.098  56.697  1.00  0.00    -0.286 OA
BRANCH  16  17
HETATM   17  P1  UNL     1       7.688 -63.535  55.761  1.00  0.00     0.418 P 
HETATM   18  O2  UNL     1       9.008 -63.899  56.397  1.00  0.00    -0.624 OA
HETATM   19  O3  UNL     1       7.665 -64.245  54.226  1.00  0.00    -0.624 OA
BRANCH  17  20
HETATM   20  O4  UNL     1       7.561 -61.853  55.656  1.00  0.00    -0.173 OA
BRANCH  20  21
HETATM   21  P2  UNL     1       6.678 -61.471  54.271  1.00  0.00     0.431 P 
HETATM   22  O5  UNL     1       7.366 -62.001  53.025  1.00  0.00    -0.616 OA
HETATM   23  O6  UNL     1       6.550 -59.779  54.207  1.00  0.00    -0.616 OA
HETATM   24  O7  UNL     1       5.139 -62.126  54.414  1.00  0.00    -0.616 OA
ENDBRANCH  20  21
ENDBRANCH  17  20
ENDBRANCH  16  17
ENDBRANCH  15  16
ENDBRANCH   3  15
TORSDOF 12
ENDMDL
