MODEL 1
REMARK VINA RESULT: -9.292677283      0.000      0.000
REMARK  10 active torsions:
REMARK  status: ('A' for Active; 'I' for Inactive)
REMARK    1  A    between atoms: C1_1  and  C29_37 
REMARK    2  A    between atoms: C2_2  and  C3_3 
REMARK    3  A    between atoms: C4_6  and  C5_7 
REMARK    4  A    between atoms: N2_14  and  C12_15 
REMARK    5  A    between atoms: C12_15  and  C13_16 
REMARK    6  A    between atoms: C18_25  and  C19_26 
REMARK    7  A    between atoms: C19_26  and  N4_27 
REMARK    8  A    between atoms: C29_37  and  N5_38 
REMARK    9  A    between atoms: N5_38  and  C30_40 
REMARK   10  A    between atoms: C30_40  and  C31_41 
ROOT
HETATM    1  C3  UNL     1     -20.476 -45.882 -51.574  1.00  0.00     0.104 A 
HETATM    2  N1  UNL     1     -20.932 -45.222 -50.552  1.00  0.00    -0.342 N 
ATOM      3  H1  UNL     1     -20.455 -44.378 -50.234  1.00  0.00     0.167 HD
HETATM    4  C4  UNL     1     -22.012 -45.646 -49.927  1.00  0.00     0.086 A 
HETATM    5  S1  UNL     1     -22.420 -47.044 -50.811  1.00  0.00    -0.070 SA
HETATM    6  C18 UNL     1     -21.142 -47.002 -51.967  1.00  0.00     0.059 A 
ENDROOT
BRANCH   4   7
HETATM    7  C5  UNL     1     -22.708 -45.076 -48.764  1.00  0.00    -0.001 A 
HETATM    8  C6  UNL     1     -22.112 -45.025 -47.526  1.00  0.00     0.016 A 
HETATM    9  C7  UNL     1     -22.778 -44.486 -46.422  1.00  0.00     0.031 A 
HETATM   10  C8  UNL     1     -24.048 -43.994 -46.557  1.00  0.00     0.044 A 
HETATM   11  C9  UNL     1     -24.662 -44.037 -47.799  1.00  0.00    -0.007 A 
HETATM   12  N2  UNL     1     -24.906 -43.433 -45.686  1.00  0.00    -0.354 N 
HETATM   13  C10 UNL     1     -25.911 -43.482 -47.622  1.00  0.00     0.031 A 
HETATM   14  C17 UNL     1     -23.984 -44.579 -48.890  1.00  0.00     0.028 A 
HETATM   15  C11 UNL     1     -26.067 -43.103 -46.307  1.00  0.00     0.092 A 
BRANCH  12  16
HETATM   16  C12 UNL     1     -24.712 -43.173 -44.265  1.00  0.00     0.161 C 
BRANCH  16  17
HETATM   17  C13 UNL     1     -25.777 -43.867 -43.448  1.00  0.00     0.204 C 
HETATM   18  C14 UNL     1     -26.537 -42.845 -42.628  1.00  0.00     0.036 C 
HETATM   19  C15 UNL     1     -27.168 -43.693 -41.555  1.00  0.00     0.029 C 
HETATM   20  C16 UNL     1     -26.217 -44.833 -41.398  1.00  0.00     0.233 C 
HETATM   21  N3  UNL     1     -25.164 -44.656 -42.383  1.00  0.00    -0.069 N 
ATOM     22  H32 UNL     1     -24.746 -45.529 -42.703  1.00  0.00     0.277 HD
ATOM     23  H31 UNL     1     -24.308 -44.249 -42.006  1.00  0.00     0.277 HD
ENDBRANCH  16  17
ENDBRANCH  12  16
ENDBRANCH   4   7
BRANCH   1  24
HETATM   24  C2  UNL     1     -19.260 -45.414 -52.261  1.00  0.00    -0.042 C 
HETATM   25  C1  UNL     1     -18.284 -45.014 -52.842  1.00  0.00    -0.054 C 
BRANCH  25  26
HETATM   26  C29 UNL     1     -17.098 -44.502 -53.580  1.00  0.00     0.153 C 
BRANCH  26  27
HETATM   27  N5  UNL     1     -17.276 -43.204 -54.065  1.00  0.00    -0.371 N 
ATOM     28  H5  UNL     1     -17.082 -42.413 -53.451  1.00  0.00     0.164 HD
BRANCH  27  29
HETATM   29  C30 UNL     1     -17.713 -42.961 -55.367  1.00  0.00     0.065 C 
BRANCH  29  30
HETATM   30  C31 UNL     1     -18.170 -44.082 -56.239  1.00  0.00     0.024 A 
HETATM   31  C32 UNL     1     -19.520 -44.069 -56.859  1.00  0.00     0.010 A 
HETATM   32  C33 UNL     1     -18.904 -43.915 -58.222  1.00  0.00     0.001 A 
HETATM   33  C34 UNL     1     -17.517 -43.907 -57.625  1.00  0.00     0.010 A 
ENDBRANCH  29  30
ENDBRANCH  27  29
ENDBRANCH  26  27
ENDBRANCH  25  26
ENDBRANCH   1  24
BRANCH   6  34
HETATM   34  C19 UNL     1     -20.855 -47.935 -53.126  1.00  0.00     0.196 C 
HETATM   35  C24 UNL     1     -21.233 -47.205 -54.382  1.00  0.00     0.047 C 
HETATM   36  C25 UNL     1     -20.402 -47.450 -55.578  1.00  0.00     0.003 C 
HETATM   37  C26 UNL     1     -18.937 -47.554 -55.358  1.00  0.00     0.000 C 
HETATM   38  C27 UNL     1     -18.660 -48.523 -54.283  1.00  0.00     0.003 C 
HETATM   39  C28 UNL     1     -19.527 -48.550 -53.094  1.00  0.00     0.047 C 
BRANCH  34  40
HETATM   40  N4  UNL     1     -21.849 -48.981 -52.974  1.00  0.00     0.103 N 
HETATM   41  C20 UNL     1     -22.961 -48.863 -53.877  1.00  0.00     0.274 C 
HETATM   42  C21 UNL     1     -23.309 -50.262 -54.335  1.00  0.00     0.032 C 
HETATM   43  C22 UNL     1     -22.033 -51.035 -54.174  1.00  0.00     0.032 C 
HETATM   44  C23 UNL     1     -21.240 -50.248 -53.160  1.00  0.00     0.274 C 
ENDBRANCH  34  40
ENDBRANCH   6  34
TORSDOF 10
ENDMDL
