MODEL 2
REMARK VINA RESULT: -9.279436637      1.155      1.383
REMARK  10 active torsions:
REMARK  status: ('A' for Active; 'I' for Inactive)
REMARK    1  A    between atoms: C1_1  and  C29_37 
REMARK    2  A    between atoms: C2_2  and  C3_3 
REMARK    3  A    between atoms: C4_6  and  C5_7 
REMARK    4  A    between atoms: N2_14  and  C12_15 
REMARK    5  A    between atoms: C12_15  and  C13_16 
REMARK    6  A    between atoms: C18_25  and  C19_26 
REMARK    7  A    between atoms: C19_26  and  N4_27 
REMARK    8  A    between atoms: C29_37  and  N5_38 
REMARK    9  A    between atoms: N5_38  and  C30_40 
REMARK   10  A    between atoms: C30_40  and  C31_41 
ROOT
HETATM    1  C3  UNL     1     -20.596 -45.572 -51.163  1.00  0.00     0.104 A 
HETATM    2  N1  UNL     1     -21.103 -45.108 -50.060  1.00  0.00    -0.342 N 
ATOM      3  H1  UNL     1     -20.736 -44.249 -49.650  1.00  0.00     0.167 HD
HETATM    4  C4  UNL     1     -22.094 -45.749 -49.473  1.00  0.00     0.086 A 
HETATM    5  S1  UNL     1     -22.337 -47.076 -50.515  1.00  0.00    -0.070 SA
HETATM    6  C18 UNL     1     -21.116 -46.720 -51.679  1.00  0.00     0.059 A 
ENDROOT
BRANCH   4   7
HETATM    7  C5  UNL     1     -22.822 -45.424 -48.238  1.00  0.00    -0.001 A 
HETATM    8  C6  UNL     1     -22.340 -44.496 -47.345  1.00  0.00     0.016 A 
HETATM    9  C7  UNL     1     -23.033 -44.192 -46.171  1.00  0.00     0.031 A 
HETATM   10  C8  UNL     1     -24.216 -44.820 -45.887  1.00  0.00     0.044 A 
HETATM   11  C9  UNL     1     -24.715 -45.757 -46.778  1.00  0.00    -0.007 A 
HETATM   12  N2  UNL     1     -25.073 -44.727 -44.854  1.00  0.00    -0.354 N 
HETATM   13  C10 UNL     1     -25.895 -46.210 -46.228  1.00  0.00     0.031 A 
HETATM   14  C17 UNL     1     -24.011 -46.050 -47.945  1.00  0.00     0.028 A 
HETATM   15  C11 UNL     1     -26.123 -45.569 -45.030  1.00  0.00     0.092 A 
BRANCH  12  16
HETATM   16  C12 UNL     1     -24.979 -43.876 -43.675  1.00  0.00     0.161 C 
BRANCH  16  17
HETATM   17  C13 UNL     1     -26.354 -43.446 -43.220  1.00  0.00     0.204 C 
HETATM   18  C14 UNL     1     -26.801 -42.239 -44.019  1.00  0.00     0.036 C 
HETATM   19  C15 UNL     1     -27.886 -41.658 -43.151  1.00  0.00     0.029 C 
HETATM   20  C16 UNL     1     -27.483 -42.050 -41.768  1.00  0.00     0.233 C 
HETATM   21  N3  UNL     1     -26.285 -42.865 -41.882  1.00  0.00    -0.069 N 
ATOM     22  H32 UNL     1     -26.181 -43.553 -41.137  1.00  0.00     0.277 HD
ATOM     23  H31 UNL     1     -25.421 -42.358 -41.694  1.00  0.00     0.277 HD
ENDBRANCH  16  17
ENDBRANCH  12  16
ENDBRANCH   4   7
BRANCH   1  24
HETATM   24  C2  UNL     1     -19.479 -44.861 -51.808  1.00  0.00    -0.042 C 
HETATM   25  C1  UNL     1     -18.568 -44.257 -52.313  1.00  0.00    -0.054 C 
BRANCH  25  26
HETATM   26  C29 UNL     1     -17.444 -43.488 -52.913  1.00  0.00     0.153 C 
BRANCH  26  27
HETATM   27  N5  UNL     1     -17.811 -42.804 -54.075  1.00  0.00    -0.371 N 
ATOM     28  H5  UNL     1     -18.398 -41.973 -53.998  1.00  0.00     0.164 HD
BRANCH  27  29
HETATM   29  C30 UNL     1     -17.397 -43.228 -55.337  1.00  0.00     0.065 C 
BRANCH  29  30
HETATM   30  C31 UNL     1     -18.016 -42.664 -56.572  1.00  0.00     0.024 A 
HETATM   31  C32 UNL     1     -17.475 -42.986 -57.918  1.00  0.00     0.010 A 
HETATM   32  C33 UNL     1     -18.719 -43.765 -58.243  1.00  0.00     0.001 A 
HETATM   33  C34 UNL     1     -19.294 -43.471 -56.878  1.00  0.00     0.010 A 
ENDBRANCH  29  30
ENDBRANCH  27  29
ENDBRANCH  26  27
ENDBRANCH  25  26
ENDBRANCH   1  24
BRANCH   6  34
HETATM   34  C19 UNL     1     -20.743 -47.460 -52.947  1.00  0.00     0.196 C 
HETATM   35  C24 UNL     1     -21.196 -46.612 -54.100  1.00  0.00     0.047 C 
HETATM   36  C25 UNL     1     -20.350 -46.615 -55.310  1.00  0.00     0.003 C 
HETATM   37  C26 UNL     1     -18.881 -46.603 -55.093  1.00  0.00     0.000 C 
HETATM   38  C27 UNL     1     -18.506 -47.673 -54.151  1.00  0.00     0.003 C 
HETATM   39  C28 UNL     1     -19.361 -47.941 -52.984  1.00  0.00     0.047 C 
BRANCH  34  40
HETATM   40  N4  UNL     1     -21.629 -48.609 -52.942  1.00  0.00     0.103 N 
HETATM   41  C20 UNL     1     -22.746 -48.486 -53.837  1.00  0.00     0.274 C 
HETATM   42  C21 UNL     1     -22.954 -49.842 -54.475  1.00  0.00     0.032 C 
HETATM   43  C22 UNL     1     -21.608 -50.501 -54.396  1.00  0.00     0.032 C 
HETATM   44  C23 UNL     1     -20.898 -49.776 -53.280  1.00  0.00     0.274 C 
ENDBRANCH  34  40
ENDBRANCH   6  34
TORSDOF 10
ENDMDL
