MODEL 3
REMARK VINA RESULT: -9.209651069      1.796      2.338
REMARK  10 active torsions:
REMARK  status: ('A' for Active; 'I' for Inactive)
REMARK    1  A    between atoms: C1_1  and  C29_37 
REMARK    2  A    between atoms: C2_2  and  C3_3 
REMARK    3  A    between atoms: C4_6  and  C5_7 
REMARK    4  A    between atoms: N2_14  and  C12_15 
REMARK    5  A    between atoms: C12_15  and  C13_16 
REMARK    6  A    between atoms: C18_25  and  C19_26 
REMARK    7  A    between atoms: C19_26  and  N4_27 
REMARK    8  A    between atoms: C29_37  and  N5_38 
REMARK    9  A    between atoms: N5_38  and  C30_40 
REMARK   10  A    between atoms: C30_40  and  C31_41 
ROOT
HETATM    1  C3  UNL     1     -19.323 -45.301 -50.489  1.00  0.00     0.104 A 
HETATM    2  N1  UNL     1     -20.025 -44.931 -49.460  1.00  0.00    -0.342 N 
ATOM      3  H1  UNL     1     -19.697 -44.170 -48.864  1.00  0.00     0.167 HD
HETATM    4  C4  UNL     1     -21.162 -45.540 -49.188  1.00  0.00     0.086 A 
HETATM    5  S1  UNL     1     -21.263 -46.696 -50.435  1.00  0.00    -0.070 SA
HETATM    6  C18 UNL     1     -19.796 -46.319 -51.259  1.00  0.00     0.059 A 
ENDROOT
BRANCH   4   7
HETATM    7  C5  UNL     1     -22.117 -45.302 -48.096  1.00  0.00    -0.001 A 
HETATM    8  C6  UNL     1     -21.823 -44.448 -47.060  1.00  0.00     0.016 A 
HETATM    9  C7  UNL     1     -22.732 -44.227 -46.022  1.00  0.00     0.031 A 
HETATM   10  C8  UNL     1     -23.944 -44.863 -46.021  1.00  0.00     0.044 A 
HETATM   11  C9  UNL     1     -24.255 -45.727 -47.060  1.00  0.00    -0.007 A 
HETATM   12  N2  UNL     1     -24.986 -44.840 -45.170  1.00  0.00    -0.354 N 
HETATM   13  C10 UNL     1     -25.517 -46.209 -46.785  1.00  0.00     0.031 A 
HETATM   14  C17 UNL     1     -23.337 -45.938 -48.087  1.00  0.00     0.028 A 
HETATM   15  C11 UNL     1     -25.976 -45.657 -45.608  1.00  0.00     0.092 A 
BRANCH  12  16
HETATM   16  C12 UNL     1     -25.127 -44.081 -43.934  1.00  0.00     0.161 C 
BRANCH  16  17
HETATM   17  C13 UNL     1     -26.523 -43.515 -43.816  1.00  0.00     0.204 C 
HETATM   18  C14 UNL     1     -26.740 -42.466 -44.887  1.00  0.00     0.036 C 
HETATM   19  C15 UNL     1     -27.908 -41.685 -44.345  1.00  0.00     0.029 C 
HETATM   20  C16 UNL     1     -27.770 -41.821 -42.865  1.00  0.00     0.233 C 
HETATM   21  N3  UNL     1     -26.634 -42.691 -42.615  1.00  0.00    -0.069 N 
ATOM     22  H32 UNL     1     -26.706 -43.228 -41.750  1.00  0.00     0.277 HD
ATOM     23  H31 UNL     1     -25.778 -42.194 -42.372  1.00  0.00     0.277 HD
ENDBRANCH  16  17
ENDBRANCH  12  16
ENDBRANCH   4   7
BRANCH   1  24
HETATM   24  C2  UNL     1     -18.046 -44.628 -50.781  1.00  0.00    -0.042 C 
HETATM   25  C1  UNL     1     -17.013 -44.069 -51.047  1.00  0.00    -0.054 C 
BRANCH  25  26
HETATM   26  C29 UNL     1     -15.750 -43.369 -51.407  1.00  0.00     0.153 C 
BRANCH  26  27
HETATM   27  N5  UNL     1     -15.935 -42.370 -52.366  1.00  0.00    -0.371 N 
ATOM     28  H5  UNL     1     -15.509 -41.455 -52.219  1.00  0.00     0.164 HD
BRANCH  27  29
HETATM   29  C30 UNL     1     -16.685 -42.591 -53.521  1.00  0.00     0.065 C 
BRANCH  29  30
HETATM   30  C31 UNL     1     -16.125 -42.273 -54.866  1.00  0.00     0.024 A 
HETATM   31  C32 UNL     1     -15.247 -43.236 -55.579  1.00  0.00     0.010 A 
HETATM   32  C33 UNL     1     -16.311 -43.453 -56.618  1.00  0.00     0.001 A 
HETATM   33  C34 UNL     1     -17.236 -42.492 -55.912  1.00  0.00     0.010 A 
ENDBRANCH  29  30
ENDBRANCH  27  29
ENDBRANCH  26  27
ENDBRANCH  25  26
ENDBRANCH   1  24
BRANCH   6  34
HETATM   34  C19 UNL     1     -19.208 -46.928 -52.515  1.00  0.00     0.196 C 
HETATM   35  C24 UNL     1     -19.083 -45.822 -53.523  1.00  0.00     0.047 C 
HETATM   36  C25 UNL     1     -17.919 -45.867 -54.431  1.00  0.00     0.003 C 
HETATM   37  C26 UNL     1     -16.627 -46.287 -53.832  1.00  0.00     0.000 C 
HETATM   38  C27 UNL     1     -16.803 -47.550 -53.094  1.00  0.00     0.003 C 
HETATM   39  C28 UNL     1     -18.019 -47.753 -52.290  1.00  0.00     0.047 C 
BRANCH  34  40
HETATM   40  N4  UNL     1     -20.272 -47.782 -53.009  1.00  0.00     0.103 N 
HETATM   41  C20 UNL     1     -21.087 -47.169 -54.022  1.00  0.00     0.274 C 
HETATM   42  C21 UNL     1     -21.388 -48.234 -55.053  1.00  0.00     0.032 C 
HETATM   43  C22 UNL     1     -20.258 -49.212 -54.919  1.00  0.00     0.032 C 
HETATM   44  C23 UNL     1     -19.720 -48.980 -53.528  1.00  0.00     0.274 C 
ENDBRANCH  34  40
ENDBRANCH   6  34
TORSDOF 10
ENDMDL
