MODEL 2
REMARK VINA RESULT: -7.747838811      3.671      5.396
REMARK  3 active torsions:
REMARK  status: ('A' for Active; 'I' for Inactive)
REMARK    1  A    between atoms: C2_2  and  C3_3 
REMARK    2  A    between atoms: C8_8  and  O1_9 
REMARK    3  A    between atoms: C32_37  and  O3_38 
ROOT
HETATM    1  C3  UNL     1       4.825  -2.631 106.958  1.00  0.00     0.129 C 
HETATM    2  C4  UNL     1       5.601  -3.668 106.241  1.00  0.00     0.026 C 
HETATM    3  C5  UNL     1       4.785  -4.401 105.200  1.00  0.00     0.028 C 
HETATM    4  C6  UNL     1       3.880  -3.558 104.419  1.00  0.00    -0.028 C 
HETATM    5  C7  UNL     1       4.073  -3.039 103.223  1.00  0.00     0.001 C 
HETATM    6  C8  UNL     1       5.303  -3.225 102.416  1.00  0.00     0.145 C 
HETATM    7  C9  UNL     1       5.620  -1.991 101.572  1.00  0.00     0.024 C 
HETATM    8  C10 UNL     1       5.694  -2.427 100.120  1.00  0.00     0.008 C 
HETATM    9  C11 UNL     1       7.200  -2.391 100.243  1.00  0.00     0.007 C 
HETATM   10  C12 UNL     1       7.056  -1.679 101.594  1.00  0.00     0.010 C 
HETATM   11  C13 UNL     1       7.526  -0.301 101.599  1.00  0.00     0.128 C 
HETATM   12  N1  UNL     1       6.551   0.767 101.663  1.00  0.00    -0.377 N 
HETATM   13  C14 UNL     1       6.312   1.147 100.232  1.00  0.00     0.139 C 
HETATM   14  C15 UNL     1       6.901   2.418  99.825  1.00  0.00     0.025 C 
HETATM   15  C16 UNL     1       5.749   3.217  99.176  1.00  0.00     0.018 C 
HETATM   16  C17 UNL     1       5.290   2.538  97.910  1.00  0.00     0.006 C 
HETATM   17  C18 UNL     1       6.321   2.819  96.867  1.00  0.00     0.039 C 
HETATM   18  C19 UNL     1       7.651   2.471  97.424  1.00  0.00    -0.049 A 
HETATM   19  C20 UNL     1       8.665   2.336  96.462  1.00  0.00     0.031 A 
HETATM   20  C21 UNL     1       9.937   2.023  96.822  1.00  0.00     0.034 A 
HETATM   21 CL1  UNL     1      11.213   1.855  95.605  1.00  0.00    -0.084 Cl
HETATM   22  C22 UNL     1      10.239   1.836  98.137  1.00  0.00     0.024 A 
HETATM   23  C23 UNL     1       9.236   1.971  99.075  1.00  0.00     0.010 A 
HETATM   24  C24 UNL     1       7.925   2.288  98.758  1.00  0.00    -0.039 A 
HETATM   25  C25 UNL     1       7.431   3.322 100.884  1.00  0.00     0.192 C 
HETATM   26  O2  UNL     1       6.479   3.705 101.848  1.00  0.00    -0.348 OA
HETATM   27  C26 UNL     1       5.963   2.811 102.825  1.00  0.00     0.095 A 
HETATM   28  C27 UNL     1       5.448   3.599 103.828  1.00  0.00     0.040 A 
HETATM   29  C28 UNL     1       4.900   2.927 104.867  1.00  0.00     0.018 A 
HETATM   30  C29 UNL     1       4.835   1.501 104.962  1.00  0.00     0.018 A 
HETATM   31  C30 UNL     1       5.360   0.739 103.934  1.00  0.00     0.048 A 
HETATM   32  C31 UNL     1       5.937   1.382 102.842  1.00  0.00     0.065 A 
HETATM   33  C32 UNL     1       4.178   1.129 106.221  1.00  0.00     0.160 C 
HETATM   34  N2  UNL     1       4.406   0.133 107.196  1.00  0.00    -0.263 N 
ATOM     35  H2  UNL     1       3.776   0.123 107.999  1.00  0.00     0.180 HD
HETATM   36  S1  UNL     1       5.651  -1.076 107.165  1.00  0.00     0.236 S 
HETATM   37  O4  UNL     1       6.747  -0.812 106.234  1.00  0.00    -0.205 OA
HETATM   38  O5  UNL     1       6.263  -1.093 108.563  1.00  0.00    -0.205 OA
ENDROOT
BRANCH   6  39
HETATM   39  O1  UNL     1       6.429  -3.542 103.118  1.00  0.00    -0.391 OA
ATOM     40  H1  UNL     1       7.000  -4.185 102.713  1.00  0.00     0.210 HD
ENDBRANCH   6  39
BRANCH  33  41
HETATM   41  O3  UNL     1       3.129   1.850 106.584  1.00  0.00    -0.345 OA
ATOM     42  H3  UNL     1       2.685   1.589 107.382  1.00  0.00     0.219 HD
ENDBRANCH  33  41
BRANCH   1  43
HETATM   43  C2  UNL     1       4.352  -3.091 108.332  1.00  0.00     0.017 C 
HETATM   44  C1  UNL     1       2.850  -3.121 108.455  1.00  0.00     0.006 C 
ENDBRANCH   1  43
TORSDOF 3
ENDMDL
