MODEL 4
REMARK VINA RESULT: -6.756653544      3.853      6.715
REMARK  3 active torsions:
REMARK  status: ('A' for Active; 'I' for Inactive)
REMARK    1  A    between atoms: C2_2  and  C3_3 
REMARK    2  A    between atoms: C8_8  and  O1_9 
REMARK    3  A    between atoms: C32_37  and  O3_38 
ROOT
HETATM    1  C3  UNL     1      -2.250  -2.253 102.411  1.00  0.00     0.129 C 
HETATM    2  C4  UNL     1      -2.669  -1.158 101.507  1.00  0.00     0.026 C 
HETATM    3  C5  UNL     1      -2.864   0.158 102.225  1.00  0.00     0.028 C 
HETATM    4  C6  UNL     1      -1.862   0.458 103.249  1.00  0.00    -0.028 C 
HETATM    5  C7  UNL     1      -0.786   1.212 103.144  1.00  0.00     0.001 C 
HETATM    6  C8  UNL     1      -0.377   1.925 101.911  1.00  0.00     0.145 C 
HETATM    7  C9  UNL     1       1.144   2.005 101.779  1.00  0.00     0.024 C 
HETATM    8  C10 UNL     1       1.524   3.470 101.662  1.00  0.00     0.008 C 
HETATM    9  C11 UNL     1       1.681   3.255 100.175  1.00  0.00     0.007 C 
HETATM   10  C12 UNL     1       1.579   1.741 100.400  1.00  0.00     0.010 C 
HETATM   11  C13 UNL     1       2.808   1.009 100.127  1.00  0.00     0.128 C 
HETATM   12  N1  UNL     1       3.560   0.472 101.240  1.00  0.00    -0.377 N 
HETATM   13  C14 UNL     1       4.584   1.524 101.547  1.00  0.00     0.139 C 
HETATM   14  C15 UNL     1       5.947   1.193 101.146  1.00  0.00     0.025 C 
HETATM   15  C16 UNL     1       6.813   1.416 102.406  1.00  0.00     0.018 C 
HETATM   16  C17 UNL     1       6.824   2.877 102.782  1.00  0.00     0.006 C 
HETATM   17  C18 UNL     1       7.725   3.569 101.812  1.00  0.00     0.039 C 
HETATM   18  C19 UNL     1       7.313   3.185 100.440  1.00  0.00    -0.049 A 
HETATM   19  C20 UNL     1       7.817   4.019  99.429  1.00  0.00     0.031 A 
HETATM   20  C21 UNL     1       7.527   3.791  98.122  1.00  0.00     0.034 A 
HETATM   21 CL1  UNL     1       8.166   4.845  96.850  1.00  0.00    -0.084 Cl
HETATM   22  C22 UNL     1       6.735   2.736  97.781  1.00  0.00     0.024 A 
HETATM   23  C23 UNL     1       6.244   1.923  98.781  1.00  0.00     0.010 A 
HETATM   24  C24 UNL     1       6.511   2.114 100.128  1.00  0.00    -0.039 A 
HETATM   25  C25 UNL     1       6.242  -0.208 100.735  1.00  0.00     0.192 C 
HETATM   26  O2  UNL     1       5.956  -1.173 101.719  1.00  0.00    -0.348 OA
HETATM   27  C26 UNL     1       4.631  -1.528 102.094  1.00  0.00     0.095 A 
HETATM   28  C27 UNL     1       4.725  -2.758 102.701  1.00  0.00     0.040 A 
HETATM   29  C28 UNL     1       3.554  -3.277 103.137  1.00  0.00     0.018 A 
HETATM   30  C29 UNL     1       2.284  -2.632 103.002  1.00  0.00     0.018 A 
HETATM   31  C30 UNL     1       2.227  -1.395 102.388  1.00  0.00     0.048 A 
HETATM   32  C31 UNL     1       3.404  -0.817 101.919  1.00  0.00     0.065 A 
HETATM   33  C32 UNL     1       1.242  -3.486 103.585  1.00  0.00     0.160 C 
HETATM   34  N2  UNL     1      -0.075  -3.833 103.209  1.00  0.00    -0.263 N 
ATOM     35  H2  UNL     1      -0.572  -4.481 103.821  1.00  0.00     0.180 HD
HETATM   36  S1  UNL     1      -0.930  -3.269 101.807  1.00  0.00     0.236 S 
HETATM   37  O4  UNL     1      -0.092  -2.669 100.770  1.00  0.00    -0.205 OA
HETATM   38  O5  UNL     1      -1.581  -4.500 101.182  1.00  0.00    -0.205 OA
ENDROOT
BRANCH   6  39
HETATM   39  O1  UNL     1      -0.863   1.413 100.743  1.00  0.00    -0.391 OA
ATOM     40  H1  UNL     1      -1.803   1.485 100.621  1.00  0.00     0.210 HD
ENDBRANCH   6  39
BRANCH  33  41
HETATM   41  O3  UNL     1       1.538  -4.100 104.719  1.00  0.00    -0.345 OA
ATOM     42  H3  UNL     1       1.215  -4.987 104.823  1.00  0.00     0.219 HD
ENDBRANCH  33  41
BRANCH   1  43
HETATM   43  C2  UNL     1      -3.403  -3.172 102.798  1.00  0.00     0.017 C 
HETATM   44  C1  UNL     1      -3.677  -3.176 104.280  1.00  0.00     0.006 C 
ENDBRANCH   1  43
TORSDOF 3
ENDMDL
