MODEL 1
REMARK VINA RESULT: -7.974152329      0.000      0.000
REMARK  3 active torsions:
REMARK  status: ('A' for Active; 'I' for Inactive)
REMARK    1  A    between atoms: C2_2  and  C3_3 
REMARK    2  A    between atoms: C8_8  and  O1_9 
REMARK    3  A    between atoms: C32_37  and  O3_38 
ROOT
HETATM    1  C3  UNL     1       2.901   2.431 104.264  1.00  0.00     0.129 C 
HETATM    2  C4  UNL     1       4.142   2.926 104.900  1.00  0.00     0.026 C 
HETATM    3  C5  UNL     1       5.153   1.830 105.156  1.00  0.00     0.028 C 
HETATM    4  C6  UNL     1       5.278   0.843 104.082  1.00  0.00    -0.028 C 
HETATM    5  C7  UNL     1       6.171   0.797 103.114  1.00  0.00     0.001 C 
HETATM    6  C8  UNL     1       7.262   1.783 102.931  1.00  0.00     0.145 C 
HETATM    7  C9  UNL     1       7.588   2.000 101.453  1.00  0.00     0.024 C 
HETATM    8  C10 UNL     1       9.061   1.696 101.252  1.00  0.00     0.008 C 
HETATM    9  C11 UNL     1       9.312   3.186 101.243  1.00  0.00     0.007 C 
HETATM   10  C12 UNL     1       7.799   3.423 101.151  1.00  0.00     0.010 C 
HETATM   11  C13 UNL     1       7.357   3.998  99.889  1.00  0.00     0.128 C 
HETATM   12  N1  UNL     1       6.629   3.160  98.960  1.00  0.00    -0.377 N 
HETATM   13  C14 UNL     1       7.678   2.628  98.029  1.00  0.00     0.139 C 
HETATM   14  C15 UNL     1       7.671   3.213  96.693  1.00  0.00     0.025 C 
HETATM   15  C16 UNL     1       7.636   2.015  95.719  1.00  0.00     0.018 C 
HETATM   16  C17 UNL     1       8.911   1.216  95.826  1.00  0.00     0.006 C 
HETATM   17  C18 UNL     1       9.974   1.996  95.123  1.00  0.00     0.039 C 
HETATM   18  C19 UNL     1       9.952   3.384  95.644  1.00  0.00    -0.049 A 
HETATM   19  C20 UNL     1      11.106   4.130  95.354  1.00  0.00     0.031 A 
HETATM   20  C21 UNL     1      11.230   5.420  95.764  1.00  0.00     0.034 A 
HETATM   21 CL1  UNL     1      12.686   6.357  95.395  1.00  0.00    -0.084 Cl
HETATM   22  C22 UNL     1      10.220   6.002  96.470  1.00  0.00     0.024 A 
HETATM   23  C23 UNL     1       9.091   5.262  96.750  1.00  0.00     0.010 A 
HETATM   24  C24 UNL     1       8.918   3.945  96.354  1.00  0.00    -0.039 A 
HETATM   25  C25 UNL     1       6.505   4.051  96.295  1.00  0.00     0.192 C 
HETATM   26  O2  UNL     1       5.266   3.386  96.359  1.00  0.00    -0.348 OA
HETATM   27  C26 UNL     1       4.637   3.037  97.585  1.00  0.00     0.095 A 
HETATM   28  C27 UNL     1       3.309   2.840  97.288  1.00  0.00     0.040 A 
HETATM   29  C28 UNL     1       2.527   2.493  98.337  1.00  0.00     0.018 A 
HETATM   30  C29 UNL     1       3.001   2.330  99.677  1.00  0.00     0.018 A 
HETATM   31  C30 UNL     1       4.343   2.534  99.940  1.00  0.00     0.048 A 
HETATM   32  C31 UNL     1       5.190   2.894  98.895  1.00  0.00     0.065 A 
HETATM   33  C32 UNL     1       1.878   1.955 100.546  1.00  0.00     0.160 C 
HETATM   34  N2  UNL     1       1.476   2.317 101.850  1.00  0.00    -0.263 N 
ATOM     35  H2  UNL     1       0.616   1.894 102.200  1.00  0.00     0.180 HD
HETATM   36  S1  UNL     1       2.298   3.413 102.917  1.00  0.00     0.236 S 
HETATM   37  O4  UNL     1       3.284   4.280 102.274  1.00  0.00    -0.205 OA
HETATM   38  O5  UNL     1       1.224   4.330 103.496  1.00  0.00    -0.205 OA
ENDROOT
BRANCH   6  39
HETATM   39  O1  UNL     1       7.050   3.010 103.488  1.00  0.00    -0.391 OA
ATOM     40  H1  UNL     1       7.808   3.582 103.527  1.00  0.00     0.210 HD
ENDBRANCH   6  39
BRANCH  33  41
HETATM   41  O3  UNL     1       1.009   1.086 100.056  1.00  0.00    -0.345 OA
ATOM     42  H3  UNL     1       0.412   0.682 100.675  1.00  0.00     0.219 HD
ENDBRANCH  33  41
BRANCH   1  43
HETATM   43  C2  UNL     1       1.758   2.253 105.256  1.00  0.00     0.017 C 
HETATM   44  C1  UNL     1       1.234   0.841 105.300  1.00  0.00     0.006 C 
ENDBRANCH   1  43
TORSDOF 3
ENDMDL
