MODEL 3
REMARK VINA RESULT: -6.812009620      4.157      9.015
REMARK  3 active torsions:
REMARK  status: ('A' for Active; 'I' for Inactive)
REMARK    1  A    between atoms: C2_2  and  C3_3 
REMARK    2  A    between atoms: C8_8  and  O1_9 
REMARK    3  A    between atoms: C32_37  and  O3_38 
ROOT
HETATM    1  C3  UNL     1       5.826   3.232  97.876  1.00  0.00     0.129 C 
HETATM    2  C4  UNL     1       7.145   2.587  98.056  1.00  0.00     0.026 C 
HETATM    3  C5  UNL     1       8.078   3.385  98.939  1.00  0.00     0.028 C 
HETATM    4  C6  UNL     1       7.448   3.997 100.109  1.00  0.00    -0.028 C 
HETATM    5  C7  UNL     1       7.416   3.550 101.349  1.00  0.00     0.001 C 
HETATM    6  C8  UNL     1       8.042   2.286 101.801  1.00  0.00     0.145 C 
HETATM    7  C9  UNL     1       7.241   1.624 102.923  1.00  0.00     0.024 C 
HETATM    8  C10 UNL     1       8.165   1.446 104.112  1.00  0.00     0.008 C 
HETATM    9  C11 UNL     1       8.297  -0.008 103.723  1.00  0.00     0.007 C 
HETATM   10  C12 UNL     1       7.142   0.171 102.729  1.00  0.00     0.010 C 
HETATM   11  C13 UNL     1       5.930  -0.554 103.082  1.00  0.00     0.128 C 
HETATM   12  N1  UNL     1       4.784   0.193 103.554  1.00  0.00    -0.377 N 
HETATM   13  C14 UNL     1       4.903   0.163 105.049  1.00  0.00     0.139 C 
HETATM   14  C15 UNL     1       3.952  -0.712 105.725  1.00  0.00     0.025 C 
HETATM   15  C16 UNL     1       3.281   0.166 106.805  1.00  0.00     0.018 C 
HETATM   16  C17 UNL     1       4.292   0.578 107.846  1.00  0.00     0.006 C 
HETATM   17  C18 UNL     1       4.542  -0.617 108.707  1.00  0.00     0.039 C 
HETATM   18  C19 UNL     1       4.851  -1.768 107.825  1.00  0.00    -0.049 A 
HETATM   19  C20 UNL     1       5.455  -2.853 108.479  1.00  0.00     0.031 A 
HETATM   20  C21 UNL     1       5.794  -3.981 107.801  1.00  0.00     0.034 A 
HETATM   21 CL1  UNL     1       6.555  -5.349 108.630  1.00  0.00    -0.084 Cl
HETATM   22  C22 UNL     1       5.545  -4.064 106.464  1.00  0.00     0.024 A 
HETATM   23  C23 UNL     1       4.952  -2.993 105.830  1.00  0.00     0.010 A 
HETATM   24  C24 UNL     1       4.589  -1.822 106.477  1.00  0.00    -0.039 A 
HETATM   25  C25 UNL     1       2.815  -1.263 104.936  1.00  0.00     0.192 C 
HETATM   26  O2  UNL     1       1.989  -0.286 104.349  1.00  0.00    -0.348 OA
HETATM   27  C26 UNL     1       2.402   0.519 103.253  1.00  0.00     0.095 A 
HETATM   28  C27 UNL     1       1.248   0.998 102.677  1.00  0.00     0.040 A 
HETATM   29  C28 UNL     1       1.428   1.799 101.601  1.00  0.00     0.018 A 
HETATM   30  C29 UNL     1       2.706   2.154 101.063  1.00  0.00     0.018 A 
HETATM   31  C30 UNL     1       3.846   1.656 101.668  1.00  0.00     0.048 A 
HETATM   32  C31 UNL     1       3.715   0.825 102.778  1.00  0.00     0.065 A 
HETATM   33  C32 UNL     1       2.516   3.031  99.901  1.00  0.00     0.160 C 
HETATM   34  N2  UNL     1       3.126   3.132  98.631  1.00  0.00    -0.263 N 
ATOM     35  H2  UNL     1       2.765   3.852  98.004  1.00  0.00     0.180 HD
HETATM   36  S1  UNL     1       4.428   2.154  98.031  1.00  0.00     0.236 S 
HETATM   37  O4  UNL     1       4.663   0.914  98.770  1.00  0.00    -0.205 OA
HETATM   38  O5  UNL     1       4.036   1.747  96.613  1.00  0.00    -0.205 OA
ENDROOT
BRANCH   6  39
HETATM   39  O1  UNL     1       8.244   1.346 100.833  1.00  0.00    -0.391 OA
ATOM     40  H1  UNL     1       7.481   0.833 100.591  1.00  0.00     0.210 HD
ENDBRANCH   6  39
BRANCH  33  41
HETATM   41  O3  UNL     1       1.576   3.956  99.999  1.00  0.00    -0.345 OA
ATOM     42  H3  UNL     1       1.860   4.834 100.227  1.00  0.00     0.219 HD
ENDBRANCH  33  41
BRANCH   1  43
HETATM   43  C2  UNL     1       5.703   3.963  96.545  1.00  0.00     0.017 C 
HETATM   44  C1  UNL     1       6.813   3.622  95.584  1.00  0.00     0.006 C 
ENDBRANCH   1  43
TORSDOF 3
ENDMDL
