MODEL 3
REMARK VINA RESULT: -8.626473498      0.642      1.075
REMARK  3 active torsions:
REMARK  status: ('A' for Active; 'I' for Inactive)
REMARK    1  A    between atoms: N3_14  and  C9_15 
REMARK    2  A    between atoms: C15_21  and  O2_22 
REMARK    3  A    between atoms: C17_25  and  C18_26 
ROOT
HETATM    1  C1  UNL     1     -11.548  22.370  22.898  1.00  0.00     0.015 C 
HETATM    2  C2  UNL     1     -12.110  22.342  24.308  1.00  0.00    -0.036 C 
HETATM    3  C3  UNL     1     -11.212  21.549  25.233  1.00  0.00     0.015 C 
HETATM    4  C4  UNL     1     -13.496  21.779  24.285  1.00  0.00     0.093 C 
HETATM    5  C5  UNL     1     -14.470  22.752  23.786  1.00  0.00     0.163 C 
HETATM    6  O1  UNL     1     -15.705  22.525  23.743  1.00  0.00    -0.292 OA
HETATM    7  C6  UNL     1     -13.993  24.051  23.311  1.00  0.00     0.044 A 
HETATM    8  C7  UNL     1     -12.821  24.597  23.787  1.00  0.00     0.026 A 
HETATM    9  N1  UNL     1     -12.360  25.786  23.369  1.00  0.00    -0.343 N 
ATOM     10  H1  UNL     1     -11.488  26.167  23.736  1.00  0.00     0.167 HD
HETATM   11  C8  UNL     1     -13.085  26.469  22.441  1.00  0.00     0.136 A 
HETATM   12  N2  UNL     1     -12.914  27.651  21.825  1.00  0.00    -0.276 N 
ATOM     13  H2  UNL     1     -12.120  28.268  21.994  1.00  0.00     0.189 HD
HETATM   14  N3  UNL     1     -13.887  27.925  20.979  1.00  0.00    -0.232 N 
HETATM   15  C15 UNL     1     -14.739  26.886  21.031  1.00  0.00     0.177 A 
HETATM   16  C16 UNL     1     -14.264  25.961  21.936  1.00  0.00     0.074 A 
HETATM   17  C17 UNL     1     -14.742  24.742  22.360  1.00  0.00     0.010 A 
HETATM   18  C24 UNL     1     -12.088  23.785  24.802  1.00  0.00     0.067 C 
ENDROOT
BRANCH  17  19
HETATM   19  C18 UNL     1     -15.979  24.196  21.840  1.00  0.00    -0.002 A 
HETATM   20  C19 UNL     1     -17.213  24.425  22.424  1.00  0.00     0.014 A 
HETATM   21  C20 UNL     1     -18.388  23.900  21.923  1.00  0.00     0.001 A 
HETATM   22  C21 UNL     1     -18.352  23.110  20.792  1.00  0.00     0.002 A 
HETATM   23  C22 UNL     1     -17.126  22.876  20.204  1.00  0.00     0.024 A 
HETATM   24  C23 UNL     1     -15.960  23.402  20.707  1.00  0.00     0.045 A 
HETATM   25 CL1  UNL     1     -14.417  23.084  19.934  1.00  0.00    -0.083 Cl
ENDBRANCH  17  19
BRANCH  15  26
HETATM   26  O2  UNL     1     -15.915  26.732  20.310  1.00  0.00    -0.344 OA
ATOM     27  H2  UNL     1     -16.005  26.687  19.365  1.00  0.00     0.219 HD
ENDBRANCH  15  26
BRANCH  14  28
HETATM   28  C9  UNL     1     -14.015  29.107  20.155  1.00  0.00     0.059 A 
HETATM   29  C10 UNL     1     -13.701  29.063  18.811  1.00  0.00     0.031 A 
HETATM   30  C11 UNL     1     -13.808  30.164  17.991  1.00  0.00     0.002 A 
HETATM   31  C12 UNL     1     -14.244  31.365  18.510  1.00  0.00     0.000 A 
HETATM   32  C13 UNL     1     -14.557  31.402  19.855  1.00  0.00     0.002 A 
HETATM   33  C14 UNL     1     -14.448  30.294  20.671  1.00  0.00     0.031 A 
ENDBRANCH  14  28
TORSDOF 3
ENDMDL
