MODEL 5
REMARK VINA RESULT: -8.481444389      3.106      4.459
REMARK  3 active torsions:
REMARK  status: ('A' for Active; 'I' for Inactive)
REMARK    1  A    between atoms: N3_14  and  C9_15 
REMARK    2  A    between atoms: C15_21  and  O2_22 
REMARK    3  A    between atoms: C17_25  and  C18_26 
ROOT
HETATM    1  C1  UNL     1     -13.790  23.968  21.978  1.00  0.00     0.015 C 
HETATM    2  C2  UNL     1     -15.293  23.968  22.185  1.00  0.00    -0.036 C 
HETATM    3  C3  UNL     1     -15.650  23.436  23.556  1.00  0.00     0.015 C 
HETATM    4  C4  UNL     1     -15.949  23.166  21.105  1.00  0.00     0.093 C 
HETATM    5  C5  UNL     1     -16.002  23.899  19.838  1.00  0.00     0.163 C 
HETATM    6  O1  UNL     1     -16.570  23.451  18.810  1.00  0.00    -0.292 OA
HETATM    7  C6  UNL     1     -15.366  25.214  19.755  1.00  0.00     0.044 A 
HETATM    8  C7  UNL     1     -15.210  26.002  20.874  1.00  0.00     0.026 A 
HETATM    9  N1  UNL     1     -14.630  27.211  20.826  1.00  0.00    -0.343 N 
ATOM     10  H1  UNL     1     -14.525  27.775  21.669  1.00  0.00     0.167 HD
HETATM   11  C8  UNL     1     -14.184  27.666  19.623  1.00  0.00     0.136 A 
HETATM   12  N2  UNL     1     -13.575  28.798  19.233  1.00  0.00    -0.276 N 
ATOM     13  H2  UNL     1     -13.337  29.561  19.868  1.00  0.00     0.189 HD
HETATM   14  N3  UNL     1     -13.318  28.816  17.940  1.00  0.00    -0.232 N 
HETATM   15  C15 UNL     1     -13.773  27.650  17.448  1.00  0.00     0.177 A 
HETATM   16  C16 UNL     1     -14.319  26.911  18.476  1.00  0.00     0.074 A 
HETATM   17  C17 UNL     1     -14.912  25.670  18.518  1.00  0.00     0.010 A 
HETATM   18  C24 UNL     1     -15.726  25.430  22.152  1.00  0.00     0.067 C 
ENDROOT
BRANCH  17  19
HETATM   19  C18 UNL     1     -15.062  24.865  17.322  1.00  0.00    -0.002 A 
HETATM   20  C19 UNL     1     -16.158  24.953  16.482  1.00  0.00     0.014 A 
HETATM   21  C20 UNL     1     -16.294  24.183  15.345  1.00  0.00     0.001 A 
HETATM   22  C21 UNL     1     -15.306  23.279  15.014  1.00  0.00     0.002 A 
HETATM   23  C22 UNL     1     -14.210  23.184  15.845  1.00  0.00     0.024 A 
HETATM   24  C23 UNL     1     -14.080  23.954  16.976  1.00  0.00     0.045 A 
HETATM   25 CL1  UNL     1     -12.671  23.809  18.013  1.00  0.00    -0.083 Cl
ENDBRANCH  17  19
BRANCH  15  26
HETATM   26  O2  UNL     1     -13.721  27.222  16.128  1.00  0.00    -0.344 OA
ATOM     27  H2  UNL     1     -13.844  27.752  15.350  1.00  0.00     0.219 HD
ENDBRANCH  15  26
BRANCH  14  28
HETATM   28  C9  UNL     1     -12.675  29.875  17.195  1.00  0.00     0.059 A 
HETATM   29  C10 UNL     1     -11.516  29.630  16.484  1.00  0.00     0.031 A 
HETATM   30  C11 UNL     1     -10.872  30.609  15.762  1.00  0.00     0.002 A 
HETATM   31  C12 UNL     1     -11.384  31.890  15.735  1.00  0.00     0.000 A 
HETATM   32  C13 UNL     1     -12.542  32.128  16.448  1.00  0.00     0.002 A 
HETATM   33  C14 UNL     1     -13.183  31.141  17.169  1.00  0.00     0.031 A 
ENDBRANCH  14  28
TORSDOF 3
ENDMDL
