MODEL 2
REMARK VINA RESULT: -8.799095160      3.635      5.411
REMARK  3 active torsions:
REMARK  status: ('A' for Active; 'I' for Inactive)
REMARK    1  A    between atoms: N3_14  and  C9_15 
REMARK    2  A    between atoms: C15_21  and  O2_22 
REMARK    3  A    between atoms: C17_25  and  C18_26 
ROOT
HETATM    1  C1  UNL     1     -14.174  23.940  14.378  1.00  0.00     0.015 C 
HETATM    2  C2  UNL     1     -13.170  22.967  14.971  1.00  0.00    -0.036 C 
HETATM    3  C3  UNL     1     -12.471  22.182  13.883  1.00  0.00     0.015 C 
HETATM    4  C4  UNL     1     -13.864  22.056  15.935  1.00  0.00     0.093 C 
HETATM    5  C5  UNL     1     -14.149  22.724  17.206  1.00  0.00     0.163 C 
HETATM    6  O1  UNL     1     -14.663  22.135  18.190  1.00  0.00    -0.292 OA
HETATM    7  C6  UNL     1     -13.826  24.144  17.347  1.00  0.00     0.044 A 
HETATM    8  C7  UNL     1     -12.824  24.724  16.600  1.00  0.00     0.026 A 
HETATM    9  N1  UNL     1     -12.507  26.024  16.709  1.00  0.00    -0.343 N 
ATOM     10  H1  UNL     1     -11.762  26.429  16.143  1.00  0.00     0.167 HD
HETATM   11  C8  UNL     1     -13.206  26.787  17.593  1.00  0.00     0.136 A 
HETATM   12  N2  UNL     1     -13.147  28.083  17.940  1.00  0.00    -0.276 N 
ATOM     13  H2  UNL     1     -12.487  28.748  17.536  1.00  0.00     0.189 HD
HETATM   14  N3  UNL     1     -14.035  28.401  18.861  1.00  0.00    -0.232 N 
HETATM   15  C15 UNL     1     -14.713  27.274  19.139  1.00  0.00     0.177 A 
HETATM   16  C16 UNL     1     -14.217  26.248  18.362  1.00  0.00     0.074 A 
HETATM   17  C17 UNL     1     -14.548  24.917  18.255  1.00  0.00     0.010 A 
HETATM   18  C24 UNL     1     -12.106  23.818  15.655  1.00  0.00     0.067 C 
ENDROOT
BRANCH  17  19
HETATM   19  C18 UNL     1     -15.607  24.337  19.056  1.00  0.00    -0.002 A 
HETATM   20  C19 UNL     1     -15.404  23.832  20.329  1.00  0.00     0.014 A 
HETATM   21  C20 UNL     1     -16.418  23.280  21.086  1.00  0.00     0.001 A 
HETATM   22  C21 UNL     1     -17.696  23.220  20.570  1.00  0.00     0.002 A 
HETATM   23  C22 UNL     1     -17.907  23.720  19.302  1.00  0.00     0.024 A 
HETATM   24  C23 UNL     1     -16.894  24.269  18.554  1.00  0.00     0.045 A 
HETATM   25 CL1  UNL     1     -17.197  24.897  16.943  1.00  0.00    -0.083 Cl
ENDBRANCH  17  19
BRANCH  15  26
HETATM   26  O2  UNL     1     -15.748  27.124  20.052  1.00  0.00    -0.344 OA
ATOM     27  H2  UNL     1     -16.657  26.925  19.858  1.00  0.00     0.219 HD
ENDBRANCH  15  26
BRANCH  14  28
HETATM   28  C9  UNL     1     -14.242  29.703  19.456  1.00  0.00     0.059 A 
HETATM   29  C10 UNL     1     -14.464  30.811  18.662  1.00  0.00     0.031 A 
HETATM   30  C11 UNL     1     -14.666  32.067  19.186  1.00  0.00     0.002 A 
HETATM   31  C12 UNL     1     -14.649  32.250  20.554  1.00  0.00     0.000 A 
HETATM   32  C13 UNL     1     -14.426  31.139  21.342  1.00  0.00     0.002 A 
HETATM   33  C14 UNL     1     -14.225  29.882  20.809  1.00  0.00     0.031 A 
ENDBRANCH  14  28
TORSDOF 3
ENDMDL
