MODEL 9
REMARK VINA RESULT: -8.255986103      2.918      4.200
REMARK  3 active torsions:
REMARK  status: ('A' for Active; 'I' for Inactive)
REMARK    1  A    between atoms: N3_14  and  C9_15 
REMARK    2  A    between atoms: C15_21  and  O2_22 
REMARK    3  A    between atoms: C17_25  and  C18_26 
ROOT
HETATM    1  C1  UNL     1     -13.514  23.675  22.134  1.00  0.00     0.015 C 
HETATM    2  C2  UNL     1     -14.995  23.449  22.378  1.00  0.00    -0.036 C 
HETATM    3  C3  UNL     1     -15.228  22.797  23.724  1.00  0.00     0.015 C 
HETATM    4  C4  UNL     1     -15.566  22.621  21.270  1.00  0.00     0.093 C 
HETATM    5  C5  UNL     1     -15.764  23.407  20.050  1.00  0.00     0.163 C 
HETATM    6  O1  UNL     1     -16.297  22.940  19.012  1.00  0.00    -0.292 OA
HETATM    7  C6  UNL     1     -15.324  24.802  20.028  1.00  0.00     0.044 A 
HETATM    8  C7  UNL     1     -15.244  25.542  21.188  1.00  0.00     0.026 A 
HETATM    9  N1  UNL     1     -14.843  26.823  21.197  1.00  0.00    -0.343 N 
ATOM     10  H1  UNL     1     -14.791  27.348  22.069  1.00  0.00     0.167 HD
HETATM   11  C8  UNL     1     -14.506  27.402  20.012  1.00  0.00     0.136 A 
HETATM   12  N2  UNL     1     -14.076  28.629  19.675  1.00  0.00    -0.276 N 
ATOM     13  H2  UNL     1     -13.928  29.382  20.347  1.00  0.00     0.189 HD
HETATM   14  N3  UNL     1     -13.867  28.754  18.379  1.00  0.00    -0.232 N 
HETATM   15  C15 UNL     1     -14.168  27.564  17.831  1.00  0.00     0.177 A 
HETATM   16  C16 UNL     1     -14.571  26.699  18.826  1.00  0.00     0.074 A 
HETATM   17  C17 UNL     1     -14.980  25.386  18.810  1.00  0.00     0.010 A 
HETATM   18  C24 UNL     1     -15.631  24.833  22.443  1.00  0.00     0.067 C 
ENDROOT
BRANCH  17  19
HETATM   19  C18 UNL     1     -15.054  24.635  17.573  1.00  0.00    -0.002 A 
HETATM   20  C19 UNL     1     -13.999  23.889  17.076  1.00  0.00     0.014 A 
HETATM   21  C20 UNL     1     -14.076  23.176  15.896  1.00  0.00     0.001 A 
HETATM   22  C21 UNL     1     -15.246  23.196  15.165  1.00  0.00     0.002 A 
HETATM   23  C22 UNL     1     -16.303  23.937  15.652  1.00  0.00     0.024 A 
HETATM   24  C23 UNL     1     -16.220  24.644  16.828  1.00  0.00     0.045 A 
HETATM   25 CL1  UNL     1     -17.583  25.577  17.420  1.00  0.00    -0.083 Cl
ENDBRANCH  17  19
BRANCH  15  26
HETATM   26  O2  UNL     1     -14.100  27.221  16.487  1.00  0.00    -0.344 OA
ATOM     27  H2  UNL     1     -14.449  26.437  16.079  1.00  0.00     0.219 HD
ENDBRANCH  15  26
BRANCH  14  28
HETATM   28  C9  UNL     1     -13.406  29.934  17.683  1.00  0.00     0.059 A 
HETATM   29  C10 UNL     1     -12.457  29.833  16.683  1.00  0.00     0.031 A 
HETATM   30  C11 UNL     1     -11.990  30.930  15.996  1.00  0.00     0.002 A 
HETATM   31  C12 UNL     1     -12.472  32.187  16.299  1.00  0.00     0.000 A 
HETATM   32  C13 UNL     1     -13.420  32.280  17.299  1.00  0.00     0.002 A 
HETATM   33  C14 UNL     1     -13.885  31.176  17.984  1.00  0.00     0.031 A 
ENDBRANCH  14  28
TORSDOF 3
ENDMDL
