MODEL 1
REMARK VINA RESULT: -8.938842716      0.000      0.000
REMARK  3 active torsions:
REMARK  status: ('A' for Active; 'I' for Inactive)
REMARK    1  A    between atoms: N3_14  and  C9_15 
REMARK    2  A    between atoms: C15_21  and  O2_22 
REMARK    3  A    between atoms: C17_25  and  C18_26 
ROOT
HETATM    1  C1  UNL     1     -11.251  23.131  23.334  1.00  0.00     0.015 C 
HETATM    2  C2  UNL     1     -11.943  22.988  24.678  1.00  0.00    -0.036 C 
HETATM    3  C3  UNL     1     -11.055  22.269  25.670  1.00  0.00     0.015 C 
HETATM    4  C4  UNL     1     -13.245  22.273  24.498  1.00  0.00     0.093 C 
HETATM    5  C5  UNL     1     -14.272  23.147  23.926  1.00  0.00     0.163 C 
HETATM    6  O1  UNL     1     -15.462  22.783  23.751  1.00  0.00    -0.292 OA
HETATM    7  C6  UNL     1     -13.904  24.508  23.535  1.00  0.00     0.044 A 
HETATM    8  C7  UNL     1     -12.856  25.166  24.143  1.00  0.00     0.026 A 
HETATM    9  N1  UNL     1     -12.498  26.413  23.803  1.00  0.00    -0.343 N 
ATOM     10  H1  UNL     1     -11.718  26.878  24.268  1.00  0.00     0.167 HD
HETATM   11  C8  UNL     1     -13.202  27.044  22.823  1.00  0.00     0.136 A 
HETATM   12  N2  UNL     1     -13.110  28.259  22.258  1.00  0.00    -0.276 N 
ATOM     13  H2  UNL     1     -12.413  28.955  22.523  1.00  0.00     0.189 HD
HETATM   14  N3  UNL     1     -14.019  28.452  21.322  1.00  0.00    -0.232 N 
HETATM   15  C15 UNL     1     -14.745  27.322  21.261  1.00  0.00     0.177 A 
HETATM   16  C16 UNL     1     -14.258  26.424  22.187  1.00  0.00     0.074 A 
HETATM   17  C17 UNL     1     -14.631  25.144  22.530  1.00  0.00     0.010 A 
HETATM   18  C24 UNL     1     -12.138  24.405  25.207  1.00  0.00     0.067 C 
ENDROOT
BRANCH  17  19
HETATM   19  C18 UNL     1     -15.738  24.480  21.871  1.00  0.00    -0.002 A 
HETATM   20  C19 UNL     1     -17.043  24.554  22.325  1.00  0.00     0.014 A 
HETATM   21  C20 UNL     1     -18.093  23.918  21.693  1.00  0.00     0.001 A 
HETATM   22  C21 UNL     1     -17.852  23.172  20.559  1.00  0.00     0.002 A 
HETATM   23  C22 UNL     1     -16.554  23.092  20.099  1.00  0.00     0.024 A 
HETATM   24  C23 UNL     1     -15.513  23.728  20.733  1.00  0.00     0.045 A 
HETATM   25 CL1  UNL     1     -13.872  23.606  20.122  1.00  0.00    -0.083 Cl
ENDBRANCH  17  19
BRANCH  15  26
HETATM   26  O2  UNL     1     -15.818  27.062  20.419  1.00  0.00    -0.344 OA
ATOM     27  H2  UNL     1     -15.971  26.270  19.916  1.00  0.00     0.219 HD
ENDBRANCH  15  26
BRANCH  14  28
HETATM   28  C9  UNL     1     -14.201  29.641  20.520  1.00  0.00     0.059 A 
HETATM   29  C10 UNL     1     -14.490  30.853  21.116  1.00  0.00     0.031 A 
HETATM   30  C11 UNL     1     -14.671  32.008  20.390  1.00  0.00     0.002 A 
HETATM   31  C12 UNL     1     -14.566  31.977  19.015  1.00  0.00     0.000 A 
HETATM   32  C13 UNL     1     -14.278  30.763  18.426  1.00  0.00     0.002 A 
HETATM   33  C14 UNL     1     -14.096  29.608  19.160  1.00  0.00     0.031 A 
ENDBRANCH  14  28
TORSDOF 3
ENDMDL
