MODEL 2
REMARK VINA RESULT: -5.783118328      1.030      1.310
REMARK  1 active torsions:
REMARK  status: ('A' for Active; 'I' for Inactive)
REMARK       I    between atoms: C2_2  and  N1_4 
REMARK    1  A    between atoms: N1_4  and  C3_6 
ROOT
HETATM    1  C3  UNL     1     -47.461  10.084  -4.464  1.00  0.00     0.076 A 
HETATM    2  C4  UNL     1     -46.350  10.238  -3.675  1.00  0.00     0.038 A 
HETATM    3  C5  UNL     1     -45.280  10.821  -4.234  1.00  0.00     0.010 A 
HETATM    4  C6  UNL     1     -45.381  11.214  -5.537  1.00  0.00     0.052 A 
HETATM    5  S1  UNL     1     -46.971  10.757  -5.949  1.00  0.00    -0.084 SA
ENDROOT
BRANCH   1   6
HETATM    6  N1  UNL     1     -48.728   9.489  -4.091  1.00  0.00    -0.322 N 
HETATM    7  C2  UNL     1     -49.536  10.086  -3.095  1.00  0.00     0.218 C 
HETATM    8  C1  UNL     1     -50.843   9.523  -2.671  1.00  0.00     0.117 C 
HETATM    9  O1  UNL     1     -49.081  11.154  -2.568  1.00  0.00    -0.274 OA
ATOM     10  H1  UNL     1     -49.039   8.633  -4.550  1.00  0.00     0.169 HD
ENDBRANCH   1   6
TORSDOF 1
ENDMDL
