MODEL 3
REMARK VINA RESULT: -5.120900634      1.543      1.700
REMARK  1 active torsions:
REMARK  status: ('A' for Active; 'I' for Inactive)
REMARK       I    between atoms: C2_2  and  N1_4 
REMARK    1  A    between atoms: N1_4  and  C3_6 
ROOT
HETATM    1  C3  UNL     1     -46.753  10.645  -3.833  1.00  0.00     0.076 A 
HETATM    2  C4  UNL     1     -47.455  10.367  -4.979  1.00  0.00     0.038 A 
HETATM    3  C5  UNL     1     -46.797  10.488  -6.141  1.00  0.00     0.010 A 
HETATM    4  C6  UNL     1     -45.490  10.875  -6.093  1.00  0.00     0.052 A 
HETATM    5  S1  UNL     1     -45.211  11.063  -4.422  1.00  0.00    -0.084 SA
ENDROOT
BRANCH   1   6
HETATM    6  N1  UNL     1     -47.239  10.587  -2.471  1.00  0.00    -0.322 N 
HETATM    7  C2  UNL     1     -48.570  10.957  -2.166  1.00  0.00     0.218 C 
HETATM    8  C1  UNL     1     -49.125  10.918  -0.789  1.00  0.00     0.117 C 
HETATM    9  O1  UNL     1     -49.287  11.332  -3.151  1.00  0.00    -0.274 OA
ATOM     10  H1  UNL     1     -46.617  10.277  -1.724  1.00  0.00     0.169 HD
ENDBRANCH   1   6
TORSDOF 1
ENDMDL
