MODEL 9
REMARK VINA RESULT: -3.890121080      4.341      6.017
REMARK  1 active torsions:
REMARK  status: ('A' for Active; 'I' for Inactive)
REMARK       I    between atoms: C2_2  and  N1_4 
REMARK    1  A    between atoms: N1_4  and  C3_6 
ROOT
HETATM    1  C3  UNL     1     -49.070  11.412   0.508  1.00  0.00     0.076 A 
HETATM    2  C4  UNL     1     -49.794  12.431   1.071  1.00  0.00     0.038 A 
HETATM    3  C5  UNL     1     -50.239  12.244   2.323  1.00  0.00     0.010 A 
HETATM    4  C6  UNL     1     -49.935  11.061   2.933  1.00  0.00     0.052 A 
HETATM    5  S1  UNL     1     -49.036  10.239   1.740  1.00  0.00    -0.084 SA
ENDROOT
BRANCH   1   6
HETATM    6  N1  UNL     1     -48.489  11.378  -0.819  1.00  0.00    -0.322 N 
HETATM    7  C2  UNL     1     -49.136  10.687  -1.869  1.00  0.00     0.218 C 
HETATM    8  C1  UNL     1     -48.589  10.618  -3.249  1.00  0.00     0.117 C 
HETATM    9  O1  UNL     1     -50.236  10.116  -1.571  1.00  0.00    -0.274 OA
ATOM     10  H1  UNL     1     -47.605  11.857  -0.996  1.00  0.00     0.169 HD
ENDBRANCH   1   6
TORSDOF 1
ENDMDL
