MODEL 10
REMARK VINA RESULT: -3.781778360      7.187      8.369
REMARK  1 active torsions:
REMARK  status: ('A' for Active; 'I' for Inactive)
REMARK       I    between atoms: C2_2  and  N1_4 
REMARK    1  A    between atoms: N1_4  and  C3_6 
ROOT
HETATM    1  C3  UNL     1     -50.183  13.170   2.485  1.00  0.00     0.076 A 
HETATM    2  C4  UNL     1     -50.304  11.955   3.111  1.00  0.00     0.038 A 
HETATM    3  C5  UNL     1     -49.759  10.896   2.496  1.00  0.00     0.010 A 
HETATM    4  C6  UNL     1     -49.129  11.109   1.304  1.00  0.00     0.052 A 
HETATM    5  S1  UNL     1     -49.317  12.787   1.070  1.00  0.00    -0.084 SA
ENDROOT
BRANCH   1   6
HETATM    6  N1  UNL     1     -50.684  14.448   2.946  1.00  0.00    -0.322 N 
HETATM    7  C2  UNL     1     -49.805  15.541   3.129  1.00  0.00     0.218 C 
HETATM    8  C1  UNL     1     -50.260  16.875   3.599  1.00  0.00     0.117 C 
HETATM    9  O1  UNL     1     -48.577  15.323   2.864  1.00  0.00    -0.274 OA
ATOM     10  H1  UNL     1     -51.679  14.561   3.141  1.00  0.00     0.169 HD
ENDBRANCH   1   6
TORSDOF 1
ENDMDL
