MODEL 7
REMARK VINA RESULT: -4.104849080      4.575      6.259
REMARK  1 active torsions:
REMARK  status: ('A' for Active; 'I' for Inactive)
REMARK       I    between atoms: C2_2  and  N1_4 
REMARK    1  A    between atoms: N1_4  and  C3_6 
ROOT
HETATM    1  C3  UNL     1     -49.115  11.440   0.749  1.00  0.00     0.076 A 
HETATM    2  C4  UNL     1     -49.019  10.442   1.685  1.00  0.00     0.038 A 
HETATM    3  C5  UNL     1     -49.690  10.615   2.832  1.00  0.00     0.010 A 
HETATM    4  C6  UNL     1     -50.413  11.763   2.977  1.00  0.00     0.052 A 
HETATM    5  S1  UNL     1     -50.135  12.575   1.504  1.00  0.00    -0.084 SA
ENDROOT
BRANCH   1   6
HETATM    6  N1  UNL     1     -48.487  11.484  -0.555  1.00  0.00    -0.322 N 
HETATM    7  C2  UNL     1     -49.054  10.790  -1.649  1.00  0.00     0.218 C 
HETATM    8  C1  UNL     1     -48.457  10.798  -3.009  1.00  0.00     0.117 C 
HETATM    9  O1  UNL     1     -50.127  10.143  -1.408  1.00  0.00    -0.274 OA
ATOM     10  H1  UNL     1     -47.629  12.020  -0.686  1.00  0.00     0.169 HD
ENDBRANCH   1   6
TORSDOF 1
ENDMDL
