MODEL 1
REMARK VINA RESULT: -6.070676928      0.000      0.000
REMARK  1 active torsions:
REMARK  status: ('A' for Active; 'I' for Inactive)
REMARK       I    between atoms: C2_2  and  N1_4 
REMARK    1  A    between atoms: N1_4  and  C3_6 
ROOT
HETATM    1  C3  UNL     1     -47.410  10.101  -4.571  1.00  0.00     0.076 A 
HETATM    2  C4  UNL     1     -46.981  10.511  -5.808  1.00  0.00     0.038 A 
HETATM    3  C5  UNL     1     -45.743  11.019  -5.886  1.00  0.00     0.010 A 
HETATM    4  C6  UNL     1     -45.012  11.087  -4.737  1.00  0.00     0.052 A 
HETATM    5  S1  UNL     1     -46.075  10.439  -3.572  1.00  0.00    -0.084 SA
ENDROOT
BRANCH   1   6
HETATM    6  N1  UNL     1     -48.696   9.525  -4.235  1.00  0.00    -0.322 N 
HETATM    7  C2  UNL     1     -49.500  10.101  -3.225  1.00  0.00     0.218 C 
HETATM    8  C1  UNL     1     -50.826   9.556  -2.837  1.00  0.00     0.117 C 
HETATM    9  O1  UNL     1     -49.024  11.135  -2.651  1.00  0.00    -0.274 OA
ATOM     10  H1  UNL     1     -49.024   8.696  -4.732  1.00  0.00     0.169 HD
ENDBRANCH   1   6
TORSDOF 1
ENDMDL
