MODEL 2
REMARK VINA RESULT: -5.261063549     15.799     16.703
REMARK  0 active torsions:
REMARK  status: ('A' for Active; 'I' for Inactive)
ROOT
HETATM    1  N1  UNL     1       6.057   2.331 -51.877  1.00  0.00    -0.063 NA
HETATM    2  C1  UNL     1       4.674   2.231 -52.235  1.00  0.00     0.196 A 
HETATM    3  N2  UNL     1       4.067   1.038 -52.368  1.00  0.00    -0.314 N 
ATOM      4  H2  UNL     1       4.610   0.189 -52.209  1.00  0.00     0.170 HD
HETATM    5  C2  UNL     1       2.756   0.924 -52.707  1.00  0.00     0.141 A 
HETATM    6  N3  UNL     1       1.914  -0.095 -52.905  1.00  0.00    -0.336 N 
ATOM      7  H3  UNL     1       2.173  -1.078 -52.816  1.00  0.00     0.168 HD
HETATM    8  C3  UNL     1       0.686   0.332 -53.234  1.00  0.00     0.182 A 
HETATM    9  N4  UNL     1       0.764   1.675 -53.242  1.00  0.00    -0.345 N 
ATOM     10  H4  UNL     1      -0.009   2.304 -53.457  1.00  0.00     0.167 HD
HETATM   11  C4  UNL     1       2.014   2.067 -52.924  1.00  0.00     0.146 A 
HETATM   12  C5  UNL     1       2.660   3.279 -52.782  1.00  0.00     0.278 A 
HETATM   13  O1  UNL     1       1.989   4.325 -52.979  1.00  0.00    -0.265 OA
HETATM   14  N5  UNL     1       3.966   3.356 -52.443  1.00  0.00    -0.295 N 
ATOM     15  H5  UNL     1       4.415   4.267 -52.346  1.00  0.00     0.171 HD
ENDROOT
TORSDOF 0
ENDMDL
