MODEL 9
REMARK VINA RESULT: -4.819495571      6.967      8.086
REMARK  0 active torsions:
REMARK  status: ('A' for Active; 'I' for Inactive)
ROOT
HETATM    1  N1  UNL     1      -3.000   7.317 -44.999  1.00  0.00    -0.063 NA
HETATM    2  C1  UNL     1      -2.937   6.164 -45.845  1.00  0.00     0.196 A 
HETATM    3  N2  UNL     1      -1.761   5.611 -46.192  1.00  0.00    -0.314 N 
ATOM      4  H2  UNL     1      -0.899   6.027 -45.841  1.00  0.00     0.170 HD
HETATM    5  C2  UNL     1      -1.682   4.517 -46.994  1.00  0.00     0.141 A 
HETATM    6  N3  UNL     1      -0.686   3.775 -47.489  1.00  0.00    -0.336 N 
ATOM      7  H3  UNL     1       0.303   3.951 -47.309  1.00  0.00     0.168 HD
HETATM    8  C3  UNL     1      -1.145   2.771 -48.251  1.00  0.00     0.182 A 
HETATM    9  N4  UNL     1      -2.484   2.891 -48.232  1.00  0.00    -0.345 N 
ATOM     10  H4  UNL     1      -3.134   2.274 -48.720  1.00  0.00     0.167 HD
HETATM   11  C4  UNL     1      -2.843   3.946 -47.472  1.00  0.00     0.146 A 
HETATM   12  C5  UNL     1      -4.037   4.533 -47.102  1.00  0.00     0.278 A 
HETATM   13  O1  UNL     1      -5.100   4.017 -47.536  1.00  0.00    -0.265 OA
HETATM   14  N5  UNL     1      -4.080   5.621 -46.303  1.00  0.00    -0.295 N 
ATOM     15  H5  UNL     1      -4.978   6.031 -46.047  1.00  0.00     0.171 HD
ENDROOT
TORSDOF 0
ENDMDL
