MODEL 5
REMARK VINA RESULT: -5.025926131     15.049     16.337
REMARK  0 active torsions:
REMARK  status: ('A' for Active; 'I' for Inactive)
ROOT
HETATM    1  N1  UNL     1       2.213   2.308 -48.812  1.00  0.00    -0.063 NA
HETATM    2  C1  UNL     1       2.858   2.595 -50.058  1.00  0.00     0.196 A 
HETATM    3  N2  UNL     1       4.126   2.216 -50.296  1.00  0.00    -0.314 N 
ATOM      4  H2  UNL     1       4.634   1.713 -49.569  1.00  0.00     0.170 HD
HETATM    5  C2  UNL     1       4.755   2.480 -51.471  1.00  0.00     0.141 A 
HETATM    6  N3  UNL     1       5.969   2.234 -51.973  1.00  0.00    -0.336 N 
ATOM      7  H3  UNL     1       6.706   1.740 -51.470  1.00  0.00     0.168 HD
HETATM    8  C3  UNL     1       6.100   2.715 -53.218  1.00  0.00     0.182 A 
HETATM    9  N4  UNL     1       4.917   3.287 -53.507  1.00  0.00    -0.345 N 
ATOM     10  H4  UNL     1       4.691   3.750 -54.387  1.00  0.00     0.167 HD
HETATM   11  C4  UNL     1       4.075   3.160 -52.461  1.00  0.00     0.146 A 
HETATM   12  C5  UNL     1       2.774   3.539 -52.192  1.00  0.00     0.278 A 
HETATM   13  O1  UNL     1       2.149   4.159 -53.091  1.00  0.00    -0.265 OA
HETATM   14  N5  UNL     1       2.179   3.260 -51.012  1.00  0.00    -0.295 N 
ATOM     15  H5  UNL     1       1.217   3.553 -50.843  1.00  0.00     0.171 HD
ENDROOT
TORSDOF 0
ENDMDL
