MODEL 1
REMARK VINA RESULT: -5.272429923      0.000      0.000
REMARK  0 active torsions:
REMARK  status: ('A' for Active; 'I' for Inactive)
ROOT
HETATM    1  N1  UNL     1      -9.693  10.842 -42.263  1.00  0.00    -0.063 NA
HETATM    2  C1  UNL     1      -9.285   9.477 -42.406  1.00  0.00     0.196 A 
HETATM    3  N2  UNL     1      -8.108   9.041 -41.920  1.00  0.00    -0.314 N 
ATOM      4  H2  UNL     1      -7.499   9.703 -41.441  1.00  0.00     0.170 HD
HETATM    5  C2  UNL     1      -7.704   7.750 -42.047  1.00  0.00     0.141 A 
HETATM    6  N3  UNL     1      -6.624   7.055 -41.677  1.00  0.00    -0.336 N 
ATOM      7  H3  UNL     1      -5.832   7.453 -41.172  1.00  0.00     0.168 HD
HETATM    8  C3  UNL     1      -6.708   5.769 -42.049  1.00  0.00     0.182 A 
HETATM    9  N4  UNL     1      -7.891   5.656 -42.679  1.00  0.00    -0.345 N 
ATOM     10  H4  UNL     1      -8.257   4.795 -43.087  1.00  0.00     0.167 HD
HETATM   11  C4  UNL     1      -8.523   6.848 -42.694  1.00  0.00     0.146 A 
HETATM   12  C5  UNL     1      -9.725   7.319 -43.184  1.00  0.00     0.278 A 
HETATM   13  O1  UNL     1     -10.475   6.501 -43.775  1.00  0.00    -0.265 OA
HETATM   14  N5  UNL     1     -10.096   8.610 -43.041  1.00  0.00    -0.295 N 
ATOM     15  H5  UNL     1     -10.990   8.929 -43.414  1.00  0.00     0.171 HD
ENDROOT
TORSDOF 0
ENDMDL
