MODEL 6
REMARK VINA RESULT: -3.567685990      6.398      8.614
REMARK  6 active torsions:
REMARK  status: ('A' for Active; 'I' for Inactive)
REMARK    1  A    between atoms: C1_2  and  C2_4 
REMARK    2  A    between atoms: C2_4  and  C3_5 
REMARK    3  A    between atoms: C3_5  and  O3_6 
REMARK    4  A    between atoms: C3_5  and  C4_8 
REMARK    5  A    between atoms: C3_5  and  C6_12 
REMARK    6  A    between atoms: C4_8  and  C5_9 
ROOT
HETATM    1  C3  UNL     1      10.434   9.253   0.049  1.00  0.00     0.164 C 
ENDROOT
BRANCH   1   2
HETATM    2  C2  UNL     1       9.816   9.358  -1.293  1.00  0.00     0.163 C 
BRANCH   2   3
HETATM    3  C1  UNL     1      10.015  10.626  -2.015  1.00  0.00     0.176 C 
HETATM    4  O1  UNL     1      11.142  10.867  -2.507  1.00  0.00    -0.648 OA
HETATM    5  O2  UNL     1       9.041  11.595  -2.201  1.00  0.00    -0.648 OA
ENDBRANCH   2   3
ENDBRANCH   1   2
BRANCH   1   6
HETATM    6  O3  UNL     1      11.790   9.574  -0.071  1.00  0.00    -0.378 OA
ATOM      7  H3  UNL     1      12.268   8.773  -0.248  1.00  0.00     0.211 HD
ENDBRANCH   1   6
BRANCH   1   8
HETATM    8  C4  UNL     1      10.276   7.969   0.779  1.00  0.00     0.163 C 
BRANCH   8   9
HETATM    9  C5  UNL     1      11.530   7.356   1.264  1.00  0.00     0.176 C 
HETATM   10  O4  UNL     1      11.968   7.655   2.392  1.00  0.00    -0.648 OA
HETATM   11  O5  UNL     1      12.175   6.459   0.427  1.00  0.00    -0.648 OA
ENDBRANCH   8   9
ENDBRANCH   1   8
BRANCH   1  12
HETATM   12  C6  UNL     1       9.801  10.299   0.897  1.00  0.00     0.210 C 
HETATM   13  O6  UNL     1      10.537  11.162   1.416  1.00  0.00    -0.646 OA
HETATM   14  O7  UNL     1       8.444  10.336   1.119  1.00  0.00    -0.646 OA
ENDBRANCH   1  12
TORSDOF 6
ENDMDL
