MODEL 2
REMARK VINA RESULT: -3.643709057      1.599      2.464
REMARK  6 active torsions:
REMARK  status: ('A' for Active; 'I' for Inactive)
REMARK    1  A    between atoms: C1_2  and  C2_4 
REMARK    2  A    between atoms: C2_4  and  C3_5 
REMARK    3  A    between atoms: C3_5  and  O3_6 
REMARK    4  A    between atoms: C3_5  and  C4_8 
REMARK    5  A    between atoms: C3_5  and  C6_12 
REMARK    6  A    between atoms: C4_8  and  C5_9 
ROOT
HETATM    1  C3  UNL     1       5.136  16.009   3.390  1.00  0.00     0.164 C 
ENDROOT
BRANCH   1   2
HETATM    2  C2  UNL     1       6.481  15.433   3.167  1.00  0.00     0.163 C 
BRANCH   2   3
HETATM    3  C1  UNL     1       6.588  13.965   3.212  1.00  0.00     0.176 C 
HETATM    4  O1  UNL     1       6.859  13.350   2.154  1.00  0.00    -0.648 OA
HETATM    5  O2  UNL     1       6.411  13.190   4.347  1.00  0.00    -0.648 OA
ENDBRANCH   2   3
ENDBRANCH   1   2
BRANCH   1   6
HETATM    6  O3  UNL     1       4.220  14.955   3.470  1.00  0.00    -0.378 OA
ATOM      7  H3  UNL     1       4.469  14.298   2.830  1.00  0.00     0.211 HD
ENDBRANCH   1   6
BRANCH   1   8
HETATM    8  C4  UNL     1       4.656  17.030   2.423  1.00  0.00     0.163 C 
BRANCH   8   9
HETATM    9  C5  UNL     1       3.267  16.855   1.952  1.00  0.00     0.176 C 
HETATM   10  O4  UNL     1       2.327  17.355   2.601  1.00  0.00    -0.648 OA
HETATM   11  O5  UNL     1       3.066  16.129   0.789  1.00  0.00    -0.648 OA
ENDBRANCH   8   9
ENDBRANCH   1   8
BRANCH   1  12
HETATM   12  C6  UNL     1       5.168  16.674   4.721  1.00  0.00     0.210 C 
HETATM   13  O6  UNL     1       4.981  17.907   4.767  1.00  0.00    -0.646 OA
HETATM   14  O7  UNL     1       5.394  15.974   5.882  1.00  0.00    -0.646 OA
ENDBRANCH   1  12
TORSDOF 6
ENDMDL
