MODEL 5
REMARK VINA RESULT: -3.585446773      6.547      8.943
REMARK  6 active torsions:
REMARK  status: ('A' for Active; 'I' for Inactive)
REMARK    1  A    between atoms: C1_2  and  C2_4 
REMARK    2  A    between atoms: C2_4  and  C3_5 
REMARK    3  A    between atoms: C3_5  and  O3_6 
REMARK    4  A    between atoms: C3_5  and  C4_8 
REMARK    5  A    between atoms: C3_5  and  C6_12 
REMARK    6  A    between atoms: C4_8  and  C5_9 
ROOT
HETATM    1  C3  UNL     1      10.458   9.090   0.481  1.00  0.00     0.164 C 
ENDROOT
BRANCH   1   2
HETATM    2  C2  UNL     1      10.296   9.097  -0.990  1.00  0.00     0.163 C 
BRANCH   2   3
HETATM    3  C1  UNL     1      11.516   8.902  -1.791  1.00  0.00     0.176 C 
HETATM    4  O1  UNL     1      11.869   7.733  -2.074  1.00  0.00    -0.648 OA
HETATM    5  O2  UNL     1      12.324   9.922  -2.269  1.00  0.00    -0.648 OA
ENDBRANCH   2   3
ENDBRANCH   1   2
BRANCH   1   6
HETATM    6  O3  UNL     1      11.813   9.280   0.770  1.00  0.00    -0.378 OA
ATOM      7  H3  UNL     1      12.014   8.807   1.569  1.00  0.00     0.211 HD
ENDBRANCH   1   6
BRANCH   1   8
HETATM    8  C4  UNL     1       9.938   7.912   1.224  1.00  0.00     0.163 C 
BRANCH   8   9
HETATM    9  C5  UNL     1      10.965   6.991   1.753  1.00  0.00     0.176 C 
HETATM   10  O4  UNL     1      11.761   6.437   0.971  1.00  0.00    -0.648 OA
HETATM   11  O5  UNL     1      10.998   6.781   3.123  1.00  0.00    -0.648 OA
ENDBRANCH   8   9
ENDBRANCH   1   8
BRANCH   1  12
HETATM   12  C6  UNL     1       9.720  10.272   1.001  1.00  0.00     0.210 C 
HETATM   13  O6  UNL     1       8.487  10.174   1.158  1.00  0.00    -0.646 OA
HETATM   14  O7  UNL     1      10.356  11.452   1.309  1.00  0.00    -0.646 OA
ENDBRANCH   1  12
TORSDOF 6
ENDMDL
