MODEL 1
REMARK VINA RESULT: -7.559664074      0.000      0.000
REMARK  4 active torsions:
REMARK  status: ('A' for Active; 'I' for Inactive)
REMARK    1  A    between atoms: C2_2  and  N1_3 
REMARK    2  A    between atoms: C2_2  and  C3_7 
REMARK    3  A    between atoms: C2_2  and  C12_18 
REMARK    4  A    between atoms: C3_7  and  C4_8 
ROOT
HETATM    1  C4  UNL     1       5.633 -70.594 -15.219  1.00  0.00    -0.027 A 
HETATM    2  C5  UNL     1       4.583 -70.881 -16.035  1.00  0.00     0.096 A 
HETATM    3  N2  UNL     1       3.937 -69.749 -16.365  1.00  0.00    -0.365 N 
ATOM      4  H2  UNL     1       3.115 -69.689 -16.966  1.00  0.00     0.165 HD
HETATM    5  C6  UNL     1       4.556 -68.699 -15.768  1.00  0.00     0.042 A 
HETATM    6  C7  UNL     1       4.283 -67.338 -15.791  1.00  0.00     0.030 A 
HETATM    7  C8  UNL     1       5.081 -66.467 -15.085  1.00  0.00     0.002 A 
HETATM    8  C9  UNL     1       6.148 -66.954 -14.359  1.00  0.00     0.001 A 
HETATM    9  C10 UNL     1       6.393 -68.314 -14.357  1.00  0.00     0.014 A 
HETATM   10  C11 UNL     1       5.613 -69.220 -15.054  1.00  0.00    -0.002 A 
ENDROOT
BRANCH   1  11
HETATM   11  C3  UNL     1       6.649 -71.434 -14.577  1.00  0.00     0.090 C 
BRANCH  11  12
HETATM   12  C2  UNL     1       6.161 -72.531 -13.723  1.00  0.00     0.210 C 
HETATM   13  C1  UNL     1       5.008 -72.050 -12.858  1.00  0.00     0.058 C 
BRANCH  12  14
HETATM   14  N1  UNL     1       7.138 -73.112 -12.843  1.00  0.00    -0.060 N 
ATOM     15  H13 UNL     1       7.852 -72.448 -12.544  1.00  0.00     0.275 HD
ATOM     16  H12 UNL     1       6.765 -73.328 -11.918  1.00  0.00     0.275 HD
ATOM     17  H11 UNL     1       7.523 -73.928 -13.319  1.00  0.00     0.275 HD
ENDBRANCH  12  14
BRANCH  12  18
HETATM   18  C12 UNL     1       5.626 -73.616 -14.573  1.00  0.00     0.210 C 
HETATM   19  O1  UNL     1       6.290 -73.996 -15.558  1.00  0.00    -0.646 OA
HETATM   20  O2  UNL     1       4.420 -74.217 -14.306  1.00  0.00    -0.646 OA
ENDBRANCH  12  18
ENDBRANCH  11  12
ENDBRANCH   1  11
TORSDOF 4
ENDMDL
