MODEL 10
REMARK VINA RESULT: -5.418735071      2.941      5.450
REMARK  4 active torsions:
REMARK  status: ('A' for Active; 'I' for Inactive)
REMARK    1  A    between atoms: C2_2  and  N1_3 
REMARK    2  A    between atoms: C2_2  and  C3_7 
REMARK    3  A    between atoms: C2_2  and  C12_18 
REMARK    4  A    between atoms: C3_7  and  C4_8 
ROOT
HETATM    1  C4  UNL     1       6.401 -70.270 -14.813  1.00  0.00    -0.027 A 
HETATM    2  C5  UNL     1       7.703 -70.480 -15.145  1.00  0.00     0.096 A 
HETATM    3  N2  UNL     1       8.033 -71.763 -14.919  1.00  0.00    -0.365 N 
ATOM      4  H2  UNL     1       8.949 -72.179 -15.085  1.00  0.00     0.165 HD
HETATM    5  C6  UNL     1       6.946 -72.417 -14.433  1.00  0.00     0.042 A 
HETATM    6  C7  UNL     1       6.767 -73.738 -14.047  1.00  0.00     0.030 A 
HETATM    7  C8  UNL     1       5.542 -74.155 -13.579  1.00  0.00     0.002 A 
HETATM    8  C9  UNL     1       4.500 -73.255 -13.498  1.00  0.00     0.001 A 
HETATM    9  C10 UNL     1       4.711 -71.948 -13.891  1.00  0.00     0.014 A 
HETATM   10  C11 UNL     1       5.929 -71.491 -14.366  1.00  0.00    -0.002 A 
ENDROOT
BRANCH   1  11
HETATM   11  C3  UNL     1       5.545 -69.081 -14.860  1.00  0.00     0.090 C 
BRANCH  11  12
HETATM   12  C2  UNL     1       6.213 -67.775 -14.725  1.00  0.00     0.210 C 
HETATM   13  C1  UNL     1       5.231 -66.651 -15.010  1.00  0.00     0.058 C 
BRANCH  12  14
HETATM   14  N1  UNL     1       7.352 -67.571 -15.578  1.00  0.00    -0.060 N 
ATOM     15  H13 UNL     1       7.671 -68.428 -16.031  1.00  0.00     0.275 HD
ATOM     16  H12 UNL     1       7.127 -67.051 -16.427  1.00  0.00     0.275 HD
ATOM     17  H11 UNL     1       8.074 -67.124 -15.014  1.00  0.00     0.275 HD
ENDBRANCH  12  14
BRANCH  12  18
HETATM   18  C12 UNL     1       6.666 -67.596 -13.329  1.00  0.00     0.210 C 
HETATM   19  O1  UNL     1       7.788 -67.095 -13.117  1.00  0.00    -0.646 OA
HETATM   20  O2  UNL     1       5.885 -67.965 -12.261  1.00  0.00    -0.646 OA
ENDBRANCH  12  18
ENDBRANCH  11  12
ENDBRANCH   1  11
TORSDOF 4
ENDMDL
