MODEL 11
REMARK VINA RESULT: -5.380819570      2.822      5.616
REMARK  4 active torsions:
REMARK  status: ('A' for Active; 'I' for Inactive)
REMARK    1  A    between atoms: C2_2  and  N1_3 
REMARK    2  A    between atoms: C2_2  and  C3_7 
REMARK    3  A    between atoms: C2_2  and  C12_18 
REMARK    4  A    between atoms: C3_7  and  C4_8 
ROOT
HETATM    1  C4  UNL     1       4.744 -72.847 -12.964  1.00  0.00    -0.027 A 
HETATM    2  C5  UNL     1       4.089 -72.032 -12.094  1.00  0.00     0.096 A 
HETATM    3  N2  UNL     1       2.930 -72.599 -11.719  1.00  0.00    -0.365 N 
ATOM      4  H2  UNL     1       2.252 -72.193 -11.073  1.00  0.00     0.165 HD
HETATM    5  C6  UNL     1       2.806 -73.800 -12.340  1.00  0.00     0.042 A 
HETATM    6  C7  UNL     1       1.805 -74.760 -12.290  1.00  0.00     0.030 A 
HETATM    7  C8  UNL     1       1.925 -75.913 -13.031  1.00  0.00     0.002 A 
HETATM    8  C9  UNL     1       3.040 -76.106 -13.819  1.00  0.00     0.001 A 
HETATM    9  C10 UNL     1       4.018 -75.130 -13.847  1.00  0.00     0.014 A 
HETATM   10  C11 UNL     1       3.933 -73.958 -13.116  1.00  0.00    -0.002 A 
ENDROOT
BRANCH   1  11
HETATM   11  C3  UNL     1       6.023 -72.723 -13.668  1.00  0.00     0.090 C 
BRANCH  11  12
HETATM   12  C2  UNL     1       6.207 -71.524 -14.505  1.00  0.00     0.210 C 
HETATM   13  C1  UNL     1       7.543 -71.589 -15.228  1.00  0.00     0.058 C 
BRANCH  12  14
HETATM   14  N1  UNL     1       6.163 -70.269 -13.806  1.00  0.00    -0.060 N 
ATOM     15  H13 UNL     1       5.928 -70.368 -12.819  1.00  0.00     0.275 HD
ATOM     16  H12 UNL     1       7.085 -69.849 -13.679  1.00  0.00     0.275 HD
ATOM     17  H11 UNL     1       5.516 -69.665 -14.313  1.00  0.00     0.275 HD
ENDBRANCH  12  14
BRANCH  12  18
HETATM   18  C12 UNL     1       5.163 -71.488 -15.550  1.00  0.00     0.210 C 
HETATM   19  O1  UNL     1       5.077 -72.438 -16.353  1.00  0.00    -0.646 OA
HETATM   20  O2  UNL     1       4.286 -70.436 -15.661  1.00  0.00    -0.646 OA
ENDBRANCH  12  18
ENDBRANCH  11  12
ENDBRANCH   1  11
TORSDOF 4
ENDMDL
