MODEL 8
REMARK VINA RESULT: -6.129515525      2.949      5.413
REMARK  4 active torsions:
REMARK  status: ('A' for Active; 'I' for Inactive)
REMARK    1  A    between atoms: C2_2  and  N1_3 
REMARK    2  A    between atoms: C2_2  and  C3_7 
REMARK    3  A    between atoms: C2_2  and  C12_18 
REMARK    4  A    between atoms: C3_7  and  C4_8 
ROOT
HETATM    1  C4  UNL     1       6.211 -70.994 -14.574  1.00  0.00    -0.027 A 
HETATM    2  C5  UNL     1       7.405 -71.584 -14.852  1.00  0.00     0.096 A 
HETATM    3  N2  UNL     1       7.585 -72.652 -14.055  1.00  0.00    -0.365 N 
ATOM      4  H2  UNL     1       8.399 -73.266 -14.061  1.00  0.00     0.165 HD
HETATM    5  C6  UNL     1       6.507 -72.778 -13.239  1.00  0.00     0.042 A 
HETATM    6  C7  UNL     1       6.209 -73.704 -12.249  1.00  0.00     0.030 A 
HETATM    7  C8  UNL     1       5.025 -73.608 -11.555  1.00  0.00     0.002 A 
HETATM    8  C9  UNL     1       4.142 -72.590 -11.849  1.00  0.00     0.001 A 
HETATM    9  C10 UNL     1       4.469 -71.684 -12.839  1.00  0.00     0.014 A 
HETATM   10  C11 UNL     1       5.650 -71.749 -13.559  1.00  0.00    -0.002 A 
ENDROOT
BRANCH   1  11
HETATM   11  C3  UNL     1       5.530 -69.822 -15.132  1.00  0.00     0.090 C 
BRANCH  11  12
HETATM   12  C2  UNL     1       5.967 -68.504 -14.641  1.00  0.00     0.210 C 
HETATM   13  C1  UNL     1       7.371 -68.199 -15.136  1.00  0.00     0.058 C 
BRANCH  12  14
HETATM   14  N1  UNL     1       5.978 -68.347 -13.212  1.00  0.00    -0.060 N 
ATOM     15  H13 UNL     1       6.454 -69.109 -12.730  1.00  0.00     0.275 HD
ATOM     16  H12 UNL     1       6.588 -67.592 -12.897  1.00  0.00     0.275 HD
ATOM     17  H11 UNL     1       5.009 -68.229 -12.916  1.00  0.00     0.275 HD
ENDBRANCH  12  14
BRANCH  12  18
HETATM   18  C12 UNL     1       5.087 -67.455 -15.197  1.00  0.00     0.210 C 
HETATM   19  O1  UNL     1       5.302 -66.263 -14.899  1.00  0.00    -0.646 OA
HETATM   20  O2  UNL     1       4.038 -67.757 -16.033  1.00  0.00    -0.646 OA
ENDBRANCH  12  18
ENDBRANCH  11  12
ENDBRANCH   1  11
TORSDOF 4
ENDMDL
