MODEL 3
REMARK VINA RESULT: -6.814789026      1.222      1.599
REMARK  4 active torsions:
REMARK  status: ('A' for Active; 'I' for Inactive)
REMARK    1  A    between atoms: C2_2  and  N1_3 
REMARK    2  A    between atoms: C2_2  and  C3_7 
REMARK    3  A    between atoms: C2_2  and  C12_18 
REMARK    4  A    between atoms: C3_7  and  C4_8 
ROOT
HETATM    1  C4  UNL     1       5.583 -70.786 -14.989  1.00  0.00    -0.027 A 
HETATM    2  C5  UNL     1       4.648 -71.138 -15.913  1.00  0.00     0.096 A 
HETATM    3  N2  UNL     1       4.033 -70.040 -16.384  1.00  0.00    -0.365 N 
ATOM      4  H2  UNL     1       3.292 -70.030 -17.086  1.00  0.00     0.165 HD
HETATM    5  C6  UNL     1       4.557 -68.946 -15.774  1.00  0.00     0.042 A 
HETATM    6  C7  UNL     1       4.269 -67.595 -15.908  1.00  0.00     0.030 A 
HETATM    7  C8  UNL     1       4.960 -66.671 -15.158  1.00  0.00     0.002 A 
HETATM    8  C9  UNL     1       5.933 -67.095 -14.278  1.00  0.00     0.001 A 
HETATM    9  C10 UNL     1       6.194 -68.447 -14.168  1.00  0.00     0.014 A 
HETATM   10  C11 UNL     1       5.522 -69.406 -14.906  1.00  0.00    -0.002 A 
ENDROOT
BRANCH   1  11
HETATM   11  C3  UNL     1       6.521 -71.568 -14.179  1.00  0.00     0.090 C 
BRANCH  11  12
HETATM   12  C2  UNL     1       6.039 -72.865 -13.672  1.00  0.00     0.210 C 
HETATM   13  C1  UNL     1       7.030 -73.439 -12.674  1.00  0.00     0.058 C 
BRANCH  12  14
HETATM   14  N1  UNL     1       5.811 -73.874 -14.671  1.00  0.00    -0.060 N 
ATOM     15  H13 UNL     1       6.660 -74.373 -14.936  1.00  0.00     0.275 HD
ATOM     16  H12 UNL     1       5.292 -74.678 -14.316  1.00  0.00     0.275 HD
ATOM     17  H11 UNL     1       5.352 -73.418 -15.459  1.00  0.00     0.275 HD
ENDBRANCH  12  14
BRANCH  12  18
HETATM   18  C12 UNL     1       4.770 -72.668 -12.941  1.00  0.00     0.210 C 
HETATM   19  O1  UNL     1       3.784 -73.372 -13.238  1.00  0.00    -0.646 OA
HETATM   20  O2  UNL     1       4.647 -71.731 -11.944  1.00  0.00    -0.646 OA
ENDBRANCH  12  18
ENDBRANCH  11  12
ENDBRANCH   1  11
TORSDOF 4
ENDMDL
