MODEL 1
REMARK VINA RESULT: -3.509404216      0.000      0.000
REMARK  6 active torsions:
REMARK  status: ('A' for Active; 'I' for Inactive)
REMARK    1  A    between atoms: O1_1  and  C1_3 
REMARK    2  A    between atoms: C1_3  and  C2_4 
REMARK    3  A    between atoms: C3_6  and  O3_7 
REMARK    4  A    between atoms: C4_9  and  O4_10 
REMARK    5  A    between atoms: C5_12  and  O5_13 
REMARK    6  A    between atoms: C6_15  and  O6_16 
ROOT
HETATM    1  C2  UNL     1      21.983  17.214  22.910  1.00  0.00     0.179 C 
HETATM    2  O2  UNL     1      20.921  17.751  22.199  1.00  0.00    -0.349 OA
HETATM    3  C3  UNL     1      19.908  18.226  23.014  1.00  0.00     0.288 C 
HETATM    4  C4  UNL     1      19.350  17.036  23.777  1.00  0.00     0.204 C 
HETATM    5  C5  UNL     1      20.459  16.589  24.707  1.00  0.00     0.183 C 
HETATM    6  C6  UNL     1      21.565  16.071  23.796  1.00  0.00     0.180 C 
ENDROOT
BRANCH   1   7
HETATM    7  C1  UNL     1      22.974  16.691  21.860  1.00  0.00     0.198 C 
BRANCH   7   8
HETATM    8  O1  UNL     1      22.717  15.334  21.603  1.00  0.00    -0.398 OA
ATOM      9  H1  UNL     1      23.309  14.795  22.114  1.00  0.00     0.209 HD
ENDBRANCH   7   8
ENDBRANCH   1   7
BRANCH   6  10
HETATM   10  O6  UNL     1      22.635  15.700  24.596  1.00  0.00    -0.390 OA
ATOM     11  H6  UNL     1      22.400  14.924  25.091  1.00  0.00     0.210 HD
ENDBRANCH   6  10
BRANCH   3  12
HETATM   12  O3  UNL     1      18.951  18.837  22.220  1.00  0.00    -0.369 OA
ATOM     13  H3  UNL     1      18.158  18.315  22.245  1.00  0.00     0.212 HD
ENDBRANCH   3  12
BRANCH   5  14
HETATM   14  O5  UNL     1      20.036  15.625  25.603  1.00  0.00    -0.390 OA
ATOM     15  H5  UNL     1      20.704  14.972  25.773  1.00  0.00     0.210 HD
ENDBRANCH   5  14
BRANCH   4  16
HETATM   16  O4  UNL     1      18.188  17.353  24.460  1.00  0.00    -0.388 OA
ATOM     17  H4  UNL     1      17.818  16.600  24.905  1.00  0.00     0.210 HD
ENDBRANCH   4  16
TORSDOF 6
ENDMDL
