MODEL 2
REMARK VINA RESULT: -3.312233231      1.360      2.801
REMARK  6 active torsions:
REMARK  status: ('A' for Active; 'I' for Inactive)
REMARK    1  A    between atoms: O1_1  and  C1_3 
REMARK    2  A    between atoms: C1_3  and  C2_4 
REMARK    3  A    between atoms: C3_6  and  O3_7 
REMARK    4  A    between atoms: C4_9  and  O4_10 
REMARK    5  A    between atoms: C5_12  and  O5_13 
REMARK    6  A    between atoms: C6_15  and  O6_16 
ROOT
HETATM    1  C2  UNL     1      20.812  15.684  23.206  1.00  0.00     0.179 C 
HETATM    2  O2  UNL     1      19.918  16.126  24.169  1.00  0.00    -0.349 OA
HETATM    3  C3  UNL     1      19.164  17.209  23.752  1.00  0.00     0.288 C 
HETATM    4  C4  UNL     1      20.126  18.359  23.505  1.00  0.00     0.204 C 
HETATM    5  C5  UNL     1      20.960  17.946  22.310  1.00  0.00     0.183 C 
HETATM    6  C6  UNL     1      21.783  16.754  22.784  1.00  0.00     0.180 C 
ENDROOT
BRANCH   1   7
HETATM    7  C1  UNL     1      21.594  14.531  23.851  1.00  0.00     0.198 C 
BRANCH   7   8
HETATM    8  O1  UNL     1      22.039  13.647  22.855  1.00  0.00    -0.398 OA
ATOM      9  H1  UNL     1      22.848  13.234  23.133  1.00  0.00     0.209 HD
ENDBRANCH   7   8
ENDBRANCH   1   7
BRANCH   6  10
HETATM   10  O6  UNL     1      22.526  16.296  21.707  1.00  0.00    -0.390 OA
ATOM     11  H6  UNL     1      23.421  16.146  21.987  1.00  0.00     0.210 HD
ENDBRANCH   6  10
BRANCH   3  12
HETATM   12  O3  UNL     1      18.233  17.504  24.735  1.00  0.00    -0.369 OA
ATOM     13  H3  UNL     1      17.957  18.407  24.630  1.00  0.00     0.212 HD
ENDBRANCH   3  12
BRANCH   5  14
HETATM   14  O5  UNL     1      21.761  18.974  21.848  1.00  0.00    -0.390 OA
ATOM     15  H5  UNL     1      21.945  18.900  20.919  1.00  0.00     0.210 HD
ENDBRANCH   5  14
BRANCH   4  16
HETATM   16  O4  UNL     1      19.464  19.557  23.295  1.00  0.00    -0.388 OA
ATOM     17  H4  UNL     1      18.966  19.553  22.486  1.00  0.00     0.210 HD
ENDBRANCH   4  16
TORSDOF 6
ENDMDL
