MODEL 3
REMARK VINA RESULT: -3.257847698      1.230      2.016
REMARK  6 active torsions:
REMARK  status: ('A' for Active; 'I' for Inactive)
REMARK    1  A    between atoms: O1_1  and  C1_3 
REMARK    2  A    between atoms: C1_3  and  C2_4 
REMARK    3  A    between atoms: C3_6  and  O3_7 
REMARK    4  A    between atoms: C4_9  and  O4_10 
REMARK    5  A    between atoms: C5_12  and  O5_13 
REMARK    6  A    between atoms: C6_15  and  O6_16 
ROOT
HETATM    1  C2  UNL     1      21.737  16.168  23.462  1.00  0.00     0.179 C 
HETATM    2  O2  UNL     1      22.003  17.093  22.465  1.00  0.00    -0.349 OA
HETATM    3  C3  UNL     1      21.510  18.355  22.750  1.00  0.00     0.288 C 
HETATM    4  C4  UNL     1      19.997  18.239  22.830  1.00  0.00     0.204 C 
HETATM    5  C5  UNL     1      19.715  17.393  24.056  1.00  0.00     0.183 C 
HETATM    6  C6  UNL     1      20.264  16.010  23.726  1.00  0.00     0.180 C 
ENDROOT
BRANCH   1   7
HETATM    7  C1  UNL     1      22.297  14.830  22.959  1.00  0.00     0.198 C 
BRANCH   7   8
HETATM    8  O1  UNL     1      22.757  14.977  21.640  1.00  0.00    -0.398 OA
ATOM      9  H1  UNL     1      23.387  14.293  21.444  1.00  0.00     0.209 HD
ENDBRANCH   7   8
ENDBRANCH   1   7
BRANCH   6  10
HETATM   10  O6  UNL     1      20.084  15.206  24.840  1.00  0.00    -0.390 OA
ATOM     11  H6  UNL     1      19.822  14.337  24.559  1.00  0.00     0.210 HD
ENDBRANCH   6  10
BRANCH   3  12
HETATM   12  O3  UNL     1      21.918  19.225  21.754  1.00  0.00    -0.369 OA
ATOM     13  H3  UNL     1      21.746  20.115  22.038  1.00  0.00     0.212 HD
ENDBRANCH   3  12
BRANCH   5  14
HETATM   14  O5  UNL     1      18.369  17.352  24.367  1.00  0.00    -0.390 OA
ATOM     15  H5  UNL     1      17.953  16.552  24.070  1.00  0.00     0.210 HD
ENDBRANCH   5  14
BRANCH   4  16
HETATM   16  O4  UNL     1      19.381  19.477  22.895  1.00  0.00    -0.388 OA
ATOM     17  H4  UNL     1      19.773  20.038  23.554  1.00  0.00     0.210 HD
ENDBRANCH   4  16
TORSDOF 6
ENDMDL
