MODEL 7
REMARK VINA RESULT: -8.533899685      3.563      4.946
REMARK  8 active torsions:
REMARK  status: ('A' for Active; 'I' for Inactive)
REMARK    1  A    between atoms: N5_13  and  C6_14 
REMARK    2  A    between atoms: C7_16  and  C8_17 
REMARK    3  A    between atoms: C8_17  and  O2_18 
REMARK    4  A    between atoms: O2_18  and  P1_19 
REMARK    5  A    between atoms: P1_19  and  O5_22 
REMARK    6  A    between atoms: O5_22  and  P2_23 
REMARK    7  A    between atoms: C9_27  and  O9_28 
REMARK    8  A    between atoms: C10_30  and  O10_31 
ROOT
HETATM    1  C6  UNL     1      -7.654  23.168  45.858  1.00  0.00     0.262 C 
HETATM    2  O1  UNL     1      -7.841  24.331  45.140  1.00  0.00    -0.353 OA
HETATM    3  C7  UNL     1      -6.740  24.572  44.372  1.00  0.00     0.180 C 
HETATM    4  C9  UNL     1      -5.944  23.291  44.312  1.00  0.00     0.182 C 
HETATM    5  C10 UNL     1      -6.207  22.807  45.745  1.00  0.00     0.198 C 
ENDROOT
BRANCH   1   6
HETATM    6  N5  UNL     1      -8.557  22.174  45.377  1.00  0.00    -0.297 N 
HETATM    7  C3  UNL     1      -8.493  20.840  45.530  1.00  0.00     0.142 A 
HETATM    8  N3  UNL     1      -7.618  20.050  46.148  1.00  0.00    -0.336 N 
HETATM    9  C4  UNL     1      -9.565  20.266  44.907  1.00  0.00     0.119 A 
HETATM   10  C2  UNL     1      -7.771  18.713  46.165  1.00  0.00     0.183 A 
ATOM     11  H3  UNL     1      -6.814  20.467  46.619  1.00  0.00     0.168 HD
HETATM   12  N2  UNL     1      -8.812  18.135  45.562  1.00  0.00    -0.339 N 
HETATM   13  C1  UNL     1      -9.711  18.894  44.932  1.00  0.00     0.148 A 
ATOM     14  H2  UNL     1      -8.918  17.121  45.582  1.00  0.00     0.167 HD
HETATM   15  N1  UNL     1     -10.835  18.349  44.272  1.00  0.00    -0.080 NA
HETATM   16  N4  UNL     1     -10.276  21.253  44.376  1.00  0.00    -0.346 N 
HETATM   17  C5  UNL     1      -9.671  22.398  44.657  1.00  0.00     0.188 A 
ATOM     18  H4  UNL     1     -11.139  21.148  43.843  1.00  0.00     0.167 HD
ENDBRANCH   1   6
BRANCH   5  19
HETATM   19  O10 UNL     1      -5.490  23.676  46.579  1.00  0.00    -0.388 OA
ATOM     20  H10 UNL     1      -5.348  23.227  47.403  1.00  0.00     0.210 HD
ENDBRANCH   5  19
BRANCH   3  21
HETATM   21  C8  UNL     1      -7.019  25.151  43.021  1.00  0.00     0.216 C 
BRANCH  21  22
HETATM   22  O2  UNL     1      -6.683  26.473  42.892  1.00  0.00    -0.287 OA
BRANCH  22  23
HETATM   23  P1  UNL     1      -5.057  26.527  42.363  1.00  0.00     0.418 P 
HETATM   24  O3  UNL     1      -4.174  26.593  43.581  1.00  0.00    -0.624 OA
HETATM   25  O4  UNL     1      -4.765  27.906  41.444  1.00  0.00    -0.624 OA
BRANCH  23  26
HETATM   26  O5  UNL     1      -4.727  25.134  41.500  1.00  0.00    -0.173 OA
BRANCH  26  27
HETATM   27  P2  UNL     1      -3.423  25.277  40.463  1.00  0.00     0.431 P 
HETATM   28  O6  UNL     1      -2.233  25.936  41.133  1.00  0.00    -0.616 OA
HETATM   29  O7  UNL     1      -3.787  26.209  39.094  1.00  0.00    -0.616 OA
HETATM   30  O8  UNL     1      -3.014  23.708  39.930  1.00  0.00    -0.616 OA
ENDBRANCH  26  27
ENDBRANCH  23  26
ENDBRANCH  22  23
ENDBRANCH  21  22
ENDBRANCH   3  21
BRANCH   4  31
HETATM   31  O9  UNL     1      -4.605  23.485  44.071  1.00  0.00    -0.390 OA
ATOM     32  H9  UNL     1      -4.065  22.736  44.294  1.00  0.00     0.210 HD
ENDBRANCH   4  31
TORSDOF 8
ENDMDL
