MODEL 1
REMARK VINA RESULT: -9.098809751      0.000      0.000
REMARK  8 active torsions:
REMARK  status: ('A' for Active; 'I' for Inactive)
REMARK    1  A    between atoms: N5_13  and  C6_14 
REMARK    2  A    between atoms: C7_16  and  C8_17 
REMARK    3  A    between atoms: C8_17  and  O2_18 
REMARK    4  A    between atoms: O2_18  and  P1_19 
REMARK    5  A    between atoms: P1_19  and  O5_22 
REMARK    6  A    between atoms: O5_22  and  P2_23 
REMARK    7  A    between atoms: C9_27  and  O9_28 
REMARK    8  A    between atoms: C10_30  and  O10_31 
ROOT
HETATM    1  C6  UNL     1      -8.328  22.525  47.604  1.00  0.00     0.262 C 
HETATM    2  O1  UNL     1      -7.090  22.734  47.031  1.00  0.00    -0.353 OA
HETATM    3  C7  UNL     1      -7.210  22.717  45.673  1.00  0.00     0.180 C 
HETATM    4  C9  UNL     1      -8.675  22.871  45.348  1.00  0.00     0.182 C 
HETATM    5  C10 UNL     1      -9.243  22.054  46.517  1.00  0.00     0.198 C 
ENDROOT
BRANCH   1   6
HETATM    6  N5  UNL     1      -8.746  23.721  48.260  1.00  0.00    -0.297 N 
HETATM    7  C3  UNL     1      -9.323  23.856  49.466  1.00  0.00     0.142 A 
HETATM    8  N3  UNL     1      -9.675  22.971  50.396  1.00  0.00    -0.336 N 
HETATM    9  C4  UNL     1      -9.558  25.181  49.704  1.00  0.00     0.119 A 
HETATM   10  C2  UNL     1     -10.251  23.357  51.549  1.00  0.00     0.183 A 
ATOM     11  H3  UNL     1      -9.504  21.978  50.231  1.00  0.00     0.168 HD
HETATM   12  N2  UNL     1     -10.488  24.647  51.798  1.00  0.00    -0.339 N 
HETATM   13  C1  UNL     1     -10.149  25.565  50.891  1.00  0.00     0.148 A 
ATOM     14  H2  UNL     1     -10.924  24.928  52.676  1.00  0.00     0.167 HD
HETATM   15  N1  UNL     1     -10.371  26.946  51.088  1.00  0.00    -0.080 NA
HETATM   16  N4  UNL     1      -9.123  25.847  48.640  1.00  0.00    -0.346 N 
HETATM   17  C5  UNL     1      -8.636  24.970  47.774  1.00  0.00     0.188 A 
ATOM     18  H4  UNL     1      -9.158  26.858  48.513  1.00  0.00     0.167 HD
ENDBRANCH   1   6
BRANCH   5  19
HETATM   19  O10 UNL     1      -8.919  20.719  46.244  1.00  0.00    -0.388 OA
ATOM     20  H10 UNL     1      -8.680  20.666  45.326  1.00  0.00     0.210 HD
ENDBRANCH   5  19
BRANCH   3  21
HETATM   21  C8  UNL     1      -6.342  23.693  44.944  1.00  0.00     0.216 C 
BRANCH  21  22
HETATM   22  O2  UNL     1      -6.433  23.619  43.578  1.00  0.00    -0.287 OA
BRANCH  22  23
HETATM   23  P1  UNL     1      -6.046  25.169  42.966  1.00  0.00     0.418 P 
HETATM   24  O3  UNL     1      -4.871  25.696  43.747  1.00  0.00    -0.624 OA
HETATM   25  O4  UNL     1      -7.325  26.241  43.179  1.00  0.00    -0.624 OA
BRANCH  23  26
HETATM   26  O5  UNL     1      -5.633  25.021  41.353  1.00  0.00    -0.173 OA
BRANCH  26  27
HETATM   27  P2  UNL     1      -4.484  26.125  40.848  1.00  0.00     0.431 P 
HETATM   28  O6  UNL     1      -4.480  26.294  39.341  1.00  0.00    -0.616 OA
HETATM   29  O7  UNL     1      -2.912  25.667  41.288  1.00  0.00    -0.616 OA
HETATM   30  O8  UNL     1      -4.825  27.612  41.614  1.00  0.00    -0.616 OA
ENDBRANCH  26  27
ENDBRANCH  23  26
ENDBRANCH  22  23
ENDBRANCH  21  22
ENDBRANCH   3  21
BRANCH   4  31
HETATM   31  O9  UNL     1      -9.028  22.341  44.130  1.00  0.00    -0.390 OA
ATOM     32  H9  UNL     1      -9.880  21.921  44.129  1.00  0.00     0.210 HD
ENDBRANCH   4  31
TORSDOF 8
ENDMDL
