MODEL 4
REMARK VINA RESULT: -8.721998473      3.670      5.628
REMARK  8 active torsions:
REMARK  status: ('A' for Active; 'I' for Inactive)
REMARK    1  A    between atoms: N5_13  and  C6_14 
REMARK    2  A    between atoms: C7_16  and  C8_17 
REMARK    3  A    between atoms: C8_17  and  O2_18 
REMARK    4  A    between atoms: O2_18  and  P1_19 
REMARK    5  A    between atoms: P1_19  and  O5_22 
REMARK    6  A    between atoms: O5_22  and  P2_23 
REMARK    7  A    between atoms: C9_27  and  O9_28 
REMARK    8  A    between atoms: C10_30  and  O10_31 
ROOT
HETATM    1  C6  UNL     1      -8.500  22.531  45.668  1.00  0.00     0.262 C 
HETATM    2  O1  UNL     1      -8.620  23.501  44.693  1.00  0.00    -0.353 OA
HETATM    3  C7  UNL     1      -7.441  24.173  44.574  1.00  0.00     0.180 C 
HETATM    4  C9  UNL     1      -6.379  23.346  45.257  1.00  0.00     0.182 C 
HETATM    5  C10 UNL     1      -7.234  22.812  46.415  1.00  0.00     0.198 C 
ENDROOT
BRANCH   1   6
HETATM    6  N5  UNL     1      -8.559  21.245  45.055  1.00  0.00    -0.297 N 
HETATM    7  C3  UNL     1      -9.438  20.789  44.146  1.00  0.00     0.142 A 
HETATM    8  N3  UNL     1     -10.485  21.356  43.549  1.00  0.00    -0.336 N 
HETATM    9  C4  UNL     1      -9.126  19.497  43.830  1.00  0.00     0.119 A 
HETATM   10  C2  UNL     1     -11.229  20.683  42.654  1.00  0.00     0.183 A 
ATOM     11  H3  UNL     1     -10.727  22.321  43.776  1.00  0.00     0.168 HD
HETATM   12  N2  UNL     1     -10.940  19.420  42.332  1.00  0.00    -0.339 N 
HETATM   13  C1  UNL     1      -9.897  18.817  42.909  1.00  0.00     0.148 A 
ATOM     14  H2  UNL     1     -11.511  18.919  41.652  1.00  0.00     0.167 HD
HETATM   15  N1  UNL     1      -9.535  17.483  42.617  1.00  0.00    -0.080 NA
HETATM   16  N4  UNL     1      -8.058  19.171  44.549  1.00  0.00    -0.346 N 
HETATM   17  C5  UNL     1      -7.718  20.220  45.284  1.00  0.00     0.188 A 
ATOM     18  H4  UNL     1      -7.583  18.269  44.537  1.00  0.00     0.167 HD
ENDBRANCH   1   6
BRANCH   5  19
HETATM   19  O10 UNL     1      -7.474  23.910  47.251  1.00  0.00    -0.388 OA
ATOM     20  H10 UNL     1      -7.216  24.691  46.777  1.00  0.00     0.210 HD
ENDBRANCH   5  19
BRANCH   3  21
HETATM   21  C8  UNL     1      -7.068  24.567  43.180  1.00  0.00     0.216 C 
BRANCH  21  22
HETATM   22  O2  UNL     1      -6.922  25.917  42.993  1.00  0.00    -0.287 OA
BRANCH  22  23
HETATM   23  P1  UNL     1      -5.306  26.182  42.496  1.00  0.00     0.418 P 
HETATM   24  O3  UNL     1      -4.432  26.144  43.722  1.00  0.00    -0.624 OA
HETATM   25  O4  UNL     1      -5.132  27.699  41.789  1.00  0.00    -0.624 OA
BRANCH  23  26
HETATM   26  O5  UNL     1      -4.861  24.961  41.445  1.00  0.00    -0.173 OA
BRANCH  26  27
HETATM   27  P2  UNL     1      -3.554  25.347  40.479  1.00  0.00     0.431 P 
HETATM   28  O6  UNL     1      -2.459  26.052  41.257  1.00  0.00    -0.616 OA
HETATM   29  O7  UNL     1      -3.979  26.377  39.201  1.00  0.00    -0.616 OA
HETATM   30  O8  UNL     1      -2.964  23.895  39.803  1.00  0.00    -0.616 OA
ENDBRANCH  26  27
ENDBRANCH  23  26
ENDBRANCH  22  23
ENDBRANCH  21  22
ENDBRANCH   3  21
BRANCH   4  31
HETATM   31  O9  UNL     1      -5.309  24.083  45.705  1.00  0.00    -0.390 OA
ATOM     32  H9  UNL     1      -4.517  23.953  45.196  1.00  0.00     0.210 HD
ENDBRANCH   4  31
TORSDOF 8
ENDMDL
