MODEL 6
REMARK VINA RESULT: -8.570337100      1.117      1.421
REMARK  8 active torsions:
REMARK  status: ('A' for Active; 'I' for Inactive)
REMARK    1  A    between atoms: N5_13  and  C6_14 
REMARK    2  A    between atoms: C7_16  and  C8_17 
REMARK    3  A    between atoms: C8_17  and  O2_18 
REMARK    4  A    between atoms: O2_18  and  P1_19 
REMARK    5  A    between atoms: P1_19  and  O5_22 
REMARK    6  A    between atoms: O5_22  and  P2_23 
REMARK    7  A    between atoms: C9_27  and  O9_28 
REMARK    8  A    between atoms: C10_30  and  O10_31 
ROOT
HETATM    1  C6  UNL     1      -8.784  22.694  47.566  1.00  0.00     0.262 C 
HETATM    2  O1  UNL     1      -7.497  22.877  47.103  1.00  0.00    -0.353 OA
HETATM    3  C7  UNL     1      -7.481  22.759  45.745  1.00  0.00     0.180 C 
HETATM    4  C9  UNL     1      -8.909  22.870  45.267  1.00  0.00     0.182 C 
HETATM    5  C10 UNL     1      -9.584  22.133  46.432  1.00  0.00     0.198 C 
ENDROOT
BRANCH   1   6
HETATM    6  N5  UNL     1      -9.272  23.928  48.088  1.00  0.00    -0.297 N 
HETATM    7  C3  UNL     1     -10.435  24.171  48.716  1.00  0.00     0.142 A 
HETATM    8  N3  UNL     1     -11.458  23.384  49.042  1.00  0.00    -0.336 N 
HETATM    9  C4  UNL     1     -10.497  25.495  49.049  1.00  0.00     0.119 A 
HETATM   10  C2  UNL     1     -12.537  23.868  49.683  1.00  0.00     0.183 A 
ATOM     11  H3  UNL     1     -11.424  22.393  48.800  1.00  0.00     0.168 HD
HETATM   12  N2  UNL     1     -12.615  25.158  50.016  1.00  0.00    -0.339 N 
HETATM   13  C1  UNL     1     -11.609  25.979  49.707  1.00  0.00     0.148 A 
ATOM     14  H2  UNL     1     -13.438  25.514  50.503  1.00  0.00     0.167 HD
HETATM   15  N1  UNL     1     -11.625  27.355  50.027  1.00  0.00    -0.080 NA
HETATM   16  N4  UNL     1      -9.371  26.053  48.620  1.00  0.00    -0.346 N 
HETATM   17  C5  UNL     1      -8.636  25.113  48.043  1.00  0.00     0.188 A 
ATOM     18  H4  UNL     1      -9.116  27.035  48.718  1.00  0.00     0.167 HD
ENDBRANCH   1   6
BRANCH   5  19
HETATM   19  O10 UNL     1      -9.227  20.786  46.291  1.00  0.00    -0.388 OA
ATOM     20  H10 UNL     1      -9.995  20.265  46.490  1.00  0.00     0.210 HD
ENDBRANCH   5  19
BRANCH   3  21
HETATM   21  C8  UNL     1      -6.552  23.691  45.034  1.00  0.00     0.216 C 
BRANCH  21  22
HETATM   22  O2  UNL     1      -6.581  23.585  43.668  1.00  0.00    -0.287 OA
BRANCH  22  23
HETATM   23  P1  UNL     1      -6.101  25.102  43.037  1.00  0.00     0.418 P 
HETATM   24  O3  UNL     1      -4.943  25.601  43.860  1.00  0.00    -0.624 OA
HETATM   25  O4  UNL     1      -7.343  26.229  43.164  1.00  0.00    -0.624 OA
BRANCH  23  26
HETATM   26  O5  UNL     1      -5.621  24.895  41.450  1.00  0.00    -0.173 OA
BRANCH  26  27
HETATM   27  P2  UNL     1      -4.534  26.049  40.919  1.00  0.00     0.431 P 
HETATM   28  O6  UNL     1      -3.102  25.682  41.257  1.00  0.00    -0.616 OA
HETATM   29  O7  UNL     1      -4.820  27.570  41.612  1.00  0.00    -0.616 OA
HETATM   30  O8  UNL     1      -4.728  26.203  39.231  1.00  0.00    -0.616 OA
ENDBRANCH  26  27
ENDBRANCH  23  26
ENDBRANCH  22  23
ENDBRANCH  21  22
ENDBRANCH   3  21
BRANCH   4  31
HETATM   31  O9  UNL     1      -9.137  22.249  44.063  1.00  0.00    -0.390 OA
ATOM     32  H9  UNL     1      -9.198  21.303  44.128  1.00  0.00     0.210 HD
ENDBRANCH   4  31
TORSDOF 8
ENDMDL
