MODEL 5
REMARK VINA RESULT: -8.617999081      1.089      2.120
REMARK  8 active torsions:
REMARK  status: ('A' for Active; 'I' for Inactive)
REMARK    1  A    between atoms: N5_13  and  C6_14 
REMARK    2  A    between atoms: C7_16  and  C8_17 
REMARK    3  A    between atoms: C8_17  and  O2_18 
REMARK    4  A    between atoms: O2_18  and  P1_19 
REMARK    5  A    between atoms: P1_19  and  O5_22 
REMARK    6  A    between atoms: O5_22  and  P2_23 
REMARK    7  A    between atoms: C9_27  and  O9_28 
REMARK    8  A    between atoms: C10_30  and  O10_31 
ROOT
HETATM    1  C6  UNL     1      -7.853  21.432  47.249  1.00  0.00     0.262 C 
HETATM    2  O1  UNL     1      -6.912  22.262  46.673  1.00  0.00    -0.353 OA
HETATM    3  C7  UNL     1      -7.291  22.561  45.398  1.00  0.00     0.180 C 
HETATM    4  C9  UNL     1      -8.750  22.199  45.265  1.00  0.00     0.182 C 
HETATM    5  C10 UNL     1      -8.742  20.944  46.149  1.00  0.00     0.198 C 
ENDROOT
BRANCH   1   6
HETATM    6  N5  UNL     1      -8.524  22.140  48.290  1.00  0.00    -0.297 N 
HETATM    7  C3  UNL     1      -8.705  23.465  48.419  1.00  0.00     0.142 A 
HETATM    8  N3  UNL     1      -8.341  24.498  47.662  1.00  0.00    -0.336 N 
HETATM    9  C4  UNL     1      -9.403  23.712  49.568  1.00  0.00     0.119 A 
HETATM   10  C2  UNL     1      -8.644  25.762  48.008  1.00  0.00     0.183 A 
ATOM     11  H3  UNL     1      -7.820  24.327  46.801  1.00  0.00     0.168 HD
HETATM   12  N2  UNL     1      -9.325  26.022  49.127  1.00  0.00    -0.339 N 
HETATM   13  C1  UNL     1      -9.709  25.013  49.912  1.00  0.00     0.148 A 
ATOM     14  H2  UNL     1      -9.551  26.984  49.379  1.00  0.00     0.167 HD
HETATM   15  N1  UNL     1     -10.431  25.215  51.109  1.00  0.00    -0.080 NA
HETATM   16  N4  UNL     1      -9.643  22.535  50.133  1.00  0.00    -0.346 N 
HETATM   17  C5  UNL     1      -9.115  21.591  49.366  1.00  0.00     0.188 A 
ATOM     18  H4  UNL     1     -10.146  22.383  51.007  1.00  0.00     0.167 HD
ENDBRANCH   1   6
BRANCH   5  19
HETATM   19  O10 UNL     1      -8.031  19.975  45.431  1.00  0.00    -0.388 OA
ATOM     20  H10 UNL     1      -7.168  20.329  45.251  1.00  0.00     0.210 HD
ENDBRANCH   5  19
BRANCH   3  21
HETATM   21  C8  UNL     1      -6.991  23.958  44.954  1.00  0.00     0.216 C 
BRANCH  21  22
HETATM   22  O2  UNL     1      -6.231  24.039  43.817  1.00  0.00    -0.287 OA
BRANCH  22  23
HETATM   23  P1  UNL     1      -7.068  25.057  42.726  1.00  0.00     0.418 P 
HETATM   24  O3  UNL     1      -7.308  26.375  43.413  1.00  0.00    -0.624 OA
HETATM   25  O4  UNL     1      -8.568  24.408  42.324  1.00  0.00    -0.624 OA
BRANCH  23  26
HETATM   26  O5  UNL     1      -6.117  25.289  41.371  1.00  0.00    -0.173 OA
BRANCH  26  27
HETATM   27  P2  UNL     1      -4.563  25.796  41.719  1.00  0.00     0.431 P 
HETATM   28  O6  UNL     1      -3.580  24.641  41.750  1.00  0.00    -0.616 OA
HETATM   29  O7  UNL     1      -4.457  26.562  43.227  1.00  0.00    -0.616 OA
HETATM   30  O8  UNL     1      -4.112  26.931  40.527  1.00  0.00    -0.616 OA
ENDBRANCH  26  27
ENDBRANCH  23  26
ENDBRANCH  22  23
ENDBRANCH  21  22
ENDBRANCH   3  21
BRANCH   4  31
HETATM   31  O9  UNL     1      -9.132  21.918  43.974  1.00  0.00    -0.390 OA
ATOM     32  H9  UNL     1      -9.653  21.128  43.895  1.00  0.00     0.210 HD
ENDBRANCH   4  31
TORSDOF 8
ENDMDL
