MODEL 2
REMARK VINA RESULT: -8.979901488      3.610      5.087
REMARK  8 active torsions:
REMARK  status: ('A' for Active; 'I' for Inactive)
REMARK    1  A    between atoms: N5_13  and  C6_14 
REMARK    2  A    between atoms: C7_16  and  C8_17 
REMARK    3  A    between atoms: C8_17  and  O2_18 
REMARK    4  A    between atoms: O2_18  and  P1_19 
REMARK    5  A    between atoms: P1_19  and  O5_22 
REMARK    6  A    between atoms: O5_22  and  P2_23 
REMARK    7  A    between atoms: C9_27  and  O9_28 
REMARK    8  A    between atoms: C10_30  and  O10_31 
ROOT
HETATM    1  C6  UNL     1      -7.674  23.083  45.812  1.00  0.00     0.262 C 
HETATM    2  O1  UNL     1      -7.889  24.238  45.089  1.00  0.00    -0.353 OA
HETATM    3  C7  UNL     1      -6.775  24.530  44.358  1.00  0.00     0.180 C 
HETATM    4  C9  UNL     1      -5.921  23.286  44.324  1.00  0.00     0.182 C 
HETATM    5  C10 UNL     1      -6.209  22.788  45.747  1.00  0.00     0.198 C 
ENDROOT
BRANCH   1   6
HETATM    6  N5  UNL     1      -8.514  22.050  45.300  1.00  0.00    -0.297 N 
HETATM    7  C3  UNL     1      -9.614  22.166  44.535  1.00  0.00     0.142 A 
HETATM    8  N3  UNL     1     -10.246  23.224  44.030  1.00  0.00    -0.336 N 
HETATM    9  C4  UNL     1     -10.111  20.921  44.273  1.00  0.00     0.119 A 
HETATM   10  C2  UNL     1     -11.352  23.085  43.278  1.00  0.00     0.183 A 
ATOM     11  H3  UNL     1      -9.884  24.159  44.218  1.00  0.00     0.168 HD
HETATM   12  N2  UNL     1     -11.853  21.876  43.012  1.00  0.00    -0.339 N 
HETATM   13  C1  UNL     1     -11.246  20.792  43.500  1.00  0.00     0.148 A 
ATOM     14  H2  UNL     1     -12.692  21.783  42.440  1.00  0.00     0.167 HD
HETATM   15  N1  UNL     1     -11.722  19.483  43.258  1.00  0.00    -0.080 NA
HETATM   16  N4  UNL     1      -9.312  20.052  44.880  1.00  0.00    -0.346 N 
HETATM   17  C5  UNL     1      -8.354  20.729  45.497  1.00  0.00     0.188 A 
ATOM     18  H4  UNL     1      -9.418  19.037  44.874  1.00  0.00     0.167 HD
ENDBRANCH   1   6
BRANCH   5  19
HETATM   19  O10 UNL     1      -5.560  23.685  46.605  1.00  0.00    -0.388 OA
ATOM     20  H10 UNL     1      -5.804  24.563  46.336  1.00  0.00     0.210 HD
ENDBRANCH   5  19
BRANCH   3  21
HETATM   21  C8  UNL     1      -7.035  25.099  42.999  1.00  0.00     0.216 C 
BRANCH  21  22
HETATM   22  O2  UNL     1      -6.709  26.424  42.870  1.00  0.00    -0.287 OA
BRANCH  22  23
HETATM   23  P1  UNL     1      -5.079  26.491  42.354  1.00  0.00     0.418 P 
HETATM   24  O3  UNL     1      -4.208  26.561  43.580  1.00  0.00    -0.624 OA
HETATM   25  O4  UNL     1      -4.790  27.873  41.439  1.00  0.00    -0.624 OA
BRANCH  23  26
HETATM   26  O5  UNL     1      -4.732  25.101  41.492  1.00  0.00    -0.173 OA
BRANCH  26  27
HETATM   27  P2  UNL     1      -3.422  25.256  40.465  1.00  0.00     0.431 P 
HETATM   28  O6  UNL     1      -2.242  25.925  41.143  1.00  0.00    -0.616 OA
HETATM   29  O7  UNL     1      -3.784  26.186  39.094  1.00  0.00    -0.616 OA
HETATM   30  O8  UNL     1      -2.996  23.691  39.934  1.00  0.00    -0.616 OA
ENDBRANCH  26  27
ENDBRANCH  23  26
ENDBRANCH  22  23
ENDBRANCH  21  22
ENDBRANCH   3  21
BRANCH   4  31
HETATM   31  O9  UNL     1      -4.584  23.541  44.127  1.00  0.00    -0.390 OA
ATOM     32  H9  UNL     1      -4.081  22.772  43.887  1.00  0.00     0.210 HD
ENDBRANCH   4  31
TORSDOF 8
ENDMDL
