MODEL 5
REMARK VINA RESULT: -7.063612409      4.844      8.507
REMARK  5 active torsions:
REMARK  status: ('A' for Active; 'I' for Inactive)
REMARK    1  A    between atoms: C1_2  and  C2_3 
REMARK       I    between atoms: C1_2  and  N3_15 
REMARK    2  A    between atoms: C5_6  and  N1_7 
REMARK    3  A    between atoms: C7_11  and  N2_12 
REMARK    4  A    between atoms: N4_18  and  C10_19 
REMARK    5  A    between atoms: C10_19  and  C11_20 
ROOT
HETATM    1  O1  UNL     1      32.656  17.268  96.727  1.00  0.00    -0.267 OA
HETATM    2  C1  UNL     1      31.814  17.816  97.515  1.00  0.00     0.256 C 
HETATM    3  N3  UNL     1      32.208  18.607  98.610  1.00  0.00    -0.345 N 
HETATM    4  C8  UNL     1      31.214  19.196  99.463  1.00  0.00     0.156 C 
HETATM    5  C9  UNL     1      31.700  20.454 100.142  1.00  0.00     0.292 C 
HETATM    6  N4  UNL     1      33.034  20.371 100.621  1.00  0.00     0.095 N 
HETATM    7  C17 UNL     1      33.711  19.133 100.368  1.00  0.00     0.292 C 
HETATM    8  C18 UNL     1      33.598  18.838  98.888  1.00  0.00     0.156 C 
ENDROOT
BRANCH   2   9
HETATM    9  C2  UNL     1      30.414  17.561  97.196  1.00  0.00     0.065 A 
HETATM   10  C3  UNL     1      29.713  16.535  97.792  1.00  0.00     0.022 A 
HETATM   11  C4  UNL     1      28.389  16.285  97.505  1.00  0.00     0.037 A 
HETATM   12  C5  UNL     1      27.705  17.075  96.586  1.00  0.00     0.105 A 
HETATM   13  C6  UNL     1      28.392  18.102  95.984  1.00  0.00     0.073 A 
HETATM   14  C7  UNL     1      29.734  18.343  96.285  1.00  0.00     0.120 A 
BRANCH  12  15
HETATM   15  N1  UNL     1      26.328  16.818  96.283  1.00  0.00    -0.116 N 
HETATM   16  O2  UNL     1      25.920  15.712  95.931  1.00  0.00    -0.532 OA
HETATM   17  O3  UNL     1      25.458  17.873  96.403  1.00  0.00    -0.532 OA
ENDBRANCH  12  15
BRANCH  14  18
HETATM   18  N2  UNL     1      30.365  19.420  95.613  1.00  0.00    -0.115 N 
HETATM   19  O4  UNL     1      30.772  19.256  94.451  1.00  0.00    -0.532 OA
HETATM   20  O5  UNL     1      30.507  20.612  96.268  1.00  0.00    -0.532 OA
ENDBRANCH  14  18
ENDBRANCH   2   9
BRANCH   6  21
HETATM   21  C10 UNL     1      33.211  20.857 101.964  1.00  0.00     0.311 C 
BRANCH  21  22
HETATM   22  C11 UNL     1      32.798  19.842 102.963  1.00  0.00    -0.030 A 
HETATM   23  C12 UNL     1      31.465  19.607 103.249  1.00  0.00     0.012 A 
HETATM   24  C13 UNL     1      31.155  18.645 104.187  1.00  0.00     0.043 A 
HETATM   25  C14 UNL     1      32.112  17.907 104.852  1.00  0.00     0.116 A 
HETATM   26  F1  UNL     1      31.784  16.962 105.773  1.00  0.00    -0.206 F 
HETATM   27  C15 UNL     1      33.445  18.130 104.577  1.00  0.00     0.043 A 
HETATM   28  C16 UNL     1      33.762  19.088 103.643  1.00  0.00     0.012 A 
ENDBRANCH  21  22
ENDBRANCH   6  21
TORSDOF 5
ENDMDL
