MODEL 6
REMARK VINA RESULT: -6.959234761      4.498      8.991
REMARK  5 active torsions:
REMARK  status: ('A' for Active; 'I' for Inactive)
REMARK    1  A    between atoms: C1_2  and  C2_3 
REMARK       I    between atoms: C1_2  and  N3_15 
REMARK    2  A    between atoms: C5_6  and  N1_7 
REMARK    3  A    between atoms: C7_11  and  N2_12 
REMARK    4  A    between atoms: N4_18  and  C10_19 
REMARK    5  A    between atoms: C10_19  and  C11_20 
ROOT
HETATM    1  O1  UNL     1      32.479  18.923  99.636  1.00  0.00    -0.267 OA
HETATM    2  C1  UNL     1      32.504  18.649  98.388  1.00  0.00     0.256 C 
HETATM    3  N3  UNL     1      33.705  18.460  97.681  1.00  0.00    -0.345 N 
HETATM    4  C8  UNL     1      33.669  18.157  96.277  1.00  0.00     0.156 C 
HETATM    5  C9  UNL     1      34.883  17.386  95.816  1.00  0.00     0.292 C 
HETATM    6  N4  UNL     1      36.105  17.849  96.374  1.00  0.00     0.095 N 
HETATM    7  C17 UNL     1      35.995  18.944  97.292  1.00  0.00     0.292 C 
HETATM    8  C18 UNL     1      34.975  18.566  98.344  1.00  0.00     0.156 C 
ENDROOT
BRANCH   2   9
HETATM    9  C2  UNL     1      31.196  18.548  97.754  1.00  0.00     0.065 A 
HETATM   10  C3  UNL     1      30.533  17.343  97.653  1.00  0.00     0.022 A 
HETATM   11  C4  UNL     1      29.294  17.233  97.061  1.00  0.00     0.037 A 
HETATM   12  C5  UNL     1      28.660  18.355  96.535  1.00  0.00     0.105 A 
HETATM   13  C6  UNL     1      29.310  19.562  96.629  1.00  0.00     0.073 A 
HETATM   14  C7  UNL     1      30.566  19.659  97.231  1.00  0.00     0.120 A 
BRANCH  12  15
HETATM   15  N1  UNL     1      27.372  18.245  95.918  1.00  0.00    -0.116 N 
HETATM   16  O2  UNL     1      26.732  19.224  95.536  1.00  0.00    -0.532 OA
HETATM   17  O3  UNL     1      26.863  16.980  95.764  1.00  0.00    -0.532 OA
ENDBRANCH  12  15
BRANCH  14  18
HETATM   18  N2  UNL     1      31.164  20.944  97.279  1.00  0.00    -0.115 N 
HETATM   19  O4  UNL     1      30.907  21.697  98.232  1.00  0.00    -0.532 OA
HETATM   20  O5  UNL     1      32.006  21.315  96.269  1.00  0.00    -0.532 OA
ENDBRANCH  14  18
ENDBRANCH   2   9
BRANCH   6  21
HETATM   21  C10 UNL     1      37.168  18.009  95.417  1.00  0.00     0.311 C 
BRANCH  21  22
HETATM   22  C11 UNL     1      38.438  17.430  95.920  1.00  0.00    -0.030 A 
HETATM   23  C12 UNL     1      39.641  18.101  95.791  1.00  0.00     0.012 A 
HETATM   24  C13 UNL     1      40.780  17.503  96.287  1.00  0.00     0.043 A 
HETATM   25  C14 UNL     1      40.776  16.269  96.903  1.00  0.00     0.116 A 
HETATM   26  F1  UNL     1      41.912  15.698  97.384  1.00  0.00    -0.206 F 
HETATM   27  C15 UNL     1      39.583  15.589  97.038  1.00  0.00     0.043 A 
HETATM   28  C16 UNL     1      38.442  16.179  96.547  1.00  0.00     0.012 A 
ENDBRANCH  21  22
ENDBRANCH   6  21
TORSDOF 5
ENDMDL
