MODEL 7
REMARK VINA RESULT: -6.956944791      5.831      8.847
REMARK  5 active torsions:
REMARK  status: ('A' for Active; 'I' for Inactive)
REMARK    1  A    between atoms: C1_2  and  C2_3 
REMARK       I    between atoms: C1_2  and  N3_15 
REMARK    2  A    between atoms: C5_6  and  N1_7 
REMARK    3  A    between atoms: C7_11  and  N2_12 
REMARK    4  A    between atoms: N4_18  and  C10_19 
REMARK    5  A    between atoms: C10_19  and  C11_20 
ROOT
HETATM    1  O1  UNL     1      31.091  20.175  95.202  1.00  0.00    -0.267 OA
HETATM    2  C1  UNL     1      30.393  20.253  96.268  1.00  0.00     0.256 C 
HETATM    3  N3  UNL     1      30.695  21.154  97.306  1.00  0.00    -0.345 N 
HETATM    4  C8  UNL     1      29.872  21.193  98.483  1.00  0.00     0.156 C 
HETATM    5  C9  UNL     1      29.899  22.539  99.167  1.00  0.00     0.292 C 
HETATM    6  N4  UNL     1      31.189  23.130  99.227  1.00  0.00     0.095 N 
HETATM    7  C17 UNL     1      32.247  22.378  98.618  1.00  0.00     0.292 C 
HETATM    8  C18 UNL     1      31.821  22.041  97.205  1.00  0.00     0.156 C 
ENDROOT
BRANCH   2   9
HETATM    9  C2  UNL     1      29.258  19.339  96.330  1.00  0.00     0.065 A 
HETATM   10  C3  UNL     1      28.028  19.679  95.807  1.00  0.00     0.022 A 
HETATM   11  C4  UNL     1      26.949  18.823  95.853  1.00  0.00     0.037 A 
HETATM   12  C5  UNL     1      27.069  17.566  96.439  1.00  0.00     0.105 A 
HETATM   13  C6  UNL     1      28.289  17.216  96.964  1.00  0.00     0.073 A 
HETATM   14  C7  UNL     1      29.374  18.093  96.911  1.00  0.00     0.120 A 
BRANCH  12  15
HETATM   15  N1  UNL     1      25.949  16.674  96.489  1.00  0.00    -0.116 N 
HETATM   16  O2  UNL     1      25.903  15.627  95.844  1.00  0.00    -0.532 OA
HETATM   17  O3  UNL     1      24.903  17.034  97.301  1.00  0.00    -0.532 OA
ENDBRANCH  12  15
BRANCH  14  18
HETATM   18  N2  UNL     1      30.594  17.649  97.481  1.00  0.00    -0.115 N 
HETATM   19  O4  UNL     1      30.765  17.753  98.706  1.00  0.00    -0.532 OA
HETATM   20  O5  UNL     1      31.550  17.120  96.659  1.00  0.00    -0.532 OA
ENDBRANCH  14  18
ENDBRANCH   2   9
BRANCH   6  21
HETATM   21  C10 UNL     1      31.536  23.662 100.519  1.00  0.00     0.311 C 
BRANCH  21  22
HETATM   22  C11 UNL     1      30.407  24.420 101.111  1.00  0.00    -0.030 A 
HETATM   23  C12 UNL     1      30.034  25.661 100.626  1.00  0.00     0.012 A 
HETATM   24  C13 UNL     1      28.971  26.305 101.224  1.00  0.00     0.043 A 
HETATM   25  C14 UNL     1      28.265  25.770 102.281  1.00  0.00     0.116 A 
HETATM   26  F1  UNL     1      27.220  26.424 102.855  1.00  0.00    -0.206 F 
HETATM   27  C15 UNL     1      28.626  24.534 102.774  1.00  0.00     0.043 A 
HETATM   28  C16 UNL     1      29.684  23.885 102.183  1.00  0.00     0.012 A 
ENDBRANCH  21  22
ENDBRANCH   6  21
TORSDOF 5
ENDMDL
