MODEL 2
REMARK VINA RESULT: -6.902920175      7.719     10.994
REMARK  5 active torsions:
REMARK  status: ('A' for Active; 'I' for Inactive)
REMARK    1  A    between atoms: N2_7  and  C3_8 
REMARK    2  A    between atoms: C5_10  and  O3_11 
REMARK    3  A    between atoms: C6_13  and  C7_14 
REMARK    4  A    between atoms: C7_14  and  O4_15 
REMARK    5  A    between atoms: O4_15  and  P1_16 
ROOT
HETATM    1  C3  UNL     1      28.178  -6.828  70.082  1.00  0.00     0.235 C 
HETATM    2  C4  UNL     1      29.394  -6.878  70.989  1.00  0.00     0.088 C 
HETATM    3  C5  UNL     1      30.353  -5.976  70.242  1.00  0.00     0.153 C 
HETATM    4  C6  UNL     1      29.883  -6.101  68.830  1.00  0.00     0.177 C 
HETATM    5  O8  UNL     1      28.688  -6.769  68.814  1.00  0.00    -0.356 OA
ENDROOT
BRANCH   1   6
HETATM    6  N2  UNL     1      27.400  -8.021  70.336  1.00  0.00    -0.279 N 
HETATM    7  C2  UNL     1      26.097  -7.894  70.596  1.00  0.00     0.331 A 
HETATM    8  N1  UNL     1      25.285  -8.942  70.845  1.00  0.00    -0.273 N 
HETATM    9  O2  UNL     1      25.570  -6.758  70.615  1.00  0.00    -0.246 OA
HETATM   10  C1  UNL     1      25.825 -10.172  70.829  1.00  0.00     0.289 A 
ATOM     11  H1  UNL     1      24.293  -8.805  71.039  1.00  0.00     0.173 HD
HETATM   12  O1  UNL     1      25.121 -11.194  71.055  1.00  0.00    -0.265 OA
HETATM   13  C9  UNL     1      27.179 -10.347  70.564  1.00  0.00     0.199 A 
HETATM   14  C8  UNL     1      27.982  -9.231  70.311  1.00  0.00     0.146 A 
HETATM   15  F1  UNL     1      27.706 -11.600  70.553  1.00  0.00    -0.199 F 
ENDBRANCH   1   6
BRANCH   3  16
HETATM   16  O3  UNL     1      30.247  -4.683  70.742  1.00  0.00    -0.393 OA
ATOM     17  H3  UNL     1      30.036  -4.090  70.031  1.00  0.00     0.210 HD
ENDBRANCH   3  16
BRANCH   4  18
HETATM   18  C7  UNL     1      30.890  -6.927  68.056  1.00  0.00     0.217 C 
BRANCH  18  19
HETATM   19  O4  UNL     1      31.857  -7.395  68.942  1.00  0.00    -0.280 OA
BRANCH  19  20
HETATM   20  P1  UNL     1      32.894  -8.506  68.262  1.00  0.00     0.422 P 
HETATM   21  O5  UNL     1      33.338  -9.462  69.361  1.00  0.00    -0.617 OA
HETATM   22  O6  UNL     1      34.267  -7.829  67.587  1.00  0.00    -0.617 OA
HETATM   23  O7  UNL     1      32.140  -9.465  67.079  1.00  0.00    -0.617 OA
ENDBRANCH  19  20
ENDBRANCH  18  19
ENDBRANCH   4  18
TORSDOF 5
ENDMDL
