MODEL 5
REMARK VINA RESULT: -6.689875002      2.446      4.126
REMARK  5 active torsions:
REMARK  status: ('A' for Active; 'I' for Inactive)
REMARK    1  A    between atoms: N2_7  and  C3_8 
REMARK    2  A    between atoms: C5_10  and  O3_11 
REMARK    3  A    between atoms: C6_13  and  C7_14 
REMARK    4  A    between atoms: C7_14  and  O4_15 
REMARK    5  A    between atoms: O4_15  and  P1_16 
ROOT
HETATM    1  C3  UNL     1      34.672  -8.214  67.027  1.00  0.00     0.235 C 
HETATM    2  C4  UNL     1      33.898  -8.416  68.318  1.00  0.00     0.088 C 
HETATM    3  C5  UNL     1      32.475  -8.218  67.840  1.00  0.00     0.153 C 
HETATM    4  C6  UNL     1      32.652  -7.326  66.654  1.00  0.00     0.177 C 
HETATM    5  O8  UNL     1      33.986  -7.238  66.356  1.00  0.00    -0.356 OA
ENDROOT
BRANCH   1   6
HETATM    6  N2  UNL     1      36.018  -7.827  67.387  1.00  0.00    -0.279 N 
HETATM    7  C2  UNL     1      36.840  -8.754  67.886  1.00  0.00     0.331 A 
HETATM    8  N1  UNL     1      38.112  -8.497  68.251  1.00  0.00    -0.273 N 
HETATM    9  O2  UNL     1      36.439  -9.931  68.033  1.00  0.00    -0.246 OA
HETATM   10  C1  UNL     1      38.567  -7.241  68.103  1.00  0.00     0.289 A 
ATOM     11  H1  UNL     1      38.711  -9.232  68.629  1.00  0.00     0.173 HD
HETATM   12  O1  UNL     1      39.747  -6.934  68.426  1.00  0.00    -0.265 OA
HETATM   13  C9  UNL     1      37.742  -6.247  67.588  1.00  0.00     0.199 A 
HETATM   14  C8  UNL     1      36.429  -6.560  67.221  1.00  0.00     0.146 A 
HETATM   15  F1  UNL     1      38.221  -4.983  67.445  1.00  0.00    -0.199 F 
ENDBRANCH   1   6
BRANCH   3  16
HETATM   16  O3  UNL     1      31.926  -9.454  67.518  1.00  0.00    -0.393 OA
ATOM     17  H3  UNL     1      31.060  -9.520  67.902  1.00  0.00     0.210 HD
ENDBRANCH   3  16
BRANCH   4  18
HETATM   18  C7  UNL     1      32.162  -5.939  67.016  1.00  0.00     0.217 C 
BRANCH  18  19
HETATM   19  O4  UNL     1      31.022  -6.059  67.804  1.00  0.00    -0.280 OA
BRANCH  19  20
HETATM   20  P1  UNL     1      31.018  -5.041  69.121  1.00  0.00     0.422 P 
HETATM   21  O5  UNL     1      29.698  -4.280  69.118  1.00  0.00    -0.617 OA
HETATM   22  O6  UNL     1      32.257  -3.916  69.114  1.00  0.00    -0.617 OA
HETATM   23  O7  UNL     1      31.074  -5.882  70.597  1.00  0.00    -0.617 OA
ENDBRANCH  19  20
ENDBRANCH  18  19
ENDBRANCH   4  18
TORSDOF 5
ENDMDL
