MODEL 15
REMARK VINA RESULT: -6.522298969      3.013      4.502
REMARK  5 active torsions:
REMARK  status: ('A' for Active; 'I' for Inactive)
REMARK    1  A    between atoms: N2_7  and  C3_8 
REMARK    2  A    between atoms: C5_10  and  O3_11 
REMARK    3  A    between atoms: C6_13  and  C7_14 
REMARK    4  A    between atoms: C7_14  and  O4_15 
REMARK    5  A    between atoms: O4_15  and  P1_16 
ROOT
HETATM    1  C3  UNL     1      34.446  -8.192  66.770  1.00  0.00     0.235 C 
HETATM    2  C4  UNL     1      33.931  -8.734  68.092  1.00  0.00     0.088 C 
HETATM    3  C5  UNL     1      32.519  -8.189  68.102  1.00  0.00     0.153 C 
HETATM    4  C6  UNL     1      32.637  -6.966  67.252  1.00  0.00     0.177 C 
HETATM    5  O8  UNL     1      33.866  -6.959  66.648  1.00  0.00    -0.356 OA
ENDROOT
BRANCH   1   6
HETATM    6  N2  UNL     1      35.889  -8.144  66.854  1.00  0.00    -0.279 N 
HETATM    7  C2  UNL     1      36.603  -8.322  65.739  1.00  0.00     0.331 A 
HETATM    8  N1  UNL     1      37.951  -8.296  65.710  1.00  0.00    -0.273 N 
HETATM    9  O2  UNL     1      36.020  -8.524  64.649  1.00  0.00    -0.246 OA
HETATM   10  C1  UNL     1      38.599  -8.080  66.867  1.00  0.00     0.289 A 
ATOM     11  H1  UNL     1      38.461  -8.435  64.839  1.00  0.00     0.173 HD
HETATM   12  O1  UNL     1      39.859  -8.044  66.909  1.00  0.00    -0.265 OA
HETATM   13  C9  UNL     1      37.892  -7.892  68.050  1.00  0.00     0.199 A 
HETATM   14  C8  UNL     1      36.495  -7.927  68.032  1.00  0.00     0.146 A 
HETATM   15  F1  UNL     1      38.568  -7.675  69.210  1.00  0.00    -0.199 F 
ENDBRANCH   1   6
BRANCH   3  16
HETATM   16  O3  UNL     1      31.658  -9.143  67.572  1.00  0.00    -0.393 OA
ATOM     17  H3  UNL     1      31.186  -9.564  68.280  1.00  0.00     0.210 HD
ENDBRANCH   3  16
BRANCH   4  18
HETATM   18  C7  UNL     1      32.549  -5.746  68.146  1.00  0.00     0.217 C 
BRANCH  18  19
HETATM   19  O4  UNL     1      31.302  -5.154  67.972  1.00  0.00    -0.280 OA
BRANCH  19  20
HETATM   20  P1  UNL     1      30.520  -4.825  69.405  1.00  0.00     0.422 P 
HETATM   21  O5  UNL     1      29.030  -5.052  69.184  1.00  0.00    -0.617 OA
HETATM   22  O6  UNL     1      30.725  -3.256  69.946  1.00  0.00    -0.617 OA
HETATM   23  O7  UNL     1      30.977  -5.881  70.655  1.00  0.00    -0.617 OA
ENDBRANCH  19  20
ENDBRANCH  18  19
ENDBRANCH   4  18
TORSDOF 5
ENDMDL
