MODEL 4
REMARK VINA RESULT: -6.791694945      3.142      6.230
REMARK  5 active torsions:
REMARK  status: ('A' for Active; 'I' for Inactive)
REMARK    1  A    between atoms: N2_7  and  C3_8 
REMARK    2  A    between atoms: C5_10  and  O3_11 
REMARK    3  A    between atoms: C6_13  and  C7_14 
REMARK    4  A    between atoms: C7_14  and  O4_15 
REMARK    5  A    between atoms: O4_15  and  P1_16 
ROOT
HETATM    1  C3  UNL     1      37.882  -8.163  67.715  1.00  0.00     0.235 C 
HETATM    2  C4  UNL     1      38.098  -8.245  66.215  1.00  0.00     0.088 C 
HETATM    3  C5  UNL     1      39.500  -7.690  66.089  1.00  0.00     0.153 C 
HETATM    4  C6  UNL     1      39.606  -6.802  67.287  1.00  0.00     0.177 C 
HETATM    5  O8  UNL     1      38.525  -7.018  68.099  1.00  0.00    -0.356 OA
ENDROOT
BRANCH   1   6
HETATM    6  N2  UNL     1      36.454  -8.127  67.946  1.00  0.00    -0.279 N 
HETATM    7  C2  UNL     1      35.910  -9.052  68.740  1.00  0.00     0.331 A 
HETATM    8  N1  UNL     1      34.591  -9.106  69.019  1.00  0.00    -0.273 N 
HETATM    9  O2  UNL     1      36.633  -9.927  69.269  1.00  0.00    -0.246 OA
HETATM   10  C1  UNL     1      33.794  -8.178  68.464  1.00  0.00     0.289 A 
ATOM     11  H1  UNL     1      34.212  -9.828  69.631  1.00  0.00     0.173 HD
HETATM   12  O1  UNL     1      32.552  -8.173  68.683  1.00  0.00    -0.265 OA
HETATM   13  C9  UNL     1      34.322  -7.199  67.630  1.00  0.00     0.199 A 
HETATM   14  C8  UNL     1      35.696  -7.181  67.369  1.00  0.00     0.146 A 
HETATM   15  F1  UNL     1      33.498  -6.269  67.078  1.00  0.00    -0.199 F 
ENDBRANCH   1   6
BRANCH   3  16
HETATM   16  O3  UNL     1      40.410  -8.740  66.105  1.00  0.00    -0.393 OA
ATOM     17  H3  UNL     1      41.010  -8.644  65.375  1.00  0.00     0.210 HD
ENDBRANCH   3  16
BRANCH   4  18
HETATM   18  C7  UNL     1      39.563  -5.360  66.825  1.00  0.00     0.217 C 
BRANCH  18  19
HETATM   19  O4  UNL     1      38.520  -4.713  67.481  1.00  0.00    -0.280 OA
BRANCH  19  20
HETATM   20  P1  UNL     1      39.034  -3.647  68.651  1.00  0.00     0.422 P 
HETATM   21  O5  UNL     1      40.517  -3.385  68.423  1.00  0.00    -0.617 OA
HETATM   22  O6  UNL     1      38.848  -4.212  70.215  1.00  0.00    -0.617 OA
HETATM   23  O7  UNL     1      38.266  -2.135  68.539  1.00  0.00    -0.617 OA
ENDBRANCH  19  20
ENDBRANCH  18  19
ENDBRANCH   4  18
TORSDOF 5
ENDMDL
