MODEL 7
REMARK VINA RESULT: -6.639933589      3.718      5.904
REMARK  5 active torsions:
REMARK  status: ('A' for Active; 'I' for Inactive)
REMARK    1  A    between atoms: N2_7  and  C3_8 
REMARK    2  A    between atoms: C5_10  and  O3_11 
REMARK    3  A    between atoms: C6_13  and  C7_14 
REMARK    4  A    between atoms: C7_14  and  O4_15 
REMARK    5  A    between atoms: O4_15  and  P1_16 
ROOT
HETATM    1  C3  UNL     1      38.567  -6.008  65.787  1.00  0.00     0.235 C 
HETATM    2  C4  UNL     1      37.519  -5.502  64.812  1.00  0.00     0.088 C 
HETATM    3  C5  UNL     1      38.103  -4.161  64.425  1.00  0.00     0.153 C 
HETATM    4  C6  UNL     1      38.923  -3.806  65.622  1.00  0.00     0.177 C 
HETATM    5  O8  UNL     1      38.995  -4.892  66.453  1.00  0.00    -0.356 OA
ENDROOT
BRANCH   1   6
HETATM    6  N2  UNL     1      37.925  -6.980  66.645  1.00  0.00    -0.279 N 
HETATM    7  C2  UNL     1      38.658  -7.980  67.142  1.00  0.00     0.331 A 
HETATM    8  N1  UNL     1      38.157  -8.936  67.950  1.00  0.00    -0.273 N 
HETATM    9  O2  UNL     1      39.876  -8.062  66.862  1.00  0.00    -0.246 OA
HETATM   10  C1  UNL     1      36.852  -8.871  68.265  1.00  0.00     0.289 A 
ATOM     11  H1  UNL     1      38.748  -9.685  68.310  1.00  0.00     0.173 HD
HETATM   12  O1  UNL     1      36.321  -9.734  69.016  1.00  0.00    -0.265 OA
HETATM   13  C9  UNL     1      36.055  -7.846  67.768  1.00  0.00     0.199 A 
HETATM   14  C8  UNL     1      36.618  -6.876  66.933  1.00  0.00     0.146 A 
HETATM   15  F1  UNL     1      34.737  -7.798  68.099  1.00  0.00    -0.199 F 
ENDBRANCH   1   6
BRANCH   3  16
HETATM   16  O3  UNL     1      38.860  -4.310  63.268  1.00  0.00    -0.393 OA
ATOM     17  H3  UNL     1      39.728  -3.952  63.415  1.00  0.00     0.210 HD
ENDBRANCH   3  16
BRANCH   4  18
HETATM   18  C7  UNL     1      38.225  -2.690  66.372  1.00  0.00     0.217 C 
BRANCH  18  19
HETATM   19  O4  UNL     1      38.663  -2.699  67.693  1.00  0.00    -0.280 OA
BRANCH  19  20
HETATM   20  P1  UNL     1      37.460  -2.354  68.791  1.00  0.00     0.422 P 
HETATM   21  O5  UNL     1      37.894  -2.900  70.145  1.00  0.00    -0.617 OA
HETATM   22  O6  UNL     1      35.979  -3.037  68.415  1.00  0.00    -0.617 OA
HETATM   23  O7  UNL     1      37.233  -0.684  69.007  1.00  0.00    -0.617 OA
ENDBRANCH  19  20
ENDBRANCH  18  19
ENDBRANCH   4  18
TORSDOF 5
ENDMDL
