MODEL 20
REMARK VINA RESULT: -5.508148802      3.161      4.675
REMARK  10 active torsions:
REMARK  status: ('A' for Active; 'I' for Inactive)
REMARK    1  A    between atoms: N1_2  and  C4_5 
REMARK    2  A    between atoms: C4_5  and  C5_6 
REMARK    3  A    between atoms: C5_6  and  O1_7 
REMARK    4  A    between atoms: O1_7  and  P1_8 
REMARK    5  A    between atoms: P1_8  and  O4_11 
REMARK    6  A    between atoms: O4_11  and  C6_12 
REMARK    7  A    between atoms: C6_12  and  C7_13 
REMARK    8  A    between atoms: C7_13  and  O5_14 
REMARK    9  A    between atoms: C7_13  and  C8_16 
REMARK   10  A    between atoms: C8_16  and  O6_17 
ROOT
HETATM    1  P1  UNL     1      -5.560  36.382 -24.029  1.00  0.00     0.408 P 
HETATM    2  O2  UNL     1      -5.543  36.642 -22.542  1.00  0.00    -0.624 OA
HETATM    3  O3  UNL     1      -4.446  35.199 -24.421  1.00  0.00    -0.624 OA
ENDROOT
BRANCH   1   4
HETATM    4  O1  UNL     1      -5.516  37.690 -24.969  1.00  0.00    -0.288 OA
BRANCH   4   5
HETATM    5  C5  UNL     1      -6.467  38.661 -24.734  1.00  0.00     0.209 C 
BRANCH   5   6
HETATM    6  C4  UNL     1      -7.253  38.584 -26.039  1.00  0.00     0.262 C 
BRANCH   6   7
HETATM    7  N1  UNL     1      -8.645  38.576 -25.924  1.00  0.00    -0.077 N 
HETATM    8  C1  UNL     1      -9.372  37.496 -26.486  1.00  0.00     0.271 C 
HETATM    9  C2  UNL     1      -9.115  39.833 -26.534  1.00  0.00     0.271 C 
HETATM   10  C3  UNL     1      -9.012  38.667 -24.490  1.00  0.00     0.271 C 
ENDBRANCH   6   7
ENDBRANCH   5   6
ENDBRANCH   4   5
ENDBRANCH   1   4
BRANCH   1  11
HETATM   11  O4  UNL     1      -7.098  35.570 -24.339  1.00  0.00    -0.287 OA
BRANCH  11  12
HETATM   12  C6  UNL     1      -6.964  34.849 -25.487  1.00  0.00     0.215 C 
BRANCH  12  13
HETATM   13  C7  UNL     1      -8.002  33.740 -25.510  1.00  0.00     0.166 C 
BRANCH  13  14
HETATM   14  O5  UNL     1      -7.324  32.529 -25.434  1.00  0.00    -0.391 OA
ATOM     15  H5  UNL     1      -6.962  32.348 -26.293  1.00  0.00     0.210 HD
ENDBRANCH  13  14
BRANCH  13  16
HETATM   16  C8  UNL     1      -8.733  33.802 -26.850  1.00  0.00     0.198 C 
BRANCH  16  17
HETATM   17  O6  UNL     1      -8.926  32.528 -27.385  1.00  0.00    -0.398 OA
ATOM     18  H6  UNL     1      -9.639  32.073 -26.953  1.00  0.00     0.209 HD
ENDBRANCH  16  17
ENDBRANCH  13  16
ENDBRANCH  12  13
ENDBRANCH  11  12
ENDBRANCH   1  11
TORSDOF 10
ENDMDL
