MODEL 7
REMARK VINA RESULT: -6.087644627      1.073      1.455
REMARK  10 active torsions:
REMARK  status: ('A' for Active; 'I' for Inactive)
REMARK    1  A    between atoms: N1_2  and  C4_5 
REMARK    2  A    between atoms: C4_5  and  C5_6 
REMARK    3  A    between atoms: C5_6  and  O1_7 
REMARK    4  A    between atoms: O1_7  and  P1_8 
REMARK    5  A    between atoms: P1_8  and  O4_11 
REMARK    6  A    between atoms: O4_11  and  C6_12 
REMARK    7  A    between atoms: C6_12  and  C7_13 
REMARK    8  A    between atoms: C7_13  and  O5_14 
REMARK    9  A    between atoms: C7_13  and  C8_16 
REMARK   10  A    between atoms: C8_16  and  O6_17 
ROOT
HETATM    1  P1  UNL     1     -11.920  36.126 -27.018  1.00  0.00     0.408 P 
HETATM    2  O2  UNL     1     -12.492  35.033 -27.887  1.00  0.00    -0.624 OA
HETATM    3  O3  UNL     1     -12.808  36.266 -25.609  1.00  0.00    -0.624 OA
ENDROOT
BRANCH   1   4
HETATM    4  O1  UNL     1     -11.607  37.521 -27.761  1.00  0.00    -0.288 OA
BRANCH   4   5
HETATM    5  C5  UNL     1     -10.482  38.208 -27.353  1.00  0.00     0.209 C 
BRANCH   5   6
HETATM    6  C4  UNL     1     -11.126  39.268 -26.466  1.00  0.00     0.262 C 
BRANCH   6   7
HETATM    7  N1  UNL     1     -10.521  39.488 -25.226  1.00  0.00    -0.077 N 
HETATM    8  C1  UNL     1     -11.303  39.358 -24.051  1.00  0.00     0.271 C 
HETATM    9  C2  UNL     1      -9.965  40.854 -25.277  1.00  0.00     0.271 C 
HETATM   10  C3  UNL     1      -9.352  38.587 -25.091  1.00  0.00     0.271 C 
ENDBRANCH   6   7
ENDBRANCH   5   6
ENDBRANCH   4   5
ENDBRANCH   1   4
BRANCH   1  11
HETATM   11  O4  UNL     1     -10.379  35.491 -26.431  1.00  0.00    -0.287 OA
BRANCH  11  12
HETATM   12  C6  UNL     1     -10.012  34.467 -27.251  1.00  0.00     0.215 C 
BRANCH  12  13
HETATM   13  C7  UNL     1      -9.486  33.314 -26.413  1.00  0.00     0.166 C 
BRANCH  13  14
HETATM   14  O5  UNL     1     -10.407  33.081 -25.397  1.00  0.00    -0.391 OA
ATOM     15  H5  UNL     1     -10.210  32.231 -25.021  1.00  0.00     0.210 HD
ENDBRANCH  13  14
BRANCH  13  16
HETATM   16  C8  UNL     1      -8.167  33.751 -25.779  1.00  0.00     0.198 C 
BRANCH  16  17
HETATM   17  O6  UNL     1      -7.372  32.653 -25.449  1.00  0.00    -0.398 OA
ATOM     18  H6  UNL     1      -7.560  32.339 -24.572  1.00  0.00     0.209 HD
ENDBRANCH  16  17
ENDBRANCH  13  16
ENDBRANCH  12  13
ENDBRANCH  11  12
ENDBRANCH   1  11
TORSDOF 10
ENDMDL
