MODEL 6
REMARK VINA RESULT: -6.147478028      1.156      1.543
REMARK  10 active torsions:
REMARK  status: ('A' for Active; 'I' for Inactive)
REMARK    1  A    between atoms: N1_2  and  C4_5 
REMARK    2  A    between atoms: C4_5  and  C5_6 
REMARK    3  A    between atoms: C5_6  and  O1_7 
REMARK    4  A    between atoms: O1_7  and  P1_8 
REMARK    5  A    between atoms: P1_8  and  O4_11 
REMARK    6  A    between atoms: O4_11  and  C6_12 
REMARK    7  A    between atoms: C6_12  and  C7_13 
REMARK    8  A    between atoms: C7_13  and  O5_14 
REMARK    9  A    between atoms: C7_13  and  C8_16 
REMARK   10  A    between atoms: C8_16  and  O6_17 
ROOT
HETATM    1  P1  UNL     1     -12.192  36.462 -26.844  1.00  0.00     0.408 P 
HETATM    2  O2  UNL     1     -12.776  35.869 -28.103  1.00  0.00    -0.624 OA
HETATM    3  O3  UNL     1     -13.035  35.920 -25.507  1.00  0.00    -0.624 OA
ENDROOT
BRANCH   1   4
HETATM    4  O1  UNL     1     -11.923  38.050 -26.876  1.00  0.00    -0.288 OA
BRANCH   4   5
HETATM    5  C5  UNL     1     -10.699  38.486 -26.412  1.00  0.00     0.209 C 
BRANCH   5   6
HETATM    6  C4  UNL     1     -11.066  38.822 -24.972  1.00  0.00     0.262 C 
BRANCH   6   7
HETATM    7  N1  UNL     1     -10.115  39.540 -24.242  1.00  0.00    -0.077 N 
HETATM    8  C1  UNL     1      -9.823  40.874 -24.624  1.00  0.00     0.271 C 
HETATM    9  C2  UNL     1      -8.872  38.748 -24.294  1.00  0.00     0.271 C 
HETATM   10  C3  UNL     1     -10.515  39.559 -22.814  1.00  0.00     0.271 C 
ENDBRANCH   6   7
ENDBRANCH   5   6
ENDBRANCH   4   5
ENDBRANCH   1   4
BRANCH   1  11
HETATM   11  O4  UNL     1     -10.624  35.672 -26.647  1.00  0.00    -0.287 OA
BRANCH  11  12
HETATM   12  C6  UNL     1     -10.394  34.918 -27.760  1.00  0.00     0.215 C 
BRANCH  12  13
HETATM   13  C7  UNL     1      -9.655  33.651 -27.366  1.00  0.00     0.166 C 
BRANCH  13  14
HETATM   14  O5  UNL     1     -10.478  32.573 -27.672  1.00  0.00    -0.391 OA
ATOM     15  H5  UNL     1     -10.232  32.260 -28.535  1.00  0.00     0.210 HD
ENDBRANCH  13  14
BRANCH  13  16
HETATM   16  C8  UNL     1      -9.436  33.678 -25.855  1.00  0.00     0.198 C 
BRANCH  16  17
HETATM   17  O6  UNL     1     -10.452  33.000 -25.180  1.00  0.00    -0.398 OA
ATOM     18  H6  UNL     1     -10.858  33.550 -24.520  1.00  0.00     0.209 HD
ENDBRANCH  16  17
ENDBRANCH  13  16
ENDBRANCH  12  13
ENDBRANCH  11  12
ENDBRANCH   1  11
TORSDOF 10
ENDMDL
