MODEL 3
REMARK VINA RESULT: -5.675029580      2.008      2.703
REMARK  6 active torsions:
REMARK  status: ('A' for Active; 'I' for Inactive)
REMARK    1  A    between atoms: C2_2  and  O1_3 
REMARK    2  A    between atoms: O1_3  and  P1_4 
REMARK    3  A    between atoms: P1_4  and  C3_7 
REMARK    4  A    between atoms: C3_7  and  C4_9 
REMARK    5  A    between atoms: C4_9  and  C5_10 
REMARK    6  A    between atoms: C5_10  and  C6_11 
ROOT
HETATM    1  C3  UNL     1      -3.061  18.526 -43.184  1.00  0.00     0.243 C 
HETATM    2  O4  UNL     1      -4.040  18.597 -42.491  1.00  0.00    -0.284 OA
ENDROOT
BRANCH   1   3
HETATM    3  P1  UNL     1      -3.226  18.761 -44.935  1.00  0.00     0.321 P 
HETATM    4  O2  UNL     1      -3.117  20.217 -45.327  1.00  0.00    -0.641 OA
HETATM    5  O3  UNL     1      -4.805  18.257 -45.360  1.00  0.00    -0.641 OA
BRANCH   3   6
HETATM    6  O1  UNL     1      -2.079  17.817 -45.749  1.00  0.00    -0.307 OA
BRANCH   6   7
HETATM    7  C2  UNL     1      -2.608  16.534 -45.851  1.00  0.00     0.175 C 
HETATM    8  C1  UNL     1      -1.808  15.521 -45.053  1.00  0.00     0.034 C 
ENDBRANCH   6   7
ENDBRANCH   3   6
ENDBRANCH   1   3
BRANCH   1   9
HETATM    9  C4  UNL     1      -1.747  18.246 -42.588  1.00  0.00     0.103 C 
BRANCH   9  10
HETATM   10  C5  UNL     1      -1.890  18.221 -41.084  1.00  0.00     0.121 C 
BRANCH  10  11
HETATM   11  C6  UNL     1      -1.314  19.478 -40.548  1.00  0.00     0.172 C 
HETATM   12  O5  UNL     1      -0.192  19.522 -40.030  1.00  0.00    -0.648 OA
HETATM   13  O6  UNL     1      -2.029  20.689 -40.606  1.00  0.00    -0.648 OA
ENDBRANCH  10  11
ENDBRANCH   9  10
ENDBRANCH   1   9
TORSDOF 6
ENDMDL
