MODEL 1
REMARK VINA RESULT: -5.755215902      0.000      0.000
REMARK  6 active torsions:
REMARK  status: ('A' for Active; 'I' for Inactive)
REMARK    1  A    between atoms: C2_2  and  O1_3 
REMARK    2  A    between atoms: O1_3  and  P1_4 
REMARK    3  A    between atoms: P1_4  and  C3_7 
REMARK    4  A    between atoms: C3_7  and  C4_9 
REMARK    5  A    between atoms: C4_9  and  C5_10 
REMARK    6  A    between atoms: C5_10  and  C6_11 
ROOT
HETATM    1  C3  UNL     1      -4.792  17.813 -42.998  1.00  0.00     0.243 C 
HETATM    2  O4  UNL     1      -5.928  18.088 -42.717  1.00  0.00    -0.284 OA
ENDROOT
BRANCH   1   3
HETATM    3  P1  UNL     1      -4.202  18.156 -44.635  1.00  0.00     0.321 P 
HETATM    4  O2  UNL     1      -5.284  17.987 -45.678  1.00  0.00    -0.641 OA
HETATM    5  O3  UNL     1      -2.999  16.992 -44.987  1.00  0.00    -0.641 OA
BRANCH   3   6
HETATM    6  O1  UNL     1      -3.535  19.712 -44.689  1.00  0.00    -0.307 OA
BRANCH   6   7
HETATM    7  C2  UNL     1      -2.339  19.616 -45.395  1.00  0.00     0.175 C 
HETATM    8  C1  UNL     1      -2.000  20.904 -46.121  1.00  0.00     0.034 C 
ENDBRANCH   6   7
ENDBRANCH   3   6
ENDBRANCH   1   3
BRANCH   1   9
HETATM    9  C4  UNL     1      -3.907  17.199 -41.998  1.00  0.00     0.103 C 
BRANCH   9  10
HETATM   10  C5  UNL     1      -3.737  18.159 -40.843  1.00  0.00     0.121 C 
BRANCH  10  11
HETATM   11  C6  UNL     1      -2.611  19.068 -41.165  1.00  0.00     0.172 C 
HETATM   12  O5  UNL     1      -2.546  20.221 -40.722  1.00  0.00    -0.648 OA
HETATM   13  O6  UNL     1      -1.556  18.654 -41.999  1.00  0.00    -0.648 OA
ENDBRANCH  10  11
ENDBRANCH   9  10
ENDBRANCH   1   9
TORSDOF 6
ENDMDL
