MODEL 1
REMARK VINA RESULT: -5.431842867      0.000      0.000
REMARK  14 active torsions:
REMARK  status: ('A' for Active; 'I' for Inactive)
REMARK    1  A    between atoms: N1_2  and  C3_4 
REMARK    2  A    between atoms: C8_9  and  S1_10 
REMARK    3  A    between atoms: S1_10  and  N2_13 
REMARK    4  A    between atoms: N2_13  and  C9_15 
REMARK    5  A    between atoms: C9_15  and  C10_16 
REMARK    6  A    between atoms: C10_16  and  C11_17 
REMARK    7  A    between atoms: C11_17  and  C12_18 
REMARK    8  A    between atoms: C12_18  and  C13_19 
REMARK    9  A    between atoms: C13_19  and  C14_20 
REMARK   10  A    between atoms: C14_20  and  C15_21 
REMARK   11  A    between atoms: C15_21  and  C16_22 
REMARK   12  A    between atoms: C16_22  and  C17_23 
REMARK   13  A    between atoms: C17_23  and  C18_24 
REMARK   14  A    between atoms: C18_24  and  C19_25 
ROOT
HETATM    1  S1  UNL     1      -0.112  -8.126  39.761  1.00  0.00     0.259 S 
HETATM    2  O1  UNL     1       0.802  -6.936  40.019  1.00  0.00    -0.201 OA
HETATM    3  O2  UNL     1       0.649  -9.330  40.259  1.00  0.00    -0.201 OA
ENDROOT
BRANCH   1   4
HETATM    4  C8  UNL     1      -1.550  -7.882  40.708  1.00  0.00     0.090 A 
HETATM    5  C7  UNL     1      -1.441  -7.682  42.068  1.00  0.00    -0.000 A 
HETATM    6  C6  UNL     1      -0.223  -7.585  42.722  1.00  0.00     0.014 A 
HETATM    7  C23 UNL     1      -2.576  -7.543  42.867  1.00  0.00     0.002 A 
HETATM    8  C5  UNL     1      -0.136  -7.370  44.064  1.00  0.00     0.003 A 
HETATM    9  C4  UNL     1      -1.283  -7.239  44.817  1.00  0.00     0.030 A 
HETATM   10  C3  UNL     1      -2.529  -7.326  44.215  1.00  0.00     0.040 A 
HETATM   11  C22 UNL     1      -3.814  -7.608  42.256  1.00  0.00     0.014 A 
HETATM   12  C21 UNL     1      -3.927  -7.805  40.899  1.00  0.00     0.003 A 
HETATM   13  C20 UNL     1      -2.816  -7.945  40.109  1.00  0.00     0.026 A 
BRANCH  10  14
HETATM   14  N1  UNL     1      -3.688  -7.203  45.017  1.00  0.00    -0.389 N 
HETATM   15  C1  UNL     1      -4.275  -8.373  45.601  1.00  0.00     0.149 C 
HETATM   16  C2  UNL     1      -4.286  -5.877  45.248  1.00  0.00     0.149 C 
ENDBRANCH  10  14
ENDBRANCH   1   4
BRANCH   1  17
HETATM   17  N2  UNL     1      -0.477  -8.235  38.107  1.00  0.00    -0.315 N 
ATOM     18  H2  UNL     1      -0.812  -9.088  37.659  1.00  0.00     0.172 HD
BRANCH  17  19
HETATM   19  C9  UNL     1      -0.264  -7.005  37.408  1.00  0.00     0.132 C 
BRANCH  19  20
HETATM   20  C10 UNL     1      -0.396  -7.087  35.933  1.00  0.00     0.020 C 
BRANCH  20  21
HETATM   21  C11 UNL     1       0.864  -7.162  35.135  1.00  0.00     0.002 C 
BRANCH  21  22
HETATM   22  C12 UNL     1       0.757  -8.143  34.025  1.00  0.00     0.000 C 
BRANCH  22  23
HETATM   23  C13 UNL     1       1.765  -7.815  32.902  1.00  0.00     0.000 C 
BRANCH  23  24
HETATM   24  C14 UNL     1       0.927  -7.296  31.755  1.00  0.00     0.000 C 
BRANCH  24  25
HETATM   25  C15 UNL     1      -0.477  -7.858  31.757  1.00  0.00     0.000 C 
BRANCH  25  26
HETATM   26  C16 UNL     1      -0.918  -8.243  30.367  1.00  0.00     0.001 C 
BRANCH  26  27
HETATM   27  C17 UNL     1      -1.718  -9.509  30.337  1.00  0.00     0.010 C 
BRANCH  27  28
HETATM   28  C18 UNL     1      -2.897  -9.468  29.434  1.00  0.00     0.113 C 
BRANCH  28  29
HETATM   29  C19 UNL     1      -4.110  -9.831  30.202  1.00  0.00     0.172 C 
HETATM   30  O3  UNL     1      -5.272  -9.474  29.844  1.00  0.00    -0.648 OA
HETATM   31  O4  UNL     1      -3.989 -10.590  31.354  1.00  0.00    -0.648 OA
ENDBRANCH  28  29
ENDBRANCH  27  28
ENDBRANCH  26  27
ENDBRANCH  25  26
ENDBRANCH  24  25
ENDBRANCH  23  24
ENDBRANCH  22  23
ENDBRANCH  21  22
ENDBRANCH  20  21
ENDBRANCH  19  20
ENDBRANCH  17  19
ENDBRANCH   1  17
TORSDOF 14
ENDMDL
