MODEL 3
REMARK VINA RESULT: -5.386941925      4.587      6.129
REMARK  14 active torsions:
REMARK  status: ('A' for Active; 'I' for Inactive)
REMARK    1  A    between atoms: N1_2  and  C3_4 
REMARK    2  A    between atoms: C8_9  and  S1_10 
REMARK    3  A    between atoms: S1_10  and  N2_13 
REMARK    4  A    between atoms: N2_13  and  C9_15 
REMARK    5  A    between atoms: C9_15  and  C10_16 
REMARK    6  A    between atoms: C10_16  and  C11_17 
REMARK    7  A    between atoms: C11_17  and  C12_18 
REMARK    8  A    between atoms: C12_18  and  C13_19 
REMARK    9  A    between atoms: C13_19  and  C14_20 
REMARK   10  A    between atoms: C14_20  and  C15_21 
REMARK   11  A    between atoms: C15_21  and  C16_22 
REMARK   12  A    between atoms: C16_22  and  C17_23 
REMARK   13  A    between atoms: C17_23  and  C18_24 
REMARK   14  A    between atoms: C18_24  and  C19_25 
ROOT
HETATM    1  S1  UNL     1       3.240  -5.948  37.752  1.00  0.00     0.259 S 
HETATM    2  O1  UNL     1       3.282  -4.660  38.562  1.00  0.00    -0.201 OA
HETATM    3  O2  UNL     1       3.730  -7.025  38.687  1.00  0.00    -0.201 OA
ENDROOT
BRANCH   1   4
HETATM    4  C8  UNL     1       1.578  -6.228  37.321  1.00  0.00     0.090 A 
HETATM    5  C7  UNL     1       1.032  -5.550  36.251  1.00  0.00    -0.000 A 
HETATM    6  C6  UNL     1       1.767  -4.702  35.439  1.00  0.00     0.014 A 
HETATM    7  C23 UNL     1      -0.313  -5.706  35.915  1.00  0.00     0.002 A 
HETATM    8  C5  UNL     1       1.212  -4.055  34.377  1.00  0.00     0.003 A 
HETATM    9  C4  UNL     1      -0.121  -4.236  34.079  1.00  0.00     0.030 A 
HETATM   10  C3  UNL     1      -0.905  -5.074  34.858  1.00  0.00     0.040 A 
HETATM   11  C22 UNL     1      -1.082  -6.561  36.682  1.00  0.00     0.014 A 
HETATM   12  C21 UNL     1      -0.539  -7.239  37.748  1.00  0.00     0.003 A 
HETATM   13  C20 UNL     1       0.780  -7.090  38.085  1.00  0.00     0.026 A 
BRANCH  10  14
HETATM   14  N1  UNL     1      -2.274  -5.227  34.536  1.00  0.00    -0.389 N 
HETATM   15  C1  UNL     1      -2.654  -6.028  33.410  1.00  0.00     0.149 C 
HETATM   16  C2  UNL     1      -3.302  -4.565  35.358  1.00  0.00     0.149 C 
ENDBRANCH  10  14
ENDBRANCH   1   4
BRANCH   1  17
HETATM   17  N2  UNL     1       4.216  -5.802  36.371  1.00  0.00    -0.315 N 
ATOM     18  H2  UNL     1       4.446  -4.909  35.934  1.00  0.00     0.172 HD
BRANCH  17  19
HETATM   19  C9  UNL     1       4.683  -7.065  35.884  1.00  0.00     0.132 C 
BRANCH  19  20
HETATM   20  C10 UNL     1       3.836  -7.689  34.839  1.00  0.00     0.020 C 
BRANCH  20  21
HETATM   21  C11 UNL     1       3.885  -7.094  33.471  1.00  0.00     0.002 C 
BRANCH  21  22
HETATM   22  C12 UNL     1       2.677  -7.433  32.677  1.00  0.00     0.000 C 
BRANCH  22  23
HETATM   23  C13 UNL     1       1.567  -8.010  33.581  1.00  0.00     0.000 C 
BRANCH  23  24
HETATM   24  C14 UNL     1       0.294  -7.890  32.773  1.00  0.00     0.000 C 
BRANCH  24  25
HETATM   25  C15 UNL     1       0.535  -7.348  31.382  1.00  0.00     0.000 C 
BRANCH  25  26
HETATM   26  C16 UNL     1      -0.550  -7.781  30.427  1.00  0.00     0.001 C 
BRANCH  26  27
HETATM   27  C17 UNL     1      -1.470  -8.806  31.013  1.00  0.00     0.010 C 
BRANCH  27  28
HETATM   28  C18 UNL     1      -1.836  -9.905  30.082  1.00  0.00     0.113 C 
BRANCH  28  29
HETATM   29  C19 UNL     1      -3.178 -10.417  30.438  1.00  0.00     0.172 C 
HETATM   30  O3  UNL     1      -4.238  -9.976  29.901  1.00  0.00    -0.648 OA
HETATM   31  O4  UNL     1      -3.300 -11.416  31.391  1.00  0.00    -0.648 OA
ENDBRANCH  28  29
ENDBRANCH  27  28
ENDBRANCH  26  27
ENDBRANCH  25  26
ENDBRANCH  24  25
ENDBRANCH  23  24
ENDBRANCH  22  23
ENDBRANCH  21  22
ENDBRANCH  20  21
ENDBRANCH  19  20
ENDBRANCH  17  19
ENDBRANCH   1  17
TORSDOF 14
ENDMDL
