MODEL 4
REMARK VINA RESULT: -5.337979717      7.177      9.679
REMARK  14 active torsions:
REMARK  status: ('A' for Active; 'I' for Inactive)
REMARK    1  A    between atoms: N1_2  and  C3_4 
REMARK    2  A    between atoms: C8_9  and  S1_10 
REMARK    3  A    between atoms: S1_10  and  N2_13 
REMARK    4  A    between atoms: N2_13  and  C9_15 
REMARK    5  A    between atoms: C9_15  and  C10_16 
REMARK    6  A    between atoms: C10_16  and  C11_17 
REMARK    7  A    between atoms: C11_17  and  C12_18 
REMARK    8  A    between atoms: C12_18  and  C13_19 
REMARK    9  A    between atoms: C13_19  and  C14_20 
REMARK   10  A    between atoms: C14_20  and  C15_21 
REMARK   11  A    between atoms: C15_21  and  C16_22 
REMARK   12  A    between atoms: C16_22  and  C17_23 
REMARK   13  A    between atoms: C17_23  and  C18_24 
REMARK   14  A    between atoms: C18_24  and  C19_25 
ROOT
HETATM    1  S1  UNL     1      -2.179  -6.072  33.536  1.00  0.00     0.259 S 
HETATM    2  O1  UNL     1      -2.461  -6.790  34.848  1.00  0.00    -0.201 OA
HETATM    3  O2  UNL     1      -2.158  -4.604  33.881  1.00  0.00    -0.201 OA
ENDROOT
BRANCH   1   4
HETATM    4  C8  UNL     1      -0.610  -6.592  32.995  1.00  0.00     0.090 A 
HETATM    5  C7  UNL     1      -0.065  -6.031  31.859  1.00  0.00    -0.000 A 
HETATM    6  C6  UNL     1      -0.674  -5.004  31.157  1.00  0.00     0.014 A 
HETATM    7  C23 UNL     1       1.164  -6.466  31.363  1.00  0.00     0.002 A 
HETATM    8  C5  UNL     1      -0.111  -4.451  30.046  1.00  0.00     0.003 A 
HETATM    9  C4  UNL     1       1.105  -4.912  29.589  1.00  0.00     0.030 A 
HETATM   10  C3  UNL     1       1.760  -5.938  30.253  1.00  0.00     0.040 A 
HETATM   11  C22 UNL     1       1.822  -7.474  32.044  1.00  0.00     0.014 A 
HETATM   12  C21 UNL     1       1.281  -8.033  33.178  1.00  0.00     0.003 A 
HETATM   13  C20 UNL     1       0.074  -7.612  33.670  1.00  0.00     0.026 A 
BRANCH  10  14
HETATM   14  N1  UNL     1       2.999  -6.399  29.750  1.00  0.00    -0.389 N 
HETATM   15  C1  UNL     1       3.022  -7.402  28.726  1.00  0.00     0.149 C 
HETATM   16  C2  UNL     1       4.260  -5.849  30.279  1.00  0.00     0.149 C 
ENDBRANCH  10  14
ENDBRANCH   1   4
BRANCH   1  17
HETATM   17  N2  UNL     1      -3.378  -6.447  32.395  1.00  0.00    -0.315 N 
ATOM     18  H2  UNL     1      -3.414  -7.329  31.883  1.00  0.00     0.172 HD
BRANCH  17  19
HETATM   19  C9  UNL     1      -4.334  -5.395  32.226  1.00  0.00     0.132 C 
BRANCH  19  20
HETATM   20  C10 UNL     1      -4.362  -4.781  30.876  1.00  0.00     0.020 C 
BRANCH  20  21
HETATM   21  C11 UNL     1      -4.132  -5.682  29.708  1.00  0.00     0.002 C 
BRANCH  21  22
HETATM   22  C12 UNL     1      -3.494  -4.965  28.574  1.00  0.00     0.000 C 
BRANCH  22  23
HETATM   23  C13 UNL     1      -2.564  -5.906  27.780  1.00  0.00     0.000 C 
BRANCH  23  24
HETATM   24  C14 UNL     1      -2.405  -7.134  28.648  1.00  0.00     0.000 C 
BRANCH  24  25
HETATM   25  C15 UNL     1      -1.033  -7.758  28.532  1.00  0.00     0.000 C 
BRANCH  25  26
HETATM   26  C16 UNL     1      -0.984  -9.111  29.197  1.00  0.00     0.001 C 
BRANCH  26  27
HETATM   27  C17 UNL     1      -1.788  -9.171  30.459  1.00  0.00     0.010 C 
BRANCH  27  28
HETATM   28  C18 UNL     1      -2.815 -10.245  30.481  1.00  0.00     0.113 C 
BRANCH  28  29
HETATM   29  C19 UNL     1      -4.150  -9.636  30.680  1.00  0.00     0.172 C 
HETATM   30  O3  UNL     1      -4.516  -9.151  31.793  1.00  0.00    -0.648 OA
HETATM   31  O4  UNL     1      -5.044  -9.585  29.623  1.00  0.00    -0.648 OA
ENDBRANCH  28  29
ENDBRANCH  27  28
ENDBRANCH  26  27
ENDBRANCH  25  26
ENDBRANCH  24  25
ENDBRANCH  23  24
ENDBRANCH  22  23
ENDBRANCH  21  22
ENDBRANCH  20  21
ENDBRANCH  19  20
ENDBRANCH  17  19
ENDBRANCH   1  17
TORSDOF 14
ENDMDL
