MODEL 6
REMARK VINA RESULT: -6.545645539      0.695      1.372
REMARK  10 active torsions:
REMARK  status: ('A' for Active; 'I' for Inactive)
REMARK    1  A    between atoms: C2_2  and  C3_3 
REMARK    2  A    between atoms: C3_3  and  C4_4 
REMARK    3  A    between atoms: C4_4  and  C5_5 
REMARK    4  A    between atoms: C5_5  and  N1_6 
REMARK    5  A    between atoms: N1_6  and  C7_8 
REMARK    6  A    between atoms: C7_8  and  C8_9 
REMARK    7  A    between atoms: C8_9  and  C9_10 
REMARK    8  A    between atoms: C9_10  and  O1_11 
REMARK    9  A    between atoms: C9_10  and  P1_13 
REMARK   10  A    between atoms: C9_10  and  P2_17 
ROOT
HETATM    1  C9  UNL     1      92.383  45.328  63.032  1.00  0.00     0.286 C 
ENDROOT
BRANCH   1   2
HETATM    2  C8  UNL     1      91.882  44.525  64.220  1.00  0.00     0.087 C 
BRANCH   2   3
HETATM    3  C7  UNL     1      92.840  44.678  65.380  1.00  0.00     0.125 C 
BRANCH   3   4
HETATM    4  N1  UNL     1      92.158  45.175  66.544  1.00  0.00    -0.397 N 
HETATM    5  C6  UNL     1      91.815  44.241  67.511  1.00  0.00     0.148 C 
BRANCH   4   6
HETATM    6  C5  UNL     1      92.138  46.542  66.728  1.00  0.00     0.057 C 
BRANCH   6   7
HETATM    7  C4  UNL     1      92.834  47.194  67.847  1.00  0.00     0.044 C 
BRANCH   7   8
HETATM    8  C3  UNL     1      94.326  46.973  67.770  1.00  0.00     0.005 C 
BRANCH   8   9
HETATM    9  C2  UNL     1      94.890  47.633  66.516  1.00  0.00    -0.004 C 
HETATM   10  C1  UNL     1      96.273  48.120  66.883  1.00  0.00     0.005 C 
ENDBRANCH   8   9
ENDBRANCH   7   8
ENDBRANCH   6   7
ENDBRANCH   4   6
ENDBRANCH   3   4
ENDBRANCH   2   3
ENDBRANCH   1   2
BRANCH   1  11
HETATM   11  O1  UNL     1      93.173  46.361  63.495  1.00  0.00    -0.365 OA
ATOM     12  H1  UNL     1      92.971  47.147  62.999  1.00  0.00     0.212 HD
ENDBRANCH   1  11
BRANCH   1  13
HETATM   13  P1  UNL     1      93.437  44.214  62.047  1.00  0.00     0.310 P 
HETATM   14  O2  UNL     1      93.384  44.594  60.592  1.00  0.00    -0.637 OA
HETATM   15  O3  UNL     1      92.782  42.652  62.182  1.00  0.00    -0.637 OA
HETATM   16  O4  UNL     1      95.010  44.213  62.638  1.00  0.00    -0.637 OA
ENDBRANCH   1  13
BRANCH   1  17
HETATM   17  P2  UNL     1      90.956  45.884  62.093  1.00  0.00     0.310 P 
HETATM   18  O5  UNL     1      90.241  44.670  61.540  1.00  0.00    -0.637 OA
HETATM   19  O6  UNL     1      89.901  46.671  63.156  1.00  0.00    -0.637 OA
HETATM   20  O7  UNL     1      91.389  46.875  60.799  1.00  0.00    -0.637 OA
ENDBRANCH   1  17
TORSDOF 10
ENDMDL
