MODEL 1
REMARK VINA RESULT: -6.739975201      0.000      0.000
REMARK  10 active torsions:
REMARK  status: ('A' for Active; 'I' for Inactive)
REMARK    1  A    between atoms: C2_2  and  C3_3 
REMARK    2  A    between atoms: C3_3  and  C4_4 
REMARK    3  A    between atoms: C4_4  and  C5_5 
REMARK    4  A    between atoms: C5_5  and  N1_6 
REMARK    5  A    between atoms: N1_6  and  C7_8 
REMARK    6  A    between atoms: C7_8  and  C8_9 
REMARK    7  A    between atoms: C8_9  and  C9_10 
REMARK    8  A    between atoms: C9_10  and  O1_11 
REMARK    9  A    between atoms: C9_10  and  P1_13 
REMARK   10  A    between atoms: C9_10  and  P2_17 
ROOT
HETATM    1  C9  UNL     1      92.361  45.279  63.029  1.00  0.00     0.286 C 
ENDROOT
BRANCH   1   2
HETATM    2  C8  UNL     1      91.855  44.482  64.220  1.00  0.00     0.087 C 
BRANCH   2   3
HETATM    3  C7  UNL     1      92.855  44.565  65.351  1.00  0.00     0.125 C 
BRANCH   3   4
HETATM    4  N1  UNL     1      92.201  44.896  66.588  1.00  0.00    -0.397 N 
HETATM    5  C6  UNL     1      90.824  45.064  66.539  1.00  0.00     0.148 C 
BRANCH   4   6
HETATM    6  C5  UNL     1      92.937  44.760  67.747  1.00  0.00     0.057 C 
BRANCH   6   7
HETATM    7  C4  UNL     1      93.209  45.894  68.642  1.00  0.00     0.044 C 
BRANCH   7   8
HETATM    8  C3  UNL     1      93.586  47.131  67.863  1.00  0.00     0.005 C 
BRANCH   8   9
HETATM    9  C2  UNL     1      94.989  46.979  67.286  1.00  0.00    -0.004 C 
HETATM   10  C1  UNL     1      95.043  47.877  66.070  1.00  0.00     0.005 C 
ENDBRANCH   8   9
ENDBRANCH   7   8
ENDBRANCH   6   7
ENDBRANCH   4   6
ENDBRANCH   3   4
ENDBRANCH   2   3
ENDBRANCH   1   2
BRANCH   1  11
HETATM   11  O1  UNL     1      93.167  46.301  63.489  1.00  0.00    -0.365 OA
ATOM     12  H1  UNL     1      93.181  46.995  62.839  1.00  0.00     0.212 HD
ENDBRANCH   1  11
BRANCH   1  13
HETATM   13  P1  UNL     1      93.395  44.151  62.038  1.00  0.00     0.310 P 
HETATM   14  O2  UNL     1      92.957  42.726  62.243  1.00  0.00    -0.637 OA
HETATM   15  O3  UNL     1      94.983  44.278  62.626  1.00  0.00    -0.637 OA
HETATM   16  O4  UNL     1      93.362  44.590  60.417  1.00  0.00    -0.637 OA
ENDBRANCH   1  13
BRANCH   1  17
HETATM   17  P2  UNL     1      90.937  45.854  62.098  1.00  0.00     0.310 P 
HETATM   18  O5  UNL     1      90.228  44.653  61.510  1.00  0.00    -0.637 OA
HETATM   19  O6  UNL     1      89.874  46.610  63.176  1.00  0.00    -0.637 OA
HETATM   20  O7  UNL     1      91.373  46.880  60.832  1.00  0.00    -0.637 OA
ENDBRANCH   1  17
TORSDOF 10
ENDMDL
