MODEL 2
REMARK VINA RESULT: -6.714784367      0.452      1.179
REMARK  10 active torsions:
REMARK  status: ('A' for Active; 'I' for Inactive)
REMARK    1  A    between atoms: C2_2  and  C3_3 
REMARK    2  A    between atoms: C3_3  and  C4_4 
REMARK    3  A    between atoms: C4_4  and  C5_5 
REMARK    4  A    between atoms: C5_5  and  N1_6 
REMARK    5  A    between atoms: N1_6  and  C7_8 
REMARK    6  A    between atoms: C7_8  and  C8_9 
REMARK    7  A    between atoms: C8_9  and  C9_10 
REMARK    8  A    between atoms: C9_10  and  O1_11 
REMARK    9  A    between atoms: C9_10  and  P1_13 
REMARK   10  A    between atoms: C9_10  and  P2_17 
ROOT
HETATM    1  C9  UNL     1      92.317  45.274  63.018  1.00  0.00     0.286 C 
ENDROOT
BRANCH   1   2
HETATM    2  C8  UNL     1      91.823  44.486  64.220  1.00  0.00     0.087 C 
BRANCH   2   3
HETATM    3  C7  UNL     1      92.851  44.546  65.327  1.00  0.00     0.125 C 
BRANCH   3   4
HETATM    4  N1  UNL     1      92.261  45.023  66.547  1.00  0.00    -0.397 N 
HETATM    5  C6  UNL     1      90.884  45.201  66.545  1.00  0.00     0.148 C 
BRANCH   4   6
HETATM    6  C5  UNL     1      93.051  45.011  67.678  1.00  0.00     0.057 C 
BRANCH   6   7
HETATM    7  C4  UNL     1      94.137  45.978  67.887  1.00  0.00     0.044 C 
BRANCH   7   8
HETATM    8  C3  UNL     1      93.743  47.358  67.419  1.00  0.00     0.005 C 
BRANCH   8   9
HETATM    9  C2  UNL     1      94.651  47.805  66.278  1.00  0.00    -0.004 C 
HETATM   10  C1  UNL     1      96.045  47.889  66.859  1.00  0.00     0.005 C 
ENDBRANCH   8   9
ENDBRANCH   7   8
ENDBRANCH   6   7
ENDBRANCH   4   6
ENDBRANCH   3   4
ENDBRANCH   2   3
ENDBRANCH   1   2
BRANCH   1  11
HETATM   11  O1  UNL     1      93.111  46.311  63.463  1.00  0.00    -0.365 OA
ATOM     12  H1  UNL     1      93.938  45.954  63.767  1.00  0.00     0.212 HD
ENDBRANCH   1  11
BRANCH   1  13
HETATM   13  P1  UNL     1      93.362  44.146  62.038  1.00  0.00     0.310 P 
HETATM   14  O2  UNL     1      92.932  42.719  62.251  1.00  0.00    -0.637 OA
HETATM   15  O3  UNL     1      94.947  44.287  62.631  1.00  0.00    -0.637 OA
HETATM   16  O4  UNL     1      93.332  44.574  60.414  1.00  0.00    -0.637 OA
ENDBRANCH   1  13
BRANCH   1  17
HETATM   17  P2  UNL     1      90.884  45.820  62.083  1.00  0.00     0.310 P 
HETATM   18  O5  UNL     1      89.946  46.549  63.021  1.00  0.00    -0.637 OA
HETATM   19  O6  UNL     1      91.409  46.923  60.911  1.00  0.00    -0.637 OA
HETATM   20  O7  UNL     1      90.042  44.532  61.392  1.00  0.00    -0.637 OA
ENDBRANCH   1  17
TORSDOF 10
ENDMDL
