MODEL 14
REMARK VINA RESULT: -6.376178071      1.525      3.444
REMARK  10 active torsions:
REMARK  status: ('A' for Active; 'I' for Inactive)
REMARK    1  A    between atoms: C2_2  and  C3_3 
REMARK    2  A    between atoms: C3_3  and  C4_4 
REMARK    3  A    between atoms: C4_4  and  C5_5 
REMARK    4  A    between atoms: C5_5  and  N1_6 
REMARK    5  A    between atoms: N1_6  and  C7_8 
REMARK    6  A    between atoms: C7_8  and  C8_9 
REMARK    7  A    between atoms: C8_9  and  C9_10 
REMARK    8  A    between atoms: C9_10  and  O1_11 
REMARK    9  A    between atoms: C9_10  and  P1_13 
REMARK   10  A    between atoms: C9_10  and  P2_17 
ROOT
HETATM    1  C9  UNL     1      92.054  44.990  63.220  1.00  0.00     0.286 C 
ENDROOT
BRANCH   1   2
HETATM    2  C8  UNL     1      92.705  46.206  63.859  1.00  0.00     0.087 C 
BRANCH   2   3
HETATM    3  C7  UNL     1      92.328  46.277  65.322  1.00  0.00     0.125 C 
BRANCH   3   4
HETATM    4  N1  UNL     1      93.492  46.157  66.156  1.00  0.00    -0.397 N 
HETATM    5  C6  UNL     1      93.405  45.275  67.224  1.00  0.00     0.148 C 
BRANCH   4   6
HETATM    6  C5  UNL     1      94.664  46.712  65.687  1.00  0.00     0.057 C 
BRANCH   6   7
HETATM    7  C4  UNL     1      95.112  48.055  66.084  1.00  0.00     0.044 C 
BRANCH   7   8
HETATM    8  C3  UNL     1      96.342  47.989  66.955  1.00  0.00     0.005 C 
BRANCH   8   9
HETATM    9  C2  UNL     1      97.315  49.101  66.574  1.00  0.00    -0.004 C 
HETATM   10  C1  UNL     1      98.505  48.952  67.494  1.00  0.00     0.005 C 
ENDBRANCH   8   9
ENDBRANCH   7   8
ENDBRANCH   6   7
ENDBRANCH   4   6
ENDBRANCH   3   4
ENDBRANCH   2   3
ENDBRANCH   1   2
BRANCH   1  11
HETATM   11  O1  UNL     1      91.506  44.206  64.214  1.00  0.00    -0.365 OA
ATOM     12  H1  UNL     1      91.764  43.303  64.069  1.00  0.00     0.212 HD
ENDBRANCH   1  11
BRANCH   1  13
HETATM   13  P1  UNL     1      90.692  45.607  62.176  1.00  0.00     0.310 P 
HETATM   14  O2  UNL     1      90.118  44.487  61.351  1.00  0.00    -0.637 OA
HETATM   15  O3  UNL     1      91.358  46.737  61.097  1.00  0.00    -0.637 OA
HETATM   16  O4  UNL     1      89.520  46.357  63.118  1.00  0.00    -0.637 OA
ENDBRANCH   1  13
BRANCH   1  17
HETATM   17  P2  UNL     1      93.299  44.141  62.242  1.00  0.00     0.310 P 
HETATM   18  O5  UNL     1      93.285  44.714  60.841  1.00  0.00    -0.637 OA
HETATM   19  O6  UNL     1      94.814  44.466  62.924  1.00  0.00    -0.637 OA
HETATM   20  O7  UNL     1      93.007  42.483  62.138  1.00  0.00    -0.637 OA
ENDBRANCH   1  17
TORSDOF 10
ENDMDL
