MODEL 7
REMARK VINA RESULT: -6.539787349      2.114      3.674
REMARK  10 active torsions:
REMARK  status: ('A' for Active; 'I' for Inactive)
REMARK    1  A    between atoms: C2_2  and  C3_3 
REMARK    2  A    between atoms: C3_3  and  C4_4 
REMARK    3  A    between atoms: C4_4  and  C5_5 
REMARK    4  A    between atoms: C5_5  and  N1_6 
REMARK    5  A    between atoms: N1_6  and  C7_8 
REMARK    6  A    between atoms: C7_8  and  C8_9 
REMARK    7  A    between atoms: C8_9  and  C9_10 
REMARK    8  A    between atoms: C9_10  and  O1_11 
REMARK    9  A    between atoms: C9_10  and  P1_13 
REMARK   10  A    between atoms: C9_10  and  P2_17 
ROOT
HETATM    1  C9  UNL     1      92.510  44.867  63.778  1.00  0.00     0.286 C 
ENDROOT
BRANCH   1   2
HETATM    2  C8  UNL     1      93.554  45.909  64.142  1.00  0.00     0.087 C 
BRANCH   2   3
HETATM    3  C7  UNL     1      94.015  45.693  65.566  1.00  0.00     0.125 C 
BRANCH   3   4
HETATM    4  N1  UNL     1      94.053  46.936  66.286  1.00  0.00    -0.397 N 
HETATM    5  C6  UNL     1      93.129  47.091  67.310  1.00  0.00     0.148 C 
BRANCH   4   6
HETATM    6  C5  UNL     1      95.149  47.748  66.086  1.00  0.00     0.057 C 
BRANCH   6   7
HETATM    7  C4  UNL     1      96.228  47.871  67.078  1.00  0.00     0.044 C 
BRANCH   7   8
HETATM    8  C3  UNL     1      97.195  48.968  66.705  1.00  0.00     0.005 C 
BRANCH   8   9
HETATM    9  C2  UNL     1      98.535  48.743  67.399  1.00  0.00    -0.004 C 
HETATM   10  C1  UNL     1      99.482  49.774  66.828  1.00  0.00     0.005 C 
ENDBRANCH   8   9
ENDBRANCH   7   8
ENDBRANCH   6   7
ENDBRANCH   4   6
ENDBRANCH   3   4
ENDBRANCH   2   3
ENDBRANCH   1   2
BRANCH   1  11
HETATM   11  O1  UNL     1      92.459  43.920  64.780  1.00  0.00    -0.365 OA
ATOM     12  H1  UNL     1      91.552  43.672  64.921  1.00  0.00     0.212 HD
ENDBRANCH   1  11
BRANCH   1  13
HETATM   13  P1  UNL     1      90.901  45.724  63.732  1.00  0.00     0.310 P 
HETATM   14  O2  UNL     1      91.058  47.096  63.135  1.00  0.00    -0.637 OA
HETATM   15  O3  UNL     1      90.395  45.929  65.340  1.00  0.00    -0.637 OA
HETATM   16  O4  UNL     1      89.766  44.804  62.901  1.00  0.00    -0.637 OA
ENDBRANCH   1  13
BRANCH   1  17
HETATM   17  P2  UNL     1      92.939  44.187  62.171  1.00  0.00     0.310 P 
HETATM   18  O5  UNL     1      92.184  42.889  61.980  1.00  0.00    -0.637 OA
HETATM   19  O6  UNL     1      92.417  45.274  60.984  1.00  0.00    -0.637 OA
HETATM   20  O7  UNL     1      94.588  43.862  62.035  1.00  0.00    -0.637 OA
ENDBRANCH   1  17
TORSDOF 10
ENDMDL
