MODEL 2
REMARK VINA RESULT: -9.777023255      0.684      1.986
REMARK  8 active torsions:
REMARK  status: ('A' for Active; 'I' for Inactive)
REMARK    1  A    between atoms: O1_2  and  C2_3 
REMARK    2  A    between atoms: C3_6  and  C4_7 
REMARK    3  A    between atoms: C4_7  and  C5_9 
REMARK    4  A    between atoms: C7_11  and  C8_12 
REMARK    5  A    between atoms: C10_18  and  N3_19 
REMARK    6  A    between atoms: N3_19  and  C11_20 
REMARK    7  A    between atoms: N3_19  and  C15_24 
REMARK    8  A    between atoms: C11_20  and  C12_21 
ROOT
HETATM    1  C2  UNL     1     -33.929  41.012  64.497  1.00  0.00     0.172 A 
HETATM    2  N1  UNL     1     -33.451  41.619  63.369  1.00  0.00    -0.318 N 
ATOM      3  H1  UNL     1     -33.859  41.383  62.464  1.00  0.00     0.169 HD
HETATM    4  C3  UNL     1     -32.454  42.519  63.428  1.00  0.00     0.154 A 
HETATM    5  N2  UNL     1     -31.923  42.823  64.623  1.00  0.00    -0.347 N 
ATOM      6  H2  UNL     1     -31.167  43.506  64.672  1.00  0.00     0.167 HD
HETATM    7  C9  UNL     1     -32.364  42.248  65.762  1.00  0.00     0.124 A 
HETATM    8  C10 UNL     1     -33.396  41.309  65.734  1.00  0.00     0.102 A 
ENDROOT
BRANCH   8   9
HETATM    9  N3  UNL     1     -33.907  40.677  66.906  1.00  0.00    -0.341 N 
BRANCH   9  10
HETATM   10  C11 UNL     1     -34.181  41.429  68.117  1.00  0.00     0.134 C 
BRANCH  10  11
HETATM   11  C12 UNL     1     -33.187  41.041  69.166  1.00  0.00     0.004 A 
HETATM   12  C13 UNL     1     -32.728  42.168  70.066  1.00  0.00     0.007 A 
HETATM   13  C14 UNL     1     -33.449  40.957  70.595  1.00  0.00     0.007 A 
ENDBRANCH  10  11
ENDBRANCH   9  10
BRANCH   9  14
HETATM   14  C15 UNL     1     -34.185  39.257  66.941  1.00  0.00     0.046 A 
HETATM   15  C16 UNL     1     -35.474  38.785  67.074  1.00  0.00     0.030 A 
HETATM   16  C17 UNL     1     -35.765  37.434  67.110  1.00  0.00     0.003 A 
HETATM   17  C18 UNL     1     -34.754  36.520  67.010  1.00  0.00     0.012 A 
HETATM   18  C19 UNL     1     -33.469  36.955  66.875  1.00  0.00    -0.024 A 
HETATM   19  C20 UNL     1     -32.442  36.027  66.768  1.00  0.00     0.012 A 
HETATM   20  C24 UNL     1     -33.169  38.318  66.840  1.00  0.00     0.001 A 
HETATM   21  C21 UNL     1     -31.140  36.409  66.628  1.00  0.00     0.001 A 
HETATM   22  C22 UNL     1     -30.856  37.756  66.594  1.00  0.00     0.001 A 
HETATM   23  C23 UNL     1     -31.868  38.719  66.699  1.00  0.00     0.014 A 
ENDBRANCH   9  14
ENDBRANCH   8   9
BRANCH   1  24
HETATM   24  O1  UNL     1     -34.957  40.088  64.411  1.00  0.00    -0.339 OA
HETATM   25  C1  UNL     1     -35.319  39.519  63.162  1.00  0.00     0.211 C 
ENDBRANCH   1  24
BRANCH   4  26
HETATM   26  C4  UNL     1     -31.973  43.144  62.207  1.00  0.00     0.198 C 
HETATM   27  O2  UNL     1     -32.212  42.641  61.082  1.00  0.00    -0.289 OA
BRANCH  26  28
HETATM   28  C5  UNL     1     -31.182  44.395  62.267  1.00  0.00     0.079 A 
HETATM   29  C6  UNL     1     -29.763  44.333  61.807  1.00  0.00     0.029 A 
HETATM   30  C7  UNL     1     -30.780  45.051  60.980  1.00  0.00     0.099 A 
BRANCH  30  31
HETATM   31  C8  UNL     1     -30.824  46.531  60.998  1.00  0.00     0.177 C 
HETATM   32  O3  UNL     1     -31.711  47.149  60.364  1.00  0.00    -0.648 OA
HETATM   33  O4  UNL     1     -29.892  47.252  61.711  1.00  0.00    -0.648 OA
ENDBRANCH  30  31
ENDBRANCH  26  28
ENDBRANCH   4  26
TORSDOF 8
ENDMDL
