MODEL 1
REMARK VINA RESULT: -10.230656014      0.000      0.000
REMARK  8 active torsions:
REMARK  status: ('A' for Active; 'I' for Inactive)
REMARK    1  A    between atoms: O1_2  and  C2_3 
REMARK    2  A    between atoms: C3_6  and  C4_7 
REMARK    3  A    between atoms: C4_7  and  C5_9 
REMARK    4  A    between atoms: C7_11  and  C8_12 
REMARK    5  A    between atoms: C10_18  and  N3_19 
REMARK    6  A    between atoms: N3_19  and  C11_20 
REMARK    7  A    between atoms: N3_19  and  C15_24 
REMARK    8  A    between atoms: C11_20  and  C12_21 
ROOT
HETATM    1  C2  UNL     1     -33.745  40.884  64.167  1.00  0.00     0.172 A 
HETATM    2  N1  UNL     1     -33.358  41.660  63.112  1.00  0.00    -0.318 N 
ATOM      3  H1  UNL     1     -33.791  41.516  62.199  1.00  0.00     0.169 HD
HETATM    4  C3  UNL     1     -32.418  42.612  63.250  1.00  0.00     0.154 A 
HETATM    5  N2  UNL     1     -31.853  42.795  64.455  1.00  0.00    -0.347 N 
ATOM      6  H2  UNL     1     -31.139  43.516  64.564  1.00  0.00     0.167 HD
HETATM    7  C9  UNL     1     -32.205  42.050  65.524  1.00  0.00     0.124 A 
HETATM    8  C10 UNL     1     -33.176  41.055  65.411  1.00  0.00     0.102 A 
ENDROOT
BRANCH   8   9
HETATM    9  N3  UNL     1     -33.593  40.245  66.510  1.00  0.00    -0.341 N 
BRANCH   9  10
HETATM   10  C11 UNL     1     -34.492  40.752  67.530  1.00  0.00     0.134 C 
BRANCH  10  11
HETATM   11  C12 UNL     1     -33.691  41.163  68.724  1.00  0.00     0.004 A 
HETATM   12  C13 UNL     1     -34.479  41.311  70.008  1.00  0.00     0.007 A 
HETATM   13  C14 UNL     1     -33.361  40.313  69.859  1.00  0.00     0.007 A 
ENDBRANCH  10  11
ENDBRANCH   9  10
BRANCH   9  14
HETATM   14  C15 UNL     1     -33.145  38.876  66.654  1.00  0.00     0.046 A 
HETATM   15  C16 UNL     1     -31.805  38.553  66.581  1.00  0.00     0.030 A 
HETATM   16  C17 UNL     1     -31.353  37.254  66.716  1.00  0.00     0.003 A 
HETATM   17  C18 UNL     1     -32.247  36.243  66.930  1.00  0.00     0.012 A 
HETATM   18  C19 UNL     1     -33.577  36.531  67.009  1.00  0.00    -0.024 A 
HETATM   19  C20 UNL     1     -34.485  35.504  67.232  1.00  0.00     0.012 A 
HETATM   20  C24 UNL     1     -34.041  37.840  66.873  1.00  0.00     0.001 A 
HETATM   21  C21 UNL     1     -35.826  35.739  67.323  1.00  0.00     0.001 A 
HETATM   22  C22 UNL     1     -36.272  37.035  67.187  1.00  0.00     0.001 A 
HETATM   23  C23 UNL     1     -35.383  38.093  66.962  1.00  0.00     0.014 A 
ENDBRANCH   9  14
ENDBRANCH   8   9
BRANCH   1  24
HETATM   24  O1  UNL     1     -34.716  39.910  63.999  1.00  0.00    -0.339 OA
HETATM   25  C1  UNL     1     -35.257  39.638  62.715  1.00  0.00     0.211 C 
ENDBRANCH   1  24
BRANCH   4  26
HETATM   26  C4  UNL     1     -32.032  43.418  62.104  1.00  0.00     0.198 C 
HETATM   27  O2  UNL     1     -32.183  42.996  60.932  1.00  0.00    -0.289 OA
BRANCH  26  28
HETATM   28  C5  UNL     1     -31.448  44.765  62.299  1.00  0.00     0.079 A 
HETATM   29  C6  UNL     1     -29.963  44.856  62.438  1.00  0.00     0.029 A 
HETATM   30  C7  UNL     1     -30.624  45.357  61.194  1.00  0.00     0.099 A 
BRANCH  30  31
HETATM   31  C8  UNL     1     -30.805  46.813  60.997  1.00  0.00     0.177 C 
HETATM   32  O3  UNL     1     -31.632  47.244  60.160  1.00  0.00    -0.648 OA
HETATM   33  O4  UNL     1     -30.068  47.717  61.729  1.00  0.00    -0.648 OA
ENDBRANCH  30  31
ENDBRANCH  26  28
ENDBRANCH   4  26
TORSDOF 8
ENDMDL
