MODEL 9
REMARK VINA RESULT: -8.902100105      2.594      7.961
REMARK  8 active torsions:
REMARK  status: ('A' for Active; 'I' for Inactive)
REMARK    1  A    between atoms: O1_2  and  C2_3 
REMARK    2  A    between atoms: C3_6  and  C4_7 
REMARK    3  A    between atoms: C4_7  and  C5_9 
REMARK    4  A    between atoms: C7_11  and  C8_12 
REMARK    5  A    between atoms: C10_18  and  N3_19 
REMARK    6  A    between atoms: N3_19  and  C11_20 
REMARK    7  A    between atoms: N3_19  and  C15_24 
REMARK    8  A    between atoms: C11_20  and  C12_21 
ROOT
HETATM    1  C2  UNL     1     -33.853  42.076  64.577  1.00  0.00     0.172 A 
HETATM    2  N1  UNL     1     -34.316  40.980  65.247  1.00  0.00    -0.318 N 
ATOM      3  H1  UNL     1     -35.010  40.378  64.802  1.00  0.00     0.169 HD
HETATM    4  C3  UNL     1     -33.878  40.677  66.481  1.00  0.00     0.154 A 
HETATM    5  N2  UNL     1     -32.965  41.474  67.060  1.00  0.00    -0.347 N 
ATOM      6  H2  UNL     1     -32.630  41.248  67.996  1.00  0.00     0.167 HD
HETATM    7  C9  UNL     1     -32.480  42.568  66.434  1.00  0.00     0.124 A 
HETATM    8  C10 UNL     1     -32.917  42.908  65.154  1.00  0.00     0.102 A 
ENDROOT
BRANCH   8   9
HETATM    9  N3  UNL     1     -32.432  44.047  64.443  1.00  0.00    -0.341 N 
BRANCH   9  10
HETATM   10  C11 UNL     1     -33.040  45.355  64.597  1.00  0.00     0.134 C 
BRANCH  10  11
HETATM   11  C12 UNL     1     -31.974  46.351  64.930  1.00  0.00     0.004 A 
HETATM   12  C13 UNL     1     -31.745  47.422  63.885  1.00  0.00     0.007 A 
HETATM   13  C14 UNL     1     -32.195  47.745  65.285  1.00  0.00     0.007 A 
ENDBRANCH  10  11
ENDBRANCH   9  10
BRANCH   9  14
HETATM   14  C15 UNL     1     -31.305  43.951  63.539  1.00  0.00     0.046 A 
HETATM   15  C16 UNL     1     -31.490  43.826  62.178  1.00  0.00     0.030 A 
HETATM   16  C17 UNL     1     -30.430  43.734  61.295  1.00  0.00     0.003 A 
HETATM   17  C18 UNL     1     -29.148  43.766  61.769  1.00  0.00     0.012 A 
HETATM   18  C19 UNL     1     -28.933  43.891  63.109  1.00  0.00    -0.024 A 
HETATM   19  C20 UNL     1     -27.630  43.929  63.590  1.00  0.00     0.012 A 
HETATM   20  C24 UNL     1     -29.998  43.984  64.005  1.00  0.00     0.001 A 
HETATM   21  C21 UNL     1     -27.359  44.056  64.921  1.00  0.00     0.001 A 
HETATM   22  C22 UNL     1     -28.419  44.148  65.796  1.00  0.00     0.001 A 
HETATM   23  C23 UNL     1     -29.744  44.112  65.344  1.00  0.00     0.014 A 
ENDBRANCH   9  14
ENDBRANCH   8   9
BRANCH   1  24
HETATM   24  O1  UNL     1     -34.320  42.367  63.305  1.00  0.00    -0.339 OA
HETATM   25  C1  UNL     1     -35.178  41.465  62.623  1.00  0.00     0.211 C 
ENDBRANCH   1  24
BRANCH   4  26
HETATM   26  C4  UNL     1     -34.394  39.501  67.163  1.00  0.00     0.198 C 
HETATM   27  O2  UNL     1     -35.608  39.410  67.471  1.00  0.00    -0.289 OA
BRANCH  26  28
HETATM   28  C5  UNL     1     -33.491  38.380  67.511  1.00  0.00     0.079 A 
HETATM   29  C6  UNL     1     -33.966  36.997  67.208  1.00  0.00     0.029 A 
HETATM   30  C7  UNL     1     -32.861  37.595  66.399  1.00  0.00     0.099 A 
BRANCH  30  31
HETATM   31  C8  UNL     1     -31.463  37.178  66.649  1.00  0.00     0.177 C 
HETATM   32  O3  UNL     1     -31.199  35.995  66.967  1.00  0.00    -0.648 OA
HETATM   33  O4  UNL     1     -30.430  38.082  66.535  1.00  0.00    -0.648 OA
ENDBRANCH  30  31
ENDBRANCH  26  28
ENDBRANCH   4  26
TORSDOF 8
ENDMDL
