MODEL 6
REMARK VINA RESULT: -9.152350657      2.728      7.818
REMARK  8 active torsions:
REMARK  status: ('A' for Active; 'I' for Inactive)
REMARK    1  A    between atoms: O1_2  and  C2_3 
REMARK    2  A    between atoms: C3_6  and  C4_7 
REMARK    3  A    between atoms: C4_7  and  C5_9 
REMARK    4  A    between atoms: C7_11  and  C8_12 
REMARK    5  A    between atoms: C10_18  and  N3_19 
REMARK    6  A    between atoms: N3_19  and  C11_20 
REMARK    7  A    between atoms: N3_19  and  C15_24 
REMARK    8  A    between atoms: C11_20  and  C12_21 
ROOT
HETATM    1  C2  UNL     1     -33.915  42.001  64.626  1.00  0.00     0.172 A 
HETATM    2  N1  UNL     1     -34.376  40.872  65.242  1.00  0.00    -0.318 N 
ATOM      3  H1  UNL     1     -35.111  40.323  64.793  1.00  0.00     0.169 HD
HETATM    4  C3  UNL     1     -33.884  40.469  66.426  1.00  0.00     0.154 A 
HETATM    5  N2  UNL     1     -32.918  41.198  67.009  1.00  0.00    -0.347 N 
ATOM      6  H2  UNL     1     -32.542  40.896  67.908  1.00  0.00     0.167 HD
HETATM    7  C9  UNL     1     -32.432  42.320  66.436  1.00  0.00     0.124 A 
HETATM    8  C10 UNL     1     -32.924  42.763  65.208  1.00  0.00     0.102 A 
ENDROOT
BRANCH   8   9
HETATM    9  N3  UNL     1     -32.441  43.936  64.553  1.00  0.00    -0.341 N 
BRANCH   9  10
HETATM   10  C11 UNL     1     -33.012  45.243  64.816  1.00  0.00     0.134 C 
BRANCH  10  11
HETATM   11  C12 UNL     1     -34.157  45.092  65.767  1.00  0.00     0.004 A 
HETATM   12  C13 UNL     1     -34.818  46.386  66.190  1.00  0.00     0.007 A 
HETATM   13  C14 UNL     1     -35.561  45.307  65.448  1.00  0.00     0.007 A 
ENDBRANCH  10  11
ENDBRANCH   9  10
BRANCH   9  14
HETATM   14  C15 UNL     1     -31.353  43.877  63.600  1.00  0.00     0.046 A 
HETATM   15  C16 UNL     1     -31.593  43.712  62.251  1.00  0.00     0.030 A 
HETATM   16  C17 UNL     1     -30.571  43.653  61.323  1.00  0.00     0.003 A 
HETATM   17  C18 UNL     1     -29.273  43.761  61.735  1.00  0.00     0.012 A 
HETATM   18  C19 UNL     1     -29.003  43.926  63.060  1.00  0.00    -0.024 A 
HETATM   19  C20 UNL     1     -27.684  44.041  63.479  1.00  0.00     0.012 A 
HETATM   20  C24 UNL     1     -30.030  43.986  64.004  1.00  0.00     0.001 A 
HETATM   21  C21 UNL     1     -27.359  44.211  64.793  1.00  0.00     0.001 A 
HETATM   22  C22 UNL     1     -28.381  44.269  65.715  1.00  0.00     0.001 A 
HETATM   23  C23 UNL     1     -29.722  44.157  65.327  1.00  0.00     0.014 A 
ENDBRANCH   9  14
ENDBRANCH   8   9
BRANCH   1  24
HETATM   24  O1  UNL     1     -34.438  42.394  63.405  1.00  0.00    -0.339 OA
HETATM   25  C1  UNL     1     -35.209  41.496  62.621  1.00  0.00     0.211 C 
ENDBRANCH   1  24
BRANCH   4  26
HETATM   26  C4  UNL     1     -34.401  39.263  67.051  1.00  0.00     0.198 C 
HETATM   27  O2  UNL     1     -35.628  39.124  67.279  1.00  0.00    -0.289 OA
BRANCH  26  28
HETATM   28  C5  UNL     1     -33.483  38.166  67.435  1.00  0.00     0.079 A 
HETATM   29  C6  UNL     1     -33.931  36.768  67.160  1.00  0.00     0.029 A 
HETATM   30  C7  UNL     1     -32.827  37.367  66.349  1.00  0.00     0.099 A 
BRANCH  30  31
HETATM   31  C8  UNL     1     -31.424  36.980  66.624  1.00  0.00     0.177 C 
HETATM   32  O3  UNL     1     -31.144  35.809  66.972  1.00  0.00    -0.648 OA
HETATM   33  O4  UNL     1     -30.406  37.899  66.500  1.00  0.00    -0.648 OA
ENDBRANCH  30  31
ENDBRANCH  26  28
ENDBRANCH   4  26
TORSDOF 8
ENDMDL
