MODEL 4
REMARK VINA RESULT: -9.423684563      1.099      2.255
REMARK  8 active torsions:
REMARK  status: ('A' for Active; 'I' for Inactive)
REMARK    1  A    between atoms: O1_2  and  C2_3 
REMARK    2  A    between atoms: C3_6  and  C4_7 
REMARK    3  A    between atoms: C4_7  and  C5_9 
REMARK    4  A    between atoms: C7_11  and  C8_12 
REMARK    5  A    between atoms: C10_18  and  N3_19 
REMARK    6  A    between atoms: N3_19  and  C11_20 
REMARK    7  A    between atoms: N3_19  and  C15_24 
REMARK    8  A    between atoms: C11_20  and  C12_21 
ROOT
HETATM    1  C2  UNL     1     -33.979  41.206  64.354  1.00  0.00     0.172 A 
HETATM    2  N1  UNL     1     -33.450  41.787  63.236  1.00  0.00    -0.318 N 
ATOM      3  H1  UNL     1     -33.845  41.564  62.322  1.00  0.00     0.169 HD
HETATM    4  C3  UNL     1     -32.419  42.647  63.315  1.00  0.00     0.154 A 
HETATM    5  N2  UNL     1     -31.906  42.935  64.522  1.00  0.00    -0.347 N 
ATOM      6  H2  UNL     1     -31.123  43.587  64.586  1.00  0.00     0.167 HD
HETATM    7  C9  UNL     1     -32.397  42.384  65.652  1.00  0.00     0.124 A 
HETATM    8  C10 UNL     1     -33.465  41.488  65.602  1.00  0.00     0.102 A 
ENDROOT
BRANCH   8   9
HETATM    9  N3  UNL     1     -34.029  40.883  66.765  1.00  0.00    -0.341 N 
BRANCH   9  10
HETATM   10  C11 UNL     1     -34.347  41.660  67.948  1.00  0.00     0.134 C 
BRANCH  10  11
HETATM   11  C12 UNL     1     -35.471  42.594  67.630  1.00  0.00     0.004 A 
HETATM   12  C13 UNL     1     -36.037  43.348  68.814  1.00  0.00     0.007 A 
HETATM   13  C14 UNL     1     -35.399  44.048  67.643  1.00  0.00     0.007 A 
ENDBRANCH  10  11
ENDBRANCH   9  10
BRANCH   9  14
HETATM   14  C15 UNL     1     -34.320  39.465  66.816  1.00  0.00     0.046 A 
HETATM   15  C16 UNL     1     -35.617  39.005  66.905  1.00  0.00     0.030 A 
HETATM   16  C17 UNL     1     -35.919  37.658  66.955  1.00  0.00     0.003 A 
HETATM   17  C18 UNL     1     -34.912  36.735  66.914  1.00  0.00     0.012 A 
HETATM   18  C19 UNL     1     -33.620  37.158  66.824  1.00  0.00    -0.024 A 
HETATM   19  C20 UNL     1     -32.597  36.220  66.776  1.00  0.00     0.012 A 
HETATM   20  C24 UNL     1     -33.308  38.517  66.774  1.00  0.00     0.001 A 
HETATM   21  C21 UNL     1     -31.287  36.590  66.682  1.00  0.00     0.001 A 
HETATM   22  C22 UNL     1     -30.991  37.934  66.633  1.00  0.00     0.001 A 
HETATM   23  C23 UNL     1     -31.999  38.906  66.679  1.00  0.00     0.014 A 
ENDBRANCH   9  14
ENDBRANCH   8   9
BRANCH   1  24
HETATM   24  O1  UNL     1     -35.041  40.323  64.246  1.00  0.00    -0.339 OA
HETATM   25  C1  UNL     1     -35.218  39.538  63.077  1.00  0.00     0.211 C 
ENDBRANCH   1  24
BRANCH   4  26
HETATM   26  C4  UNL     1     -31.884  43.245  62.104  1.00  0.00     0.198 C 
HETATM   27  O2  UNL     1     -32.029  42.692  60.986  1.00  0.00    -0.289 OA
BRANCH  26  28
HETATM   28  C5  UNL     1     -31.149  44.529  62.164  1.00  0.00     0.079 A 
HETATM   29  C6  UNL     1     -29.781  44.567  61.566  1.00  0.00     0.029 A 
HETATM   30  C7  UNL     1     -30.907  45.279  60.888  1.00  0.00     0.099 A 
BRANCH  30  31
HETATM   31  C8  UNL     1     -31.016  46.751  61.003  1.00  0.00     0.177 C 
HETATM   32  O3  UNL     1     -30.955  47.475  59.982  1.00  0.00    -0.648 OA
HETATM   33  O4  UNL     1     -31.187  47.349  62.232  1.00  0.00    -0.648 OA
ENDBRANCH  30  31
ENDBRANCH  26  28
ENDBRANCH   4  26
TORSDOF 8
ENDMDL
