MODEL 8
REMARK VINA RESULT: -8.982686132      2.754      4.655
REMARK  8 active torsions:
REMARK  status: ('A' for Active; 'I' for Inactive)
REMARK    1  A    between atoms: O1_2  and  C2_3 
REMARK    2  A    between atoms: C3_6  and  C4_7 
REMARK    3  A    between atoms: C4_7  and  C5_9 
REMARK    4  A    between atoms: C7_11  and  C8_12 
REMARK    5  A    between atoms: C10_18  and  N3_19 
REMARK    6  A    between atoms: N3_19  and  C11_20 
REMARK    7  A    between atoms: N3_19  and  C15_24 
REMARK    8  A    between atoms: C11_20  and  C12_21 
ROOT
HETATM    1  C2  UNL     1     -30.703  43.711  63.036  1.00  0.00     0.172 A 
HETATM    2  N1  UNL     1     -29.405  43.980  62.706  1.00  0.00    -0.318 N 
ATOM      3  H1  UNL     1     -29.122  43.947  61.727  1.00  0.00     0.169 HD
HETATM    4  C3  UNL     1     -28.494  44.287  63.646  1.00  0.00     0.154 A 
HETATM    5  N2  UNL     1     -28.876  44.327  64.932  1.00  0.00    -0.347 N 
ATOM      6  H2  UNL     1     -28.187  44.560  65.648  1.00  0.00     0.167 HD
HETATM    7  C9  UNL     1     -30.148  44.069  65.303  1.00  0.00     0.124 A 
HETATM    8  C10 UNL     1     -31.116  43.747  64.352  1.00  0.00     0.102 A 
ENDROOT
BRANCH   8   9
HETATM    9  N3  UNL     1     -32.476  43.473  64.686  1.00  0.00    -0.341 N 
BRANCH   9  10
HETATM   10  C11 UNL     1     -33.508  44.485  64.560  1.00  0.00     0.134 C 
BRANCH  10  11
HETATM   11  C12 UNL     1     -34.232  44.608  65.863  1.00  0.00     0.004 A 
HETATM   12  C13 UNL     1     -34.950  45.923  66.080  1.00  0.00     0.007 A 
HETATM   13  C14 UNL     1     -35.677  44.605  66.037  1.00  0.00     0.007 A 
ENDBRANCH  10  11
ENDBRANCH   9  10
BRANCH   9  14
HETATM   14  C15 UNL     1     -32.892  42.170  65.160  1.00  0.00     0.046 A 
HETATM   15  C16 UNL     1     -32.464  41.683  66.378  1.00  0.00     0.030 A 
HETATM   16  C17 UNL     1     -32.847  40.443  66.852  1.00  0.00     0.003 A 
HETATM   17  C18 UNL     1     -33.678  39.658  66.103  1.00  0.00     0.012 A 
HETATM   18  C19 UNL     1     -34.119  40.111  64.896  1.00  0.00    -0.024 A 
HETATM   19  C20 UNL     1     -34.968  39.316  64.137  1.00  0.00     0.012 A 
HETATM   20  C24 UNL     1     -33.736  41.362  64.411  1.00  0.00     0.001 A 
HETATM   21  C21 UNL     1     -35.441  39.724  62.924  1.00  0.00     0.001 A 
HETATM   22  C22 UNL     1     -35.056  40.960  62.456  1.00  0.00     0.001 A 
HETATM   23  C23 UNL     1     -34.201  41.787  63.196  1.00  0.00     0.014 A 
ENDBRANCH   9  14
ENDBRANCH   8   9
BRANCH   1  24
HETATM   24  O1  UNL     1     -31.625  43.398  62.050  1.00  0.00    -0.339 OA
HETATM   25  C1  UNL     1     -31.375  43.727  60.692  1.00  0.00     0.211 C 
ENDBRANCH   1  24
BRANCH   4  26
HETATM   26  C4  UNL     1     -27.121  44.567  63.256  1.00  0.00     0.198 C 
HETATM   27  O2  UNL     1     -26.223  43.698  63.372  1.00  0.00    -0.289 OA
BRANCH  26  28
HETATM   28  C5  UNL     1     -26.754  45.894  62.711  1.00  0.00     0.079 A 
HETATM   29  C6  UNL     1     -25.510  45.978  61.889  1.00  0.00     0.029 A 
HETATM   30  C7  UNL     1     -26.845  46.111  61.230  1.00  0.00     0.099 A 
BRANCH  30  31
HETATM   31  C8  UNL     1     -27.331  47.450  60.828  1.00  0.00     0.177 C 
HETATM   32  O3  UNL     1     -26.525  48.336  60.460  1.00  0.00    -0.648 OA
HETATM   33  O4  UNL     1     -28.677  47.744  60.851  1.00  0.00    -0.648 OA
ENDBRANCH  30  31
ENDBRANCH  26  28
ENDBRANCH   4  26
TORSDOF 8
ENDMDL
