MODEL 1
REMARK VINA RESULT: -10.145872944      0.000      0.000
REMARK  7 active torsions:
REMARK  status: ('A' for Active; 'I' for Inactive)
REMARK    1  A    between atoms: S1_2  and  C2_3 
REMARK    2  A    between atoms: C7_8  and  C8_9 
REMARK       I    between atoms: N1_13  and  C12_14 
REMARK    3  A    between atoms: C12_14  and  C13_16 
REMARK    4  A    between atoms: C13_16  and  N2_17 
REMARK       I    between atoms: N2_17  and  C14_19 
REMARK       I    between atoms: C14_19  and  N3_21 
REMARK    5  A    between atoms: N3_21  and  C15_23 
REMARK    6  A    between atoms: C15_23  and  C16_24 
REMARK    7  A    between atoms: C25_35  and  O3_36 
ROOT
HETATM    1  N2  UNL     1      -2.759   0.501 -25.328  1.00  0.00    -0.334 N 
ATOM      2  H2  UNL     1      -2.093   0.966 -24.712  1.00  0.00     0.164 HD
HETATM    3  C14 UNL     1      -3.974   1.137 -25.761  1.00  0.00     0.320 C 
HETATM    4  O2  UNL     1      -4.717   0.526 -26.558  1.00  0.00    -0.247 OA
HETATM    5  N3  UNL     1      -4.372   2.438 -25.297  1.00  0.00    -0.318 N 
ATOM      6  H3  UNL     1      -3.720   2.944 -24.697  1.00  0.00     0.170 HD
ENDROOT
BRANCH   1   7
HETATM    7  C13 UNL     1      -2.535  -0.873 -25.834  1.00  0.00     0.227 C 
BRANCH   7   8
HETATM    8  C12 UNL     1      -2.327  -1.708 -24.625  1.00  0.00     0.238 C 
HETATM    9  N1  UNL     1      -1.649  -2.918 -24.662  1.00  0.00    -0.342 N 
HETATM   10  C8  UNL     1      -0.789  -3.550 -25.710  1.00  0.00     0.121 C 
HETATM   11  C11 UNL     1      -1.624  -3.866 -23.528  1.00  0.00     0.127 C 
HETATM   12  C9  UNL     1      -1.312  -4.955 -25.520  1.00  0.00     0.032 C 
HETATM   13  C10 UNL     1      -1.156  -5.192 -24.062  1.00  0.00     0.022 C 
HETATM   14  O1  UNL     1      -2.793  -1.321 -23.482  1.00  0.00    -0.272 OA
BRANCH  10  15
HETATM   15  C7  UNL     1       0.585  -3.321 -25.216  1.00  0.00    -0.018 A 
HETATM   16  C2  UNL     1       1.665  -3.255 -26.050  1.00  0.00     0.008 A 
HETATM   17  C3  UNL     1       2.914  -2.928 -25.581  1.00  0.00     0.019 A 
HETATM   18  C4  UNL     1       3.118  -2.653 -24.254  1.00  0.00     0.001 A 
HETATM   19  C5  UNL     1       2.068  -2.701 -23.376  1.00  0.00     0.001 A 
HETATM   20  C6  UNL     1       0.831  -3.033 -23.891  1.00  0.00     0.011 A 
BRANCH  16  21
HETATM   21  S1  UNL     1       1.540  -3.663 -27.777  1.00  0.00    -0.134 SA
HETATM   22  C1  UNL     1       1.066  -2.272 -28.802  1.00  0.00     0.095 C 
ENDBRANCH  16  21
ENDBRANCH  10  15
ENDBRANCH   7   8
ENDBRANCH   1   7
BRANCH   5  23
HETATM   23  C15 UNL     1      -5.600   3.069 -25.609  1.00  0.00     0.104 C 
BRANCH  23  24
HETATM   24  C16 UNL     1      -6.683   3.216 -24.654  1.00  0.00    -0.020 A 
HETATM   25  C17 UNL     1      -7.159   2.163 -23.918  1.00  0.00     0.015 A 
HETATM   26  C18 UNL     1      -8.135   2.350 -22.941  1.00  0.00     0.030 A 
HETATM   27  C19 UNL     1      -8.635   3.598 -22.699  1.00  0.00     0.037 A 
HETATM   28  C20 UNL     1      -8.178   4.675 -23.424  1.00  0.00    -0.002 A 
HETATM   29  N4  UNL     1      -9.616   3.836 -21.688  1.00  0.00    -0.382 N 
HETATM   30  C21 UNL     1      -7.220   4.497 -24.387  1.00  0.00     0.025 A 
HETATM   31  C22 UNL     1      -8.668   6.073 -23.211  1.00  0.00     0.158 C 
HETATM   32  C23 UNL     1      -9.381   6.190 -21.891  1.00  0.00     0.064 C 
HETATM   33  O4  UNL     1      -9.502   6.445 -24.260  1.00  0.00    -0.378 OA
HETATM   34  C24 UNL     1     -10.396   5.050 -21.821  1.00  0.00     0.115 C 
HETATM   35  C25 UNL     1     -11.149   5.068 -23.158  1.00  0.00     0.164 C 
HETATM   36  C26 UNL     1     -10.850   6.343 -23.930  1.00  0.00     0.202 C 
ATOM     37  H4  UNL     1      -9.760   3.185 -20.915  1.00  0.00     0.160 HD
BRANCH  35  38
HETATM   38  O3  UNL     1     -10.860   3.933 -23.892  1.00  0.00    -0.391 OA
ATOM     39  H3  UNL     1     -11.542   3.282 -23.779  1.00  0.00     0.210 HD
ENDBRANCH  35  38
ENDBRANCH  23  24
ENDBRANCH   5  23
TORSDOF 7
ENDMDL
