MODEL 3
REMARK VINA RESULT: -9.202411310      1.042      1.475
REMARK  7 active torsions:
REMARK  status: ('A' for Active; 'I' for Inactive)
REMARK    1  A    between atoms: S1_2  and  C2_3 
REMARK    2  A    between atoms: C7_8  and  C8_9 
REMARK       I    between atoms: N1_13  and  C12_14 
REMARK    3  A    between atoms: C12_14  and  C13_16 
REMARK    4  A    between atoms: C13_16  and  N2_17 
REMARK       I    between atoms: N2_17  and  C14_19 
REMARK       I    between atoms: C14_19  and  N3_21 
REMARK    5  A    between atoms: N3_21  and  C15_23 
REMARK    6  A    between atoms: C15_23  and  C16_24 
REMARK    7  A    between atoms: C25_35  and  O3_36 
ROOT
HETATM    1  N2  UNL     1      -2.547   0.776 -25.455  1.00  0.00    -0.334 N 
ATOM      2  H2  UNL     1      -1.890   1.272 -24.854  1.00  0.00     0.164 HD
HETATM    3  C14 UNL     1      -3.803   1.353 -25.855  1.00  0.00     0.320 C 
HETATM    4  O2  UNL     1      -4.535   0.708 -26.635  1.00  0.00    -0.247 OA
HETATM    5  N3  UNL     1      -4.253   2.631 -25.375  1.00  0.00    -0.318 N 
ATOM      6  H3  UNL     1      -3.612   3.167 -24.790  1.00  0.00     0.170 HD
ENDROOT
BRANCH   1   7
HETATM    7  C13 UNL     1      -2.269  -0.584 -25.972  1.00  0.00     0.227 C 
BRANCH   7   8
HETATM    8  C12 UNL     1      -2.163  -1.447 -24.769  1.00  0.00     0.238 C 
HETATM    9  N1  UNL     1      -1.137  -2.367 -24.600  1.00  0.00    -0.342 N 
HETATM   10  C8  UNL     1       0.157  -2.564 -25.322  1.00  0.00     0.121 C 
HETATM   11  C11 UNL     1      -1.134  -3.385 -23.528  1.00  0.00     0.127 C 
HETATM   12  C9  UNL     1       0.109  -4.075 -25.326  1.00  0.00     0.032 C 
HETATM   13  C10 UNL     1      -0.107  -4.421 -23.898  1.00  0.00     0.022 C 
HETATM   14  O1  UNL     1      -3.051  -1.366 -23.833  1.00  0.00    -0.272 OA
BRANCH  10  15
HETATM   15  C7  UNL     1       1.158  -1.972 -24.411  1.00  0.00    -0.018 A 
HETATM   16  C2  UNL     1       2.495  -2.228 -24.519  1.00  0.00     0.008 A 
HETATM   17  C3  UNL     1       3.416  -1.578 -23.735  1.00  0.00     0.019 A 
HETATM   18  C4  UNL     1       3.021  -0.643 -22.814  1.00  0.00     0.001 A 
HETATM   19  C5  UNL     1       1.692  -0.345 -22.669  1.00  0.00     0.001 A 
HETATM   20  C6  UNL     1       0.802  -1.022 -23.478  1.00  0.00     0.011 A 
BRANCH  16  21
HETATM   21  S1  UNL     1       3.123  -3.473 -25.624  1.00  0.00    -0.134 SA
HETATM   22  C1  UNL     1       4.521  -4.373 -24.958  1.00  0.00     0.095 C 
ENDBRANCH  16  21
ENDBRANCH  10  15
ENDBRANCH   7   8
ENDBRANCH   1   7
BRANCH   5  23
HETATM   23  C15 UNL     1      -5.518   3.202 -25.654  1.00  0.00     0.104 C 
BRANCH  23  24
HETATM   24  C16 UNL     1      -6.593   3.265 -24.681  1.00  0.00    -0.020 A 
HETATM   25  C17 UNL     1      -7.020   2.163 -23.987  1.00  0.00     0.015 A 
HETATM   26  C18 UNL     1      -7.988   2.270 -22.991  1.00  0.00     0.030 A 
HETATM   27  C19 UNL     1      -8.531   3.487 -22.687  1.00  0.00     0.037 A 
HETATM   28  C20 UNL     1      -8.123   4.611 -23.368  1.00  0.00    -0.002 A 
HETATM   29  N4  UNL     1      -9.506   3.642 -21.655  1.00  0.00    -0.382 N 
HETATM   30  C21 UNL     1      -7.172   4.512 -24.349  1.00  0.00     0.025 A 
HETATM   31  C22 UNL     1      -8.661   5.978 -23.086  1.00  0.00     0.158 C 
HETATM   32  C23 UNL     1      -9.361   6.009 -21.754  1.00  0.00     0.064 C 
HETATM   33  O4  UNL     1      -9.523   6.365 -24.107  1.00  0.00    -0.378 OA
HETATM   34  C24 UNL     1     -10.332   4.831 -21.724  1.00  0.00     0.115 C 
HETATM   35  C25 UNL     1     -11.103   4.880 -23.049  1.00  0.00     0.164 C 
HETATM   36  C26 UNL     1     -10.861   6.198 -23.766  1.00  0.00     0.202 C 
ATOM     37  H4  UNL     1      -9.615   2.953 -20.910  1.00  0.00     0.160 HD
BRANCH  35  38
HETATM   38  O3  UNL     1     -10.783   3.791 -23.837  1.00  0.00    -0.391 OA
ATOM     39  H3  UNL     1     -11.570   3.388 -24.183  1.00  0.00     0.210 HD
ENDBRANCH  35  38
ENDBRANCH  23  24
ENDBRANCH   5  23
TORSDOF 7
ENDMDL
