MODEL 9
REMARK VINA RESULT: -8.915548248      3.017      4.563
REMARK  7 active torsions:
REMARK  status: ('A' for Active; 'I' for Inactive)
REMARK    1  A    between atoms: S1_2  and  C2_3 
REMARK    2  A    between atoms: C7_8  and  C8_9 
REMARK       I    between atoms: N1_13  and  C12_14 
REMARK    3  A    between atoms: C12_14  and  C13_16 
REMARK    4  A    between atoms: C13_16  and  N2_17 
REMARK       I    between atoms: N2_17  and  C14_19 
REMARK       I    between atoms: C14_19  and  N3_21 
REMARK    5  A    between atoms: N3_21  and  C15_23 
REMARK    6  A    between atoms: C15_23  and  C16_24 
REMARK    7  A    between atoms: C25_35  and  O3_36 
ROOT
HETATM    1  N2  UNL     1      -4.245   2.793 -27.655  1.00  0.00    -0.334 N 
ATOM      2  H2  UNL     1      -4.787   2.436 -28.442  1.00  0.00     0.164 HD
HETATM    3  C14 UNL     1      -4.529   2.414 -26.297  1.00  0.00     0.320 C 
HETATM    4  O2  UNL     1      -3.791   2.850 -25.389  1.00  0.00    -0.247 OA
HETATM    5  N3  UNL     1      -5.640   1.571 -25.946  1.00  0.00    -0.318 N 
ATOM      6  H3  UNL     1      -6.190   1.176 -26.708  1.00  0.00     0.170 HD
ENDROOT
BRANCH   1   7
HETATM    7  C13 UNL     1      -3.117   3.734 -27.839  1.00  0.00     0.227 C 
BRANCH   7   8
HETATM    8  C12 UNL     1      -2.000   2.909 -28.364  1.00  0.00     0.238 C 
HETATM    9  N1  UNL     1      -0.822   2.712 -27.656  1.00  0.00    -0.342 N 
HETATM   10  C8  UNL     1      -0.454   2.984 -26.232  1.00  0.00     0.121 C 
HETATM   11  C11 UNL     1       0.381   2.088 -28.247  1.00  0.00     0.127 C 
HETATM   12  C9  UNL     1       0.941   3.488 -26.521  1.00  0.00     0.032 C 
HETATM   13  C10 UNL     1       1.540   2.406 -27.342  1.00  0.00     0.022 C 
HETATM   14  O1  UNL     1      -2.097   2.350 -29.526  1.00  0.00    -0.272 OA
BRANCH  10  15
HETATM   15  C7  UNL     1      -0.520   1.652 -25.596  1.00  0.00    -0.018 A 
HETATM   16  C2  UNL     1      -0.071   1.419 -24.327  1.00  0.00     0.008 A 
HETATM   17  C3  UNL     1      -0.247   0.202 -23.716  1.00  0.00     0.019 A 
HETATM   18  C4  UNL     1      -0.884  -0.825 -24.363  1.00  0.00     0.001 A 
HETATM   19  C5  UNL     1      -1.357  -0.643 -25.635  1.00  0.00     0.001 A 
HETATM   20  C6  UNL     1      -1.160   0.597 -26.209  1.00  0.00     0.011 A 
BRANCH  16  21
HETATM   21  S1  UNL     1       0.835   2.649 -23.415  1.00  0.00    -0.134 SA
HETATM   22  C1  UNL     1       0.582   2.548 -21.644  1.00  0.00     0.095 C 
ENDBRANCH  16  21
ENDBRANCH  10  15
ENDBRANCH   7   8
ENDBRANCH   1   7
BRANCH   5  23
HETATM   23  C15 UNL     1      -6.026   1.247 -24.623  1.00  0.00     0.104 C 
BRANCH  23  24
HETATM   24  C16 UNL     1      -7.069   1.954 -23.905  1.00  0.00    -0.020 A 
HETATM   25  C17 UNL     1      -8.032   1.302 -23.180  1.00  0.00     0.015 A 
HETATM   26  C18 UNL     1      -8.965   2.008 -22.423  1.00  0.00     0.030 A 
HETATM   27  C19 UNL     1      -8.934   3.373 -22.391  1.00  0.00     0.037 A 
HETATM   28  C20 UNL     1      -7.980   4.056 -23.111  1.00  0.00    -0.002 A 
HETATM   29  N4  UNL     1      -9.856   4.131 -21.606  1.00  0.00    -0.382 N 
HETATM   30  C21 UNL     1      -7.061   3.368 -23.858  1.00  0.00     0.025 A 
HETATM   31  C22 UNL     1      -7.874   5.549 -23.119  1.00  0.00     0.158 C 
HETATM   32  C23 UNL     1      -8.646   6.141 -21.971  1.00  0.00     0.064 C 
HETATM   33  O4  UNL     1      -8.331   6.047 -24.334  1.00  0.00    -0.378 OA
HETATM   34  C24 UNL     1     -10.040   5.517 -21.991  1.00  0.00     0.115 C 
HETATM   35  C25 UNL     1     -10.531   5.617 -23.441  1.00  0.00     0.164 C 
HETATM   36  C26 UNL     1      -9.632   6.534 -24.254  1.00  0.00     0.202 C 
ATOM     37  H4  UNL     1     -10.357   3.720 -20.819  1.00  0.00     0.160 HD
BRANCH  35  38
HETATM   38  O3  UNL     1     -10.640   4.360 -24.003  1.00  0.00    -0.391 OA
ATOM     39  H3  UNL     1     -11.550   4.088 -24.038  1.00  0.00     0.210 HD
ENDBRANCH  35  38
ENDBRANCH  23  24
ENDBRANCH   5  23
TORSDOF 7
ENDMDL
