MODEL 17
REMARK VINA RESULT: -8.402563224      1.222      1.510
REMARK  7 active torsions:
REMARK  status: ('A' for Active; 'I' for Inactive)
REMARK    1  A    between atoms: S1_2  and  C2_3 
REMARK    2  A    between atoms: C7_8  and  C8_9 
REMARK       I    between atoms: N1_13  and  C12_14 
REMARK    3  A    between atoms: C12_14  and  C13_16 
REMARK    4  A    between atoms: C13_16  and  N2_17 
REMARK       I    between atoms: N2_17  and  C14_19 
REMARK       I    between atoms: C14_19  and  N3_21 
REMARK    5  A    between atoms: N3_21  and  C15_23 
REMARK    6  A    between atoms: C15_23  and  C16_24 
REMARK    7  A    between atoms: C25_35  and  O3_36 
ROOT
HETATM    1  N2  UNL     1      -3.012   0.582 -25.079  1.00  0.00    -0.334 N 
ATOM      2  H2  UNL     1      -2.578   1.055 -24.287  1.00  0.00     0.164 HD
HETATM    3  C14 UNL     1      -4.244   1.044 -25.662  1.00  0.00     0.320 C 
HETATM    4  O2  UNL     1      -4.691   0.446 -26.663  1.00  0.00    -0.247 OA
HETATM    5  N3  UNL     1      -4.986   2.151 -25.124  1.00  0.00    -0.318 N 
ATOM      6  H3  UNL     1      -4.570   2.663 -24.346  1.00  0.00     0.170 HD
ENDROOT
BRANCH   1   7
HETATM    7  C13 UNL     1      -2.416  -0.621 -25.701  1.00  0.00     0.227 C 
BRANCH   7   8
HETATM    8  C12 UNL     1      -2.293  -1.612 -24.602  1.00  0.00     0.238 C 
HETATM    9  N1  UNL     1      -1.609  -2.810 -24.751  1.00  0.00    -0.342 N 
HETATM   10  C8  UNL     1      -0.671  -3.301 -25.807  1.00  0.00     0.121 C 
HETATM   11  C11 UNL     1      -1.664  -3.901 -23.755  1.00  0.00     0.127 C 
HETATM   12  C9  UNL     1      -1.200  -4.716 -25.846  1.00  0.00     0.032 C 
HETATM   13  C10 UNL     1      -1.151  -5.146 -24.426  1.00  0.00     0.022 C 
HETATM   14  O1  UNL     1      -2.845  -1.379 -23.456  1.00  0.00    -0.272 OA
BRANCH  10  15
HETATM   15  C7  UNL     1       0.661  -3.147 -25.188  1.00  0.00    -0.018 A 
HETATM   16  C2  UNL     1       1.818  -3.176 -25.913  1.00  0.00     0.008 A 
HETATM   17  C3  UNL     1       3.035  -2.916 -25.333  1.00  0.00     0.019 A 
HETATM   18  C4  UNL     1       3.130  -2.616 -23.998  1.00  0.00     0.001 A 
HETATM   19  C5  UNL     1       1.999  -2.570 -23.227  1.00  0.00     0.001 A 
HETATM   20  C6  UNL     1       0.798  -2.836 -23.852  1.00  0.00     0.011 A 
BRANCH  16  21
HETATM   21  S1  UNL     1       1.832  -3.625 -27.635  1.00  0.00    -0.134 SA
HETATM   22  C1  UNL     1       3.475  -3.639 -28.351  1.00  0.00     0.095 C 
ENDBRANCH  16  21
ENDBRANCH  10  15
ENDBRANCH   7   8
ENDBRANCH   1   7
BRANCH   5  23
HETATM   23  C15 UNL     1      -6.249   2.585 -25.593  1.00  0.00     0.104 C 
BRANCH  23  24
HETATM   24  C16 UNL     1      -7.104   3.491 -24.850  1.00  0.00    -0.020 A 
HETATM   25  C17 UNL     1      -8.056   3.045 -23.970  1.00  0.00     0.015 A 
HETATM   26  C18 UNL     1      -8.798   3.938 -23.199  1.00  0.00     0.030 A 
HETATM   27  C19 UNL     1      -8.585   5.283 -23.308  1.00  0.00     0.037 A 
HETATM   28  C20 UNL     1      -7.637   5.761 -24.184  1.00  0.00    -0.002 A 
HETATM   29  N4  UNL     1      -9.307   6.228 -22.516  1.00  0.00    -0.382 N 
HETATM   30  C21 UNL     1      -6.906   4.888 -24.946  1.00  0.00     0.025 A 
HETATM   31  C22 UNL     1      -7.339   7.217 -24.353  1.00  0.00     0.158 C 
HETATM   32  C23 UNL     1      -7.893   8.009 -23.200  1.00  0.00     0.064 C 
HETATM   33  O4  UNL     1      -7.861   7.669 -25.560  1.00  0.00    -0.378 OA
HETATM   34  C24 UNL     1      -9.350   7.587 -23.018  1.00  0.00     0.115 C 
HETATM   35  C25 UNL     1      -9.984   7.630 -24.414  1.00  0.00     0.164 C 
HETATM   36  C26 UNL     1      -9.070   8.338 -25.401  1.00  0.00     0.202 C 
ATOM     37  H4  UNL     1      -9.766   5.960 -21.645  1.00  0.00     0.160 HD
BRANCH  35  38
HETATM   38  O3  UNL     1     -10.318   6.357 -24.834  1.00  0.00    -0.391 OA
ATOM     39  H3  UNL     1     -10.038   6.218 -25.730  1.00  0.00     0.210 HD
ENDBRANCH  35  38
ENDBRANCH  23  24
ENDBRANCH   5  23
TORSDOF 7
ENDMDL
