MODEL 4
REMARK VINA RESULT: -9.107012281      1.137      1.814
REMARK  7 active torsions:
REMARK  status: ('A' for Active; 'I' for Inactive)
REMARK    1  A    between atoms: S1_2  and  C2_3 
REMARK    2  A    between atoms: C7_8  and  C8_9 
REMARK       I    between atoms: N1_13  and  C12_14 
REMARK    3  A    between atoms: C12_14  and  C13_16 
REMARK    4  A    between atoms: C13_16  and  N2_17 
REMARK       I    between atoms: N2_17  and  C14_19 
REMARK       I    between atoms: C14_19  and  N3_21 
REMARK    5  A    between atoms: N3_21  and  C15_23 
REMARK    6  A    between atoms: C15_23  and  C16_24 
REMARK    7  A    between atoms: C25_35  and  O3_36 
ROOT
HETATM    1  N2  UNL     1      -3.099   0.581 -25.124  1.00  0.00    -0.334 N 
ATOM      2  H2  UNL     1      -2.679   1.030 -24.311  1.00  0.00     0.164 HD
HETATM    3  C14 UNL     1      -4.291   1.090 -25.748  1.00  0.00     0.320 C 
HETATM    4  O2  UNL     1      -4.720   0.518 -26.772  1.00  0.00    -0.247 OA
HETATM    5  N3  UNL     1      -5.014   2.218 -25.227  1.00  0.00    -0.318 N 
ATOM      6  H3  UNL     1      -4.611   2.708 -24.428  1.00  0.00     0.170 HD
ENDROOT
BRANCH   1   7
HETATM    7  C13 UNL     1      -2.521  -0.637 -25.736  1.00  0.00     0.227 C 
BRANCH   7   8
HETATM    8  C12 UNL     1      -2.385  -1.609 -24.623  1.00  0.00     0.238 C 
HETATM    9  N1  UNL     1      -1.701  -2.809 -24.760  1.00  0.00    -0.342 N 
HETATM   10  C8  UNL     1      -0.774  -3.315 -25.819  1.00  0.00     0.121 C 
HETATM   11  C11 UNL     1      -1.744  -3.884 -23.747  1.00  0.00     0.127 C 
HETATM   12  C9  UNL     1      -1.302  -4.731 -25.830  1.00  0.00     0.032 C 
HETATM   13  C10 UNL     1      -1.236  -5.139 -24.403  1.00  0.00     0.022 C 
HETATM   14  O1  UNL     1      -2.925  -1.359 -23.475  1.00  0.00    -0.272 OA
BRANCH  10  15
HETATM   15  C7  UNL     1       0.565  -3.150 -25.217  1.00  0.00    -0.018 A 
HETATM   16  C2  UNL     1       1.713  -3.169 -25.957  1.00  0.00     0.008 A 
HETATM   17  C3  UNL     1       2.935  -2.899 -25.392  1.00  0.00     0.019 A 
HETATM   18  C4  UNL     1       3.044  -2.598 -24.059  1.00  0.00     0.001 A 
HETATM   19  C5  UNL     1       1.923  -2.562 -23.273  1.00  0.00     0.001 A 
HETATM   20  C6  UNL     1       0.716  -2.838 -23.883  1.00  0.00     0.011 A 
BRANCH  16  21
HETATM   21  S1  UNL     1       1.709  -3.619 -27.678  1.00  0.00    -0.134 SA
HETATM   22  C1  UNL     1       1.202  -2.283 -28.759  1.00  0.00     0.095 C 
ENDBRANCH  16  21
ENDBRANCH  10  15
ENDBRANCH   7   8
ENDBRANCH   1   7
BRANCH   5  23
HETATM   23  C15 UNL     1      -6.243   2.700 -25.739  1.00  0.00     0.104 C 
BRANCH  23  24
HETATM   24  C16 UNL     1      -6.963   3.817 -25.156  1.00  0.00    -0.020 A 
HETATM   25  C17 UNL     1      -6.494   5.103 -25.217  1.00  0.00     0.015 A 
HETATM   26  C18 UNL     1      -7.251   6.169 -24.733  1.00  0.00     0.030 A 
HETATM   27  C19 UNL     1      -8.483   5.945 -24.186  1.00  0.00     0.037 A 
HETATM   28  C20 UNL     1      -8.979   4.664 -24.109  1.00  0.00    -0.002 A 
HETATM   29  N4  UNL     1      -9.300   7.013 -23.704  1.00  0.00    -0.382 N 
HETATM   30  C21 UNL     1      -8.239   3.612 -24.582  1.00  0.00     0.025 A 
HETATM   31  C22 UNL     1     -10.322   4.339 -23.534  1.00  0.00     0.158 C 
HETATM   32  C23 UNL     1     -11.172   5.577 -23.441  1.00  0.00     0.064 C 
HETATM   33  O4  UNL     1     -10.169   3.747 -22.285  1.00  0.00    -0.378 OA
HETATM   34  C24 UNL     1     -10.334   6.653 -22.754  1.00  0.00     0.115 C 
HETATM   35  C25 UNL     1      -9.723   5.990 -21.513  1.00  0.00     0.164 C 
HETATM   36  C26 UNL     1     -10.377   4.644 -21.242  1.00  0.00     0.202 C 
ATOM     37  H4  UNL     1      -9.162   7.977 -24.011  1.00  0.00     0.160 HD
BRANCH  35  38
HETATM   38  O3  UNL     1      -8.352   5.886 -21.644  1.00  0.00    -0.391 OA
ATOM     39  H3  UNL     1      -8.039   5.085 -21.241  1.00  0.00     0.210 HD
ENDBRANCH  35  38
ENDBRANCH  23  24
ENDBRANCH   5  23
TORSDOF 7
ENDMDL
