MODEL 11
REMARK VINA RESULT: -8.710731738      3.389     11.819
REMARK  7 active torsions:
REMARK  status: ('A' for Active; 'I' for Inactive)
REMARK    1  A    between atoms: S1_2  and  C2_3 
REMARK    2  A    between atoms: C7_8  and  C8_9 
REMARK       I    between atoms: N1_13  and  C12_14 
REMARK    3  A    between atoms: C12_14  and  C13_16 
REMARK    4  A    between atoms: C13_16  and  N2_17 
REMARK       I    between atoms: N2_17  and  C14_19 
REMARK       I    between atoms: C14_19  and  N3_21 
REMARK    5  A    between atoms: N3_21  and  C15_23 
REMARK    6  A    between atoms: C15_23  and  C16_24 
REMARK    7  A    between atoms: C25_35  and  O3_36 
ROOT
HETATM    1  N2  UNL     1      -6.388   2.485 -24.806  1.00  0.00    -0.334 N 
ATOM      2  H2  UNL     1      -6.723   1.745 -24.188  1.00  0.00     0.164 HD
HETATM    3  C14 UNL     1      -5.160   2.366 -25.546  1.00  0.00     0.320 C 
HETATM    4  O2  UNL     1      -4.840   3.290 -26.322  1.00  0.00    -0.247 OA
HETATM    5  N3  UNL     1      -4.284   1.235 -25.411  1.00  0.00    -0.318 N 
ATOM      6  H3  UNL     1      -4.596   0.464 -24.820  1.00  0.00     0.170 HD
ENDROOT
BRANCH   1   7
HETATM    7  C13 UNL     1      -7.136   3.749 -24.996  1.00  0.00     0.227 C 
BRANCH   7   8
HETATM    8  C12 UNL     1      -8.291   3.665 -24.068  1.00  0.00     0.238 C 
HETATM    9  N1  UNL     1      -8.715   4.744 -23.305  1.00  0.00    -0.342 N 
HETATM   10  C8  UNL     1      -8.383   6.201 -23.365  1.00  0.00     0.121 C 
HETATM   11  C11 UNL     1      -9.710   4.625 -22.219  1.00  0.00     0.127 C 
HETATM   12  C9  UNL     1      -8.318   6.411 -21.870  1.00  0.00     0.032 C 
HETATM   13  C10 UNL     1      -9.614   5.873 -21.384  1.00  0.00     0.022 C 
HETATM   14  O1  UNL     1      -8.939   2.553 -23.938  1.00  0.00    -0.272 OA
BRANCH  10  15
HETATM   15  C7  UNL     1      -9.559   6.798 -24.031  1.00  0.00    -0.018 A 
HETATM   16  C2  UNL     1      -9.554   8.068 -24.535  1.00  0.00     0.008 A 
HETATM   17  C3  UNL     1     -10.619   8.560 -25.250  1.00  0.00     0.019 A 
HETATM   18  C4  UNL     1     -11.727   7.788 -25.483  1.00  0.00     0.001 A 
HETATM   19  C5  UNL     1     -11.782   6.507 -25.003  1.00  0.00     0.001 A 
HETATM   20  C6  UNL     1     -10.689   6.054 -24.292  1.00  0.00     0.011 A 
BRANCH  16  21
HETATM   21  S1  UNL     1      -8.206   9.189 -24.234  1.00  0.00    -0.134 SA
HETATM   22  C1  UNL     1      -6.848   8.990 -25.387  1.00  0.00     0.095 C 
ENDBRANCH  16  21
ENDBRANCH  10  15
ENDBRANCH   7   8
ENDBRANCH   1   7
BRANCH   5  23
HETATM   23  C15 UNL     1      -3.019   1.110 -26.035  1.00  0.00     0.104 C 
BRANCH  23  24
HETATM   24  C16 UNL     1      -2.120  -0.002 -25.792  1.00  0.00    -0.020 A 
HETATM   25  C17 UNL     1      -0.835  -0.024 -26.269  1.00  0.00     0.015 A 
HETATM   26  C18 UNL     1       0.037  -1.060 -25.941  1.00  0.00     0.030 A 
HETATM   27  C19 UNL     1      -0.378  -2.078 -25.130  1.00  0.00     0.037 A 
HETATM   28  C20 UNL     1      -1.663  -2.085 -24.637  1.00  0.00    -0.002 A 
HETATM   29  N4  UNL     1       0.494  -3.144 -24.749  1.00  0.00    -0.382 N 
HETATM   30  C21 UNL     1      -2.526  -1.069 -24.958  1.00  0.00     0.025 A 
HETATM   31  C22 UNL     1      -2.189  -3.157 -23.736  1.00  0.00     0.158 C 
HETATM   32  C23 UNL     1      -1.059  -3.956 -23.147  1.00  0.00     0.064 C 
HETATM   33  O4  UNL     1      -3.062  -3.979 -24.441  1.00  0.00    -0.378 OA
HETATM   34  C24 UNL     1      -0.143  -4.366 -24.299  1.00  0.00     0.115 C 
HETATM   35  C25 UNL     1      -1.059  -4.935 -25.390  1.00  0.00     0.164 C 
HETATM   36  C26 UNL     1      -2.462  -5.166 -24.851  1.00  0.00     0.202 C 
ATOM     37  H4  UNL     1       1.509  -3.050 -24.792  1.00  0.00     0.160 HD
BRANCH  35  38
HETATM   38  O3  UNL     1      -1.056  -4.114 -26.502  1.00  0.00    -0.391 OA
ATOM     39  H3  UNL     1      -1.945  -3.909 -26.767  1.00  0.00     0.210 HD
ENDBRANCH  35  38
ENDBRANCH  23  24
ENDBRANCH   5  23
TORSDOF 7
ENDMDL
