MODEL 6
REMARK VINA RESULT: -9.081031780      2.800      4.312
REMARK  7 active torsions:
REMARK  status: ('A' for Active; 'I' for Inactive)
REMARK    1  A    between atoms: S1_2  and  C2_3 
REMARK    2  A    between atoms: C7_8  and  C8_9 
REMARK       I    between atoms: N1_13  and  C12_14 
REMARK    3  A    between atoms: C12_14  and  C13_16 
REMARK    4  A    between atoms: C13_16  and  N2_17 
REMARK       I    between atoms: N2_17  and  C14_19 
REMARK       I    between atoms: C14_19  and  N3_21 
REMARK    5  A    between atoms: N3_21  and  C15_23 
REMARK    6  A    between atoms: C15_23  and  C16_24 
REMARK    7  A    between atoms: C25_35  and  O3_36 
ROOT
HETATM    1  N2  UNL     1      -5.215   1.715 -26.203  1.00  0.00    -0.334 N 
ATOM      2  H2  UNL     1      -5.351   0.811 -26.654  1.00  0.00     0.164 HD
HETATM    3  C14 UNL     1      -5.847   2.052 -24.956  1.00  0.00     0.320 C 
HETATM    4  O2  UNL     1      -5.592   3.159 -24.438  1.00  0.00    -0.247 OA
HETATM    5  N3  UNL     1      -6.772   1.171 -24.296  1.00  0.00    -0.318 N 
ATOM      6  H3  UNL     1      -6.915   0.247 -24.705  1.00  0.00     0.170 HD
ENDROOT
BRANCH   1   7
HETATM    7  C13 UNL     1      -4.354   2.765 -26.793  1.00  0.00     0.227 C 
BRANCH   7   8
HETATM    8  C12 UNL     1      -3.344   2.037 -27.601  1.00  0.00     0.238 C 
HETATM    9  N1  UNL     1      -2.025   1.895 -27.195  1.00  0.00    -0.342 N 
HETATM   10  C8  UNL     1      -1.352   2.140 -25.882  1.00  0.00     0.121 C 
HETATM   11  C11 UNL     1      -0.959   1.375 -28.077  1.00  0.00     0.127 C 
HETATM   12  C9  UNL     1      -0.094   2.748 -26.458  1.00  0.00     0.032 C 
HETATM   13  C10 UNL     1       0.360   1.738 -27.449  1.00  0.00     0.022 C 
HETATM   14  O1  UNL     1      -3.677   1.514 -28.737  1.00  0.00    -0.272 OA
BRANCH  10  15
HETATM   15  C7  UNL     1      -1.191   0.786 -25.315  1.00  0.00    -0.018 A 
HETATM   16  C2  UNL     1      -0.322   0.511 -24.297  1.00  0.00     0.008 A 
HETATM   17  C3  UNL     1      -0.273  -0.729 -23.711  1.00  0.00     0.019 A 
HETATM   18  C4  UNL     1      -1.100  -1.739 -24.129  1.00  0.00     0.001 A 
HETATM   19  C5  UNL     1      -1.993  -1.516 -25.144  1.00  0.00     0.001 A 
HETATM   20  C6  UNL     1      -2.008  -0.254 -25.703  1.00  0.00     0.011 A 
BRANCH  16  21
HETATM   21  S1  UNL     1       0.851   1.717 -23.719  1.00  0.00    -0.134 SA
HETATM   22  C1  UNL     1       0.170   2.842 -22.501  1.00  0.00     0.095 C 
ENDBRANCH  16  21
ENDBRANCH  10  15
ENDBRANCH   7   8
ENDBRANCH   1   7
BRANCH   5  23
HETATM   23  C15 UNL     1      -7.498   1.488 -23.123  1.00  0.00     0.104 C 
BRANCH  23  24
HETATM   24  C16 UNL     1      -8.617   2.412 -23.107  1.00  0.00    -0.020 A 
HETATM   25  C17 UNL     1      -9.916   1.992 -23.228  1.00  0.00     0.015 A 
HETATM   26  C18 UNL     1     -10.975   2.890 -23.114  1.00  0.00     0.030 A 
HETATM   27  C19 UNL     1     -10.734   4.213 -22.876  1.00  0.00     0.037 A 
HETATM   28  C20 UNL     1      -9.439   4.664 -22.752  1.00  0.00    -0.002 A 
HETATM   29  N4  UNL     1     -11.793   5.160 -22.726  1.00  0.00    -0.382 N 
HETATM   30  C21 UNL     1      -8.393   3.787 -22.864  1.00  0.00     0.025 A 
HETATM   31  C22 UNL     1      -9.094   6.095 -22.481  1.00  0.00     0.158 C 
HETATM   32  C23 UNL     1     -10.298   6.846 -21.981  1.00  0.00     0.064 C 
HETATM   33  O4  UNL     1      -8.586   6.684 -23.634  1.00  0.00    -0.378 OA
HETATM   34  C24 UNL     1     -11.448   6.551 -22.941  1.00  0.00     0.115 C 
HETATM   35  C25 UNL     1     -10.888   6.759 -24.354  1.00  0.00     0.164 C 
HETATM   36  C26 UNL     1      -9.535   7.451 -24.302  1.00  0.00     0.202 C 
ATOM     37  H4  UNL     1     -12.741   4.871 -22.482  1.00  0.00     0.160 HD
BRANCH  35  38
HETATM   38  O3  UNL     1     -10.835   5.559 -25.036  1.00  0.00    -0.391 OA
ATOM     39  H3  UNL     1     -10.282   5.637 -25.804  1.00  0.00     0.210 HD
ENDBRANCH  35  38
ENDBRANCH  23  24
ENDBRANCH   5  23
TORSDOF 7
ENDMDL
