MODEL 15
REMARK VINA RESULT: -7.273629355      4.985     10.508
REMARK  8 active torsions:
REMARK  status: ('A' for Active; 'I' for Inactive)
REMARK    1  A    between atoms: C7_7  and  C8_8 
REMARK       I    between atoms: C8_8  and  N1_10 
REMARK    2  A    between atoms: N1_10  and  C9_12 
REMARK    3  A    between atoms: C9_12  and  C10_13 
REMARK    4  A    between atoms: C9_12  and  C11_16 
REMARK    5  A    between atoms: C10_13  and  O2_14 
REMARK    6  A    between atoms: C14_19  and  S1_20 
REMARK    7  A    between atoms: S1_20  and  C15_23 
REMARK    8  A    between atoms: C15_23  and  C16_24 
ROOT
HETATM    1  C8  UNL     1      19.917  -4.929  -3.812  1.00  0.00     0.269 C 
HETATM    2  O1  UNL     1      20.445  -4.366  -2.785  1.00  0.00    -0.266 OA
HETATM    3  N1  UNL     1      20.201  -6.283  -3.959  1.00  0.00    -0.345 N 
ATOM      4  H1  UNL     1      19.817  -6.795  -4.754  1.00  0.00     0.163 HD
ENDROOT
BRANCH   3   5
HETATM    5  C9  UNL     1      21.033  -6.973  -2.999  1.00  0.00     0.141 C 
BRANCH   5   6
HETATM    6  C10 UNL     1      22.457  -7.141  -3.529  1.00  0.00     0.194 C 
BRANCH   6   7
HETATM    7  O2  UNL     1      23.097  -5.926  -3.487  1.00  0.00    -0.399 OA
ATOM      8  H2  UNL     1      23.710  -5.924  -2.761  1.00  0.00     0.209 HD
ENDBRANCH   6   7
ENDBRANCH   5   6
BRANCH   5   9
HETATM    9  C11 UNL     1      20.534  -8.335  -2.679  1.00  0.00    -0.033 A 
HETATM   10  C12 UNL     1      19.638  -8.564  -1.640  1.00  0.00     0.011 A 
HETATM   11  C13 UNL     1      19.192  -9.844  -1.368  1.00  0.00     0.024 A 
HETATM   12  C14 UNL     1      19.622 -10.925  -2.119  1.00  0.00     0.059 A 
HETATM   13  C17 UNL     1      20.508 -10.708  -3.148  1.00  0.00     0.024 A 
HETATM   14  C18 UNL     1      20.937  -9.418  -3.397  1.00  0.00     0.011 A 
BRANCH  12  15
HETATM   15  S1  UNL     1      19.093 -12.553  -1.797  1.00  0.00     0.185 S 
HETATM   16  O3  UNL     1      19.932 -13.074  -0.652  1.00  0.00    -0.222 OA
HETATM   17  O4  UNL     1      19.347 -13.402  -3.010  1.00  0.00    -0.222 OA
BRANCH  15  18
HETATM   18  C15 UNL     1      17.413 -12.653  -1.322  1.00  0.00     0.258 C 
BRANCH  18  19
HETATM   19  C16 UNL     1      17.144 -12.795   0.099  1.00  0.00     0.187 C 
HETATM   20  O5  UNL     1      16.471 -13.777   0.495  1.00  0.00    -0.647 OA
HETATM   21  O6  UNL     1      17.604 -11.886   1.022  1.00  0.00    -0.647 OA
ENDBRANCH  18  19
ENDBRANCH  15  18
ENDBRANCH  12  15
ENDBRANCH   5   9
ENDBRANCH   3   5
BRANCH   1  22
HETATM   22  C7  UNL     1      19.097  -4.086  -4.690  1.00  0.00     0.104 A 
HETATM   23  C6  UNL     1      17.714  -4.182  -4.795  1.00  0.00     0.051 A 
HETATM   24  C5  UNL     1      17.305  -3.249  -5.705  1.00  0.00     0.017 A 
HETATM   25  C4  UNL     1      18.399  -2.568  -6.177  1.00  0.00     0.047 A 
HETATM   26  C20 UNL     1      16.048  -2.889  -6.209  1.00  0.00     0.068 A 
HETATM   27  C3  UNL     1      18.255  -1.558  -7.119  1.00  0.00     0.039 A 
HETATM   28  N2  UNL     1      19.472  -3.115  -5.527  1.00  0.00    -0.346 N 
HETATM   29  C2  UNL     1      16.992  -1.241  -7.584  1.00  0.00    -0.036 A 
HETATM   30  C1  UNL     1      16.856  -0.165  -8.586  1.00  0.00     0.050 C 
HETATM   31  C21 UNL     1      15.862  -1.899  -7.139  1.00  0.00     0.062 A 
HETATM   32 CL2  UNL     1      14.262  -1.487  -7.737  1.00  0.00    -0.082 Cl
HETATM   33  C19 UNL     1      20.836  -2.629  -5.790  1.00  0.00     0.156 C 
HETATM   34 CL1  UNL     1      14.657  -3.767  -5.599  1.00  0.00    -0.082 Cl
ENDBRANCH   1  22
TORSDOF 8
ENDMDL
