MODEL 2
REMARK VINA RESULT: -8.603834036      1.137      1.669
REMARK  8 active torsions:
REMARK  status: ('A' for Active; 'I' for Inactive)
REMARK    1  A    between atoms: C7_7  and  C8_8 
REMARK       I    between atoms: C8_8  and  N1_10 
REMARK    2  A    between atoms: N1_10  and  C9_12 
REMARK    3  A    between atoms: C9_12  and  C10_13 
REMARK    4  A    between atoms: C9_12  and  C11_16 
REMARK    5  A    between atoms: C10_13  and  O2_14 
REMARK    6  A    between atoms: C14_19  and  S1_20 
REMARK    7  A    between atoms: S1_20  and  C15_23 
REMARK    8  A    between atoms: C15_23  and  C16_24 
ROOT
HETATM    1  C8  UNL     1      19.258 -11.931  -1.699  1.00  0.00     0.269 C 
HETATM    2  O1  UNL     1      19.487 -12.316  -2.903  1.00  0.00    -0.266 OA
HETATM    3  N1  UNL     1      20.030 -10.860  -1.262  1.00  0.00    -0.345 N 
ATOM      4  H1  UNL     1      19.904 -10.501  -0.316  1.00  0.00     0.163 HD
ENDROOT
BRANCH   3   5
HETATM    5  C9  UNL     1      21.008 -10.247  -2.134  1.00  0.00     0.141 C 
BRANCH   5   6
HETATM    6  C10 UNL     1      22.166  -9.658  -1.329  1.00  0.00     0.194 C 
BRANCH   6   7
HETATM    7  O2  UNL     1      22.721 -10.646  -0.554  1.00  0.00    -0.399 OA
ATOM      8  H2  UNL     1      23.459 -11.026  -1.017  1.00  0.00     0.209 HD
ENDBRANCH   6   7
ENDBRANCH   5   6
BRANCH   5   9
HETATM    9  C11 UNL     1      20.443  -9.138  -2.944  1.00  0.00    -0.033 A 
HETATM   10  C12 UNL     1      20.765  -8.970  -4.287  1.00  0.00     0.011 A 
HETATM   11  C13 UNL     1      20.220  -7.927  -5.013  1.00  0.00     0.024 A 
HETATM   12  C14 UNL     1      19.345  -7.029  -4.426  1.00  0.00     0.059 A 
HETATM   13  C17 UNL     1      19.021  -7.187  -3.100  1.00  0.00     0.024 A 
HETATM   14  C18 UNL     1      19.580  -8.238  -2.398  1.00  0.00     0.011 A 
BRANCH  12  15
HETATM   15  S1  UNL     1      18.651  -5.695  -5.306  1.00  0.00     0.185 S 
HETATM   16  O3  UNL     1      17.195  -5.608  -4.904  1.00  0.00    -0.222 OA
HETATM   17  O4  UNL     1      18.731  -5.982  -6.778  1.00  0.00    -0.222 OA
BRANCH  15  18
HETATM   18  C15 UNL     1      19.402  -4.159  -4.939  1.00  0.00     0.258 C 
BRANCH  18  19
HETATM   19  C16 UNL     1      20.617  -4.200  -4.143  1.00  0.00     0.187 C 
HETATM   20  O5  UNL     1      21.716  -4.390  -4.719  1.00  0.00    -0.647 OA
HETATM   21  O6  UNL     1      20.600  -4.037  -2.778  1.00  0.00    -0.647 OA
ENDBRANCH  18  19
ENDBRANCH  15  18
ENDBRANCH  12  15
ENDBRANCH   5   9
ENDBRANCH   3   5
BRANCH   1  22
HETATM   22  C7  UNL     1      18.230 -12.659  -0.947  1.00  0.00     0.104 A 
HETATM   23  C6  UNL     1      17.693 -12.227   0.260  1.00  0.00     0.051 A 
HETATM   24  C5  UNL     1      16.777 -13.158   0.660  1.00  0.00     0.017 A 
HETATM   25  C4  UNL     1      16.726 -14.169  -0.268  1.00  0.00     0.047 A 
HETATM   26  C20 UNL     1      15.936 -13.258   1.776  1.00  0.00     0.068 A 
HETATM   27  C3  UNL     1      15.867 -15.247  -0.097  1.00  0.00     0.039 A 
HETATM   28  N2  UNL     1      17.633 -13.820  -1.232  1.00  0.00    -0.346 N 
HETATM   29  C2  UNL     1      15.057 -15.297   1.023  1.00  0.00    -0.036 A 
HETATM   30  C1  UNL     1      14.150 -16.450   1.190  1.00  0.00     0.050 C 
HETATM   31  C21 UNL     1      15.075 -14.303   1.982  1.00  0.00     0.062 A 
HETATM   32 CL2  UNL     1      14.040 -14.378   3.402  1.00  0.00    -0.082 Cl
HETATM   33  C19 UNL     1      17.855 -14.686  -2.400  1.00  0.00     0.156 C 
HETATM   34 CL1  UNL     1      16.010 -11.960   2.954  1.00  0.00    -0.082 Cl
ENDBRANCH   1  22
TORSDOF 8
ENDMDL
