MODEL 7
REMARK VINA RESULT: -7.918810329      1.397      1.748
REMARK  8 active torsions:
REMARK  status: ('A' for Active; 'I' for Inactive)
REMARK    1  A    between atoms: C7_7  and  C8_8 
REMARK       I    between atoms: C8_8  and  N1_10 
REMARK    2  A    between atoms: N1_10  and  C9_12 
REMARK    3  A    between atoms: C9_12  and  C10_13 
REMARK    4  A    between atoms: C9_12  and  C11_16 
REMARK    5  A    between atoms: C10_13  and  O2_14 
REMARK    6  A    between atoms: C14_19  and  S1_20 
REMARK    7  A    between atoms: S1_20  and  C15_23 
REMARK    8  A    between atoms: C15_23  and  C16_24 
ROOT
HETATM    1  C8  UNL     1      19.333 -12.344  -2.463  1.00  0.00     0.269 C 
HETATM    2  O1  UNL     1      19.443 -12.503  -3.732  1.00  0.00    -0.266 OA
HETATM    3  N1  UNL     1      20.138 -11.348  -1.918  1.00  0.00    -0.345 N 
ATOM      4  H1  UNL     1      20.105 -11.166  -0.915  1.00  0.00     0.163 HD
ENDROOT
BRANCH   3   5
HETATM    5  C9  UNL     1      21.019 -10.566  -2.757  1.00  0.00     0.141 C 
BRANCH   5   6
HETATM    6  C10 UNL     1      22.280 -10.158  -1.995  1.00  0.00     0.194 C 
BRANCH   6   7
HETATM    7  O2  UNL     1      22.213 -10.657  -0.718  1.00  0.00    -0.399 OA
ATOM      8  H2  UNL     1      21.448 -11.215  -0.643  1.00  0.00     0.209 HD
ENDBRANCH   6   7
ENDBRANCH   5   6
BRANCH   5   9
HETATM    9  C11 UNL     1      20.389  -9.312  -3.242  1.00  0.00    -0.033 A 
HETATM   10  C12 UNL     1      19.716  -8.447  -2.386  1.00  0.00     0.011 A 
HETATM   11  C13 UNL     1      19.140  -7.287  -2.870  1.00  0.00     0.024 A 
HETATM   12  C14 UNL     1      19.220  -6.957  -4.212  1.00  0.00     0.059 A 
HETATM   13  C17 UNL     1      19.883  -7.805  -5.067  1.00  0.00     0.024 A 
HETATM   14  C18 UNL     1      20.449  -8.958  -4.555  1.00  0.00     0.011 A 
BRANCH  12  15
HETATM   15  S1  UNL     1      18.496  -5.511  -4.860  1.00  0.00     0.185 S 
HETATM   16  O3  UNL     1      17.313  -5.174  -3.979  1.00  0.00    -0.222 OA
HETATM   17  O4  UNL     1      18.001  -5.790  -6.251  1.00  0.00    -0.222 OA
BRANCH  15  18
HETATM   18  C15 UNL     1      19.576  -4.136  -4.859  1.00  0.00     0.258 C 
BRANCH  18  19
HETATM   19  C16 UNL     1      20.741  -4.222  -3.995  1.00  0.00     0.187 C 
HETATM   20  O5  UNL     1      20.601  -4.028  -2.763  1.00  0.00    -0.647 OA
HETATM   21  O6  UNL     1      21.993  -4.509  -4.486  1.00  0.00    -0.647 OA
ENDBRANCH  18  19
ENDBRANCH  15  18
ENDBRANCH  12  15
ENDBRANCH   5   9
ENDBRANCH   3   5
BRANCH   1  22
HETATM   22  C7  UNL     1      18.392 -13.219  -1.756  1.00  0.00     0.104 A 
HETATM   23  C6  UNL     1      17.687 -12.850  -0.616  1.00  0.00     0.051 A 
HETATM   24  C5  UNL     1      16.921 -13.918  -0.243  1.00  0.00     0.017 A 
HETATM   25  C4  UNL     1      17.127 -14.951  -1.122  1.00  0.00     0.047 A 
HETATM   26  C20 UNL     1      16.020 -14.130   0.810  1.00  0.00     0.068 A 
HETATM   27  C3  UNL     1      16.461 -16.161  -0.966  1.00  0.00     0.039 A 
HETATM   28  N2  UNL     1      18.035 -14.477  -2.030  1.00  0.00    -0.346 N 
HETATM   29  C2  UNL     1      15.582 -16.318   0.090  1.00  0.00    -0.036 A 
HETATM   30  C1  UNL     1      14.883 -17.609   0.243  1.00  0.00     0.050 C 
HETATM   31  C21 UNL     1      15.344 -15.306   1.000  1.00  0.00     0.062 A 
HETATM   32 CL2  UNL     1      14.224 -15.518   2.338  1.00  0.00    -0.082 Cl
HETATM   33  C19 UNL     1      18.504 -15.328  -3.136  1.00  0.00     0.156 C 
HETATM   34 CL1  UNL     1      15.765 -12.802   1.927  1.00  0.00    -0.082 Cl
ENDBRANCH   1  22
TORSDOF 8
ENDMDL
