MODEL 12
REMARK VINA RESULT: -7.687074650      3.258      4.927
REMARK  8 active torsions:
REMARK  status: ('A' for Active; 'I' for Inactive)
REMARK    1  A    between atoms: C7_7  and  C8_8 
REMARK       I    between atoms: C8_8  and  N1_10 
REMARK    2  A    between atoms: N1_10  and  C9_12 
REMARK    3  A    between atoms: C9_12  and  C10_13 
REMARK    4  A    between atoms: C9_12  and  C11_16 
REMARK    5  A    between atoms: C10_13  and  O2_14 
REMARK    6  A    between atoms: C14_19  and  S1_20 
REMARK    7  A    between atoms: S1_20  and  C15_23 
REMARK    8  A    between atoms: C15_23  and  C16_24 
ROOT
HETATM    1  C8  UNL     1      19.193 -10.429  -1.193  1.00  0.00     0.269 C 
HETATM    2  O1  UNL     1      18.760  -9.250  -0.924  1.00  0.00    -0.266 OA
HETATM    3  N1  UNL     1      20.414 -10.474  -1.860  1.00  0.00    -0.345 N 
ATOM      4  H1  UNL     1      20.819 -11.377  -2.108  1.00  0.00     0.163 HD
ENDROOT
BRANCH   3   5
HETATM    5  C9  UNL     1      21.116  -9.257  -2.204  1.00  0.00     0.141 C 
BRANCH   5   6
HETATM    6  C10 UNL     1      20.729  -8.779  -3.603  1.00  0.00     0.194 C 
BRANCH   6   7
HETATM    7  O2  UNL     1      19.736  -7.837  -3.496  1.00  0.00    -0.399 OA
ATOM      8  H2  UNL     1      18.910  -8.225  -3.763  1.00  0.00     0.209 HD
ENDBRANCH   6   7
ENDBRANCH   5   6
BRANCH   5   9
HETATM    9  C11 UNL     1      22.591  -9.424  -2.202  1.00  0.00    -0.033 A 
HETATM   10  C12 UNL     1      23.239 -10.235  -1.276  1.00  0.00     0.011 A 
HETATM   11  C13 UNL     1      24.615 -10.369  -1.302  1.00  0.00     0.024 A 
HETATM   12  C14 UNL     1      25.379  -9.704  -2.247  1.00  0.00     0.059 A 
HETATM   13  C17 UNL     1      24.748  -8.900  -3.166  1.00  0.00     0.024 A 
HETATM   14  C18 UNL     1      23.372  -8.785  -3.116  1.00  0.00     0.011 A 
BRANCH  12  15
HETATM   15  S1  UNL     1      27.115  -9.838  -2.301  1.00  0.00     0.185 S 
HETATM   16  O3  UNL     1      27.464 -10.571  -3.577  1.00  0.00    -0.222 OA
HETATM   17  O4  UNL     1      27.583 -10.654  -1.130  1.00  0.00    -0.222 OA
BRANCH  15  18
HETATM   18  C15 UNL     1      27.928  -8.290  -2.333  1.00  0.00     0.258 C 
BRANCH  18  19
HETATM   19  C16 UNL     1      27.571  -7.344  -1.288  1.00  0.00     0.187 C 
HETATM   20  O5  UNL     1      28.130  -7.436  -0.168  1.00  0.00    -0.647 OA
HETATM   21  O6  UNL     1      26.641  -6.353  -1.490  1.00  0.00    -0.647 OA
ENDBRANCH  18  19
ENDBRANCH  15  18
ENDBRANCH  12  15
ENDBRANCH   5   9
ENDBRANCH   3   5
BRANCH   1  22
HETATM   22  C7  UNL     1      18.360 -11.561  -0.775  1.00  0.00     0.104 A 
HETATM   23  C6  UNL     1      17.633 -11.600   0.410  1.00  0.00     0.051 A 
HETATM   24  C5  UNL     1      16.991 -12.804   0.459  1.00  0.00     0.017 A 
HETATM   25  C4  UNL     1      17.296 -13.526  -0.668  1.00  0.00     0.047 A 
HETATM   26  C20 UNL     1      16.131 -13.394   1.395  1.00  0.00     0.068 A 
HETATM   27  C3  UNL     1      16.767 -14.795  -0.865  1.00  0.00     0.039 A 
HETATM   28  N2  UNL     1      18.137 -12.724  -1.392  1.00  0.00    -0.346 N 
HETATM   29  C2  UNL     1      15.922 -15.331   0.090  1.00  0.00    -0.036 A 
HETATM   30  C1  UNL     1      15.367 -16.681  -0.134  1.00  0.00     0.050 C 
HETATM   31  C21 UNL     1      15.587 -14.642   1.239  1.00  0.00     0.062 A 
HETATM   32 CL2  UNL     1      14.513 -15.335   2.446  1.00  0.00    -0.082 Cl
HETATM   33  C19 UNL     1      18.682 -13.180  -2.681  1.00  0.00     0.156 C 
HETATM   34 CL1  UNL     1      15.748 -12.463   2.831  1.00  0.00    -0.082 Cl
ENDBRANCH   1  22
TORSDOF 8
ENDMDL
