MODEL 4
REMARK VINA RESULT: -8.413615026      1.706      2.333
REMARK  8 active torsions:
REMARK  status: ('A' for Active; 'I' for Inactive)
REMARK    1  A    between atoms: C7_7  and  C8_8 
REMARK       I    between atoms: C8_8  and  N1_10 
REMARK    2  A    between atoms: N1_10  and  C9_12 
REMARK    3  A    between atoms: C9_12  and  C10_13 
REMARK    4  A    between atoms: C9_12  and  C11_16 
REMARK    5  A    between atoms: C10_13  and  O2_14 
REMARK    6  A    between atoms: C14_19  and  S1_20 
REMARK    7  A    between atoms: S1_20  and  C15_23 
REMARK    8  A    between atoms: C15_23  and  C16_24 
ROOT
HETATM    1  C8  UNL     1      19.258 -11.930  -1.712  1.00  0.00     0.269 C 
HETATM    2  O1  UNL     1      19.440 -12.270  -2.937  1.00  0.00    -0.266 OA
HETATM    3  N1  UNL     1      20.070 -10.897  -1.255  1.00  0.00    -0.345 N 
ATOM      4  H1  UNL     1      19.983 -10.575  -0.292  1.00  0.00     0.163 HD
ENDROOT
BRANCH   3   5
HETATM    5  C9  UNL     1      21.036 -10.272  -2.132  1.00  0.00     0.141 C 
BRANCH   5   6
HETATM    6  C10 UNL     1      22.144  -9.590  -1.328  1.00  0.00     0.194 C 
BRANCH   6   7
HETATM    7  O2  UNL     1      22.723 -10.513  -0.492  1.00  0.00    -0.399 OA
ATOM      8  H2  UNL     1      22.725 -11.361  -0.921  1.00  0.00     0.209 HD
ENDBRANCH   6   7
ENDBRANCH   5   6
BRANCH   5   9
HETATM    9  C11 UNL     1      20.435  -9.228  -3.000  1.00  0.00    -0.033 A 
HETATM   10  C12 UNL     1      20.595  -9.238  -4.382  1.00  0.00     0.011 A 
HETATM   11  C13 UNL     1      20.022  -8.251  -5.162  1.00  0.00     0.024 A 
HETATM   12  C14 UNL     1      19.275  -7.234  -4.591  1.00  0.00     0.059 A 
HETATM   13  C17 UNL     1      19.111  -7.215  -3.227  1.00  0.00     0.024 A 
HETATM   14  C18 UNL     1      19.696  -8.214  -2.471  1.00  0.00     0.011 A 
BRANCH  12  15
HETATM   15  S1  UNL     1      18.550  -5.966  -5.541  1.00  0.00     0.185 S 
HETATM   16  O3  UNL     1      18.441  -6.481  -6.959  1.00  0.00    -0.222 OA
HETATM   17  O4  UNL     1      19.451  -4.765  -5.528  1.00  0.00    -0.222 OA
BRANCH  15  18
HETATM   18  C15 UNL     1      16.944  -5.532  -5.002  1.00  0.00     0.258 C 
BRANCH  18  19
HETATM   19  C16 UNL     1      16.817  -4.288  -4.262  1.00  0.00     0.187 C 
HETATM   20  O5  UNL     1      16.969  -4.303  -3.016  1.00  0.00    -0.647 OA
HETATM   21  O6  UNL     1      16.537  -3.095  -4.885  1.00  0.00    -0.647 OA
ENDBRANCH  18  19
ENDBRANCH  15  18
ENDBRANCH  12  15
ENDBRANCH   5   9
ENDBRANCH   3   5
BRANCH   1  22
HETATM   22  C7  UNL     1      18.237 -12.665  -0.958  1.00  0.00     0.104 A 
HETATM   23  C6  UNL     1      17.686 -12.228   0.241  1.00  0.00     0.051 A 
HETATM   24  C5  UNL     1      16.781 -13.167   0.646  1.00  0.00     0.017 A 
HETATM   25  C4  UNL     1      16.749 -14.188  -0.272  1.00  0.00     0.047 A 
HETATM   26  C20 UNL     1      15.935 -13.267   1.758  1.00  0.00     0.068 A 
HETATM   27  C3  UNL     1      15.903 -15.276  -0.096  1.00  0.00     0.039 A 
HETATM   28  N2  UNL     1      17.656 -13.836  -1.235  1.00  0.00    -0.346 N 
HETATM   29  C2  UNL     1      15.088 -15.325   1.020  1.00  0.00    -0.036 A 
HETATM   30  C1  UNL     1      14.195 -16.489   1.193  1.00  0.00     0.050 C 
HETATM   31  C21 UNL     1      15.087 -14.322   1.970  1.00  0.00     0.062 A 
HETATM   32 CL2  UNL     1      14.045 -14.397   3.384  1.00  0.00    -0.082 Cl
HETATM   33  C19 UNL     1      17.897 -14.710  -2.394  1.00  0.00     0.156 C 
HETATM   34 CL1  UNL     1      15.985 -11.958   2.924  1.00  0.00    -0.082 Cl
ENDBRANCH   1  22
TORSDOF 8
ENDMDL
