MODEL 1
REMARK VINA RESULT: -8.676571758      0.000      0.000
REMARK  8 active torsions:
REMARK  status: ('A' for Active; 'I' for Inactive)
REMARK    1  A    between atoms: C7_7  and  C8_8 
REMARK       I    between atoms: C8_8  and  N1_10 
REMARK    2  A    between atoms: N1_10  and  C9_12 
REMARK    3  A    between atoms: C9_12  and  C10_13 
REMARK    4  A    between atoms: C9_12  and  C11_16 
REMARK    5  A    between atoms: C10_13  and  O2_14 
REMARK    6  A    between atoms: C14_19  and  S1_20 
REMARK    7  A    between atoms: S1_20  and  C15_23 
REMARK    8  A    between atoms: C15_23  and  C16_24 
ROOT
HETATM    1  C8  UNL     1      19.503 -11.902  -1.743  1.00  0.00     0.269 C 
HETATM    2  O1  UNL     1      19.668 -12.221  -2.976  1.00  0.00    -0.266 OA
HETATM    3  N1  UNL     1      20.372 -10.930  -1.259  1.00  0.00    -0.345 N 
ATOM      4  H1  UNL     1      20.300 -10.628  -0.287  1.00  0.00     0.163 HD
ENDROOT
BRANCH   3   5
HETATM    5  C9  UNL     1      21.375 -10.340  -2.117  1.00  0.00     0.141 C 
BRANCH   5   6
HETATM    6  C10 UNL     1      22.724 -10.254  -1.404  1.00  0.00     0.194 C 
BRANCH   6   7
HETATM    7  O2  UNL     1      22.545  -9.662  -0.178  1.00  0.00    -0.399 OA
ATOM      8  H2  UNL     1      22.779  -8.743  -0.240  1.00  0.00     0.209 HD
ENDBRANCH   6   7
ENDBRANCH   5   6
BRANCH   5   9
HETATM    9  C11 UNL     1      21.029  -8.960  -2.544  1.00  0.00    -0.033 A 
HETATM   10  C12 UNL     1      19.816  -8.369  -2.208  1.00  0.00     0.011 A 
HETATM   11  C13 UNL     1      19.524  -7.082  -2.621  1.00  0.00     0.024 A 
HETATM   12  C14 UNL     1      20.429  -6.352  -3.373  1.00  0.00     0.059 A 
HETATM   13  C17 UNL     1      21.630  -6.927  -3.710  1.00  0.00     0.024 A 
HETATM   14  C18 UNL     1      21.895  -8.215  -3.284  1.00  0.00     0.011 A 
BRANCH  12  15
HETATM   15  S1  UNL     1      20.090  -4.733  -3.923  1.00  0.00     0.185 S 
HETATM   16  O3  UNL     1      20.676  -3.786  -2.900  1.00  0.00    -0.222 OA
HETATM   17  O4  UNL     1      18.603  -4.532  -3.974  1.00  0.00    -0.222 OA
BRANCH  15  18
HETATM   18  C15 UNL     1      20.812  -4.364  -5.472  1.00  0.00     0.258 C 
BRANCH  18  19
HETATM   19  C16 UNL     1      21.440  -3.061  -5.606  1.00  0.00     0.187 C 
HETATM   20  O5  UNL     1      22.684  -2.998  -5.763  1.00  0.00    -0.647 OA
HETATM   21  O6  UNL     1      20.714  -1.894  -5.566  1.00  0.00    -0.647 OA
ENDBRANCH  18  19
ENDBRANCH  15  18
ENDBRANCH  12  15
ENDBRANCH   5   9
ENDBRANCH   3   5
BRANCH   1  22
HETATM   22  C7  UNL     1      18.437 -12.595  -1.009  1.00  0.00     0.104 A 
HETATM   23  C6  UNL     1      17.918 -12.163   0.206  1.00  0.00     0.051 A 
HETATM   24  C5  UNL     1      16.955 -13.056   0.583  1.00  0.00     0.017 A 
HETATM   25  C4  UNL     1      16.857 -14.042  -0.368  1.00  0.00     0.047 A 
HETATM   26  C20 UNL     1      16.106 -13.139   1.695  1.00  0.00     0.068 A 
HETATM   27  C3  UNL     1      15.945 -15.080  -0.224  1.00  0.00     0.039 A 
HETATM   28  N2  UNL     1      17.783 -13.717  -1.322  1.00  0.00    -0.346 N 
HETATM   29  C2  UNL     1      15.129 -15.114   0.892  1.00  0.00    -0.036 A 
HETATM   30  C1  UNL     1      14.165 -16.223   1.031  1.00  0.00     0.050 C 
HETATM   31  C21 UNL     1      15.193 -14.145   1.875  1.00  0.00     0.062 A 
HETATM   32 CL2  UNL     1      14.152 -14.199   3.290  1.00  0.00    -0.082 Cl
HETATM   33  C19 UNL     1      17.966 -14.567  -2.510  1.00  0.00     0.156 C 
HETATM   34 CL1  UNL     1      16.242 -11.874   2.902  1.00  0.00    -0.082 Cl
ENDBRANCH   1  22
TORSDOF 8
ENDMDL
