MODEL 3
REMARK VINA RESULT: -8.588612585      1.269      1.997
REMARK  8 active torsions:
REMARK  status: ('A' for Active; 'I' for Inactive)
REMARK    1  A    between atoms: C7_7  and  C8_8 
REMARK       I    between atoms: C8_8  and  N1_10 
REMARK    2  A    between atoms: N1_10  and  C9_12 
REMARK    3  A    between atoms: C9_12  and  C10_13 
REMARK    4  A    between atoms: C9_12  and  C11_16 
REMARK    5  A    between atoms: C10_13  and  O2_14 
REMARK    6  A    between atoms: C14_19  and  S1_20 
REMARK    7  A    between atoms: S1_20  and  C15_23 
REMARK    8  A    between atoms: C15_23  and  C16_24 
ROOT
HETATM    1  C8  UNL     1      19.459 -11.995  -1.714  1.00  0.00     0.269 C 
HETATM    2  O1  UNL     1      19.568 -12.242  -2.969  1.00  0.00    -0.266 OA
HETATM    3  N1  UNL     1      20.385 -11.090  -1.204  1.00  0.00    -0.345 N 
ATOM      4  H1  UNL     1      20.359 -10.848  -0.213  1.00  0.00     0.163 HD
ENDROOT
BRANCH   3   5
HETATM    5  C9  UNL     1      21.382 -10.489  -2.061  1.00  0.00     0.141 C 
BRANCH   5   6
HETATM    6  C10 UNL     1      22.732 -10.396  -1.350  1.00  0.00     0.194 C 
BRANCH   6   7
HETATM    7  O2  UNL     1      22.575  -9.691  -0.182  1.00  0.00    -0.399 OA
ATOM      8  H2  UNL     1      23.324  -9.119  -0.063  1.00  0.00     0.209 HD
ENDBRANCH   6   7
ENDBRANCH   5   6
BRANCH   5   9
HETATM    9  C11 UNL     1      21.025  -9.110  -2.480  1.00  0.00    -0.033 A 
HETATM   10  C12 UNL     1      21.888  -8.323  -3.236  1.00  0.00     0.011 A 
HETATM   11  C13 UNL     1      21.525  -7.043  -3.610  1.00  0.00     0.024 A 
HETATM   12  C14 UNL     1      20.298  -6.513  -3.245  1.00  0.00     0.059 A 
HETATM   13  C17 UNL     1      19.438  -7.283  -2.498  1.00  0.00     0.024 A 
HETATM   14  C18 UNL     1      19.828  -8.559  -2.138  1.00  0.00     0.011 A 
BRANCH  12  15
HETATM   15  S1  UNL     1      19.812  -4.900  -3.686  1.00  0.00     0.185 S 
HETATM   16  O3  UNL     1      20.049  -4.755  -5.172  1.00  0.00    -0.222 OA
HETATM   17  O4  UNL     1      20.677  -3.910  -2.958  1.00  0.00    -0.222 OA
BRANCH  15  18
HETATM   18  C15 UNL     1      18.121  -4.578  -3.378  1.00  0.00     0.258 C 
BRANCH  18  19
HETATM   19  C16 UNL     1      17.236  -4.576  -4.530  1.00  0.00     0.187 C 
HETATM   20  O5  UNL     1      16.806  -5.671  -4.968  1.00  0.00    -0.647 OA
HETATM   21  O6  UNL     1      16.856  -3.413  -5.155  1.00  0.00    -0.647 OA
ENDBRANCH  18  19
ENDBRANCH  15  18
ENDBRANCH  12  15
ENDBRANCH   5   9
ENDBRANCH   3   5
BRANCH   1  22
HETATM   22  C7  UNL     1      18.391 -12.689  -0.985  1.00  0.00     0.104 A 
HETATM   23  C6  UNL     1      17.861 -12.254   0.224  1.00  0.00     0.051 A 
HETATM   24  C5  UNL     1      16.899 -13.150   0.597  1.00  0.00     0.017 A 
HETATM   25  C4  UNL     1      16.812 -14.140  -0.349  1.00  0.00     0.047 A 
HETATM   26  C20 UNL     1      16.042 -13.231   1.704  1.00  0.00     0.068 A 
HETATM   27  C3  UNL     1      15.903 -15.181  -0.208  1.00  0.00     0.039 A 
HETATM   28  N2  UNL     1      17.744 -13.815  -1.298  1.00  0.00    -0.346 N 
HETATM   29  C2  UNL     1      15.079 -15.213   0.903  1.00  0.00    -0.036 A 
HETATM   30  C1  UNL     1      14.119 -16.326   1.039  1.00  0.00     0.050 C 
HETATM   31  C21 UNL     1      15.132 -14.239   1.881  1.00  0.00     0.062 A 
HETATM   32 CL2  UNL     1      14.080 -14.292   3.289  1.00  0.00    -0.082 Cl
HETATM   33  C19 UNL     1      17.939 -14.669  -2.480  1.00  0.00     0.156 C 
HETATM   34 CL1  UNL     1      16.163 -11.960   2.906  1.00  0.00    -0.082 Cl
ENDBRANCH   1  22
TORSDOF 8
ENDMDL
