MODEL 1
REMARK VINA RESULT: -6.078393029      0.000      0.000
REMARK  6 active torsions:
REMARK  status: ('A' for Active; 'I' for Inactive)
REMARK    1  A    between atoms: N5_13  and  C6_14 
REMARK    2  A    between atoms: C7_16  and  C8_17 
REMARK    3  A    between atoms: C8_17  and  O2_18 
REMARK    4  A    between atoms: C9_20  and  O3_21 
REMARK    5  A    between atoms: C10_23  and  O4_24 
REMARK    6  A    between atoms: O4_24  and  P1_25 
ROOT
HETATM    1  C6  UNL     1      19.442  16.681  -1.179  1.00  0.00     0.263 C 
HETATM    2  O1  UNL     1      18.246  17.374  -1.367  1.00  0.00    -0.353 OA
HETATM    3  C7  UNL     1      17.275  16.425  -1.598  1.00  0.00     0.179 C 
HETATM    4  C9  UNL     1      17.686  15.175  -0.880  1.00  0.00     0.183 C 
HETATM    5  C10 UNL     1      19.044  15.557  -0.271  1.00  0.00     0.216 C 
ENDROOT
BRANCH   1   6
HETATM    6  N5  UNL     1      20.400  17.587  -0.590  1.00  0.00    -0.297 N 
HETATM    7  C3  UNL     1      21.707  17.283  -0.475  1.00  0.00     0.142 A 
HETATM    8  N3  UNL     1      22.436  16.188  -0.826  1.00  0.00    -0.336 N 
HETATM    9  C4  UNL     1      22.368  18.321   0.118  1.00  0.00     0.119 A 
HETATM   10  C2  UNL     1      23.774  16.142  -0.588  1.00  0.00     0.183 A 
ATOM     11  H3  UNL     1      21.974  15.394  -1.271  1.00  0.00     0.168 HD
HETATM   12  N2  UNL     1      24.414  17.174  -0.003  1.00  0.00    -0.339 N 
HETATM   13  C1  UNL     1      23.743  18.266   0.356  1.00  0.00     0.148 A 
ATOM     14  H2  UNL     1      25.418  17.119   0.165  1.00  0.00     0.167 HD
HETATM   15  N1  UNL     1      24.400  19.356   0.971  1.00  0.00    -0.080 NA
HETATM   16  N4  UNL     1      21.439  19.269   0.362  1.00  0.00    -0.346 N 
HETATM   17  C5  UNL     1      20.259  18.801  -0.073  1.00  0.00     0.188 A 
ATOM     18  H4  UNL     1      21.603  20.176   0.799  1.00  0.00     0.167 HD
ENDBRANCH   1   6
BRANCH   5  19
HETATM   19  O4  UNL     1      19.880  14.497  -0.455  1.00  0.00    -0.270 OA
BRANCH  19  20
HETATM   20  P1  UNL     1      20.420  13.991   1.055  1.00  0.00     0.422 P 
HETATM   21  O5  UNL     1      21.555  13.224   0.364  1.00  0.00    -0.617 OA
HETATM   22  O6  UNL     1      19.777  12.747   1.825  1.00  0.00    -0.617 OA
HETATM   23  O7  UNL     1      21.568  14.940   1.826  1.00  0.00    -0.617 OA
ENDBRANCH  19  20
ENDBRANCH   5  19
BRANCH   3  24
HETATM   24  C8  UNL     1      15.903  16.928  -1.129  1.00  0.00     0.198 C 
BRANCH  24  25
HETATM   25  O2  UNL     1      15.940  16.848   0.273  1.00  0.00    -0.398 OA
ATOM     26  H2  UNL     1      15.251  17.429   0.575  1.00  0.00     0.209 HD
ENDBRANCH  24  25
ENDBRANCH   3  24
BRANCH   4  27
HETATM   27  O3  UNL     1      17.882  14.176  -1.827  1.00  0.00    -0.390 OA
ATOM     28  H3  UNL     1      18.778  14.235  -2.139  1.00  0.00     0.210 HD
ENDBRANCH   4  27
TORSDOF 6
ENDMDL
