MODEL 3
REMARK VINA RESULT: -5.955977807      1.300      2.544
REMARK  6 active torsions:
REMARK  status: ('A' for Active; 'I' for Inactive)
REMARK    1  A    between atoms: N5_13  and  C6_14 
REMARK    2  A    between atoms: C7_16  and  C8_17 
REMARK    3  A    between atoms: C8_17  and  O2_18 
REMARK    4  A    between atoms: C9_20  and  O3_21 
REMARK    5  A    between atoms: C10_23  and  O4_24 
REMARK    6  A    between atoms: O4_24  and  P1_25 
ROOT
HETATM    1  C6  UNL     1      19.231  16.835  -1.046  1.00  0.00     0.263 C 
HETATM    2  O1  UNL     1      18.033  17.549  -1.047  1.00  0.00    -0.353 OA
HETATM    3  C7  UNL     1      17.022  16.619  -1.163  1.00  0.00     0.179 C 
HETATM    4  C9  UNL     1      17.508  15.346  -0.539  1.00  0.00     0.183 C 
HETATM    5  C10 UNL     1      18.944  15.693  -0.118  1.00  0.00     0.216 C 
ENDROOT
BRANCH   1   6
HETATM    6  N5  UNL     1      20.277  17.712  -0.575  1.00  0.00    -0.297 N 
HETATM    7  C3  UNL     1      20.021  18.931  -0.060  1.00  0.00     0.142 A 
HETATM    8  N3  UNL     1      18.868  19.622   0.152  1.00  0.00    -0.336 N 
HETATM    9  C4  UNL     1      21.195  19.531   0.298  1.00  0.00     0.119 A 
HETATM   10  C2  UNL     1      18.897  20.866   0.700  1.00  0.00     0.183 A 
ATOM     11  H3  UNL     1      17.973  19.202  -0.103  1.00  0.00     0.168 HD
HETATM   12  N2  UNL     1      20.062  21.446   1.050  1.00  0.00    -0.339 N 
HETATM   13  C1  UNL     1      21.215  20.808   0.862  1.00  0.00     0.148 A 
ATOM     14  H2  UNL     1      20.061  22.380   1.460  1.00  0.00     0.167 HD
HETATM   15  N1  UNL     1      22.445  21.405   1.222  1.00  0.00    -0.080 NA
HETATM   16  N4  UNL     1      22.175  18.655  -0.008  1.00  0.00    -0.346 N 
HETATM   17  C5  UNL     1      21.594  17.566  -0.535  1.00  0.00     0.188 A 
ATOM     18  H4  UNL     1      23.175  18.795   0.135  1.00  0.00     0.167 HD
ENDBRANCH   1   6
BRANCH   5  19
HETATM   19  O4  UNL     1      19.728  14.627  -0.442  1.00  0.00    -0.270 OA
BRANCH  19  20
HETATM   20  P1  UNL     1      20.447  14.061   0.969  1.00  0.00     0.422 P 
HETATM   21  O5  UNL     1      21.423  13.242   0.113  1.00  0.00    -0.617 OA
HETATM   22  O6  UNL     1      19.846  12.841   1.810  1.00  0.00    -0.617 OA
HETATM   23  O7  UNL     1      21.748  14.926   1.578  1.00  0.00    -0.617 OA
ENDBRANCH  19  20
ENDBRANCH   5  19
BRANCH   3  24
HETATM   24  C8  UNL     1      15.739  17.128  -0.495  1.00  0.00     0.198 C 
BRANCH  24  25
HETATM   25  O2  UNL     1      16.169  17.850   0.632  1.00  0.00    -0.398 OA
ATOM     26  H2  UNL     1      16.433  18.700   0.299  1.00  0.00     0.209 HD
ENDBRANCH  24  25
ENDBRANCH   3  24
BRANCH   4  27
HETATM   27  O3  UNL     1      17.553  14.368  -1.528  1.00  0.00    -0.390 OA
ATOM     28  H3  UNL     1      16.661  14.166  -1.784  1.00  0.00     0.210 HD
ENDBRANCH   4  27
TORSDOF 6
ENDMDL
