MODEL 1
REMARK VINA RESULT: -8.865216114      0.000      0.000
REMARK  9 active torsions:
REMARK  status: ('A' for Active; 'I' for Inactive)
REMARK    1  A    between atoms: C1_2  and  C2_4 
REMARK    2  A    between atoms: C4_6  and  C5_7 
REMARK       I    between atoms: N1_14  and  C12_15 
REMARK    3  A    between atoms: C12_15  and  C13_17 
REMARK    4  A    between atoms: C13_17  and  P1_18 
REMARK    5  A    between atoms: P1_18  and  C14_21 
REMARK    6  A    between atoms: C14_21  and  C15_22 
REMARK    7  A    between atoms: C15_22  and  C16_23 
REMARK    8  A    between atoms: C16_23  and  C17_24 
REMARK    9  A    between atoms: C17_24  and  C18_25 
ROOT
HETATM    1  C2  UNL     1      17.205 -70.447 -22.946  1.00  0.00     0.188 C 
HETATM    2  C3  UNL     1      15.946 -69.716 -23.349  1.00  0.00     0.043 C 
HETATM    3  C4  UNL     1      15.671 -68.796 -22.208  1.00  0.00     0.010 C 
HETATM    4  C11 UNL     1      16.363 -69.379 -21.033  1.00  0.00     0.132 C 
HETATM    5  N1  UNL     1      16.970 -70.607 -21.514  1.00  0.00    -0.337 N 
HETATM    6  C12 UNL     1      17.280 -71.730 -20.751  1.00  0.00     0.230 C 
HETATM    7  O3  UNL     1      17.039 -71.704 -19.497  1.00  0.00    -0.273 OA
ENDROOT
BRANCH   6   8
HETATM    8  C13 UNL     1      17.873 -72.975 -21.275  1.00  0.00     0.206 C 
BRANCH   8   9
HETATM    9  P1  UNL     1      16.570 -74.209 -21.646  1.00  0.00     0.115 P 
HETATM   10  O4  UNL     1      15.839 -74.492 -20.365  1.00  0.00    -0.667 OA
HETATM   11  O5  UNL     1      17.418 -75.594 -22.201  1.00  0.00    -0.667 OA
BRANCH   9  12
HETATM   12  C14 UNL     1      15.511 -73.647 -22.974  1.00  0.00     0.104 C 
BRANCH  12  13
HETATM   13  C15 UNL     1      14.031 -73.727 -22.661  1.00  0.00     0.011 C 
BRANCH  13  14
HETATM   14  C16 UNL     1      13.517 -72.335 -22.376  1.00  0.00     0.005 C 
BRANCH  14  15
HETATM   15  C17 UNL     1      12.028 -72.209 -22.544  1.00  0.00     0.038 C 
BRANCH  15  16
HETATM   16  C18 UNL     1      11.741 -71.083 -23.497  1.00  0.00    -0.058 A 
HETATM   17  C19 UNL     1      12.738 -70.635 -24.328  1.00  0.00     0.007 A 
HETATM   18  C20 UNL     1      12.490 -69.603 -25.219  1.00  0.00     0.001 A 
HETATM   19  C21 UNL     1      11.261 -69.019 -25.286  1.00  0.00     0.000 A 
HETATM   20  C22 UNL     1      10.262 -69.469 -24.451  1.00  0.00     0.001 A 
HETATM   21  C23 UNL     1      10.497 -70.506 -23.551  1.00  0.00     0.007 A 
ENDBRANCH  15  16
ENDBRANCH  14  15
ENDBRANCH  13  14
ENDBRANCH  12  13
ENDBRANCH   9  12
ENDBRANCH   8   9
ENDBRANCH   6   8
BRANCH   1  22
HETATM   22  C1  UNL     1      18.320 -69.455 -23.169  1.00  0.00     0.196 C 
HETATM   23  O1  UNL     1      19.507 -69.741 -22.898  1.00  0.00    -0.646 OA
HETATM   24  O2  UNL     1      18.041 -68.199 -23.681  1.00  0.00    -0.646 OA
ENDBRANCH   1  22
BRANCH   3  25
HETATM   25  C5  UNL     1      14.203 -68.546 -21.969  1.00  0.00    -0.009 C 
HETATM   26  C6  UNL     1      13.702 -68.865 -20.612  1.00  0.00     0.005 C 
HETATM   27  C7  UNL     1      12.180 -68.853 -20.691  1.00  0.00     0.000 C 
HETATM   28  C8  UNL     1      11.610 -67.618 -21.278  1.00  0.00     0.000 C 
HETATM   29  C9  UNL     1      12.393 -66.973 -22.358  1.00  0.00     0.000 C 
HETATM   30  C10 UNL     1      13.888 -67.094 -22.232  1.00  0.00     0.005 C 
ENDBRANCH   3  25
TORSDOF 9
ENDMDL
