MODEL 3
REMARK VINA RESULT: -8.689125008      1.644      4.852
REMARK  9 active torsions:
REMARK  status: ('A' for Active; 'I' for Inactive)
REMARK    1  A    between atoms: C1_2  and  C2_4 
REMARK    2  A    between atoms: C4_6  and  C5_7 
REMARK       I    between atoms: N1_14  and  C12_15 
REMARK    3  A    between atoms: C12_15  and  C13_17 
REMARK    4  A    between atoms: C13_17  and  P1_18 
REMARK    5  A    between atoms: P1_18  and  C14_21 
REMARK    6  A    between atoms: C14_21  and  C15_22 
REMARK    7  A    between atoms: C15_22  and  C16_23 
REMARK    8  A    between atoms: C16_23  and  C17_24 
REMARK    9  A    between atoms: C17_24  and  C18_25 
ROOT
HETATM    1  C2  UNL     1      15.170 -72.781 -21.832  1.00  0.00     0.188 C 
HETATM    2  C3  UNL     1      13.931 -71.925 -21.953  1.00  0.00     0.043 C 
HETATM    3  C4  UNL     1      13.232 -72.454 -23.159  1.00  0.00     0.010 C 
HETATM    4  C11 UNL     1      14.269 -73.137 -23.971  1.00  0.00     0.132 C 
HETATM    5  N1  UNL     1      15.510 -72.952 -23.242  1.00  0.00    -0.337 N 
HETATM    6  C12 UNL     1      16.794 -72.945 -23.783  1.00  0.00     0.230 C 
HETATM    7  O3  UNL     1      16.930 -73.140 -25.038  1.00  0.00    -0.273 OA
ENDROOT
BRANCH   6   8
HETATM    8  C13 UNL     1      18.037 -72.728 -23.019  1.00  0.00     0.206 C 
BRANCH   8   9
HETATM    9  P1  UNL     1      18.359 -70.938 -22.799  1.00  0.00     0.115 P 
HETATM   10  O4  UNL     1      19.786 -70.685 -23.190  1.00  0.00    -0.667 OA
HETATM   11  O5  UNL     1      18.108 -70.646 -21.127  1.00  0.00    -0.667 OA
BRANCH   9  12
HETATM   12  C14 UNL     1      17.175 -69.954 -23.711  1.00  0.00     0.104 C 
BRANCH  12  13
HETATM   13  C15 UNL     1      17.420 -68.461 -23.634  1.00  0.00     0.011 C 
BRANCH  13  14
HETATM   14  C16 UNL     1      16.109 -67.765 -23.355  1.00  0.00     0.005 C 
BRANCH  14  15
HETATM   15  C17 UNL     1      15.883 -67.491 -21.894  1.00  0.00     0.038 C 
BRANCH  15  16
HETATM   16  C18 UNL     1      14.433 -67.723 -21.576  1.00  0.00    -0.058 A 
HETATM   17  C19 UNL     1      13.475 -66.991 -22.232  1.00  0.00     0.007 A 
HETATM   18  C20 UNL     1      12.132 -67.196 -21.959  1.00  0.00     0.001 A 
HETATM   19  C21 UNL     1      11.741 -68.122 -21.039  1.00  0.00     0.000 A 
HETATM   20  C22 UNL     1      12.704 -68.856 -20.381  1.00  0.00     0.001 A 
HETATM   21  C23 UNL     1      14.057 -68.660 -20.646  1.00  0.00     0.007 A 
ENDBRANCH  15  16
ENDBRANCH  14  15
ENDBRANCH  13  14
ENDBRANCH  12  13
ENDBRANCH   9  12
ENDBRANCH   8   9
ENDBRANCH   6   8
BRANCH   1  22
HETATM   22  C1  UNL     1      14.684 -74.092 -21.266  1.00  0.00     0.196 C 
HETATM   23  O1  UNL     1      13.768 -74.133 -20.415  1.00  0.00    -0.646 OA
HETATM   24  O2  UNL     1      15.254 -75.283 -21.684  1.00  0.00    -0.646 OA
ENDBRANCH   1  22
BRANCH   3  25
HETATM   25  C5  UNL     1      12.470 -71.406 -23.930  1.00  0.00    -0.009 C 
HETATM   26  C6  UNL     1      11.158 -71.011 -23.366  1.00  0.00     0.005 C 
HETATM   27  C7  UNL     1      10.437 -70.213 -24.446  1.00  0.00     0.000 C 
HETATM   28  C8  UNL     1      11.226 -69.090 -25.004  1.00  0.00     0.000 C 
HETATM   29  C9  UNL     1      12.690 -69.297 -25.116  1.00  0.00     0.000 C 
HETATM   30  C10 UNL     1      13.304 -70.154 -24.041  1.00  0.00     0.005 C 
ENDBRANCH   3  25
TORSDOF 9
ENDMDL
