MODEL 2
REMARK VINA RESULT: -8.765168052      0.535      1.352
REMARK  9 active torsions:
REMARK  status: ('A' for Active; 'I' for Inactive)
REMARK    1  A    between atoms: C1_2  and  C2_4 
REMARK    2  A    between atoms: C4_6  and  C5_7 
REMARK       I    between atoms: N1_14  and  C12_15 
REMARK    3  A    between atoms: C12_15  and  C13_17 
REMARK    4  A    between atoms: C13_17  and  P1_18 
REMARK    5  A    between atoms: P1_18  and  C14_21 
REMARK    6  A    between atoms: C14_21  and  C15_22 
REMARK    7  A    between atoms: C15_22  and  C16_23 
REMARK    8  A    between atoms: C16_23  and  C17_24 
REMARK    9  A    between atoms: C17_24  and  C18_25 
ROOT
HETATM    1  C2  UNL     1      16.907 -70.551 -22.867  1.00  0.00     0.188 C 
HETATM    2  C3  UNL     1      15.728 -69.654 -23.166  1.00  0.00     0.043 C 
HETATM    3  C4  UNL     1      15.707 -68.681 -22.037  1.00  0.00     0.010 C 
HETATM    4  C11 UNL     1      16.430 -69.333 -20.917  1.00  0.00     0.132 C 
HETATM    5  N1  UNL     1      16.803 -70.645 -21.414  1.00  0.00    -0.337 N 
HETATM    6  C12 UNL     1      17.030 -71.785 -20.647  1.00  0.00     0.230 C 
HETATM    7  O3  UNL     1      16.929 -71.698 -19.376  1.00  0.00    -0.273 OA
ENDROOT
BRANCH   6   8
HETATM    8  C13 UNL     1      17.383 -73.114 -21.182  1.00  0.00     0.206 C 
BRANCH   8   9
HETATM    9  P1  UNL     1      15.893 -74.170 -21.332  1.00  0.00     0.115 P 
HETATM   10  O4  UNL     1      15.070 -73.965 -20.092  1.00  0.00    -0.667 OA
HETATM   11  O5  UNL     1      16.497 -75.774 -21.424  1.00  0.00    -0.667 OA
BRANCH   9  12
HETATM   12  C14 UNL     1      15.011 -73.828 -22.850  1.00  0.00     0.104 C 
BRANCH  12  13
HETATM   13  C15 UNL     1      13.519 -74.073 -22.767  1.00  0.00     0.011 C 
BRANCH  13  14
HETATM   14  C16 UNL     1      12.830 -72.777 -22.411  1.00  0.00     0.005 C 
BRANCH  14  15
HETATM   15  C17 UNL     1      11.483 -72.626 -23.060  1.00  0.00     0.038 C 
BRANCH  15  16
HETATM   16  C18 UNL     1      11.449 -71.322 -23.808  1.00  0.00    -0.058 A 
HETATM   17  C19 UNL     1      10.312 -70.554 -23.769  1.00  0.00     0.007 A 
HETATM   18  C20 UNL     1      10.265 -69.345 -24.445  1.00  0.00     0.001 A 
HETATM   19  C21 UNL     1      11.339 -68.902 -25.158  1.00  0.00     0.000 A 
HETATM   20  C22 UNL     1      12.478 -69.674 -25.197  1.00  0.00     0.001 A 
HETATM   21  C23 UNL     1      12.540 -70.891 -24.521  1.00  0.00     0.007 A 
ENDBRANCH  15  16
ENDBRANCH  14  15
ENDBRANCH  13  14
ENDBRANCH  12  13
ENDBRANCH   9  12
ENDBRANCH   8   9
ENDBRANCH   6   8
BRANCH   1  22
HETATM   22  C1  UNL     1      18.121 -69.735 -23.237  1.00  0.00     0.196 C 
HETATM   23  O1  UNL     1      19.265 -70.064 -22.855  1.00  0.00    -0.646 OA
HETATM   24  O2  UNL     1      17.983 -68.596 -24.011  1.00  0.00    -0.646 OA
ENDBRANCH   1  22
BRANCH   3  25
HETATM   25  C5  UNL     1      14.323 -68.217 -21.660  1.00  0.00    -0.009 C 
HETATM   26  C6  UNL     1      13.625 -67.376 -22.661  1.00  0.00     0.005 C 
HETATM   27  C7  UNL     1      12.419 -66.764 -21.957  1.00  0.00     0.000 C 
HETATM   28  C8  UNL     1      11.550 -67.747 -21.271  1.00  0.00     0.000 C 
HETATM   29  C9  UNL     1      12.223 -68.919 -20.661  1.00  0.00     0.000 C 
HETATM   30  C10 UNL     1      13.444 -69.412 -21.390  1.00  0.00     0.005 C 
ENDBRANCH   3  25
TORSDOF 9
ENDMDL
