MODEL 2
REMARK VINA RESULT: -5.624845791      3.235      4.948
REMARK  7 active torsions:
REMARK  status: ('A' for Active; 'I' for Inactive)
REMARK    1  A    between atoms: O1_2  and  C2_3 
REMARK    2  A    between atoms: C2_3  and  C3_4 
REMARK       I    between atoms: N1_5  and  C4_7 
REMARK       I    between atoms: C4_7  and  N2_8 
REMARK       I    between atoms: C4_7  and  N3_12 
REMARK    3  A    between atoms: N3_12  and  C5_14 
REMARK    4  A    between atoms: C5_14  and  C6_15 
REMARK    5  A    between atoms: C6_15  and  C7_16 
REMARK    6  A    between atoms: C7_16  and  C8_17 
REMARK    7  A    between atoms: C8_17  and  N4_18 
ROOT
HETATM    1  C3  UNL     1      -7.784  16.429  -0.718  1.00  0.00     0.110 C 
HETATM    2  N1  UNL     1      -6.876  16.454   0.301  1.00  0.00    -0.355 N 
ATOM      3  H1  UNL     1      -6.328  15.616   0.496  1.00  0.00     0.162 HD
HETATM    4  C4  UNL     1      -6.668  17.632   1.110  1.00  0.00     0.385 C 
HETATM    5  N2  UNL     1      -7.726  18.548   1.007  1.00  0.00    -0.041 N 
ATOM      6  H21 UNL     1      -7.579  19.380   1.578  1.00  0.00     0.279 HD
ATOM      7  H22 UNL     1      -8.617  18.105   1.226  1.00  0.00     0.279 HD
ATOM      8  H23 UNL     1      -7.902  18.798   0.034  1.00  0.00     0.279 HD
HETATM    9  N3  UNL     1      -6.421  17.153   2.449  1.00  0.00    -0.360 N 
ATOM     10  H3  UNL     1      -6.248  16.160   2.606  1.00  0.00     0.162 HD
ENDROOT
BRANCH   9  11
HETATM   11  C5  UNL     1      -6.418  18.028   3.522  1.00  0.00     0.059 C 
BRANCH  11  12
HETATM   12  C6  UNL     1      -5.092  18.684   3.808  1.00  0.00     0.046 C 
BRANCH  12  13
HETATM   13  C7  UNL     1      -5.129  20.194   3.751  1.00  0.00     0.032 C 
BRANCH  13  14
HETATM   14  C8  UNL     1      -4.581  20.716   2.462  1.00  0.00     0.230 C 
BRANCH  14  15
HETATM   15  N4  UNL     1      -4.366  22.159   2.590  1.00  0.00    -0.079 N 
ATOM     16  H43 UNL     1      -5.236  22.673   2.724  1.00  0.00     0.274 HD
ATOM     17  H42 UNL     1      -3.916  22.410   3.471  1.00  0.00     0.274 HD
ATOM     18  H41 UNL     1      -3.841  22.487   1.778  1.00  0.00     0.274 HD
ENDBRANCH  14  15
ENDBRANCH  13  14
ENDBRANCH  12  13
ENDBRANCH  11  12
ENDBRANCH   9  11
BRANCH   1  19
HETATM   19  C2  UNL     1      -7.694  17.000  -2.063  1.00  0.00     0.150 C 
BRANCH  19  20
HETATM   20  O1  UNL     1      -7.973  18.287  -2.332  1.00  0.00    -0.367 OA
HETATM   21  C1  UNL     1      -6.884  19.118  -2.460  1.00  0.00     0.209 C 
ENDBRANCH  19  20
ENDBRANCH   1  19
TORSDOF 7
ENDMDL
