MODEL 7
REMARK VINA RESULT: -5.302921302      1.608      2.221
REMARK  7 active torsions:
REMARK  status: ('A' for Active; 'I' for Inactive)
REMARK    1  A    between atoms: O1_2  and  C2_3 
REMARK    2  A    between atoms: C2_3  and  C3_4 
REMARK       I    between atoms: N1_5  and  C4_7 
REMARK       I    between atoms: C4_7  and  N2_8 
REMARK       I    between atoms: C4_7  and  N3_12 
REMARK    3  A    between atoms: N3_12  and  C5_14 
REMARK    4  A    between atoms: C5_14  and  C6_15 
REMARK    5  A    between atoms: C6_15  and  C7_16 
REMARK    6  A    between atoms: C7_16  and  C8_17 
REMARK    7  A    between atoms: C8_17  and  N4_18 
ROOT
HETATM    1  C3  UNL     1      -7.888  20.497   1.083  1.00  0.00     0.110 C 
HETATM    2  N1  UNL     1      -7.076  21.114   1.990  1.00  0.00    -0.355 N 
ATOM      3  H1  UNL     1      -7.384  21.987   2.416  1.00  0.00     0.162 HD
HETATM    4  C4  UNL     1      -5.793  20.565   2.364  1.00  0.00     0.385 C 
HETATM    5  N2  UNL     1      -5.327  19.614   1.444  1.00  0.00    -0.041 N 
ATOM      6  H21 UNL     1      -4.421  19.226   1.708  1.00  0.00     0.279 HD
ATOM      7  H22 UNL     1      -5.301  19.999   0.500  1.00  0.00     0.279 HD
ATOM      8  H23 UNL     1      -6.014  18.874   1.300  1.00  0.00     0.279 HD
HETATM    9  N3  UNL     1      -4.917  21.697   2.548  1.00  0.00    -0.360 N 
ATOM     10  H3  UNL     1      -5.310  22.639   2.582  1.00  0.00     0.162 HD
ENDROOT
BRANCH   9  11
HETATM   11  C5  UNL     1      -3.550  21.519   2.678  1.00  0.00     0.059 C 
BRANCH  11  12
HETATM   12  C6  UNL     1      -2.702  22.559   1.994  1.00  0.00     0.046 C 
BRANCH  12  13
HETATM   13  C7  UNL     1      -1.497  21.995   1.276  1.00  0.00     0.032 C 
BRANCH  13  14
HETATM   14  C8  UNL     1      -0.290  22.858   1.454  1.00  0.00     0.230 C 
BRANCH  14  15
HETATM   15  N4  UNL     1      -0.720  24.254   1.566  1.00  0.00    -0.079 N 
ATOM     16  H43 UNL     1      -0.159  24.881   0.990  1.00  0.00     0.274 HD
ATOM     17  H42 UNL     1      -1.622  24.421   1.120  1.00  0.00     0.274 HD
ATOM     18  H41 UNL     1      -0.717  24.522   2.550  1.00  0.00     0.274 HD
ENDBRANCH  14  15
ENDBRANCH  13  14
ENDBRANCH  12  13
ENDBRANCH  11  12
ENDBRANCH   9  11
BRANCH   1  19
HETATM   19  C2  UNL     1      -8.747  19.324   1.245  1.00  0.00     0.150 C 
BRANCH  19  20
HETATM   20  O1  UNL     1      -8.991  18.452   0.251  1.00  0.00    -0.367 OA
HETATM   21  C1  UNL     1      -7.937  17.641  -0.101  1.00  0.00     0.209 C 
ENDBRANCH  19  20
ENDBRANCH   1  19
TORSDOF 7
ENDMDL
