MODEL 1
REMARK VINA RESULT: -5.735314294      0.000      0.000
REMARK  7 active torsions:
REMARK  status: ('A' for Active; 'I' for Inactive)
REMARK    1  A    between atoms: O1_2  and  C2_3 
REMARK    2  A    between atoms: C2_3  and  C3_4 
REMARK       I    between atoms: N1_5  and  C4_7 
REMARK       I    between atoms: C4_7  and  N2_8 
REMARK       I    between atoms: C4_7  and  N3_12 
REMARK    3  A    between atoms: N3_12  and  C5_14 
REMARK    4  A    between atoms: C5_14  and  C6_15 
REMARK    5  A    between atoms: C6_15  and  C7_16 
REMARK    6  A    between atoms: C7_16  and  C8_17 
REMARK    7  A    between atoms: C8_17  and  N4_18 
ROOT
HETATM    1  C3  UNL     1      -5.948  18.960   3.741  1.00  0.00     0.110 C 
HETATM    2  N1  UNL     1      -4.822  19.143   2.991  1.00  0.00    -0.355 N 
ATOM      3  H1  UNL     1      -4.098  18.425   3.002  1.00  0.00     0.162 HD
HETATM    4  C4  UNL     1      -4.625  20.324   2.184  1.00  0.00     0.385 C 
HETATM    5  N2  UNL     1      -5.474  21.377   2.557  1.00  0.00    -0.041 N 
ATOM      6  H21 UNL     1      -5.335  22.211   1.986  1.00  0.00     0.279 HD
ATOM      7  H22 UNL     1      -5.379  21.591   3.549  1.00  0.00     0.279 HD
ATOM      8  H23 UNL     1      -6.451  21.083   2.545  1.00  0.00     0.279 HD
HETATM    9  N3  UNL     1      -3.217  20.633   2.271  1.00  0.00    -0.360 N 
ATOM     10  H3  UNL     1      -2.576  19.952   2.679  1.00  0.00     0.162 HD
ENDROOT
BRANCH   9  11
HETATM   11  C5  UNL     1      -2.729  21.842   1.807  1.00  0.00     0.059 C 
BRANCH  11  12
HETATM   12  C6  UNL     1      -1.445  21.756   1.026  1.00  0.00     0.046 C 
BRANCH  12  13
HETATM   13  C7  UNL     1      -0.402  22.768   1.442  1.00  0.00     0.032 C 
BRANCH  13  14
HETATM   14  C8  UNL     1      -1.020  24.054   1.884  1.00  0.00     0.230 C 
BRANCH  14  15
HETATM   15  N4  UNL     1      -0.194  24.636   2.945  1.00  0.00    -0.079 N 
ATOM     16  H43 UNL     1       0.585  24.032   3.207  1.00  0.00     0.274 HD
ATOM     17  H42 UNL     1       0.350  25.436   2.622  1.00  0.00     0.274 HD
ATOM     18  H41 UNL     1      -0.792  24.867   3.738  1.00  0.00     0.274 HD
ENDBRANCH  14  15
ENDBRANCH  13  14
ENDBRANCH  12  13
ENDBRANCH  11  12
ENDBRANCH   9  11
BRANCH   1  19
HETATM   19  C2  UNL     1      -7.292  18.561   3.322  1.00  0.00     0.150 C 
BRANCH  19  20
HETATM   20  O1  UNL     1      -8.167  19.414   2.761  1.00  0.00    -0.367 OA
HETATM   21  C1  UNL     1      -8.317  19.302   1.399  1.00  0.00     0.209 C 
ENDBRANCH  19  20
ENDBRANCH   1  19
TORSDOF 7
ENDMDL
