MODEL 4
REMARK VINA RESULT: -5.509240814      2.986      6.737
REMARK  7 active torsions:
REMARK  status: ('A' for Active; 'I' for Inactive)
REMARK    1  A    between atoms: O1_2  and  C2_3 
REMARK    2  A    between atoms: C2_3  and  C3_4 
REMARK       I    between atoms: N1_5  and  C4_7 
REMARK       I    between atoms: C4_7  and  N2_8 
REMARK       I    between atoms: C4_7  and  N3_12 
REMARK    3  A    between atoms: N3_12  and  C5_14 
REMARK    4  A    between atoms: C5_14  and  C6_15 
REMARK    5  A    between atoms: C6_15  and  C7_16 
REMARK    6  A    between atoms: C7_16  and  C8_17 
REMARK    7  A    between atoms: C8_17  and  N4_18 
ROOT
HETATM    1  C3  UNL     1      -1.824  21.610   0.954  1.00  0.00     0.110 C 
HETATM    2  N1  UNL     1      -2.703  20.689   1.445  1.00  0.00    -0.355 N 
ATOM      3  H1  UNL     1      -2.618  19.716   1.150  1.00  0.00     0.162 HD
HETATM    4  C4  UNL     1      -3.752  21.050   2.371  1.00  0.00     0.385 C 
HETATM    5  N2  UNL     1      -4.005  22.430   2.383  1.00  0.00    -0.041 N 
ATOM      6  H21 UNL     1      -4.745  22.685   3.037  1.00  0.00     0.279 HD
ATOM      7  H22 UNL     1      -4.209  22.774   1.445  1.00  0.00     0.279 HD
ATOM      8  H23 UNL     1      -3.153  22.959   2.570  1.00  0.00     0.279 HD
HETATM    9  N3  UNL     1      -4.890  20.237   2.016  1.00  0.00    -0.360 N 
ATOM     10  H3  UNL     1      -4.772  19.460   1.365  1.00  0.00     0.162 HD
ENDROOT
BRANCH   9  11
HETATM   11  C5  UNL     1      -6.140  20.500   2.551  1.00  0.00     0.059 C 
BRANCH  11  12
HETATM   12  C6  UNL     1      -7.303  20.133   1.667  1.00  0.00     0.046 C 
BRANCH  12  13
HETATM   13  C7  UNL     1      -7.602  18.652   1.625  1.00  0.00     0.032 C 
BRANCH  13  14
HETATM   14  C8  UNL     1      -7.918  18.110   2.981  1.00  0.00     0.230 C 
BRANCH  14  15
HETATM   15  N4  UNL     1      -7.024  16.983   3.259  1.00  0.00    -0.079 N 
ATOM     16  H43 UNL     1      -6.306  16.870   2.544  1.00  0.00     0.274 HD
ATOM     17  H42 UNL     1      -6.408  17.160   4.052  1.00  0.00     0.274 HD
ATOM     18  H41 UNL     1      -7.586  16.140   3.384  1.00  0.00     0.274 HD
ENDBRANCH  14  15
ENDBRANCH  13  14
ENDBRANCH  12  13
ENDBRANCH  11  12
ENDBRANCH   9  11
BRANCH   1  19
HETATM   19  C2  UNL     1      -0.664  22.228   1.598  1.00  0.00     0.150 C 
BRANCH  19  20
HETATM   20  O1  UNL     1      -0.237  23.468   1.301  1.00  0.00    -0.367 OA
HETATM   21  C1  UNL     1      -0.379  24.401   2.301  1.00  0.00     0.209 C 
ENDBRANCH  19  20
ENDBRANCH   1  19
TORSDOF 7
ENDMDL
