MODEL 6
REMARK VINA RESULT: -7.448675896      2.494      6.783
REMARK  4 active torsions:
REMARK  status: ('A' for Active; 'I' for Inactive)
REMARK    1  A    between atoms: C2_2  and  C3_3 
REMARK    2  A    between atoms: C3_3  and  C4_4 
REMARK    3  A    between atoms: C3_3  and  C10_10 
REMARK    4  A    between atoms: C11_11  and  O1_12 
ROOT
HETATM    1  C10 UNL     1      -1.700  20.323  21.731  1.00  0.00     0.060 A 
HETATM    2  C11 UNL     1      -1.873  18.964  21.648  1.00  0.00     0.087 A 
HETATM    3  C12 UNL     1      -0.897  18.162  21.052  1.00  0.00     0.006 A 
HETATM    4  C13 UNL     1       0.247  18.720  20.543  1.00  0.00     0.066 A 
HETATM    5  O2  UNL     1       0.392  20.017  20.633  1.00  0.00    -0.279 OA
HETATM    6  C14 UNL     1      -0.501  20.803  21.185  1.00  0.00     0.297 A 
HETATM    7  O3  UNL     1      -0.315  22.026  21.246  1.00  0.00    -0.259 OA
HETATM    8  C15 UNL     1       1.377  18.024  19.882  1.00  0.00     0.066 C 
HETATM    9  C16 UNL     1       1.920  16.915  20.743  1.00  0.00     0.006 C 
HETATM   10  C17 UNL     1       0.989  15.735  20.821  1.00  0.00     0.001 C 
HETATM   11  C18 UNL     1      -0.159  15.976  21.772  1.00  0.00     0.005 C 
HETATM   12  C19 UNL     1      -1.264  16.718  21.055  1.00  0.00     0.044 C 
ENDROOT
BRANCH   1  13
HETATM   13  C3  UNL     1      -2.708  21.174  22.327  1.00  0.00     0.060 C 
BRANCH  13  14
HETATM   14  C2  UNL     1      -4.132  20.712  22.159  1.00  0.00     0.010 C 
HETATM   15  C1  UNL     1      -4.764  21.170  20.862  1.00  0.00     0.006 C 
ENDBRANCH  13  14
BRANCH  13  16
HETATM   16  C4  UNL     1      -2.517  21.516  23.747  1.00  0.00    -0.049 A 
HETATM   17  C5  UNL     1      -2.134  20.577  24.692  1.00  0.00     0.008 A 
HETATM   18  C6  UNL     1      -1.993  20.969  25.992  1.00  0.00     0.001 A 
HETATM   19  C7  UNL     1      -2.208  22.255  26.436  1.00  0.00     0.000 A 
HETATM   20  C8  UNL     1      -2.587  23.176  25.487  1.00  0.00     0.001 A 
HETATM   21  C9  UNL     1      -2.739  22.809  24.163  1.00  0.00     0.008 A 
ENDBRANCH  13  16
ENDBRANCH   1  13
BRANCH   2  22
HETATM   22  O1  UNL     1      -2.981  18.296  22.129  1.00  0.00    -0.359 OA
ATOM     23  H1  UNL     1      -3.500  17.689  21.615  1.00  0.00     0.217 HD
ENDBRANCH   2  22
TORSDOF 4
ENDMDL
