MODEL 7
REMARK VINA RESULT: -7.434415993      1.925      5.967
REMARK  4 active torsions:
REMARK  status: ('A' for Active; 'I' for Inactive)
REMARK    1  A    between atoms: C2_2  and  C3_3 
REMARK    2  A    between atoms: C3_3  and  C4_4 
REMARK    3  A    between atoms: C3_3  and  C10_10 
REMARK    4  A    between atoms: C11_11  and  O1_12 
ROOT
HETATM    1  C10 UNL     1       0.030  16.897  19.306  1.00  0.00     0.060 A 
HETATM    2  C11 UNL     1       0.126  15.707  18.631  1.00  0.00     0.087 A 
HETATM    3  C12 UNL     1      -0.195  15.637  17.272  1.00  0.00     0.006 A 
HETATM    4  C13 UNL     1      -0.608  16.755  16.596  1.00  0.00     0.066 A 
HETATM    5  O2  UNL     1      -0.692  17.880  17.260  1.00  0.00    -0.279 OA
HETATM    6  C14 UNL     1      -0.400  17.985  18.534  1.00  0.00     0.297 A 
HETATM    7  O3  UNL     1      -0.496  19.074  19.116  1.00  0.00    -0.259 OA
HETATM    8  C15 UNL     1      -0.986  16.861  15.166  1.00  0.00     0.066 C 
HETATM    9  C16 UNL     1       0.102  16.332  14.270  1.00  0.00     0.006 C 
HETATM   10  C17 UNL     1       0.218  14.832  14.326  1.00  0.00     0.001 C 
HETATM   11  C18 UNL     1       0.944  14.361  15.564  1.00  0.00     0.005 C 
HETATM   12  C19 UNL     1      -0.030  14.264  16.716  1.00  0.00     0.044 C 
ENDROOT
BRANCH   1  13
HETATM   13  C3  UNL     1       0.338  16.987  20.718  1.00  0.00     0.060 C 
BRANCH  13  14
HETATM   14  C2  UNL     1       1.733  17.449  21.052  1.00  0.00     0.010 C 
HETATM   15  C1  UNL     1       2.599  16.361  21.649  1.00  0.00     0.006 C 
ENDBRANCH  13  14
BRANCH  13  16
HETATM   16  C4  UNL     1      -0.599  17.770  21.542  1.00  0.00    -0.049 A 
HETATM   17  C5  UNL     1      -1.947  17.461  21.631  1.00  0.00     0.008 A 
HETATM   18  C6  UNL     1      -2.755  18.246  22.404  1.00  0.00     0.001 A 
HETATM   19  C7  UNL     1      -2.313  19.341  23.113  1.00  0.00     0.000 A 
HETATM   20  C8  UNL     1      -0.973  19.635  23.016  1.00  0.00     0.001 A 
HETATM   21  C9  UNL     1      -0.131  18.860  22.240  1.00  0.00     0.008 A 
ENDBRANCH  13  16
ENDBRANCH   1  13
BRANCH   2  22
HETATM   22  O1  UNL     1       0.533  14.521  19.208  1.00  0.00    -0.359 OA
ATOM     23  H1  UNL     1       0.556  13.688  18.752  1.00  0.00     0.217 HD
ENDBRANCH   2  22
TORSDOF 4
ENDMDL
