MODEL 5
REMARK VINA RESULT: -7.511899434      2.071      6.366
REMARK  4 active torsions:
REMARK  status: ('A' for Active; 'I' for Inactive)
REMARK    1  A    between atoms: C2_2  and  C3_3 
REMARK    2  A    between atoms: C3_3  and  C4_4 
REMARK    3  A    between atoms: C3_3  and  C10_10 
REMARK    4  A    between atoms: C11_11  and  O1_12 
ROOT
HETATM    1  C10 UNL     1       0.015  17.483  21.050  1.00  0.00     0.060 A 
HETATM    2  C11 UNL     1       1.319  17.055  21.046  1.00  0.00     0.087 A 
HETATM    3  C12 UNL     1       1.637  15.754  21.443  1.00  0.00     0.006 A 
HETATM    4  C13 UNL     1       0.653  14.887  21.841  1.00  0.00     0.066 A 
HETATM    5  O2  UNL     1      -0.583  15.316  21.837  1.00  0.00    -0.279 OA
HETATM    6  C14 UNL     1      -0.921  16.529  21.472  1.00  0.00     0.297 A 
HETATM    7  O3  UNL     1      -2.107  16.885  21.486  1.00  0.00    -0.259 OA
HETATM    8  C15 UNL     1       0.811  13.483  22.291  1.00  0.00     0.066 C 
HETATM    9  C16 UNL     1       1.566  12.663  21.279  1.00  0.00     0.006 C 
HETATM   10  C17 UNL     1       3.030  13.012  21.228  1.00  0.00     0.001 C 
HETATM   11  C18 UNL     1       3.287  14.286  20.459  1.00  0.00     0.005 C 
HETATM   12  C19 UNL     1       3.100  15.477  21.371  1.00  0.00     0.044 C 
ENDROOT
BRANCH   1  13
HETATM   13  C3  UNL     1      -0.334  18.833  20.662  1.00  0.00     0.060 C 
BRANCH  13  14
HETATM   14  C2  UNL     1      -1.165  18.957  19.412  1.00  0.00     0.010 C 
HETATM   15  C1  UNL     1      -0.633  18.142  18.253  1.00  0.00     0.006 C 
ENDBRANCH  13  14
BRANCH  13  16
HETATM   16  C4  UNL     1      -0.965  19.668  21.699  1.00  0.00    -0.049 A 
HETATM   17  C5  UNL     1      -0.502  19.706  23.005  1.00  0.00     0.008 A 
HETATM   18  C6  UNL     1      -1.151  20.494  23.913  1.00  0.00     0.001 A 
HETATM   19  C7  UNL     1      -2.252  21.265  23.614  1.00  0.00     0.000 A 
HETATM   20  C8  UNL     1      -2.700  21.217  22.314  1.00  0.00     0.001 A 
HETATM   21  C9  UNL     1      -2.064  20.429  21.373  1.00  0.00     0.008 A 
ENDBRANCH  13  16
ENDBRANCH   1  13
BRANCH   2  22
HETATM   22  O1  UNL     1       2.388  17.839  20.662  1.00  0.00    -0.359 OA
ATOM     23  H1  UNL     1       3.037  17.576  20.020  1.00  0.00     0.217 HD
ENDBRANCH   2  22
TORSDOF 4
ENDMDL
