MODEL 3
REMARK VINA RESULT: -7.809300848      1.268      2.668
REMARK  4 active torsions:
REMARK  status: ('A' for Active; 'I' for Inactive)
REMARK    1  A    between atoms: C2_2  and  C3_3 
REMARK    2  A    between atoms: C3_3  and  C4_4 
REMARK    3  A    between atoms: C3_3  and  C10_10 
REMARK    4  A    between atoms: C11_11  and  O1_12 
ROOT
HETATM    1  C10 UNL     1      -1.158  17.973  20.249  1.00  0.00     0.060 A 
HETATM    2  C11 UNL     1      -1.207  19.316  19.969  1.00  0.00     0.087 A 
HETATM    3  C12 UNL     1      -2.068  20.156  20.681  1.00  0.00     0.006 A 
HETATM    4  C13 UNL     1      -2.874  19.651  21.669  1.00  0.00     0.066 A 
HETATM    5  O2  UNL     1      -2.811  18.368  21.919  1.00  0.00    -0.279 OA
HETATM    6  C14 UNL     1      -2.017  17.549  21.273  1.00  0.00     0.297 A 
HETATM    7  O3  UNL     1      -1.995  16.342  21.549  1.00  0.00    -0.259 OA
HETATM    8  C15 UNL     1      -3.839  20.392  22.516  1.00  0.00     0.066 C 
HETATM    9  C16 UNL     1      -3.184  21.558  23.206  1.00  0.00     0.006 C 
HETATM   10  C17 UNL     1      -2.860  22.683  22.259  1.00  0.00     0.001 C 
HETATM   11  C18 UNL     1      -1.618  22.404  21.446  1.00  0.00     0.005 C 
HETATM   12  C19 UNL     1      -1.980  21.575  20.235  1.00  0.00     0.044 C 
ENDROOT
BRANCH   1  13
HETATM   13  C3  UNL     1      -0.288  17.083  19.510  1.00  0.00     0.060 C 
BRANCH  13  14
HETATM   14  C2  UNL     1       0.425  16.039  20.330  1.00  0.00     0.010 C 
HETATM   15  C1  UNL     1       1.614  16.583  21.092  1.00  0.00     0.006 C 
ENDBRANCH  13  14
BRANCH  13  16
HETATM   16  C4  UNL     1      -0.886  16.403  18.348  1.00  0.00    -0.049 A 
HETATM   17  C5  UNL     1      -1.369  17.095  17.249  1.00  0.00     0.008 A 
HETATM   18  C6  UNL     1      -1.923  16.393  16.217  1.00  0.00     0.001 A 
HETATM   19  C7  UNL     1      -2.038  15.021  16.195  1.00  0.00     0.000 A 
HETATM   20  C8  UNL     1      -1.555  14.346  17.293  1.00  0.00     0.001 A 
HETATM   21  C9  UNL     1      -0.989  15.030  18.352  1.00  0.00     0.008 A 
ENDBRANCH  13  16
ENDBRANCH   1  13
BRANCH   2  22
HETATM   22  O1  UNL     1      -0.440  19.932  19.001  1.00  0.00    -0.359 OA
ATOM     23  H1  UNL     1       0.499  20.058  19.068  1.00  0.00     0.217 HD
ENDBRANCH   2  22
TORSDOF 4
ENDMDL
