MODEL 2
REMARK VINA RESULT: -7.818845473      1.266      2.474
REMARK  4 active torsions:
REMARK  status: ('A' for Active; 'I' for Inactive)
REMARK    1  A    between atoms: C2_2  and  C3_3 
REMARK    2  A    between atoms: C3_3  and  C4_4 
REMARK    3  A    between atoms: C3_3  and  C10_10 
REMARK    4  A    between atoms: C11_11  and  O1_12 
ROOT
HETATM    1  C10 UNL     1      -1.141  17.967  20.246  1.00  0.00     0.060 A 
HETATM    2  C11 UNL     1      -1.195  19.312  19.974  1.00  0.00     0.087 A 
HETATM    3  C12 UNL     1      -2.056  20.144  20.694  1.00  0.00     0.006 A 
HETATM    4  C13 UNL     1      -2.857  19.631  21.682  1.00  0.00     0.066 A 
HETATM    5  O2  UNL     1      -2.788  18.347  21.925  1.00  0.00    -0.279 OA
HETATM    6  C14 UNL     1      -1.993  17.534  21.271  1.00  0.00     0.297 A 
HETATM    7  O3  UNL     1      -1.966  16.325  21.540  1.00  0.00    -0.259 OA
HETATM    8  C15 UNL     1      -3.821  20.363  22.537  1.00  0.00     0.066 C 
HETATM    9  C16 UNL     1      -3.167  21.527  23.231  1.00  0.00     0.006 C 
HETATM   10  C17 UNL     1      -2.851  22.659  22.290  1.00  0.00     0.001 C 
HETATM   11  C18 UNL     1      -1.611  22.390  21.470  1.00  0.00     0.005 C 
HETATM   12  C19 UNL     1      -1.975  21.566  20.255  1.00  0.00     0.044 C 
ENDROOT
BRANCH   1  13
HETATM   13  C3  UNL     1      -0.270  17.085  19.499  1.00  0.00     0.060 C 
BRANCH  13  14
HETATM   14  C2  UNL     1       0.501  16.083  20.318  1.00  0.00     0.010 C 
HETATM   15  C1  UNL     1       1.660  16.692  21.078  1.00  0.00     0.006 C 
ENDBRANCH  13  14
BRANCH  13  16
HETATM   16  C4  UNL     1      -0.887  16.359  18.375  1.00  0.00    -0.049 A 
HETATM   17  C5  UNL     1      -0.989  14.976  18.350  1.00  0.00     0.008 A 
HETATM   18  C6  UNL     1      -1.561  14.376  17.265  1.00  0.00     0.001 A 
HETATM   19  C7  UNL     1      -2.051  15.061  16.176  1.00  0.00     0.000 A 
HETATM   20  C8  UNL     1      -1.943  16.432  16.214  1.00  0.00     0.001 A 
HETATM   21  C9  UNL     1      -1.369  17.069  17.299  1.00  0.00     0.008 A 
ENDBRANCH  13  16
ENDBRANCH   1  13
BRANCH   2  22
HETATM   22  O1  UNL     1      -0.434  19.936  19.007  1.00  0.00    -0.359 OA
ATOM     23  H1  UNL     1       0.472  20.194  19.128  1.00  0.00     0.217 HD
ENDBRANCH   2  22
TORSDOF 4
ENDMDL
