MODEL 8
REMARK VINA RESULT: -7.395564474      1.118      2.647
REMARK  4 active torsions:
REMARK  status: ('A' for Active; 'I' for Inactive)
REMARK    1  A    between atoms: C2_2  and  C3_3 
REMARK    2  A    between atoms: C3_3  and  C4_4 
REMARK    3  A    between atoms: C3_3  and  C10_10 
REMARK    4  A    between atoms: C11_11  and  O1_12 
ROOT
HETATM    1  C10 UNL     1      -0.562  17.765  20.656  1.00  0.00     0.060 A 
HETATM    2  C11 UNL     1      -0.446  19.089  21.000  1.00  0.00     0.087 A 
HETATM    3  C12 UNL     1      -1.350  19.669  21.894  1.00  0.00     0.006 A 
HETATM    4  C13 UNL     1      -2.364  18.925  22.440  1.00  0.00     0.066 A 
HETATM    5  O2  UNL     1      -2.456  17.665  22.099  1.00  0.00    -0.279 OA
HETATM    6  C14 UNL     1      -1.627  17.086  21.264  1.00  0.00     0.297 A 
HETATM    7  O3  UNL     1      -1.757  15.888  20.973  1.00  0.00    -0.259 OA
HETATM    8  C15 UNL     1      -3.404  19.376  23.396  1.00  0.00     0.066 C 
HETATM    9  C16 UNL     1      -2.791  20.019  24.612  1.00  0.00     0.006 C 
HETATM   10  C17 UNL     1      -2.205  21.374  24.315  1.00  0.00     0.001 C 
HETATM   11  C18 UNL     1      -0.862  21.278  23.631  1.00  0.00     0.005 C 
HETATM   12  C19 UNL     1      -1.062  21.110  22.142  1.00  0.00     0.044 C 
ENDROOT
BRANCH   1  13
HETATM   13  C3  UNL     1       0.352  17.150  19.717  1.00  0.00     0.060 C 
BRANCH  13  14
HETATM   14  C2  UNL     1       1.253  16.085  20.287  1.00  0.00     0.010 C 
HETATM   15  C1  UNL     1       2.100  16.570  21.444  1.00  0.00     0.006 C 
ENDBRANCH  13  14
BRANCH  13  16
HETATM   16  C4  UNL     1      -0.245  16.613  18.483  1.00  0.00    -0.049 A 
HETATM   17  C5  UNL     1      -1.102  17.357  17.687  1.00  0.00     0.008 A 
HETATM   18  C6  UNL     1      -1.627  16.782  16.565  1.00  0.00     0.001 A 
HETATM   19  C7  UNL     1      -1.360  15.492  16.164  1.00  0.00     0.000 A 
HETATM   20  C8  UNL     1      -0.508  14.765  16.963  1.00  0.00     0.001 A 
HETATM   21  C9  UNL     1       0.039  15.320  18.105  1.00  0.00     0.008 A 
ENDBRANCH  13  16
ENDBRANCH   1  13
BRANCH   2  22
HETATM   22  O1  UNL     1       0.536  19.930  20.516  1.00  0.00    -0.359 OA
ATOM     23  H1  UNL     1       0.911  20.649  21.010  1.00  0.00     0.217 HD
ENDBRANCH   2  22
TORSDOF 4
ENDMDL
