MODEL 3
REMARK VINA RESULT: -8.258435022      3.984      8.274
REMARK  7 active torsions:
REMARK  status: ('A' for Active; 'I' for Inactive)
REMARK    1  A    between atoms: C4_6  and  O3_7 
REMARK    2  A    between atoms: C5_9  and  C6_10 
REMARK    3  A    between atoms: C6_10  and  C7_11 
REMARK    4  A    between atoms: C6_10  and  C19_28 
REMARK    5  A    between atoms: C11_15  and  N1_16 
REMARK    6  A    between atoms: N1_16  and  S1_18 
REMARK    7  A    between atoms: S1_18  and  C12_21 
ROOT
HETATM    1  C6  UNL     1      11.523  25.571   5.724  1.00  0.00     0.065 C 
ENDROOT
BRANCH   1   2
HETATM    2  C5  UNL     1      12.528  24.637   6.212  1.00  0.00     0.060 A 
HETATM    3  C1  UNL     1      12.139  23.604   7.072  1.00  0.00     0.297 A 
HETATM    4  O1  UNL     1      10.936  23.519   7.405  1.00  0.00    -0.259 OA
HETATM    5  O2  UNL     1      13.058  22.768   7.493  1.00  0.00    -0.279 OA
HETATM    6  C2  UNL     1      14.322  22.837   7.159  1.00  0.00     0.066 A 
HETATM    7  C3  UNL     1      14.759  23.829   6.320  1.00  0.00     0.006 A 
HETATM    8  C27 UNL     1      14.930  21.670   7.897  1.00  0.00     0.066 C 
HETATM    9  C4  UNL     1      13.840  24.757   5.830  1.00  0.00     0.087 A 
HETATM   10  C22 UNL     1      16.038  24.262   5.712  1.00  0.00     0.044 C 
HETATM   11  C23 UNL     1      16.447  23.295   4.607  1.00  0.00     0.005 C 
HETATM   12  C24 UNL     1      17.125  22.072   5.191  1.00  0.00     0.000 C 
HETATM   13  C25 UNL     1      16.067  21.182   5.795  1.00  0.00     0.000 C 
HETATM   14  C26 UNL     1      16.226  21.241   7.300  1.00  0.00     0.006 C 
BRANCH   9  15
HETATM   15  O3  UNL     1      14.288  25.726   5.006  1.00  0.00    -0.359 OA
ATOM     16  H3  UNL     1      13.687  26.083   4.362  1.00  0.00     0.217 HD
ENDBRANCH   9  15
ENDBRANCH   1   2
BRANCH   1  17
HETATM   17  C7  UNL     1      10.856  26.353   6.794  1.00  0.00    -0.047 A 
HETATM   18  C8  UNL     1      11.578  27.012   7.757  1.00  0.00     0.008 A 
HETATM   19  C9  UNL     1      10.995  27.751   8.759  1.00  0.00     0.003 A 
HETATM   20  C10 UNL     1       9.619  27.838   8.803  1.00  0.00     0.030 A 
HETATM   21  C11 UNL     1       8.863  27.191   7.855  1.00  0.00     0.043 A 
HETATM   22  C18 UNL     1       9.489  26.444   6.845  1.00  0.00     0.038 A 
BRANCH  21  23
HETATM   23  N1  UNL     1       7.448  27.241   7.884  1.00  0.00    -0.281 N 
ATOM     24  H1  UNL     1       6.976  26.674   8.588  1.00  0.00     0.179 HD
BRANCH  23  25
HETATM   25  S1  UNL     1       6.462  28.171   6.839  1.00  0.00     0.263 S 
HETATM   26  O4  UNL     1       6.383  29.612   7.334  1.00  0.00    -0.200 OA
HETATM   27  O5  UNL     1       5.054  27.618   6.949  1.00  0.00    -0.200 OA
BRANCH  25  28
HETATM   28  C12 UNL     1       6.980  28.134   5.187  1.00  0.00     0.079 A 
HETATM   29  C13 UNL     1       6.425  27.257   4.267  1.00  0.00     0.025 A 
HETATM   30  C14 UNL     1       6.857  27.253   2.972  1.00  0.00     0.002 A 
HETATM   31  C15 UNL     1       7.840  28.115   2.571  1.00  0.00     0.000 A 
HETATM   32  C16 UNL     1       8.389  28.987   3.497  1.00  0.00     0.002 A 
HETATM   33  C17 UNL     1       7.970  29.008   4.808  1.00  0.00     0.025 A 
ENDBRANCH  25  28
ENDBRANCH  23  25
ENDBRANCH  21  23
ENDBRANCH   1  17
BRANCH   1  34
HETATM   34  C19 UNL     1      10.417  24.943   4.899  1.00  0.00    -0.001 A 
HETATM   35  C20 UNL     1      10.251  25.387   3.469  1.00  0.00     0.006 A 
HETATM   36  C21 UNL     1      10.701  23.972   3.833  1.00  0.00     0.006 A 
ENDBRANCH   1  34
TORSDOF 7
ENDMDL
