MODEL 2
REMARK VINA RESULT: -8.359152961      2.731      5.753
REMARK  7 active torsions:
REMARK  status: ('A' for Active; 'I' for Inactive)
REMARK    1  A    between atoms: C4_6  and  O3_7 
REMARK    2  A    between atoms: C5_9  and  C6_10 
REMARK    3  A    between atoms: C6_10  and  C7_11 
REMARK    4  A    between atoms: C6_10  and  C19_28 
REMARK    5  A    between atoms: C11_15  and  N1_16 
REMARK    6  A    between atoms: N1_16  and  S1_18 
REMARK    7  A    between atoms: S1_18  and  C12_21 
ROOT
HETATM    1  C6  UNL     1       7.935  28.471   7.689  1.00  0.00     0.065 C 
ENDROOT
BRANCH   1   2
HETATM    2  C5  UNL     1       8.806  27.768   6.757  1.00  0.00     0.060 A 
HETATM    3  C1  UNL     1       9.167  28.392   5.557  1.00  0.00     0.297 A 
HETATM    4  O1  UNL     1       8.722  29.536   5.317  1.00  0.00    -0.259 OA
HETATM    5  O2  UNL     1       9.959  27.746   4.736  1.00  0.00    -0.279 OA
HETATM    6  C2  UNL     1      10.436  26.549   4.965  1.00  0.00     0.066 A 
HETATM    7  C3  UNL     1      10.115  25.890   6.123  1.00  0.00     0.006 A 
HETATM    8  C27 UNL     1      11.269  26.277   3.737  1.00  0.00     0.066 C 
HETATM    9  C4  UNL     1       9.276  26.513   7.048  1.00  0.00     0.087 A 
HETATM   10  C22 UNL     1      10.414  24.587   6.759  1.00  0.00     0.044 C 
HETATM   11  C23 UNL     1      11.848  24.573   7.276  1.00  0.00     0.005 C 
HETATM   12  C24 UNL     1      12.818  24.263   6.154  1.00  0.00     0.000 C 
HETATM   13  C25 UNL     1      12.971  25.497   5.300  1.00  0.00     0.000 C 
HETATM   14  C26 UNL     1      12.293  25.221   3.974  1.00  0.00     0.006 C 
BRANCH   9  15
HETATM   15  O3  UNL     1       8.970  25.850   8.181  1.00  0.00    -0.359 OA
ATOM     16  H3  UNL     1       8.223  26.145   8.688  1.00  0.00     0.217 HD
ENDBRANCH   9  15
ENDBRANCH   1   2
BRANCH   1  17
HETATM   17  C7  UNL     1       6.606  28.817   7.128  1.00  0.00    -0.047 A 
HETATM   18  C8  UNL     1       6.032  30.045   7.346  1.00  0.00     0.008 A 
HETATM   19  C9  UNL     1       4.806  30.403   6.837  1.00  0.00     0.003 A 
HETATM   20  C10 UNL     1       4.115  29.488   6.070  1.00  0.00     0.030 A 
HETATM   21  C11 UNL     1       4.658  28.249   5.830  1.00  0.00     0.043 A 
HETATM   22  C18 UNL     1       5.913  27.914   6.364  1.00  0.00     0.038 A 
BRANCH  21  23
HETATM   23  N1  UNL     1       3.966  27.279   5.065  1.00  0.00    -0.281 N 
ATOM     24  H1  UNL     1       3.355  26.636   5.570  1.00  0.00     0.179 HD
BRANCH  23  25
HETATM   25  S1  UNL     1       4.066  27.090   3.367  1.00  0.00     0.263 S 
HETATM   26  O4  UNL     1       3.689  28.394   2.670  1.00  0.00    -0.200 OA
HETATM   27  O5  UNL     1       3.002  26.086   2.968  1.00  0.00    -0.200 OA
BRANCH  25  28
HETATM   28  C12 UNL     1       5.619  26.550   2.823  1.00  0.00     0.079 A 
HETATM   29  C13 UNL     1       6.405  25.700   3.587  1.00  0.00     0.025 A 
HETATM   30  C14 UNL     1       7.625  25.292   3.130  1.00  0.00     0.002 A 
HETATM   31  C15 UNL     1       8.082  25.718   1.914  1.00  0.00     0.000 A 
HETATM   32  C16 UNL     1       7.291  26.568   1.158  1.00  0.00     0.002 A 
HETATM   33  C17 UNL     1       6.058  26.992   1.599  1.00  0.00     0.025 A 
ENDBRANCH  25  28
ENDBRANCH  23  25
ENDBRANCH  21  23
ENDBRANCH   1  17
BRANCH   1  34
HETATM   34  C19 UNL     1       8.510  29.754   8.254  1.00  0.00    -0.001 A 
HETATM   35  C20 UNL     1       8.524  29.934   9.749  1.00  0.00     0.006 A 
HETATM   36  C21 UNL     1       9.811  29.786   8.937  1.00  0.00     0.006 A 
ENDBRANCH   1  34
TORSDOF 7
ENDMDL
