MODEL 4
REMARK VINA RESULT: -8.167607735      2.694      5.883
REMARK  7 active torsions:
REMARK  status: ('A' for Active; 'I' for Inactive)
REMARK    1  A    between atoms: C4_6  and  O3_7 
REMARK    2  A    between atoms: C5_9  and  C6_10 
REMARK    3  A    between atoms: C6_10  and  C7_11 
REMARK    4  A    between atoms: C6_10  and  C19_28 
REMARK    5  A    between atoms: C11_15  and  N1_16 
REMARK    6  A    between atoms: N1_16  and  S1_18 
REMARK    7  A    between atoms: S1_18  and  C12_21 
ROOT
HETATM    1  C6  UNL     1       7.921  28.207   8.105  1.00  0.00     0.065 C 
ENDROOT
BRANCH   1   2
HETATM    2  C5  UNL     1       8.824  27.197   7.572  1.00  0.00     0.060 A 
HETATM    3  C1  UNL     1       8.966  25.982   8.252  1.00  0.00     0.297 A 
HETATM    4  O1  UNL     1       8.318  25.804   9.307  1.00  0.00    -0.259 OA
HETATM    5  O2  UNL     1       9.777  25.082   7.751  1.00  0.00    -0.279 OA
HETATM    6  C2  UNL     1      10.467  25.246   6.651  1.00  0.00     0.066 A 
HETATM    7  C3  UNL     1      10.367  26.416   5.944  1.00  0.00     0.006 A 
HETATM    8  C27 UNL     1      11.218  23.944   6.526  1.00  0.00     0.066 C 
HETATM    9  C4  UNL     1       9.523  27.423   6.414  1.00  0.00     0.087 A 
HETATM   10  C22 UNL     1      10.938  27.000   4.709  1.00  0.00     0.044 C 
HETATM   11  C23 UNL     1      10.327  26.333   3.482  1.00  0.00     0.005 C 
HETATM   12  C24 UNL     1      11.015  25.014   3.192  1.00  0.00     0.000 C 
HETATM   13  C25 UNL     1      10.526  23.991   4.187  1.00  0.00     0.000 C 
HETATM   14  C26 UNL     1      11.672  23.688   5.130  1.00  0.00     0.006 C 
BRANCH   9  15
HETATM   15  O3  UNL     1       9.438  28.567   5.707  1.00  0.00    -0.359 OA
ATOM     16  H3  UNL     1       8.607  29.027   5.693  1.00  0.00     0.217 HD
ENDBRANCH   9  15
ENDBRANCH   1   2
BRANCH   1  17
HETATM   17  C7  UNL     1       6.724  28.451   7.263  1.00  0.00    -0.047 A 
HETATM   18  C8  UNL     1       6.383  29.714   6.848  1.00  0.00     0.008 A 
HETATM   19  C9  UNL     1       5.286  29.977   6.062  1.00  0.00     0.003 A 
HETATM   20  C10 UNL     1       4.486  28.924   5.668  1.00  0.00     0.030 A 
HETATM   21  C11 UNL     1       4.797  27.645   6.064  1.00  0.00     0.043 A 
HETATM   22  C18 UNL     1       5.924  27.410   6.868  1.00  0.00     0.038 A 
BRANCH  21  23
HETATM   23  N1  UNL     1       3.985  26.544   5.697  1.00  0.00    -0.281 N 
ATOM     24  H1  UNL     1       3.624  25.959   6.450  1.00  0.00     0.179 HD
BRANCH  23  25
HETATM   25  S1  UNL     1       3.557  26.111   4.097  1.00  0.00     0.263 S 
HETATM   26  O4  UNL     1       2.487  27.059   3.564  1.00  0.00    -0.200 OA
HETATM   27  O5  UNL     1       2.902  24.745   4.167  1.00  0.00    -0.200 OA
BRANCH  25  28
HETATM   28  C12 UNL     1       4.906  26.061   3.012  1.00  0.00     0.079 A 
HETATM   29  C13 UNL     1       6.118  25.495   3.379  1.00  0.00     0.025 A 
HETATM   30  C14 UNL     1       7.162  25.472   2.500  1.00  0.00     0.002 A 
HETATM   31  C15 UNL     1       7.022  26.007   1.250  1.00  0.00     0.000 A 
HETATM   32  C16 UNL     1       5.807  26.572   0.892  1.00  0.00     0.002 A 
HETATM   33  C17 UNL     1       4.742  26.606   1.762  1.00  0.00     0.025 A 
ENDBRANCH  25  28
ENDBRANCH  23  25
ENDBRANCH  21  23
ENDBRANCH   1  17
BRANCH   1  34
HETATM   34  C19 UNL     1       8.555  29.561   8.353  1.00  0.00    -0.001 A 
HETATM   35  C20 UNL     1       8.567  30.100   9.759  1.00  0.00     0.006 A 
HETATM   36  C21 UNL     1       9.850  29.698   9.033  1.00  0.00     0.006 A 
ENDBRANCH   1  34
TORSDOF 7
ENDMDL
