MODEL 1
REMARK VINA RESULT: -8.479278548      0.000      0.000
REMARK  7 active torsions:
REMARK  status: ('A' for Active; 'I' for Inactive)
REMARK    1  A    between atoms: C4_6  and  O3_7 
REMARK    2  A    between atoms: C5_9  and  C6_10 
REMARK    3  A    between atoms: C6_10  and  C7_11 
REMARK    4  A    between atoms: C6_10  and  C19_28 
REMARK    5  A    between atoms: C11_15  and  N1_16 
REMARK    6  A    between atoms: N1_16  and  S1_18 
REMARK    7  A    between atoms: S1_18  and  C12_21 
ROOT
HETATM    1  C6  UNL     1       7.329  28.739   6.461  1.00  0.00     0.065 C 
ENDROOT
BRANCH   1   2
HETATM    2  C5  UNL     1       6.431  28.316   5.396  1.00  0.00     0.060 A 
HETATM    3  C1  UNL     1       6.753  28.622   4.069  1.00  0.00     0.297 A 
HETATM    4  O1  UNL     1       7.804  29.261   3.838  1.00  0.00    -0.259 OA
HETATM    5  O2  UNL     1       5.935  28.224   3.124  1.00  0.00    -0.279 OA
HETATM    6  C2  UNL     1       4.831  27.556   3.342  1.00  0.00     0.066 A 
HETATM    7  C3  UNL     1       4.465  27.230   4.622  1.00  0.00     0.006 A 
HETATM    8  C27 UNL     1       4.280  27.354   1.952  1.00  0.00     0.066 C 
HETATM    9  C4  UNL     1       5.285  27.618   5.682  1.00  0.00     0.087 A 
HETATM   10  C22 UNL     1       3.354  26.519   5.294  1.00  0.00     0.044 C 
HETATM   11  C23 UNL     1       3.474  25.017   5.060  1.00  0.00     0.005 C 
HETATM   12  C24 UNL     1       2.912  24.641   3.704  1.00  0.00     0.000 C 
HETATM   13  C25 UNL     1       3.908  25.045   2.645  1.00  0.00     0.000 C 
HETATM   14  C26 UNL     1       3.318  26.218   1.889  1.00  0.00     0.006 C 
BRANCH   9  15
HETATM   15  O3  UNL     1       4.909  27.289   6.934  1.00  0.00    -0.359 OA
ATOM     16  H3  UNL     1       4.768  26.371   7.135  1.00  0.00     0.217 HD
ENDBRANCH   9  15
ENDBRANCH   1   2
BRANCH   1  17
HETATM   17  C7  UNL     1       8.208  27.658   6.973  1.00  0.00    -0.047 A 
HETATM   18  C8  UNL     1       7.982  27.065   8.190  1.00  0.00     0.008 A 
HETATM   19  C9  UNL     1       8.771  26.059   8.693  1.00  0.00     0.003 A 
HETATM   20  C10 UNL     1       9.841  25.618   7.944  1.00  0.00     0.030 A 
HETATM   21  C11 UNL     1      10.098  26.188   6.720  1.00  0.00     0.043 A 
HETATM   22  C18 UNL     1       9.274  27.216   6.234  1.00  0.00     0.038 A 
BRANCH  21  23
HETATM   23  N1  UNL     1      11.202  25.775   5.934  1.00  0.00    -0.281 N 
ATOM     24  H1  UNL     1      12.130  26.062   6.246  1.00  0.00     0.179 HD
BRANCH  23  25
HETATM   25  S1  UNL     1      11.114  24.837   4.505  1.00  0.00     0.263 S 
HETATM   26  O4  UNL     1      10.938  23.363   4.854  1.00  0.00    -0.200 OA
HETATM   27  O5  UNL     1      12.463  24.942   3.821  1.00  0.00    -0.200 OA
BRANCH  25  28
HETATM   28  C12 UNL     1       9.864  25.348   3.421  1.00  0.00     0.079 A 
HETATM   29  C13 UNL     1       8.577  24.834   3.496  1.00  0.00     0.025 A 
HETATM   30  C14 UNL     1       7.614  25.257   2.626  1.00  0.00     0.002 A 
HETATM   31  C15 UNL     1       7.910  26.192   1.673  1.00  0.00     0.000 A 
HETATM   32  C16 UNL     1       9.198  26.700   1.605  1.00  0.00     0.002 A 
HETATM   33  C17 UNL     1      10.184  26.287   2.472  1.00  0.00     0.025 A 
ENDBRANCH  25  28
ENDBRANCH  23  25
ENDBRANCH  21  23
ENDBRANCH   1  17
BRANCH   1  34
HETATM   34  C19 UNL     1       6.644  29.344   7.670  1.00  0.00    -0.001 A 
HETATM   35  C20 UNL     1       7.319  30.492   8.374  1.00  0.00     0.006 A 
HETATM   36  C21 UNL     1       6.003  30.665   7.616  1.00  0.00     0.006 A 
ENDBRANCH   1  34
TORSDOF 7
ENDMDL
