MODEL 12
REMARK VINA RESULT: -7.917878117      4.286      8.664
REMARK  7 active torsions:
REMARK  status: ('A' for Active; 'I' for Inactive)
REMARK    1  A    between atoms: C4_6  and  O3_7 
REMARK    2  A    between atoms: C5_9  and  C6_10 
REMARK    3  A    between atoms: C6_10  and  C7_11 
REMARK    4  A    between atoms: C6_10  and  C19_28 
REMARK    5  A    between atoms: C11_15  and  N1_16 
REMARK    6  A    between atoms: N1_16  and  S1_18 
REMARK    7  A    between atoms: S1_18  and  C12_21 
ROOT
HETATM    1  C6  UNL     1      12.426  25.279   5.466  1.00  0.00     0.065 C 
ENDROOT
BRANCH   1   2
HETATM    2  C5  UNL     1      13.280  24.385   6.236  1.00  0.00     0.060 A 
HETATM    3  C1  UNL     1      12.699  23.536   7.185  1.00  0.00     0.297 A 
HETATM    4  O1  UNL     1      11.460  23.578   7.351  1.00  0.00    -0.259 OA
HETATM    5  O2  UNL     1      13.485  22.732   7.861  1.00  0.00    -0.279 OA
HETATM    6  C2  UNL     1      14.783  22.672   7.706  1.00  0.00     0.066 A 
HETATM    7  C3  UNL     1      15.405  23.481   6.791  1.00  0.00     0.006 A 
HETATM    8  C27 UNL     1      15.192  21.614   8.700  1.00  0.00     0.066 C 
HETATM    9  C4  UNL     1      14.636  24.364   6.032  1.00  0.00     0.087 A 
HETATM   10  C22 UNL     1      16.783  23.732   6.312  1.00  0.00     0.044 C 
HETATM   11  C23 UNL     1      17.257  22.570   5.445  1.00  0.00     0.005 C 
HETATM   12  C24 UNL     1      17.751  21.427   6.308  1.00  0.00     0.000 C 
HETATM   13  C25 UNL     1      16.555  20.713   6.887  1.00  0.00     0.000 C 
HETATM   14  C26 UNL     1      16.517  21.016   8.371  1.00  0.00     0.006 C 
BRANCH   9  15
HETATM   15  O3  UNL     1      15.265  25.153   5.138  1.00  0.00    -0.359 OA
ATOM     16  H3  UNL     1      15.705  24.740   4.404  1.00  0.00     0.217 HD
ENDBRANCH   9  15
ENDBRANCH   1   2
BRANCH   1  17
HETATM   17  C7  UNL     1      11.534  26.125   6.297  1.00  0.00    -0.047 A 
HETATM   18  C8  UNL     1      11.969  26.690   7.471  1.00  0.00     0.008 A 
HETATM   19  C9  UNL     1      11.173  27.484   8.262  1.00  0.00     0.003 A 
HETATM   20  C10 UNL     1       9.876  27.730   7.863  1.00  0.00     0.030 A 
HETATM   21  C11 UNL     1       9.407  27.182   6.693  1.00  0.00     0.043 A 
HETATM   22  C18 UNL     1      10.244  26.374   5.907  1.00  0.00     0.038 A 
BRANCH  21  23
HETATM   23  N1  UNL     1       8.073  27.396   6.265  1.00  0.00    -0.281 N 
ATOM     24  H1  UNL     1       7.332  26.960   6.813  1.00  0.00     0.179 HD
BRANCH  23  25
HETATM   25  S1  UNL     1       7.599  28.322   4.906  1.00  0.00     0.263 S 
HETATM   26  O4  UNL     1       8.656  29.376   4.592  1.00  0.00    -0.200 OA
HETATM   27  O5  UNL     1       6.354  29.090   5.304  1.00  0.00    -0.200 OA
BRANCH  25  28
HETATM   28  C12 UNL     1       7.274  27.365   3.499  1.00  0.00     0.079 A 
HETATM   29  C13 UNL     1       6.033  27.375   2.879  1.00  0.00     0.025 A 
HETATM   30  C14 UNL     1       5.809  26.609   1.772  1.00  0.00     0.002 A 
HETATM   31  C15 UNL     1       6.807  25.825   1.263  1.00  0.00     0.000 A 
HETATM   32  C16 UNL     1       8.044  25.820   1.889  1.00  0.00     0.002 A 
HETATM   33  C17 UNL     1       8.292  26.585   3.007  1.00  0.00     0.025 A 
ENDBRANCH  25  28
ENDBRANCH  23  25
ENDBRANCH  21  23
ENDBRANCH   1  17
BRANCH   1  34
HETATM   34  C19 UNL     1      11.538  24.592   4.448  1.00  0.00    -0.001 A 
HETATM   35  C20 UNL     1      11.674  24.985   3.000  1.00  0.00     0.006 A 
HETATM   36  C21 UNL     1      12.067  23.597   3.505  1.00  0.00     0.006 A 
ENDBRANCH   1  34
TORSDOF 7
ENDMDL
