MODEL 19
REMARK VINA RESULT: -8.283774955      3.288      4.363
REMARK  12 active torsions:
REMARK  status: ('A' for Active; 'I' for Inactive)
REMARK    1  A    between atoms: C2_2  and  N1_3 
REMARK    2  A    between atoms: C2_2  and  C11_15 
REMARK       I    between atoms: N1_3  and  C3_5 
REMARK    3  A    between atoms: C3_5  and  O2_7 
REMARK    4  A    between atoms: O2_7  and  C4_8 
REMARK    5  A    between atoms: C4_8  and  C5_9 
REMARK       I    between atoms: C11_15  and  N2_17 
REMARK    6  A    between atoms: N2_17  and  C12_19 
REMARK    7  A    between atoms: C12_19  and  P1_20 
REMARK    8  A    between atoms: P1_20  and  O6_23 
REMARK    9  A    between atoms: O6_23  and  C13_24 
REMARK   10  A    between atoms: C13_24  and  C14_25 
REMARK   11  A    between atoms: C13_24  and  C21_32 
REMARK   12  A    between atoms: C14_25  and  C15_26 
ROOT
HETATM    1  C11 UNL     1      45.364  19.022  39.345  1.00  0.00     0.244 C 
HETATM    2  O3  UNL     1      44.171  18.663  39.476  1.00  0.00    -0.271 OA
HETATM    3  N2  UNL     1      45.559  20.323  38.856  1.00  0.00    -0.327 N 
ATOM      4  H2  UNL     1      46.527  20.624  38.745  1.00  0.00     0.168 HD
ENDROOT
BRANCH   3   5
HETATM    5  C12 UNL     1      44.542  21.288  38.491  1.00  0.00     0.196 C 
BRANCH   5   6
HETATM    6  P1  UNL     1      44.858  22.880  38.236  1.00  0.00     0.291 P 
HETATM    7  O4  UNL     1      45.480  22.992  39.790  1.00  0.00    -0.643 OA
HETATM    8  O5  UNL     1      43.263  23.321  37.992  1.00  0.00    -0.643 OA
BRANCH   6   9
HETATM    9  O6  UNL     1      45.839  22.703  36.974  1.00  0.00    -0.291 OA
BRANCH   9  10
HETATM   10  C13 UNL     1      45.407  23.389  35.869  1.00  0.00     0.237 C 
BRANCH  10  11
HETATM   11  C14 UNL     1      46.529  24.018  35.090  1.00  0.00     0.082 C 
BRANCH  11  12
HETATM   12  C15 UNL     1      46.037  24.899  34.019  1.00  0.00    -0.055 A 
HETATM   13  C16 UNL     1      46.219  24.521  32.711  1.00  0.00     0.007 A 
HETATM   14  C17 UNL     1      45.746  25.311  31.675  1.00  0.00     0.001 A 
HETATM   15  C18 UNL     1      45.089  26.492  31.965  1.00  0.00     0.000 A 
HETATM   16  C19 UNL     1      44.894  26.893  33.266  1.00  0.00     0.001 A 
HETATM   17  C20 UNL     1      45.380  26.076  34.274  1.00  0.00     0.007 A 
ENDBRANCH  11  12
ENDBRANCH  10  11
BRANCH  10  18
HETATM   18  C21 UNL     1      44.673  22.452  34.999  1.00  0.00     0.204 C 
HETATM   19  O7  UNL     1      45.123  21.260  34.887  1.00  0.00    -0.646 OA
HETATM   20  O8  UNL     1      43.518  22.758  34.288  1.00  0.00    -0.646 OA
ENDBRANCH  10  18
ENDBRANCH   9  10
ENDBRANCH   6   9
ENDBRANCH   5   6
ENDBRANCH   3   5
BRANCH   1  21
HETATM   21  C2  UNL     1      46.470  18.098  39.695  1.00  0.00     0.175 C 
HETATM   22  C1  UNL     1      46.046  17.317  40.918  1.00  0.00     0.042 C 
BRANCH  21  23
HETATM   23  N1  UNL     1      47.691  18.793  40.009  1.00  0.00    -0.324 N 
HETATM   24  C3  UNL     1      48.950  18.333  39.539  1.00  0.00     0.361 C 
HETATM   25  O1  UNL     1      48.954  17.275  38.825  1.00  0.00    -0.238 OA
ATOM     26  H1  UNL     1      47.652  19.635  40.583  1.00  0.00     0.165 HD
BRANCH  24  27
HETATM   27  O2  UNL     1      50.156  18.925  39.787  1.00  0.00    -0.299 OA
BRANCH  27  28
HETATM   28  C4  UNL     1      50.612  19.211  41.120  1.00  0.00     0.219 C 
BRANCH  28  29
HETATM   29  C5  UNL     1      50.731  20.653  41.337  1.00  0.00    -0.034 A 
HETATM   30  C6  UNL     1      51.681  21.383  40.689  1.00  0.00     0.009 A 
HETATM   31  C7  UNL     1      51.746  22.739  40.935  1.00  0.00     0.001 A 
HETATM   32  C8  UNL     1      50.893  23.378  41.805  1.00  0.00     0.000 A 
HETATM   33  C9  UNL     1      49.951  22.599  42.437  1.00  0.00     0.001 A 
HETATM   34  C10 UNL     1      49.865  21.261  42.212  1.00  0.00     0.009 A 
ENDBRANCH  28  29
ENDBRANCH  27  28
ENDBRANCH  24  27
ENDBRANCH  21  23
ENDBRANCH   1  21
TORSDOF 12
ENDMDL
