MODEL 4
REMARK VINA RESULT: -9.188717592      0.832      1.347
REMARK  12 active torsions:
REMARK  status: ('A' for Active; 'I' for Inactive)
REMARK    1  A    between atoms: C2_2  and  N1_3 
REMARK    2  A    between atoms: C2_2  and  C11_15 
REMARK       I    between atoms: N1_3  and  C3_5 
REMARK    3  A    between atoms: C3_5  and  O2_7 
REMARK    4  A    between atoms: O2_7  and  C4_8 
REMARK    5  A    between atoms: C4_8  and  C5_9 
REMARK       I    between atoms: C11_15  and  N2_17 
REMARK    6  A    between atoms: N2_17  and  C12_19 
REMARK    7  A    between atoms: C12_19  and  P1_20 
REMARK    8  A    between atoms: P1_20  and  O6_23 
REMARK    9  A    between atoms: O6_23  and  C13_24 
REMARK   10  A    between atoms: C13_24  and  C14_25 
REMARK   11  A    between atoms: C13_24  and  C21_32 
REMARK   12  A    between atoms: C14_25  and  C15_26 
ROOT
HETATM    1  C11 UNL     1      45.205  19.009  39.152  1.00  0.00     0.244 C 
HETATM    2  O3  UNL     1      44.042  18.736  39.527  1.00  0.00    -0.271 OA
HETATM    3  N2  UNL     1      45.399  20.311  38.663  1.00  0.00    -0.327 N 
ATOM      4  H2  UNL     1      46.344  20.542  38.355  1.00  0.00     0.168 HD
ENDROOT
BRANCH   3   5
HETATM    5  C12 UNL     1      44.411  21.364  38.547  1.00  0.00     0.196 C 
BRANCH   5   6
HETATM    6  P1  UNL     1      44.797  22.939  38.281  1.00  0.00     0.291 P 
HETATM    7  O4  UNL     1      45.417  23.036  39.837  1.00  0.00    -0.643 OA
HETATM    8  O5  UNL     1      43.223  23.447  38.026  1.00  0.00    -0.643 OA
BRANCH   6   9
HETATM    9  O6  UNL     1      45.775  22.709  37.025  1.00  0.00    -0.291 OA
BRANCH   9  10
HETATM   10  C13 UNL     1      45.351  23.366  35.899  1.00  0.00     0.237 C 
BRANCH  10  11
HETATM   11  C14 UNL     1      46.480  23.968  35.108  1.00  0.00     0.082 C 
BRANCH  11  12
HETATM   12  C15 UNL     1      45.998  24.850  34.034  1.00  0.00    -0.055 A 
HETATM   13  C16 UNL     1      46.235  24.499  32.728  1.00  0.00     0.007 A 
HETATM   14  C17 UNL     1      45.774  25.291  31.688  1.00  0.00     0.001 A 
HETATM   15  C18 UNL     1      45.071  26.446  31.973  1.00  0.00     0.000 A 
HETATM   16  C19 UNL     1      44.820  26.822  33.272  1.00  0.00     0.001 A 
HETATM   17  C20 UNL     1      45.297  26.003  34.284  1.00  0.00     0.007 A 
ENDBRANCH  11  12
ENDBRANCH  10  11
BRANCH  10  18
HETATM   18  C21 UNL     1      44.616  22.409  35.052  1.00  0.00     0.204 C 
HETATM   19  O7  UNL     1      45.024  21.197  35.026  1.00  0.00    -0.646 OA
HETATM   20  O8  UNL     1      43.504  22.716  34.277  1.00  0.00    -0.646 OA
ENDBRANCH  10  18
ENDBRANCH   9  10
ENDBRANCH   6   9
ENDBRANCH   5   6
ENDBRANCH   3   5
BRANCH   1  21
HETATM   21  C2  UNL     1      46.280  17.991  39.235  1.00  0.00     0.175 C 
HETATM   22  C1  UNL     1      46.907  18.097  40.606  1.00  0.00     0.042 C 
BRANCH  21  23
HETATM   23  N1  UNL     1      47.313  18.197  38.253  1.00  0.00    -0.324 N 
HETATM   24  C3  UNL     1      47.353  17.445  37.049  1.00  0.00     0.361 C 
HETATM   25  O1  UNL     1      46.435  16.577  36.872  1.00  0.00    -0.238 OA
ATOM     26  H1  UNL     1      48.032  18.899  38.426  1.00  0.00     0.165 HD
BRANCH  24  27
HETATM   27  O2  UNL     1      48.292  17.572  36.064  1.00  0.00    -0.299 OA
BRANCH  27  28
HETATM   28  C4  UNL     1      47.961  17.461  34.669  1.00  0.00     0.219 C 
BRANCH  28  29
HETATM   29  C5  UNL     1      49.168  17.446  33.842  1.00  0.00    -0.034 A 
HETATM   30  C6  UNL     1      49.118  17.067  32.535  1.00  0.00     0.009 A 
HETATM   31  C7  UNL     1      50.290  17.071  31.806  1.00  0.00     0.001 A 
HETATM   32  C8  UNL     1      51.500  17.442  32.347  1.00  0.00     0.000 A 
HETATM   33  C9  UNL     1      51.501  17.816  33.671  1.00  0.00     0.001 A 
HETATM   34  C10 UNL     1      50.361  17.821  34.412  1.00  0.00     0.009 A 
ENDBRANCH  28  29
ENDBRANCH  27  28
ENDBRANCH  24  27
ENDBRANCH  21  23
ENDBRANCH   1  21
TORSDOF 12
ENDMDL
