MODEL 16
REMARK VINA RESULT: -8.447059821      2.941      4.523
REMARK  12 active torsions:
REMARK  status: ('A' for Active; 'I' for Inactive)
REMARK    1  A    between atoms: C2_2  and  N1_3 
REMARK    2  A    between atoms: C2_2  and  C11_15 
REMARK       I    between atoms: N1_3  and  C3_5 
REMARK    3  A    between atoms: C3_5  and  O2_7 
REMARK    4  A    between atoms: O2_7  and  C4_8 
REMARK    5  A    between atoms: C4_8  and  C5_9 
REMARK       I    between atoms: C11_15  and  N2_17 
REMARK    6  A    between atoms: N2_17  and  C12_19 
REMARK    7  A    between atoms: C12_19  and  P1_20 
REMARK    8  A    between atoms: P1_20  and  O6_23 
REMARK    9  A    between atoms: O6_23  and  C13_24 
REMARK   10  A    between atoms: C13_24  and  C14_25 
REMARK   11  A    between atoms: C13_24  and  C21_32 
REMARK   12  A    between atoms: C14_25  and  C15_26 
ROOT
HETATM    1  C11 UNL     1      45.345  18.888  38.624  1.00  0.00     0.244 C 
HETATM    2  O3  UNL     1      44.295  18.557  39.221  1.00  0.00    -0.271 OA
HETATM    3  N2  UNL     1      45.450  20.246  38.282  1.00  0.00    -0.327 N 
ATOM      4  H2  UNL     1      46.302  20.524  37.794  1.00  0.00     0.168 HD
ENDROOT
BRANCH   3   5
HETATM    5  C12 UNL     1      44.488  21.296  38.542  1.00  0.00     0.196 C 
BRANCH   5   6
HETATM    6  P1  UNL     1      44.796  22.889  38.280  1.00  0.00     0.291 P 
HETATM    7  O4  UNL     1      45.400  23.015  39.840  1.00  0.00    -0.643 OA
HETATM    8  O5  UNL     1      43.200  23.318  38.016  1.00  0.00    -0.643 OA
BRANCH   6   9
HETATM    9  O6  UNL     1      45.792  22.710  37.030  1.00  0.00    -0.291 OA
BRANCH   9  10
HETATM   10  C13 UNL     1      45.365  23.382  35.914  1.00  0.00     0.237 C 
BRANCH  10  11
HETATM   11  C14 UNL     1      46.494  23.958  35.105  1.00  0.00     0.082 C 
BRANCH  11  12
HETATM   12  C15 UNL     1      46.014  24.822  34.016  1.00  0.00    -0.055 A 
HETATM   13  C16 UNL     1      45.435  26.027  34.328  1.00  0.00     0.007 A 
HETATM   14  C17 UNL     1      44.994  26.880  33.329  1.00  0.00     0.001 A 
HETATM   15  C18 UNL     1      45.137  26.509  32.006  1.00  0.00     0.000 A 
HETATM   16  C19 UNL     1      45.714  25.308  31.665  1.00  0.00     0.001 A 
HETATM   17  C20 UNL     1      46.143  24.482  32.693  1.00  0.00     0.007 A 
ENDBRANCH  11  12
ENDBRANCH  10  11
BRANCH  10  18
HETATM   18  C21 UNL     1      44.591  22.447  35.078  1.00  0.00     0.204 C 
HETATM   19  O7  UNL     1      45.057  21.268  34.909  1.00  0.00    -0.646 OA
HETATM   20  O8  UNL     1      43.384  22.742  34.455  1.00  0.00    -0.646 OA
ENDBRANCH  10  18
ENDBRANCH   9  10
ENDBRANCH   6   9
ENDBRANCH   5   6
ENDBRANCH   3   5
BRANCH   1  21
HETATM   21  C2  UNL     1      46.385  17.877  38.315  1.00  0.00     0.175 C 
HETATM   22  C1  UNL     1      45.731  16.777  37.511  1.00  0.00     0.042 C 
BRANCH  21  23
HETATM   23  N1  UNL     1      46.954  17.290  39.500  1.00  0.00    -0.324 N 
HETATM   24  C3  UNL     1      48.292  17.556  39.893  1.00  0.00     0.361 C 
HETATM   25  O1  UNL     1      48.972  18.339  39.150  1.00  0.00    -0.238 OA
ATOM     26  H1  UNL     1      46.381  16.668  40.071  1.00  0.00     0.165 HD
BRANCH  24  27
HETATM   27  O2  UNL     1      48.913  17.044  40.997  1.00  0.00    -0.299 OA
BRANCH  27  28
HETATM   28  C4  UNL     1      48.675  17.558  42.319  1.00  0.00     0.219 C 
BRANCH  28  29
HETATM   29  C5  UNL     1      48.309  18.973  42.275  1.00  0.00    -0.034 A 
HETATM   30  C6  UNL     1      49.249  19.946  42.433  1.00  0.00     0.009 A 
HETATM   31  C7  UNL     1      48.844  21.264  42.383  1.00  0.00     0.001 A 
HETATM   32  C8  UNL     1      47.533  21.631  42.181  1.00  0.00     0.000 A 
HETATM   33  C9  UNL     1      46.619  20.613  42.028  1.00  0.00     0.001 A 
HETATM   34  C10 UNL     1      46.992  19.307  42.072  1.00  0.00     0.009 A 
ENDBRANCH  28  29
ENDBRANCH  27  28
ENDBRANCH  24  27
ENDBRANCH  21  23
ENDBRANCH   1  21
TORSDOF 12
ENDMDL
