MODEL 7
REMARK VINA RESULT: -8.915947213      0.867      1.475
REMARK  12 active torsions:
REMARK  status: ('A' for Active; 'I' for Inactive)
REMARK    1  A    between atoms: C2_2  and  N1_3 
REMARK    2  A    between atoms: C2_2  and  C11_15 
REMARK       I    between atoms: N1_3  and  C3_5 
REMARK    3  A    between atoms: C3_5  and  O2_7 
REMARK    4  A    between atoms: O2_7  and  C4_8 
REMARK    5  A    between atoms: C4_8  and  C5_9 
REMARK       I    between atoms: C11_15  and  N2_17 
REMARK    6  A    between atoms: N2_17  and  C12_19 
REMARK    7  A    between atoms: C12_19  and  P1_20 
REMARK    8  A    between atoms: P1_20  and  O6_23 
REMARK    9  A    between atoms: O6_23  and  C13_24 
REMARK   10  A    between atoms: C13_24  and  C14_25 
REMARK   11  A    between atoms: C13_24  and  C21_32 
REMARK   12  A    between atoms: C14_25  and  C15_26 
ROOT
HETATM    1  C11 UNL     1      45.152  19.108  38.965  1.00  0.00     0.244 C 
HETATM    2  O3  UNL     1      44.013  19.093  39.485  1.00  0.00    -0.271 OA
HETATM    3  N2  UNL     1      45.679  20.380  38.689  1.00  0.00    -0.327 N 
ATOM      4  H2  UNL     1      46.606  20.402  38.263  1.00  0.00     0.168 HD
ENDROOT
BRANCH   3   5
HETATM    5  C12 UNL     1      45.058  21.664  38.939  1.00  0.00     0.196 C 
BRANCH   5   6
HETATM    6  P1  UNL     1      44.283  22.533  37.779  1.00  0.00     0.291 P 
HETATM    7  O4  UNL     1      43.754  23.606  38.956  1.00  0.00    -0.643 OA
HETATM    8  O5  UNL     1      43.252  21.299  37.318  1.00  0.00    -0.643 OA
BRANCH   6   9
HETATM    9  O6  UNL     1      45.569  22.878  36.877  1.00  0.00    -0.291 OA
BRANCH   9  10
HETATM   10  C13 UNL     1      45.231  23.402  35.656  1.00  0.00     0.237 C 
BRANCH  10  11
HETATM   11  C14 UNL     1      46.380  24.094  34.974  1.00  0.00     0.082 C 
BRANCH  11  12
HETATM   12  C15 UNL     1      45.942  24.889  33.817  1.00  0.00    -0.055 A 
HETATM   13  C16 UNL     1      45.319  26.093  34.033  1.00  0.00     0.007 A 
HETATM   14  C17 UNL     1      44.916  26.882  32.967  1.00  0.00     0.001 A 
HETATM   15  C18 UNL     1      45.142  26.448  31.675  1.00  0.00     0.000 A 
HETATM   16  C19 UNL     1      45.764  25.246  31.430  1.00  0.00     0.001 A 
HETATM   17  C20 UNL     1      46.153  24.486  32.522  1.00  0.00     0.007 A 
ENDBRANCH  11  12
ENDBRANCH  10  11
BRANCH  10  18
HETATM   18  C21 UNL     1      44.743  22.306  34.800  1.00  0.00     0.204 C 
HETATM   19  O7  UNL     1      43.636  22.476  34.182  1.00  0.00    -0.646 OA
HETATM   20  O8  UNL     1      45.394  21.093  34.603  1.00  0.00    -0.646 OA
ENDBRANCH  10  18
ENDBRANCH   9  10
ENDBRANCH   6   9
ENDBRANCH   5   6
ENDBRANCH   3   5
BRANCH   1  21
HETATM   21  C2  UNL     1      45.863  17.840  38.673  1.00  0.00     0.175 C 
HETATM   22  C1  UNL     1      46.602  17.430  39.927  1.00  0.00     0.042 C 
BRANCH  21  23
HETATM   23  N1  UNL     1      46.824  17.977  37.611  1.00  0.00    -0.324 N 
HETATM   24  C3  UNL     1      46.621  17.373  36.342  1.00  0.00     0.361 C 
HETATM   25  O1  UNL     1      45.548  16.701  36.182  1.00  0.00    -0.238 OA
ATOM     26  H1  UNL     1      47.672  18.521  37.773  1.00  0.00     0.165 HD
BRANCH  24  27
HETATM   27  O2  UNL     1      47.476  17.449  35.279  1.00  0.00    -0.299 OA
BRANCH  27  28
HETATM   28  C4  UNL     1      48.904  17.477  35.442  1.00  0.00     0.219 C 
BRANCH  28  29
HETATM   29  C5  UNL     1      49.583  17.360  34.152  1.00  0.00    -0.034 A 
HETATM   30  C6  UNL     1      50.903  17.668  34.024  1.00  0.00     0.009 A 
HETATM   31  C7  UNL     1      51.489  17.540  32.781  1.00  0.00     0.001 A 
HETATM   32  C8  UNL     1      50.793  17.113  31.672  1.00  0.00     0.000 A 
HETATM   33  C9  UNL     1      49.462  16.815  31.851  1.00  0.00     0.001 A 
HETATM   34  C10 UNL     1      48.861  16.932  33.064  1.00  0.00     0.009 A 
ENDBRANCH  28  29
ENDBRANCH  27  28
ENDBRANCH  24  27
ENDBRANCH  21  23
ENDBRANCH   1  21
TORSDOF 12
ENDMDL
