MODEL 17
REMARK VINA RESULT: -8.439125506      2.095      7.471
REMARK  12 active torsions:
REMARK  status: ('A' for Active; 'I' for Inactive)
REMARK    1  A    between atoms: C2_2  and  N1_3 
REMARK    2  A    between atoms: C2_2  and  C11_15 
REMARK       I    between atoms: N1_3  and  C3_5 
REMARK    3  A    between atoms: C3_5  and  O2_7 
REMARK    4  A    between atoms: O2_7  and  C4_8 
REMARK    5  A    between atoms: C4_8  and  C5_9 
REMARK       I    between atoms: C11_15  and  N2_17 
REMARK    6  A    between atoms: N2_17  and  C12_19 
REMARK    7  A    between atoms: C12_19  and  P1_20 
REMARK    8  A    between atoms: P1_20  and  O6_23 
REMARK    9  A    between atoms: O6_23  and  C13_24 
REMARK   10  A    between atoms: C13_24  and  C14_25 
REMARK   11  A    between atoms: C13_24  and  C21_32 
REMARK   12  A    between atoms: C14_25  and  C15_26 
ROOT
HETATM    1  C11 UNL     1      45.187  19.490  39.458  1.00  0.00     0.244 C 
HETATM    2  O3  UNL     1      44.061  18.950  39.540  1.00  0.00    -0.271 OA
HETATM    3  N2  UNL     1      46.286  18.617  39.486  1.00  0.00    -0.327 N 
ATOM      4  H2  UNL     1      47.208  19.048  39.421  1.00  0.00     0.168 HD
ENDROOT
BRANCH   3   5
HETATM    5  C12 UNL     1      46.260  17.173  39.597  1.00  0.00     0.196 C 
BRANCH   5   6
HETATM    6  P1  UNL     1      47.332  16.189  38.833  1.00  0.00     0.291 P 
HETATM    7  O4  UNL     1      46.967  14.967  39.924  1.00  0.00    -0.643 OA
HETATM    8  O5  UNL     1      48.671  17.145  39.140  1.00  0.00    -0.643 OA
BRANCH   6   9
HETATM    9  O6  UNL     1      46.648  16.217  37.379  1.00  0.00    -0.291 OA
BRANCH   9  10
HETATM   10  C13 UNL     1      47.322  17.018  36.493  1.00  0.00     0.237 C 
BRANCH  10  11
HETATM   11  C14 UNL     1      48.039  16.240  35.424  1.00  0.00     0.082 C 
BRANCH  11  12
HETATM   12  C15 UNL     1      49.384  16.772  35.156  1.00  0.00    -0.055 A 
HETATM   13  C16 UNL     1      49.651  17.316  33.924  1.00  0.00     0.007 A 
HETATM   14  C17 UNL     1      50.898  17.851  33.643  1.00  0.00     0.001 A 
HETATM   15  C18 UNL     1      51.881  17.833  34.614  1.00  0.00     0.000 A 
HETATM   16  C19 UNL     1      51.640  17.294  35.857  1.00  0.00     0.001 A 
HETATM   17  C20 UNL     1      50.380  16.769  36.100  1.00  0.00     0.007 A 
ENDBRANCH  11  12
ENDBRANCH  10  11
BRANCH  10  18
HETATM   18  C21 UNL     1      46.353  17.934  35.866  1.00  0.00     0.204 C 
HETATM   19  O7  UNL     1      46.191  17.859  34.599  1.00  0.00    -0.646 OA
HETATM   20  O8  UNL     1      45.589  18.878  36.543  1.00  0.00    -0.646 OA
ENDBRANCH  10  18
ENDBRANCH   9  10
ENDBRANCH   6   9
ENDBRANCH   5   6
ENDBRANCH   3   5
BRANCH   1  21
HETATM   21  C2  UNL     1      45.308  20.964  39.342  1.00  0.00     0.175 C 
HETATM   22  C1  UNL     1      45.019  21.556  40.702  1.00  0.00     0.042 C 
BRANCH  21  23
HETATM   23  N1  UNL     1      44.372  21.523  38.401  1.00  0.00    -0.324 N 
HETATM   24  C3  UNL     1      44.727  22.605  37.554  1.00  0.00     0.361 C 
HETATM   25  O1  UNL     1      45.913  23.064  37.661  1.00  0.00    -0.238 OA
ATOM     26  H1  UNL     1      43.432  21.132  38.342  1.00  0.00     0.165 HD
BRANCH  24  27
HETATM   27  O2  UNL     1      43.908  23.198  36.635  1.00  0.00    -0.299 OA
BRANCH  27  28
HETATM   28  C4  UNL     1      44.015  22.933  35.226  1.00  0.00     0.219 C 
BRANCH  28  29
HETATM   29  C5  UNL     1      44.713  24.019  34.539  1.00  0.00    -0.034 A 
HETATM   30  C6  UNL     1      44.246  25.297  34.594  1.00  0.00     0.009 A 
HETATM   31  C7  UNL     1      44.946  26.281  33.924  1.00  0.00     0.001 A 
HETATM   32  C8  UNL     1      46.091  26.020  33.207  1.00  0.00     0.000 A 
HETATM   33  C9  UNL     1      46.523  24.714  33.180  1.00  0.00     0.001 A 
HETATM   34  C10 UNL     1      45.854  23.727  33.832  1.00  0.00     0.009 A 
ENDBRANCH  28  29
ENDBRANCH  27  28
ENDBRANCH  24  27
ENDBRANCH  21  23
ENDBRANCH   1  21
TORSDOF 12
ENDMDL
