MODEL 1
REMARK VINA RESULT: -9.620821130      0.000      0.000
REMARK  7 active torsions:
REMARK  status: ('A' for Active; 'I' for Inactive)
REMARK    1  A    between atoms: C1_2  and  C2_3 
REMARK       I    between atoms: C1_2  and  N1_26 
REMARK    2  A    between atoms: C2_3  and  C3_4 
REMARK    3  A    between atoms: C3_4  and  S1_5 
REMARK    4  A    between atoms: S1_5  and  C4_8 
REMARK    5  A    between atoms: C7_11  and  O4_12 
REMARK    6  A    between atoms: O4_12  and  C8_13 
REMARK    7  A    between atoms: N1_26  and  O6_28 
ROOT
HETATM    1  S1  UNL     1      10.107 -11.570  35.468  1.00  0.00     0.184 S 
HETATM    2  O2  UNL     1      10.126 -11.251  33.991  1.00  0.00    -0.222 OA
HETATM    3  O3  UNL     1       9.514 -12.931  35.699  1.00  0.00    -0.222 OA
ENDROOT
BRANCH   1   4
HETATM    4  C3  UNL     1      11.829 -11.545  35.980  1.00  0.00     0.081 C 
HETATM    5  C16 UNL     1      12.331 -12.947  35.781  1.00  0.00     0.052 C 
HETATM    6  C17 UNL     1      12.111 -13.847  36.955  1.00  0.00     0.169 C 
HETATM    7  O5  UNL     1      11.459 -13.224  38.011  1.00  0.00    -0.391 OA
HETATM    8  C18 UNL     1      12.258 -12.143  38.385  1.00  0.00     0.169 C 
HETATM    9  C19 UNL     1      11.933 -11.038  37.374  1.00  0.00     0.052 C 
BRANCH   4  10
HETATM   10  C2  UNL     1      12.538 -10.664  34.973  1.00  0.00     0.131 C 
BRANCH  10  11
HETATM   11  C1  UNL     1      13.168  -9.472  35.563  1.00  0.00     0.242 C 
HETATM   12  O1  UNL     1      14.186  -9.575  36.268  1.00  0.00    -0.271 OA
HETATM   13  N1  UNL     1      12.611  -8.199  35.328  1.00  0.00    -0.237 N 
ATOM     14  H1  UNL     1      11.775  -8.128  34.749  1.00  0.00     0.197 HD
BRANCH  13  15
HETATM   15  O6  UNL     1      13.153  -7.055  35.851  1.00  0.00    -0.287 OA
ATOM     16  H6  UNL     1      13.752  -6.505  35.359  1.00  0.00     0.244 HD
ENDBRANCH  13  15
ENDBRANCH  10  11
ENDBRANCH   4  10
ENDBRANCH   1   4
BRANCH   1  17
HETATM   17  C4  UNL     1       9.145 -10.382  36.260  1.00  0.00     0.060 A 
HETATM   18  C5  UNL     1       9.144  -9.080  35.813  1.00  0.00     0.026 A 
HETATM   19  C6  UNL     1       8.366  -8.098  36.440  1.00  0.00     0.039 A 
HETATM   20  C7  UNL     1       7.592  -8.430  37.514  1.00  0.00     0.076 A 
HETATM   21  C14 UNL     1       7.586  -9.750  37.976  1.00  0.00     0.039 A 
HETATM   22  C15 UNL     1       8.358 -10.704  37.346  1.00  0.00     0.026 A 
BRANCH  20  23
HETATM   23  O4  UNL     1       6.834  -7.442  38.115  1.00  0.00    -0.311 OA
BRANCH  23  24
HETATM   24  C8  UNL     1       6.356  -7.650  39.399  1.00  0.00     0.076 A 
HETATM   25  C9  UNL     1       7.205  -7.862  40.453  1.00  0.00     0.037 A 
HETATM   26  C10 UNL     1       6.688  -8.064  41.712  1.00  0.00     0.003 A 
HETATM   27  C11 UNL     1       5.334  -8.051  41.886  1.00  0.00     0.000 A 
HETATM   28  C12 UNL     1       4.471  -7.841  40.838  1.00  0.00     0.003 A 
HETATM   29  C13 UNL     1       5.000  -7.640  39.590  1.00  0.00     0.037 A 
ENDBRANCH  23  24
ENDBRANCH  20  23
ENDBRANCH   1  17
TORSDOF 7
ENDMDL
