MODEL 16
REMARK VINA RESULT: -8.648896283      5.507     10.188
REMARK  7 active torsions:
REMARK  status: ('A' for Active; 'I' for Inactive)
REMARK    1  A    between atoms: C1_2  and  C2_3 
REMARK       I    between atoms: C1_2  and  N1_26 
REMARK    2  A    between atoms: C2_3  and  C3_4 
REMARK    3  A    between atoms: C3_4  and  S1_5 
REMARK    4  A    between atoms: S1_5  and  C4_8 
REMARK    5  A    between atoms: C7_11  and  O4_12 
REMARK    6  A    between atoms: O4_12  and  C8_13 
REMARK    7  A    between atoms: N1_26  and  O6_28 
ROOT
HETATM    1  S1  UNL     1       3.663  -5.889  44.021  1.00  0.00     0.184 S 
HETATM    2  O2  UNL     1       2.372  -6.660  44.176  1.00  0.00    -0.222 OA
HETATM    3  O3  UNL     1       3.389  -4.411  44.023  1.00  0.00    -0.222 OA
ENDROOT
BRANCH   1   4
HETATM    4  C3  UNL     1       4.658  -6.340  45.449  1.00  0.00     0.081 C 
HETATM    5  C16 UNL     1       3.901  -7.439  46.139  1.00  0.00     0.052 C 
HETATM    6  C17 UNL     1       2.895  -6.955  47.134  1.00  0.00     0.169 C 
HETATM    7  O5  UNL     1       2.829  -5.570  47.220  1.00  0.00    -0.391 OA
HETATM    8  C18 UNL     1       4.104  -5.137  47.586  1.00  0.00     0.169 C 
HETATM    9  C19 UNL     1       4.914  -5.138  46.285  1.00  0.00     0.052 C 
BRANCH   4  10
HETATM   10  C2  UNL     1       5.923  -6.951  44.882  1.00  0.00     0.131 C 
BRANCH  10  11
HETATM   11  C1  UNL     1       5.948  -8.422  44.936  1.00  0.00     0.242 C 
HETATM   12  O1  UNL     1       5.483  -9.100  44.004  1.00  0.00    -0.271 OA
HETATM   13  N1  UNL     1       6.506  -9.071  46.056  1.00  0.00    -0.237 N 
ATOM     14  H1  UNL     1       6.884  -8.503  46.814  1.00  0.00     0.197 HD
BRANCH  13  15
HETATM   15  O6  UNL     1       6.558 -10.435  46.162  1.00  0.00    -0.287 OA
ATOM     16  H6  UNL     1       7.253 -10.883  46.631  1.00  0.00     0.244 HD
ENDBRANCH  13  15
ENDBRANCH  10  11
ENDBRANCH   4  10
ENDBRANCH   1   4
BRANCH   1  17
HETATM   17  C4  UNL     1       4.379  -6.340  42.523  1.00  0.00     0.060 A 
HETATM   18  C5  UNL     1       3.718  -7.190  41.666  1.00  0.00     0.026 A 
HETATM   19  C6  UNL     1       4.280  -7.568  40.440  1.00  0.00     0.039 A 
HETATM   20  C7  UNL     1       5.507  -7.088  40.081  1.00  0.00     0.076 A 
HETATM   21  C14 UNL     1       6.188  -6.225  40.944  1.00  0.00     0.039 A 
HETATM   22  C15 UNL     1       5.619  -5.863  42.148  1.00  0.00     0.026 A 
BRANCH  20  23
HETATM   23  O4  UNL     1       6.040  -7.476  38.865  1.00  0.00    -0.311 OA
BRANCH  23  24
HETATM   24  C8  UNL     1       6.991  -8.485  38.841  1.00  0.00     0.076 A 
HETATM   25  C9  UNL     1       7.938  -8.600  39.824  1.00  0.00     0.037 A 
HETATM   26  C10 UNL     1       8.862  -9.617  39.761  1.00  0.00     0.003 A 
HETATM   27  C11 UNL     1       8.819 -10.493  38.715  1.00  0.00     0.000 A 
HETATM   28  C12 UNL     1       7.876 -10.389  37.721  1.00  0.00     0.003 A 
HETATM   29  C13 UNL     1       6.960  -9.372  37.798  1.00  0.00     0.037 A 
ENDBRANCH  23  24
ENDBRANCH  20  23
ENDBRANCH   1  17
TORSDOF 7
ENDMDL
