MODEL 4
REMARK VINA RESULT: -9.078463201      1.224      1.786
REMARK  7 active torsions:
REMARK  status: ('A' for Active; 'I' for Inactive)
REMARK    1  A    between atoms: C1_2  and  C2_3 
REMARK       I    between atoms: C1_2  and  N1_26 
REMARK    2  A    between atoms: C2_3  and  C3_4 
REMARK    3  A    between atoms: C3_4  and  S1_5 
REMARK    4  A    between atoms: S1_5  and  C4_8 
REMARK    5  A    between atoms: C7_11  and  O4_12 
REMARK    6  A    between atoms: O4_12  and  C8_13 
REMARK    7  A    between atoms: N1_26  and  O6_28 
ROOT
HETATM    1  S1  UNL     1       9.539 -12.215  35.796  1.00  0.00     0.184 S 
HETATM    2  O2  UNL     1       9.991 -11.875  34.395  1.00  0.00    -0.222 OA
HETATM    3  O3  UNL     1       8.545 -13.342  35.762  1.00  0.00    -0.222 OA
ENDROOT
BRANCH   1   4
HETATM    4  C3  UNL     1      11.028 -12.723  36.665  1.00  0.00     0.081 C 
HETATM    5  C16 UNL     1      11.911 -13.350  35.622  1.00  0.00     0.052 C 
HETATM    6  C17 UNL     1      11.668 -14.811  35.415  1.00  0.00     0.169 C 
HETATM    7  O5  UNL     1      10.650 -15.317  36.211  1.00  0.00    -0.391 OA
HETATM    8  C18 UNL     1      11.030 -15.083  37.533  1.00  0.00     0.169 C 
HETATM    9  C19 UNL     1      10.671 -13.617  37.798  1.00  0.00     0.052 C 
BRANCH   4  10
HETATM   10  C2  UNL     1      11.695 -11.438  37.108  1.00  0.00     0.131 C 
BRANCH  10  11
HETATM   11  C1  UNL     1      12.780 -10.993  36.217  1.00  0.00     0.242 C 
HETATM   12  O1  UNL     1      13.961 -11.295  36.455  1.00  0.00    -0.271 OA
HETATM   13  N1  UNL     1      12.477 -10.215  35.082  1.00  0.00    -0.237 N 
ATOM     14  H1  UNL     1      11.503  -9.973  34.898  1.00  0.00     0.197 HD
BRANCH  13  15
HETATM   15  O6  UNL     1      13.442  -9.772  34.218  1.00  0.00    -0.287 OA
ATOM     16  H6  UNL     1      13.347  -8.972  33.715  1.00  0.00     0.244 HD
ENDBRANCH  13  15
ENDBRANCH  10  11
ENDBRANCH   4  10
ENDBRANCH   1   4
BRANCH   1  17
HETATM   17  C4  UNL     1       8.800 -10.817  36.475  1.00  0.00     0.060 A 
HETATM   18  C5  UNL     1       8.106 -10.906  37.660  1.00  0.00     0.026 A 
HETATM   19  C6  UNL     1       7.499  -9.781  38.233  1.00  0.00     0.039 A 
HETATM   20  C7  UNL     1       7.593  -8.570  37.610  1.00  0.00     0.076 A 
HETATM   21  C14 UNL     1       8.295  -8.469  36.405  1.00  0.00     0.039 A 
HETATM   22  C15 UNL     1       8.886  -9.588  35.856  1.00  0.00     0.026 A 
BRANCH  20  23
HETATM   23  O4  UNL     1       6.985  -7.475  38.196  1.00  0.00    -0.311 OA
BRANCH  23  24
HETATM   24  C8  UNL     1       6.419  -7.615  39.454  1.00  0.00     0.076 A 
HETATM   25  C9  UNL     1       7.193  -7.770  40.574  1.00  0.00     0.037 A 
HETATM   26  C10 UNL     1       6.589  -7.906  41.802  1.00  0.00     0.003 A 
HETATM   27  C11 UNL     1       5.227  -7.884  41.882  1.00  0.00     0.000 A 
HETATM   28  C12 UNL     1       4.438  -7.731  40.767  1.00  0.00     0.003 A 
HETATM   29  C13 UNL     1       5.053  -7.596  39.550  1.00  0.00     0.037 A 
ENDBRANCH  23  24
ENDBRANCH  20  23
ENDBRANCH   1  17
TORSDOF 7
ENDMDL
