MODEL 5
REMARK VINA RESULT: -9.070578168      1.311      1.584
REMARK  7 active torsions:
REMARK  status: ('A' for Active; 'I' for Inactive)
REMARK    1  A    between atoms: C1_2  and  C2_3 
REMARK       I    between atoms: C1_2  and  N1_26 
REMARK    2  A    between atoms: C2_3  and  C3_4 
REMARK    3  A    between atoms: C3_4  and  S1_5 
REMARK    4  A    between atoms: S1_5  and  C4_8 
REMARK    5  A    between atoms: C7_11  and  O4_12 
REMARK    6  A    between atoms: O4_12  and  C8_13 
REMARK    7  A    between atoms: N1_26  and  O6_28 
ROOT
HETATM    1  S1  UNL     1       9.504 -12.269  37.257  1.00  0.00     0.184 S 
HETATM    2  O2  UNL     1       8.804 -12.808  36.031  1.00  0.00    -0.222 OA
HETATM    3  O3  UNL     1       9.392 -13.248  38.391  1.00  0.00    -0.222 OA
ENDROOT
BRANCH   1   4
HETATM    4  C3  UNL     1      11.224 -12.070  36.772  1.00  0.00     0.081 C 
HETATM    5  C16 UNL     1      11.565 -13.299  35.977  1.00  0.00     0.052 C 
HETATM    6  C17 UNL     1      12.047 -14.447  36.806  1.00  0.00     0.169 C 
HETATM    7  O5  UNL     1      12.069 -14.172  38.167  1.00  0.00    -0.391 OA
HETATM    8  C18 UNL     1      12.918 -13.077  38.334  1.00  0.00     0.169 C 
HETATM    9  C19 UNL     1      12.066 -11.854  37.978  1.00  0.00     0.052 C 
BRANCH   4  10
HETATM   10  C2  UNL     1      11.241 -10.896  35.816  1.00  0.00     0.131 C 
BRANCH  10  11
HETATM   11  C1  UNL     1      12.027  -9.748  36.298  1.00  0.00     0.242 C 
HETATM   12  O1  UNL     1      11.510  -8.887  37.029  1.00  0.00    -0.271 OA
HETATM   13  N1  UNL     1      13.380  -9.623  35.925  1.00  0.00    -0.237 N 
ATOM     14  H1  UNL     1      13.792 -10.336  35.324  1.00  0.00     0.197 HD
BRANCH  13  15
HETATM   15  O6  UNL     1      14.161  -8.578  36.342  1.00  0.00    -0.287 OA
ATOM     16  H6  UNL     1      14.769  -8.134  35.762  1.00  0.00     0.244 HD
ENDBRANCH  13  15
ENDBRANCH  10  11
ENDBRANCH   4  10
ENDBRANCH   1   4
BRANCH   1  17
HETATM   17  C4  UNL     1       8.748 -10.787  37.698  1.00  0.00     0.060 A 
HETATM   18  C5  UNL     1       8.048 -10.060  36.763  1.00  0.00     0.026 A 
HETATM   19  C6  UNL     1       7.421  -8.854  37.100  1.00  0.00     0.039 A 
HETATM   20  C7  UNL     1       7.501  -8.384  38.379  1.00  0.00     0.076 A 
HETATM   21  C14 UNL     1       8.209  -9.115  39.337  1.00  0.00     0.039 A 
HETATM   22  C15 UNL     1       8.821 -10.301  38.987  1.00  0.00     0.026 A 
BRANCH  20  23
HETATM   23  O4  UNL     1       6.873  -7.190  38.686  1.00  0.00    -0.311 OA
BRANCH  23  24
HETATM   24  C8  UNL     1       6.064  -7.128  39.810  1.00  0.00     0.076 A 
HETATM   25  C9  UNL     1       6.517  -6.597  40.990  1.00  0.00     0.037 A 
HETATM   26  C10 UNL     1       5.680  -6.555  42.080  1.00  0.00     0.003 A 
HETATM   27  C11 UNL     1       4.411  -7.045  41.966  1.00  0.00     0.000 A 
HETATM   28  C12 UNL     1       3.944  -7.582  40.791  1.00  0.00     0.003 A 
HETATM   29  C13 UNL     1       4.789  -7.617  39.712  1.00  0.00     0.037 A 
ENDBRANCH  23  24
ENDBRANCH  20  23
ENDBRANCH   1  17
TORSDOF 7
ENDMDL
