MODEL 8
REMARK VINA RESULT: -8.965976802      1.600      1.948
REMARK  7 active torsions:
REMARK  status: ('A' for Active; 'I' for Inactive)
REMARK    1  A    between atoms: C1_2  and  C2_3 
REMARK       I    between atoms: C1_2  and  N1_26 
REMARK    2  A    between atoms: C2_3  and  C3_4 
REMARK    3  A    between atoms: C3_4  and  S1_5 
REMARK    4  A    between atoms: S1_5  and  C4_8 
REMARK    5  A    between atoms: C7_11  and  O4_12 
REMARK    6  A    between atoms: O4_12  and  C8_13 
REMARK    7  A    between atoms: N1_26  and  O6_28 
ROOT
HETATM    1  S1  UNL     1       9.420 -12.493  35.515  1.00  0.00     0.184 S 
HETATM    2  O2  UNL     1       9.895 -12.075  34.143  1.00  0.00    -0.222 OA
HETATM    3  O3  UNL     1       8.327 -13.517  35.397  1.00  0.00    -0.222 OA
ENDROOT
BRANCH   1   4
HETATM    4  C3  UNL     1      10.861 -13.208  36.318  1.00  0.00     0.081 C 
HETATM    5  C16 UNL     1      11.221 -14.417  35.501  1.00  0.00     0.052 C 
HETATM    6  C17 UNL     1      10.510 -15.666  35.913  1.00  0.00     0.169 C 
HETATM    7  O5  UNL     1       9.625 -15.473  36.966  1.00  0.00    -0.391 OA
HETATM    8  C18 UNL     1      10.382 -14.985  38.032  1.00  0.00     0.169 C 
HETATM    9  C19 UNL     1      10.555 -13.490  37.745  1.00  0.00     0.052 C 
BRANCH   4  10
HETATM   10  C2  UNL     1      11.970 -12.194  36.135  1.00  0.00     0.131 C 
BRANCH  10  11
HETATM   11  C1  UNL     1      12.407 -11.558  37.389  1.00  0.00     0.242 C 
HETATM   12  O1  UNL     1      13.300 -12.070  38.083  1.00  0.00    -0.271 OA
HETATM   13  N1  UNL     1      11.804 -10.355  37.809  1.00  0.00    -0.237 N 
ATOM     14  H1  UNL     1      11.071  -9.944  37.230  1.00  0.00     0.197 HD
BRANCH  13  15
HETATM   15  O6  UNL     1      12.169  -9.717  38.965  1.00  0.00    -0.287 OA
ATOM     16  H6  UNL     1      12.557  -8.850  38.967  1.00  0.00     0.244 HD
ENDBRANCH  13  15
ENDBRANCH  10  11
ENDBRANCH   4  10
ENDBRANCH   1   4
BRANCH   1  17
HETATM   17  C4  UNL     1       8.816 -11.098  36.322  1.00  0.00     0.060 A 
HETATM   18  C5  UNL     1       8.918  -9.858  35.733  1.00  0.00     0.026 A 
HETATM   19  C6  UNL     1       8.430  -8.709  36.369  1.00  0.00     0.039 A 
HETATM   20  C7  UNL     1       7.842  -8.813  37.596  1.00  0.00     0.076 A 
HETATM   21  C14 UNL     1       7.733 -10.067  38.203  1.00  0.00     0.039 A 
HETATM   22  C15 UNL     1       8.219 -11.188  37.562  1.00  0.00     0.026 A 
BRANCH  20  23
HETATM   23  O4  UNL     1       7.368  -7.663  38.202  1.00  0.00    -0.311 OA
BRANCH  23  24
HETATM   24  C8  UNL     1       6.688  -7.771  39.405  1.00  0.00     0.076 A 
HETATM   25  C9  UNL     1       7.353  -7.939  40.592  1.00  0.00     0.037 A 
HETATM   26  C10 UNL     1       6.637  -8.041  41.762  1.00  0.00     0.003 A 
HETATM   27  C11 UNL     1       5.275  -7.974  41.718  1.00  0.00     0.000 A 
HETATM   28  C12 UNL     1       4.594  -7.807  40.537  1.00  0.00     0.003 A 
HETATM   29  C13 UNL     1       5.320  -7.706  39.378  1.00  0.00     0.037 A 
ENDBRANCH  23  24
ENDBRANCH  20  23
ENDBRANCH   1  17
TORSDOF 7
ENDMDL
