MODEL 3
REMARK VINA RESULT: -6.223476853      1.249      3.981
REMARK  6 active torsions:
REMARK  status: ('A' for Active; 'I' for Inactive)
REMARK    1  A    between atoms: O1_1  and  C1_3 
REMARK    2  A    between atoms: C1_3  and  C2_4 
REMARK    3  A    between atoms: C3_6  and  O3_7 
REMARK    4  A    between atoms: C4_9  and  O4_10 
REMARK    5  A    between atoms: C5_12  and  O5_13 
REMARK    6  A    between atoms: C6_15  and  O6_16 
ROOT
HETATM    1  C2  UNL     1      14.268  55.533  53.108  1.00  0.00     0.179 C 
HETATM    2  O2  UNL     1      14.251  55.443  54.461  1.00  0.00    -0.349 OA
HETATM    3  C3  UNL     1      13.795  56.537  55.153  1.00  0.00     0.288 C 
HETATM    4  C4  UNL     1      12.453  57.035  54.724  1.00  0.00     0.204 C 
HETATM    5  C5  UNL     1      12.009  56.265  53.500  1.00  0.00     0.183 C 
HETATM    6  C6  UNL     1      13.170  56.398  52.524  1.00  0.00     0.180 C 
ENDROOT
BRANCH   1   7
HETATM    7  C1  UNL     1      15.622  55.897  52.535  1.00  0.00     0.198 C 
BRANCH   7   8
HETATM    8  O1  UNL     1      16.473  56.313  53.558  1.00  0.00    -0.398 OA
ATOM      9  H1  UNL     1      16.658  57.240  53.467  1.00  0.00     0.209 HD
ENDBRANCH   7   8
ENDBRANCH   1   7
BRANCH   6  10
HETATM   10  O6  UNL     1      13.630  57.715  52.566  1.00  0.00    -0.390 OA
ATOM     11  H6  UNL     1      14.343  57.776  51.941  1.00  0.00     0.210 HD
ENDBRANCH   6  10
BRANCH   3  12
HETATM   12  O3  UNL     1      14.766  57.565  55.144  1.00  0.00    -0.369 OA
ATOM     13  H3  UNL     1      14.990  57.801  54.252  1.00  0.00     0.212 HD
ENDBRANCH   3  12
BRANCH   5  14
HETATM   14  O5  UNL     1      10.824  56.727  52.968  1.00  0.00    -0.390 OA
ATOM     15  H5  UNL     1      10.881  56.921  52.040  1.00  0.00     0.210 HD
ENDBRANCH   5  14
BRANCH   4  16
HETATM   16  O4  UNL     1      11.506  57.032  55.726  1.00  0.00    -0.388 OA
ATOM     17  H4  UNL     1      10.697  57.476  55.497  1.00  0.00     0.210 HD
ENDBRANCH   4  16
TORSDOF 6
ENDMDL
