MODEL 11
REMARK VINA RESULT: -4.453110367      1.494      4.101
REMARK  6 active torsions:
REMARK  status: ('A' for Active; 'I' for Inactive)
REMARK    1  A    between atoms: O1_1  and  C1_3 
REMARK    2  A    between atoms: C1_3  and  C2_4 
REMARK    3  A    between atoms: C3_6  and  O3_7 
REMARK    4  A    between atoms: C4_9  and  O4_10 
REMARK    5  A    between atoms: C5_12  and  O5_13 
REMARK    6  A    between atoms: C6_15  and  O6_16 
ROOT
HETATM    1  C2  UNL     1      13.249  55.401  53.555  1.00  0.00     0.179 C 
HETATM    2  O2  UNL     1      13.899  56.035  54.564  1.00  0.00    -0.349 OA
HETATM    3  C3  UNL     1      13.401  57.251  54.959  1.00  0.00     0.288 C 
HETATM    4  C4  UNL     1      11.945  57.251  55.299  1.00  0.00     0.204 C 
HETATM    5  C5  UNL     1      11.359  55.898  54.960  1.00  0.00     0.183 C 
HETATM    6  C6  UNL     1      11.758  55.663  53.509  1.00  0.00     0.180 C 
ENDROOT
BRANCH   1   7
HETATM    7  C1  UNL     1      13.887  55.599  52.196  1.00  0.00     0.198 C 
BRANCH   7   8
HETATM    8  O1  UNL     1      15.250  55.312  52.265  1.00  0.00    -0.398 OA
ATOM      9  H1  UNL     1      15.719  56.055  52.626  1.00  0.00     0.209 HD
ENDBRANCH   7   8
ENDBRANCH   1   7
BRANCH   6  10
HETATM   10  O6  UNL     1      11.579  56.855  52.806  1.00  0.00    -0.390 OA
ATOM     11  H6  UNL     1      12.423  57.082  52.433  1.00  0.00     0.210 HD
ENDBRANCH   6  10
BRANCH   3  12
HETATM   12  O3  UNL     1      13.719  58.246  54.008  1.00  0.00    -0.369 OA
ATOM     13  H3  UNL     1      14.660  58.366  53.956  1.00  0.00     0.212 HD
ENDBRANCH   3  12
BRANCH   5  14
HETATM   14  O5  UNL     1       9.994  55.836  55.143  1.00  0.00    -0.390 OA
ATOM     15  H5  UNL     1       9.626  54.986  54.930  1.00  0.00     0.210 HD
ENDBRANCH   5  14
BRANCH   4  16
HETATM   16  O4  UNL     1      11.670  57.640  56.593  1.00  0.00    -0.388 OA
ATOM     17  H4  UNL     1      12.206  58.361  56.903  1.00  0.00     0.210 HD
ENDBRANCH   4  16
TORSDOF 6
ENDMDL
