MODEL 5
REMARK VINA RESULT: -5.844206362      1.320      4.012
REMARK  6 active torsions:
REMARK  status: ('A' for Active; 'I' for Inactive)
REMARK    1  A    between atoms: O1_1  and  C1_3 
REMARK    2  A    between atoms: C1_3  and  C2_4 
REMARK    3  A    between atoms: C3_6  and  O3_7 
REMARK    4  A    between atoms: C4_9  and  O4_10 
REMARK    5  A    between atoms: C5_12  and  O5_13 
REMARK    6  A    between atoms: C6_15  and  O6_16 
ROOT
HETATM    1  C2  UNL     1      14.348  55.707  52.719  1.00  0.00     0.179 C 
HETATM    2  O2  UNL     1      14.106  54.917  53.795  1.00  0.00    -0.349 OA
HETATM    3  C3  UNL     1      13.494  55.503  54.874  1.00  0.00     0.288 C 
HETATM    4  C4  UNL     1      12.223  56.223  54.558  1.00  0.00     0.204 C 
HETATM    5  C5  UNL     1      12.025  56.240  53.059  1.00  0.00     0.183 C 
HETATM    6  C6  UNL     1      13.327  56.807  52.509  1.00  0.00     0.180 C 
ENDROOT
BRANCH   1   7
HETATM    7  C1  UNL     1      15.762  56.246  52.659  1.00  0.00     0.198 C 
BRANCH   7   8
HETATM    8  O1  UNL     1      16.441  55.677  51.583  1.00  0.00    -0.398 OA
ATOM      9  H1  UNL     1      17.356  55.931  51.608  1.00  0.00     0.209 HD
ENDBRANCH   7   8
ENDBRANCH   1   7
BRANCH   6  10
HETATM   10  O6  UNL     1      13.716  57.877  53.317  1.00  0.00    -0.390 OA
ATOM     11  H6  UNL     1      14.344  58.384  52.817  1.00  0.00     0.210 HD
ENDBRANCH   6  10
BRANCH   3  12
HETATM   12  O3  UNL     1      14.407  56.327  55.571  1.00  0.00    -0.369 OA
ATOM     13  H3  UNL     1      14.068  56.542  56.432  1.00  0.00     0.212 HD
ENDBRANCH   3  12
BRANCH   5  14
HETATM   14  O5  UNL     1      10.928  56.975  52.664  1.00  0.00    -0.390 OA
ATOM     15  H5  UNL     1      10.550  56.674  51.846  1.00  0.00     0.210 HD
ENDBRANCH   5  14
BRANCH   4  16
HETATM   16  O4  UNL     1      11.122  55.741  55.233  1.00  0.00    -0.388 OA
ATOM     17  H4  UNL     1      10.329  55.710  54.710  1.00  0.00     0.210 HD
ENDBRANCH   4  16
TORSDOF 6
ENDMDL
