MODEL 12
REMARK VINA RESULT: -4.441804615      1.338      3.564
REMARK  6 active torsions:
REMARK  status: ('A' for Active; 'I' for Inactive)
REMARK    1  A    between atoms: O1_1  and  C1_3 
REMARK    2  A    between atoms: C1_3  and  C2_4 
REMARK    3  A    between atoms: C3_6  and  O3_7 
REMARK    4  A    between atoms: C4_9  and  O4_10 
REMARK    5  A    between atoms: C5_12  and  O5_13 
REMARK    6  A    between atoms: C6_15  and  O6_16 
ROOT
HETATM    1  C2  UNL     1      13.463  55.716  52.614  1.00  0.00     0.179 C 
HETATM    2  O2  UNL     1      14.444  55.282  53.445  1.00  0.00    -0.349 OA
HETATM    3  C3  UNL     1      14.973  56.200  54.317  1.00  0.00     0.288 C 
HETATM    4  C4  UNL     1      13.967  56.921  55.156  1.00  0.00     0.204 C 
HETATM    5  C5  UNL     1      12.578  56.539  54.696  1.00  0.00     0.183 C 
HETATM    6  C6  UNL     1      12.586  56.805  53.196  1.00  0.00     0.180 C 
ENDROOT
BRANCH   1   7
HETATM    7  C1  UNL     1      13.952  56.081  51.228  1.00  0.00     0.198 C 
BRANCH   7   8
HETATM    8  O1  UNL     1      15.344  56.149  51.218  1.00  0.00    -0.398 OA
ATOM      9  H1  UNL     1      15.703  55.506  51.819  1.00  0.00     0.209 HD
ENDBRANCH   7   8
ENDBRANCH   1   7
BRANCH   6  10
HETATM   10  O6  UNL     1      13.242  58.016  52.969  1.00  0.00    -0.390 OA
ATOM     11  H6  UNL     1      12.568  58.675  52.853  1.00  0.00     0.210 HD
ENDBRANCH   6  10
BRANCH   3  12
HETATM   12  O3  UNL     1      15.826  57.096  53.632  1.00  0.00    -0.369 OA
ATOM     13  H3  UNL     1      15.563  57.173  52.723  1.00  0.00     0.212 HD
ENDBRANCH   3  12
BRANCH   5  14
HETATM   14  O5  UNL     1      11.580  57.235  55.344  1.00  0.00    -0.390 OA
ATOM     15  H5  UNL     1      10.838  57.434  54.785  1.00  0.00     0.210 HD
ENDBRANCH   5  14
BRANCH   4  16
HETATM   16  O4  UNL     1      14.143  56.752  56.513  1.00  0.00    -0.388 OA
ATOM     17  H4  UNL     1      13.333  56.640  56.998  1.00  0.00     0.210 HD
ENDBRANCH   4  16
TORSDOF 6
ENDMDL
