MODEL 1
REMARK VINA RESULT: -6.525902063      0.000      0.000
REMARK  5 active torsions:
REMARK  status: ('A' for Active; 'I' for Inactive)
REMARK       I    between atoms: N1_2  and  C2_4 
REMARK    1  A    between atoms: C2_4  and  C3_6 
REMARK    2  A    between atoms: C3_6  and  N2_7 
REMARK    3  A    between atoms: C3_6  and  C4_11 
REMARK    4  A    between atoms: C4_11  and  C16_25 
REMARK    5  A    between atoms: C12_19  and  C13_20 
ROOT
HETATM    1  C4  UNL     1      44.978  21.794  51.514  1.00  0.00     0.006 C 
HETATM    2  C5  UNL     1      44.811  22.978  50.613  1.00  0.00     0.019 C 
HETATM    3  C6  UNL     1      44.828  23.761  51.892  1.00  0.00     0.014 C 
HETATM    4  C7  UNL     1      44.435  22.791  53.072  1.00  0.00     0.001 C 
HETATM    5  C8  UNL     1      45.591  22.027  53.631  1.00  0.00     0.004 A 
HETATM    6  C9  UNL     1      46.437  23.154  53.447  1.00  0.00     0.018 A 
HETATM    7  C10 UNL     1      45.792  24.414  53.933  1.00  0.00    -0.024 C 
HETATM    8  C11 UNL     1      44.436  24.963  53.555  1.00  0.00    -0.009 C 
HETATM    9  C12 UNL     1      43.744  24.571  52.283  1.00  0.00     0.070 C 
HETATM   10  C14 UNL     1      42.871  23.375  52.035  1.00  0.00     0.031 C 
HETATM   11  C15 UNL     1      43.667  22.048  52.146  1.00  0.00     0.003 C 
HETATM   12  C16 UNL     1      46.212  22.151  52.382  1.00  0.00     0.010 A 
ENDROOT
BRANCH   1  13
HETATM   13  C3  UNL     1      45.150  20.498  50.890  1.00  0.00     0.283 C 
BRANCH  13  14
HETATM   14  C2  UNL     1      44.673  19.419  51.792  1.00  0.00     0.248 C 
HETATM   15  N1  UNL     1      45.517  18.985  52.863  1.00  0.00    -0.364 N 
HETATM   16  C1  UNL     1      45.154  17.947  53.795  1.00  0.00     0.149 C 
ATOM     17  H1  UNL     1      46.426  19.435  52.972  1.00  0.00     0.161 HD
HETATM   18  O1  UNL     1      43.579  18.842  51.700  1.00  0.00    -0.271 OA
ENDBRANCH  13  14
BRANCH  13  19
HETATM   19  N2  UNL     1      44.547  20.372  49.574  1.00  0.00    -0.066 N 
ATOM     20  H23 UNL     1      45.252  20.286  48.842  1.00  0.00     0.275 HD
ATOM     21  H22 UNL     1      44.090  19.469  49.453  1.00  0.00     0.275 HD
ATOM     22  H21 UNL     1      43.908  21.147  49.395  1.00  0.00     0.275 HD
ENDBRANCH  13  19
ENDBRANCH   1  13
BRANCH   9  23
HETATM   23  C13 UNL     1      43.343  25.668  51.409  1.00  0.00     0.186 C 
HETATM   24  O2  UNL     1      43.994  26.759  51.460  1.00  0.00    -0.647 OA
HETATM   25  O3  UNL     1      42.275  25.559  50.528  1.00  0.00    -0.647 OA
ENDBRANCH   9  23
TORSDOF 5
ENDMDL
MODEL 2
REMARK VINA RESULT: -6.498640953      1.840      2.474
REMARK  5 active torsions:
REMARK  status: ('A' for Active; 'I' for Inactive)
REMARK       I    between atoms: N1_2  and  C2_4 
REMARK    1  A    between atoms: C2_4  and  C3_6 
REMARK    2  A    between atoms: C3_6  and  N2_7 
REMARK    3  A    between atoms: C3_6  and  C4_11 
REMARK    4  A    between atoms: C4_11  and  C16_25 
REMARK    5  A    between atoms: C12_19  and  C13_20 
ROOT
HETATM    1  C4  UNL     1      44.175  22.917  51.441  1.00  0.00     0.006 C 
HETATM    2  C5  UNL     1      42.714  23.219  51.314  1.00  0.00     0.019 C 
HETATM    3  C6  UNL     1      43.099  24.561  51.863  1.00  0.00     0.014 C 
HETATM    4  C7  UNL     1      44.471  24.408  52.627  1.00  0.00     0.001 C 
HETATM    5  C8  UNL     1      45.668  24.529  51.741  1.00  0.00     0.004 A 
HETATM    6  C9  UNL     1      45.010  25.524  50.970  1.00  0.00     0.018 A 
HETATM    7  C10 UNL     1      44.351  26.549  51.839  1.00  0.00    -0.024 C 
HETATM    8  C11 UNL     1      43.371  26.314  52.965  1.00  0.00    -0.009 C 
HETATM    9  C12 UNL     1      42.558  25.057  53.064  1.00  0.00     0.070 C 
HETATM   10  C14 UNL     1      42.951  23.746  53.682  1.00  0.00     0.031 C 
HETATM   11  C15 UNL     1      44.113  23.070  52.909  1.00  0.00     0.003 C 
HETATM   12  C16 UNL     1      44.867  24.080  50.683  1.00  0.00     0.010 A 
ENDROOT
BRANCH   1  13
HETATM   13  C3  UNL     1      44.638  21.638  50.947  1.00  0.00     0.283 C 
BRANCH  13  14
HETATM   14  C2  UNL     1      45.449  20.943  51.980  1.00  0.00     0.248 C 
HETATM   15  N1  UNL     1      44.937  19.746  52.575  1.00  0.00    -0.364 N 
HETATM   16  C1  UNL     1      45.639  18.994  53.585  1.00  0.00     0.149 C 
ATOM     17  H1  UNL     1      44.026  19.407  52.267  1.00  0.00     0.161 HD
HETATM   18  O1  UNL     1      46.560  21.315  52.387  1.00  0.00    -0.271 OA
ENDBRANCH  13  14
BRANCH  13  19
HETATM   19  N2  UNL     1      43.592  20.765  50.444  1.00  0.00    -0.066 N 
ATOM     20  H23 UNL     1      43.658  19.827  50.840  1.00  0.00     0.275 HD
ATOM     21  H22 UNL     1      42.676  21.021  50.812  1.00  0.00     0.275 HD
ATOM     22  H21 UNL     1      43.597  20.745  49.424  1.00  0.00     0.275 HD
ENDBRANCH  13  19
ENDBRANCH   1  13
BRANCH   9  23
HETATM   23  C13 UNL     1      41.113  25.237  53.157  1.00  0.00     0.186 C 
HETATM   24  O2  UNL     1      40.519  24.871  54.220  1.00  0.00    -0.647 OA
HETATM   25  O3  UNL     1      40.369  25.791  52.124  1.00  0.00    -0.647 OA
ENDBRANCH   9  23
TORSDOF 5
ENDMDL
MODEL 3
REMARK VINA RESULT: -6.453076852      2.018      3.147
REMARK  5 active torsions:
REMARK  status: ('A' for Active; 'I' for Inactive)
REMARK       I    between atoms: N1_2  and  C2_4 
REMARK    1  A    between atoms: C2_4  and  C3_6 
REMARK    2  A    between atoms: C3_6  and  N2_7 
REMARK    3  A    between atoms: C3_6  and  C4_11 
REMARK    4  A    between atoms: C4_11  and  C16_25 
REMARK    5  A    between atoms: C12_19  and  C13_20 
ROOT
HETATM    1  C4  UNL     1      44.365  22.758  51.757  1.00  0.00     0.006 C 
HETATM    2  C5  UNL     1      44.228  22.721  53.247  1.00  0.00     0.019 C 
HETATM    3  C6  UNL     1      43.765  24.139  53.087  1.00  0.00     0.014 C 
HETATM    4  C7  UNL     1      44.307  24.684  51.709  1.00  0.00     0.001 C 
HETATM    5  C8  UNL     1      43.426  24.361  50.547  1.00  0.00     0.004 A 
HETATM    6  C9  UNL     1      42.274  24.542  51.358  1.00  0.00     0.018 A 
HETATM    7  C10 UNL     1      42.365  25.791  52.176  1.00  0.00    -0.024 C 
HETATM    8  C11 UNL     1      43.482  26.208  53.105  1.00  0.00    -0.009 C 
HETATM    9  C12 UNL     1      44.433  25.215  53.702  1.00  0.00     0.070 C 
HETATM   10  C14 UNL     1      45.694  24.663  53.102  1.00  0.00     0.031 C 
HETATM   11  C15 UNL     1      45.406  23.803  51.844  1.00  0.00     0.003 C 
HETATM   12  C16 UNL     1      42.977  23.243  51.264  1.00  0.00     0.010 A 
ENDROOT
BRANCH   1  13
HETATM   13  C3  UNL     1      44.743  21.529  51.090  1.00  0.00     0.283 C 
BRANCH  13  14
HETATM   14  C2  UNL     1      45.407  20.603  52.044  1.00  0.00     0.248 C 
HETATM   15  N1  UNL     1      44.743  19.389  52.408  1.00  0.00    -0.364 N 
HETATM   16  C1  UNL     1      45.296  18.421  53.323  1.00  0.00     0.149 C 
ATOM     17  H1  UNL     1      43.829  19.198  51.999  1.00  0.00     0.161 HD
HETATM   18  O1  UNL     1      46.516  20.790  52.567  1.00  0.00    -0.271 OA
ENDBRANCH  13  14
BRANCH  13  19
HETATM   19  N2  UNL     1      43.660  20.857  50.392  1.00  0.00    -0.066 N 
ATOM     20  H23 UNL     1      43.848  19.862  50.272  1.00  0.00     0.275 HD
ATOM     21  H22 UNL     1      42.824  20.786  50.971  1.00  0.00     0.275 HD
ATOM     22  H21 UNL     1      43.466  21.316  49.502  1.00  0.00     0.275 HD
ENDBRANCH  13  19
ENDBRANCH   1  13
BRANCH   9  23
HETATM   23  C13 UNL     1      44.541  25.228  55.157  1.00  0.00     0.186 C 
HETATM   24  O2  UNL     1      43.599  25.748  55.835  1.00  0.00    -0.647 OA
HETATM   25  O3  UNL     1      45.636  24.693  55.823  1.00  0.00    -0.647 OA
ENDBRANCH   9  23
TORSDOF 5
ENDMDL
MODEL 4
REMARK VINA RESULT: -6.373961214      2.539      5.138
REMARK  5 active torsions:
REMARK  status: ('A' for Active; 'I' for Inactive)
REMARK       I    between atoms: N1_2  and  C2_4 
REMARK    1  A    between atoms: C2_4  and  C3_6 
REMARK    2  A    between atoms: C3_6  and  N2_7 
REMARK    3  A    between atoms: C3_6  and  C4_11 
REMARK    4  A    between atoms: C4_11  and  C16_25 
REMARK    5  A    between atoms: C12_19  and  C13_20 
ROOT
HETATM    1  C4  UNL     1      43.896  24.289  52.101  1.00  0.00     0.006 C 
HETATM    2  C5  UNL     1      43.013  23.148  51.702  1.00  0.00     0.019 C 
HETATM    3  C6  UNL     1      44.166  22.299  52.150  1.00  0.00     0.014 C 
HETATM    4  C7  UNL     1      45.473  23.180  52.114  1.00  0.00     0.001 C 
HETATM    5  C8  UNL     1      45.695  23.977  53.359  1.00  0.00     0.004 A 
HETATM    6  C9  UNL     1      45.178  22.912  54.144  1.00  0.00     0.018 A 
HETATM    7  C10 UNL     1      45.753  21.593  53.732  1.00  0.00    -0.024 C 
HETATM    8  C11 UNL     1      45.780  20.988  52.347  1.00  0.00    -0.009 C 
HETATM    9  C12 UNL     1      44.819  21.409  51.275  1.00  0.00     0.070 C 
HETATM   10  C14 UNL     1      44.938  22.565  50.325  1.00  0.00     0.031 C 
HETATM   11  C15 UNL     1      44.887  23.927  51.066  1.00  0.00     0.003 C 
HETATM   12  C16 UNL     1      44.308  23.956  53.558  1.00  0.00     0.010 A 
ENDROOT
BRANCH   1  13
HETATM   13  C3  UNL     1      43.341  25.624  52.019  1.00  0.00     0.283 C 
BRANCH  13  14
HETATM   14  C2  UNL     1      42.358  25.712  50.909  1.00  0.00     0.248 C 
HETATM   15  N1  UNL     1      40.975  25.913  51.220  1.00  0.00    -0.364 N 
HETATM   16  C1  UNL     1      39.939  26.013  50.223  1.00  0.00     0.149 C 
ATOM     17  H1  UNL     1      40.709  25.990  52.202  1.00  0.00     0.161 HD
HETATM   18  O1  UNL     1      42.632  25.624  49.702  1.00  0.00    -0.271 OA
ENDBRANCH  13  14
BRANCH  13  19
HETATM   19  N2  UNL     1      42.763  26.119  53.257  1.00  0.00    -0.066 N 
ATOM     20  H23 UNL     1      41.743  26.116  53.225  1.00  0.00     0.275 HD
ATOM     21  H22 UNL     1      42.893  25.461  54.025  1.00  0.00     0.275 HD
ATOM     22  H21 UNL     1      43.132  27.042  53.483  1.00  0.00     0.275 HD
ENDBRANCH  13  19
ENDBRANCH   1  13
BRANCH   9  23
HETATM   23  C13 UNL     1      44.041  20.339  50.660  1.00  0.00     0.186 C 
HETATM   24  O2  UNL     1      43.690  20.462  49.444  1.00  0.00    -0.647 OA
HETATM   25  O3  UNL     1      43.672  19.197  51.358  1.00  0.00    -0.647 OA
ENDBRANCH   9  23
TORSDOF 5
ENDMDL
MODEL 5
REMARK VINA RESULT: -6.185728871      1.940      3.039
REMARK  5 active torsions:
REMARK  status: ('A' for Active; 'I' for Inactive)
REMARK       I    between atoms: N1_2  and  C2_4 
REMARK    1  A    between atoms: C2_4  and  C3_6 
REMARK    2  A    between atoms: C3_6  and  N2_7 
REMARK    3  A    between atoms: C3_6  and  C4_11 
REMARK    4  A    between atoms: C4_11  and  C16_25 
REMARK    5  A    between atoms: C12_19  and  C13_20 
ROOT
HETATM    1  C4  UNL     1      44.665  23.606  53.230  1.00  0.00     0.006 C 
HETATM    2  C5  UNL     1      45.138  24.354  52.023  1.00  0.00     0.019 C 
HETATM    3  C6  UNL     1      43.743  24.904  52.005  1.00  0.00     0.014 C 
HETATM    4  C7  UNL     1      42.810  23.914  52.803  1.00  0.00     0.001 C 
HETATM    5  C8  UNL     1      42.792  24.163  54.276  1.00  0.00     0.004 A 
HETATM    6  C9  UNL     1      42.874  25.563  54.051  1.00  0.00     0.018 A 
HETATM    7  C10 UNL     1      41.918  26.009  52.989  1.00  0.00    -0.024 C 
HETATM    8  C11 UNL     1      41.775  25.464  51.586  1.00  0.00    -0.009 C 
HETATM    9  C12 UNL     1      42.885  24.723  50.903  1.00  0.00     0.070 C 
HETATM   10  C14 UNL     1      43.217  23.261  50.995  1.00  0.00     0.031 C 
HETATM   11  C15 UNL     1      43.675  22.862  52.422  1.00  0.00     0.003 C 
HETATM   12  C16 UNL     1      44.077  24.707  54.149  1.00  0.00     0.010 A 
ENDROOT
BRANCH   1  13
HETATM   13  C3  UNL     1      45.638  22.808  53.946  1.00  0.00     0.283 C 
BRANCH  13  14
HETATM   14  C2  UNL     1      45.904  21.538  53.223  1.00  0.00     0.248 C 
HETATM   15  N1  UNL     1      45.512  20.301  53.825  1.00  0.00    -0.364 N 
HETATM   16  C1  UNL     1      45.722  19.013  53.211  1.00  0.00     0.149 C 
ATOM     17  H1  UNL     1      45.059  20.332  54.738  1.00  0.00     0.161 HD
HETATM   18  O1  UNL     1      46.451  21.449  52.113  1.00  0.00    -0.271 OA
ENDBRANCH  13  14
BRANCH  13  19
HETATM   19  N2  UNL     1      46.881  23.495  54.252  1.00  0.00    -0.066 N 
ATOM     20  H23 UNL     1      47.635  23.207  53.629  1.00  0.00     0.275 HD
ATOM     21  H22 UNL     1      46.840  24.482  53.997  1.00  0.00     0.275 HD
ATOM     22  H21 UNL     1      47.131  23.369  55.233  1.00  0.00     0.275 HD
ENDBRANCH  13  19
ENDBRANCH   1  13
BRANCH   9  23
HETATM   23  C13 UNL     1      43.298  25.245  49.605  1.00  0.00     0.186 C 
HETATM   24  O2  UNL     1      42.896  26.399  49.255  1.00  0.00    -0.647 OA
HETATM   25  O3  UNL     1      44.112  24.522  48.742  1.00  0.00    -0.647 OA
ENDBRANCH   9  23
TORSDOF 5
ENDMDL
