MODEL 1
REMARK VINA RESULT: -7.937756565      0.000      0.000
REMARK  9 active torsions:
REMARK  status: ('A' for Active; 'I' for Inactive)
REMARK    1  A    between atoms: O1_2  and  C2_3 
REMARK    2  A    between atoms: C5_7  and  O3_8 
REMARK    3  A    between atoms: C6_10  and  O4_11 
REMARK    4  A    between atoms: C7_13  and  O5_15 
REMARK    5  A    between atoms: C15_23  and  O6_24 
REMARK    6  A    between atoms: C20_30  and  C21_31 
REMARK    7  A    between atoms: C21_31  and  C22_33 
REMARK    8  A    between atoms: C22_33  and  C23_34 
REMARK    9  A    between atoms: C26_37  and  C27_38 
ROOT
HETATM    1  C2  UNL     1      14.476 -12.361  18.428  1.00  0.00     0.196 C 
HETATM    2  C3  UNL     1      14.687 -13.469  19.348  1.00  0.00     0.093 C 
HETATM    3  C4  UNL     1      13.285 -13.928  19.471  1.00  0.00     0.153 C 
HETATM    4  O2  UNL     1      12.403 -12.897  19.044  1.00  0.00    -0.344 OA
HETATM    5  C5  UNL     1      13.222 -11.810  19.176  1.00  0.00     0.219 C 
HETATM    6  C6  UNL     1      13.354 -11.671  20.639  1.00  0.00     0.218 C 
HETATM    7  C7  UNL     1      12.891 -12.829  21.484  1.00  0.00     0.101 C 
HETATM    8  C8  UNL     1      11.457 -12.601  21.964  1.00  0.00     0.050 C 
HETATM    9  C9  UNL     1      13.105 -14.222  20.911  1.00  0.00     0.064 C 
HETATM   10  C10 UNL     1      11.847 -15.044  20.916  1.00  0.00    -0.009 C 
HETATM   11  C11 UNL     1      11.749 -16.453  20.750  1.00  0.00    -0.001 C 
HETATM   12  C12 UNL     1      12.089 -17.303  19.615  1.00  0.00    -0.079 C 
HETATM   13  C13 UNL     1      11.066 -17.040  18.461  1.00  0.00     0.043 C 
HETATM   14  C14 UNL     1      13.324 -17.563  18.959  1.00  0.00     0.104 C 
HETATM   15  C15 UNL     1      14.640 -16.885  19.463  1.00  0.00     0.190 C 
HETATM   16  C17 UNL     1      14.617 -17.104  20.914  1.00  0.00     0.237 C 
HETATM   17  O7  UNL     1      14.106 -16.256  21.761  1.00  0.00    -0.379 OA
HETATM   18  C18 UNL     1      14.187 -14.903  21.637  1.00  0.00     0.140 C 
HETATM   19  C19 UNL     1      15.604 -14.563  21.580  1.00  0.00     0.049 C 
HETATM   20  C20 UNL     1      16.404 -14.816  20.334  1.00  0.00     0.100 C 
HETATM   21  C26 UNL     1      15.540 -14.660  19.101  1.00  0.00     0.136 C 
HETATM   22  O10 UNL     1      14.805 -15.753  18.829  1.00  0.00    -0.333 OA
ENDROOT
BRANCH  20  23
HETATM   23  C21 UNL     1      17.597 -13.952  20.307  1.00  0.00     0.134 C 
HETATM   24  O8  UNL     1      17.471 -12.714  20.462  1.00  0.00    -0.297 OA
BRANCH  23  25
HETATM   25  C22 UNL     1      19.002 -14.363  20.103  1.00  0.00     0.082 C 
BRANCH  25  26
HETATM   26  C23 UNL     1      19.986 -13.300  20.560  1.00  0.00    -0.016 C 
HETATM   27  C24 UNL     1      20.842 -13.929  21.633  1.00  0.00     0.010 C 
HETATM   28  C25 UNL     1      20.867 -12.827  19.439  1.00  0.00     0.010 C 
ENDBRANCH  25  26
ENDBRANCH  23  25
ENDBRANCH  20  23
BRANCH  21  29
HETATM   29  C27 UNL     1      16.456 -14.245  17.998  1.00  0.00     0.270 C 
HETATM   30  O9  UNL     1      16.521 -14.674  16.889  1.00  0.00    -0.304 OA
ENDBRANCH  21  29
BRANCH   1  31
HETATM   31  O1  UNL     1      14.074 -12.618  17.149  1.00  0.00    -0.385 OA
HETATM   32  C1  UNL     1      14.752 -11.856  16.209  1.00  0.00     0.202 C 
ENDBRANCH   1  31
BRANCH  15  33
HETATM   33  O6  UNL     1      15.624 -17.787  19.034  1.00  0.00    -0.358 OA
HETATM   34  C16 UNL     1      16.284 -18.500  19.968  1.00  0.00     0.205 C 
ENDBRANCH  15  33
BRANCH   7  35
HETATM   35  O5  UNL     1      13.613 -12.659  22.701  1.00  0.00    -0.386 OA
ATOM     36  H5  UNL     1      13.070 -13.101  23.344  1.00  0.00     0.210 HD
ENDBRANCH   7  35
BRANCH   5  37
HETATM   37  O3  UNL     1      12.749 -10.704  18.510  1.00  0.00    -0.361 OA
ATOM     38  H3  UNL     1      13.228 -10.601  17.696  1.00  0.00     0.213 HD
ENDBRANCH   5  37
BRANCH   6  39
HETATM   39  O4  UNL     1      12.482 -10.577  20.941  1.00  0.00    -0.387 OA
ATOM     40  H4  UNL     1      12.800 -10.274  21.783  1.00  0.00     0.210 HD
ENDBRANCH   6  39
TORSDOF 9
ENDMDL
MODEL 2
REMARK VINA RESULT: -7.447772504      1.590      5.587
REMARK  9 active torsions:
REMARK  status: ('A' for Active; 'I' for Inactive)
REMARK    1  A    between atoms: O1_2  and  C2_3 
REMARK    2  A    between atoms: C5_7  and  O3_8 
REMARK    3  A    between atoms: C6_10  and  O4_11 
REMARK    4  A    between atoms: C7_13  and  O5_15 
REMARK    5  A    between atoms: C15_23  and  O6_24 
REMARK    6  A    between atoms: C20_30  and  C21_31 
REMARK    7  A    between atoms: C21_31  and  C22_33 
REMARK    8  A    between atoms: C22_33  and  C23_34 
REMARK    9  A    between atoms: C26_37  and  C27_38 
ROOT
HETATM    1  C2  UNL     1      12.735 -12.618  20.168  1.00  0.00     0.196 C 
HETATM    2  C3  UNL     1      13.516 -13.826  19.947  1.00  0.00     0.093 C 
HETATM    3  C4  UNL     1      14.867 -13.220  19.930  1.00  0.00     0.153 C 
HETATM    4  O2  UNL     1      14.763 -11.821  19.697  1.00  0.00    -0.344 OA
HETATM    5  C5  UNL     1      13.522 -11.765  19.124  1.00  0.00     0.219 C 
HETATM    6  C6  UNL     1      13.737 -12.394  17.808  1.00  0.00     0.218 C 
HETATM    7  C7  UNL     1      15.025 -13.150  17.609  1.00  0.00     0.101 C 
HETATM    8  C8  UNL     1      16.071 -12.258  16.940  1.00  0.00     0.050 C 
HETATM    9  C9  UNL     1      15.574 -13.895  18.817  1.00  0.00     0.064 C 
HETATM   10  C10 UNL     1      17.011 -13.555  19.097  1.00  0.00    -0.009 C 
HETATM   11  C11 UNL     1      17.909 -14.275  19.931  1.00  0.00    -0.001 C 
HETATM   12  C12 UNL     1      17.877 -14.533  21.365  1.00  0.00    -0.079 C 
HETATM   13  C13 UNL     1      18.153 -13.195  22.127  1.00  0.00     0.043 C 
HETATM   14  C14 UNL     1      16.949 -15.236  22.183  1.00  0.00     0.104 C 
HETATM   15  C15 UNL     1      15.697 -15.920  21.543  1.00  0.00     0.190 C 
HETATM   16  C17 UNL     1      16.245 -16.659  20.398  1.00  0.00     0.237 C 
HETATM   17  O7  UNL     1      16.327 -16.165  19.196  1.00  0.00    -0.379 OA
HETATM   18  C18 UNL     1      15.395 -15.343  18.638  1.00  0.00     0.140 C 
HETATM   19  C19 UNL     1      14.126 -16.060  18.659  1.00  0.00     0.049 C 
HETATM   20  C20 UNL     1      13.354 -16.216  19.938  1.00  0.00     0.100 C 
HETATM   21  C26 UNL     1      13.558 -15.015  20.838  1.00  0.00     0.136 C 
HETATM   22  O10 UNL     1      14.702 -15.071  21.542  1.00  0.00    -0.333 OA
ENDROOT
BRANCH  20  23
HETATM   23  C21 UNL     1      11.933 -16.476  19.650  1.00  0.00     0.134 C 
HETATM   24  O8  UNL     1      11.308 -15.721  18.867  1.00  0.00    -0.297 OA
BRANCH  23  25
HETATM   25  C22 UNL     1      11.089 -17.563  20.193  1.00  0.00     0.082 C 
BRANCH  25  26
HETATM   26  C23 UNL     1      11.638 -18.940  19.859  1.00  0.00    -0.016 C 
HETATM   27  C24 UNL     1      11.807 -19.671  21.168  1.00  0.00     0.010 C 
HETATM   28  C25 UNL     1      10.707 -19.718  18.973  1.00  0.00     0.010 C 
ENDBRANCH  25  26
ENDBRANCH  23  25
ENDBRANCH  20  23
BRANCH  21  29
HETATM   29  C27 UNL     1      12.326 -14.903  21.672  1.00  0.00     0.270 C 
HETATM   30  O9  UNL     1      12.231 -14.940  22.859  1.00  0.00    -0.304 OA
ENDBRANCH  21  29
BRANCH   1  31
HETATM   31  O1  UNL     1      12.843 -11.958  21.357  1.00  0.00    -0.385 OA
HETATM   32  C1  UNL     1      11.616 -11.539  21.852  1.00  0.00     0.202 C 
ENDBRANCH   1  31
BRANCH  15  33
HETATM   33  O6  UNL     1      15.414 -16.943  22.459  1.00  0.00    -0.358 OA
HETATM   34  C16 UNL     1      15.641 -18.216  22.081  1.00  0.00     0.205 C 
ENDBRANCH  15  33
BRANCH   7  35
HETATM   35  O5  UNL     1      14.719 -14.051  16.548  1.00  0.00    -0.386 OA
ATOM     36  H5  UNL     1      15.564 -14.423  16.323  1.00  0.00     0.210 HD
ENDBRANCH   7  35
BRANCH   5  37
HETATM   37  O3  UNL     1      13.005 -10.491  19.101  1.00  0.00    -0.361 OA
ATOM     38  H3  UNL     1      12.070 -10.530  19.266  1.00  0.00     0.213 HD
ENDBRANCH   5  37
BRANCH   6  39
HETATM   39  O4  UNL     1      13.784 -11.275  16.916  1.00  0.00    -0.387 OA
ATOM     40  H4  UNL     1      14.635 -11.365  16.503  1.00  0.00     0.210 HD
ENDBRANCH   6  39
TORSDOF 9
ENDMDL
MODEL 3
REMARK VINA RESULT: -7.186355273      2.037      5.730
REMARK  9 active torsions:
REMARK  status: ('A' for Active; 'I' for Inactive)
REMARK    1  A    between atoms: O1_2  and  C2_3 
REMARK    2  A    between atoms: C5_7  and  O3_8 
REMARK    3  A    between atoms: C6_10  and  O4_11 
REMARK    4  A    between atoms: C7_13  and  O5_15 
REMARK    5  A    between atoms: C15_23  and  O6_24 
REMARK    6  A    between atoms: C20_30  and  C21_31 
REMARK    7  A    between atoms: C21_31  and  C22_33 
REMARK    8  A    between atoms: C22_33  and  C23_34 
REMARK    9  A    between atoms: C26_37  and  C27_38 
ROOT
HETATM    1  C2  UNL     1      13.649 -13.727  21.375  1.00  0.00     0.196 C 
HETATM    2  C3  UNL     1      14.557 -14.826  21.083  1.00  0.00     0.093 C 
HETATM    3  C4  UNL     1      15.663 -14.451  21.993  1.00  0.00     0.153 C 
HETATM    4  O2  UNL     1      15.544 -13.081  22.355  1.00  0.00    -0.344 OA
HETATM    5  C5  UNL     1      14.758 -12.630  21.330  1.00  0.00     0.219 C 
HETATM    6  C6  UNL     1      15.668 -12.679  20.170  1.00  0.00     0.218 C 
HETATM    7  C7  UNL     1      16.953 -13.447  20.337  1.00  0.00     0.101 C 
HETATM    8  C8  UNL     1      18.093 -12.504  20.721  1.00  0.00     0.050 C 
HETATM    9  C9  UNL     1      16.898 -14.691  21.212  1.00  0.00     0.064 C 
HETATM   10  C10 UNL     1      17.957 -14.690  22.278  1.00  0.00    -0.009 C 
HETATM   11  C11 UNL     1      18.387 -15.802  23.052  1.00  0.00    -0.001 C 
HETATM   12  C12 UNL     1      17.668 -16.624  24.017  1.00  0.00    -0.079 C 
HETATM   13  C13 UNL     1      17.385 -15.772  25.298  1.00  0.00     0.043 C 
HETATM   14  C14 UNL     1      16.535 -17.474  23.884  1.00  0.00     0.104 C 
HETATM   15  C15 UNL     1      15.852 -17.660  22.490  1.00  0.00     0.190 C 
HETATM   16  C17 UNL     1      16.972 -17.924  21.579  1.00  0.00     0.237 C 
HETATM   17  O7  UNL     1      17.593 -16.991  20.914  1.00  0.00    -0.379 OA
HETATM   18  C18 UNL     1      16.986 -15.897  20.376  1.00  0.00     0.140 C 
HETATM   19  C19 UNL     1      15.959 -16.385  19.463  1.00  0.00     0.049 C 
HETATM   20  C20 UNL     1      14.672 -16.953  19.988  1.00  0.00     0.100 C 
HETATM   21  C26 UNL     1      14.272 -16.271  21.279  1.00  0.00     0.136 C 
HETATM   22  O10 UNL     1      14.908 -16.765  22.357  1.00  0.00    -0.333 OA
ENDROOT
BRANCH  20  23
HETATM   23  C21 UNL     1      13.622 -16.881  18.957  1.00  0.00     0.134 C 
HETATM   24  O8  UNL     1      13.386 -15.790  18.385  1.00  0.00    -0.297 OA
BRANCH  23  25
HETATM   25  C22 UNL     1      12.752 -17.978  18.480  1.00  0.00     0.082 C 
BRANCH  25  26
HETATM   26  C23 UNL     1      11.443 -17.467  17.904  1.00  0.00    -0.016 C 
HETATM   27  C24 UNL     1      11.129 -18.326  16.704  1.00  0.00     0.010 C 
HETATM   28  C25 UNL     1      10.315 -17.564  18.892  1.00  0.00     0.010 C 
ENDBRANCH  25  26
ENDBRANCH  23  25
ENDBRANCH  20  23
BRANCH  21  29
HETATM   29  C27 UNL     1      12.783 -16.354  21.352  1.00  0.00     0.270 C 
HETATM   30  O9  UNL     1      12.113 -17.193  21.869  1.00  0.00    -0.304 OA
ENDBRANCH  21  29
BRANCH   1  31
HETATM   31  O1  UNL     1      13.077 -13.640  22.611  1.00  0.00    -0.385 OA
HETATM   32  C1  UNL     1      11.800 -13.098  22.575  1.00  0.00     0.202 C 
ENDBRANCH   1  31
BRANCH  15  33
HETATM   33  O6  UNL     1      15.257 -18.924  22.615  1.00  0.00    -0.358 OA
HETATM   34  C16 UNL     1      14.657 -19.233  23.781  1.00  0.00     0.205 C 
ENDBRANCH  15  33
BRANCH   7  35
HETATM   35  O5  UNL     1      17.316 -13.779  18.999  1.00  0.00    -0.386 OA
ATOM     36  H5  UNL     1      18.119 -14.275  19.104  1.00  0.00     0.210 HD
ENDBRANCH   7  35
BRANCH   5  37
HETATM   37  O3  UNL     1      14.192 -11.405  21.595  1.00  0.00    -0.361 OA
ATOM     38  H3  UNL     1      13.301 -11.395  21.266  1.00  0.00     0.213 HD
ENDBRANCH   5  37
BRANCH   6  39
HETATM   39  O4  UNL     1      16.038 -11.309  19.988  1.00  0.00    -0.387 OA
ATOM     40  H4  UNL     1      16.590 -11.335  19.216  1.00  0.00     0.210 HD
ENDBRANCH   6  39
TORSDOF 9
ENDMDL
MODEL 4
REMARK VINA RESULT: -6.561845011      4.172      7.680
REMARK  9 active torsions:
REMARK  status: ('A' for Active; 'I' for Inactive)
REMARK    1  A    between atoms: O1_2  and  C2_3 
REMARK    2  A    between atoms: C5_7  and  O3_8 
REMARK    3  A    between atoms: C6_10  and  O4_11 
REMARK    4  A    between atoms: C7_13  and  O5_15 
REMARK    5  A    between atoms: C15_23  and  O6_24 
REMARK    6  A    between atoms: C20_30  and  C21_31 
REMARK    7  A    between atoms: C21_31  and  C22_33 
REMARK    8  A    between atoms: C22_33  and  C23_34 
REMARK    9  A    between atoms: C26_37  and  C27_38 
ROOT
HETATM    1  C2  UNL     1      20.620 -17.912  22.712  1.00  0.00     0.196 C 
HETATM    2  C3  UNL     1      19.353 -17.211  22.851  1.00  0.00     0.093 C 
HETATM    3  C4  UNL     1      19.811 -15.848  22.498  1.00  0.00     0.153 C 
HETATM    4  O2  UNL     1      21.226 -15.769  22.624  1.00  0.00    -0.344 OA
HETATM    5  C5  UNL     1      21.451 -16.825  23.463  1.00  0.00     0.219 C 
HETATM    6  C6  UNL     1      20.890 -16.355  24.744  1.00  0.00     0.218 C 
HETATM    7  C7  UNL     1      20.015 -15.129  24.703  1.00  0.00     0.101 C 
HETATM    8  C8  UNL     1      20.833 -13.878  25.027  1.00  0.00     0.050 C 
HETATM    9  C9  UNL     1      19.139 -14.956  23.470  1.00  0.00     0.064 C 
HETATM   10  C10 UNL     1      19.304 -13.604  22.834  1.00  0.00    -0.009 C 
HETATM   11  C11 UNL     1      18.440 -13.001  21.880  1.00  0.00    -0.001 C 
HETATM   12  C12 UNL     1      18.094 -13.401  20.523  1.00  0.00    -0.079 C 
HETATM   13  C13 UNL     1      19.342 -13.199  19.601  1.00  0.00     0.043 C 
HETATM   14  C14 UNL     1      17.441 -14.556  20.009  1.00  0.00     0.104 C 
HETATM   15  C15 UNL     1      16.938 -15.672  20.983  1.00  0.00     0.190 C 
HETATM   16  C17 UNL     1      16.222 -14.932  22.029  1.00  0.00     0.237 C 
HETATM   17  O7  UNL     1      16.781 -14.519  23.130  1.00  0.00    -0.379 OA
HETATM   18  C18 UNL     1      17.733 -15.212  23.815  1.00  0.00     0.140 C 
HETATM   19  C19 UNL     1      17.156 -16.507  24.154  1.00  0.00     0.049 C 
HETATM   20  C20 UNL     1      17.000 -17.576  23.110  1.00  0.00     0.100 C 
HETATM   21  C26 UNL     1      18.111 -17.489  22.084  1.00  0.00     0.136 C 
HETATM   22  O10 UNL     1      17.887 -16.558  21.140  1.00  0.00    -0.333 OA
ENDROOT
BRANCH  20  23
HETATM   23  C21 UNL     1      16.912 -18.903  23.743  1.00  0.00     0.134 C 
HETATM   24  O8  UNL     1      16.005 -19.698  23.398  1.00  0.00    -0.297 OA
BRANCH  23  25
HETATM   25  C22 UNL     1      17.790 -19.458  24.796  1.00  0.00     0.082 C 
BRANCH  25  26
HETATM   26  C23 UNL     1      17.217 -19.259  26.188  1.00  0.00    -0.016 C 
HETATM   27  C24 UNL     1      16.884 -20.630  26.723  1.00  0.00     0.010 C 
HETATM   28  C25 UNL     1      18.197 -18.592  27.112  1.00  0.00     0.010 C 
ENDBRANCH  25  26
ENDBRANCH  23  25
ENDBRANCH  20  23
BRANCH  21  29
HETATM   29  C27 UNL     1      18.298 -18.872  21.554  1.00  0.00     0.270 C 
HETATM   30  O9  UNL     1      17.901 -19.331  20.529  1.00  0.00    -0.304 OA
ENDBRANCH  21  29
BRANCH   1  31
HETATM   31  O1  UNL     1      21.186 -18.037  21.476  1.00  0.00    -0.385 OA
HETATM   32  C1  UNL     1      21.738 -19.292  21.262  1.00  0.00     0.202 C 
ENDBRANCH   1  31
BRANCH  15  33
HETATM   33  O6  UNL     1      15.894 -16.257  20.253  1.00  0.00    -0.358 OA
HETATM   34  C16 UNL     1      14.629 -16.027  20.656  1.00  0.00     0.205 C 
ENDBRANCH  15  33
BRANCH   7  35
HETATM   35  O5  UNL     1      19.223 -15.248  25.882  1.00  0.00    -0.386 OA
ATOM     36  H5  UNL     1      18.411 -15.626  25.565  1.00  0.00     0.210 HD
ENDBRANCH   7  35
BRANCH   5  37
HETATM   37  O3  UNL     1      22.771 -17.207  23.493  1.00  0.00    -0.361 OA
ATOM     38  H3  UNL     1      23.076 -17.208  24.393  1.00  0.00     0.213 HD
ENDBRANCH   5  37
BRANCH   6  39
HETATM   39  O4  UNL     1      22.053 -15.996  25.496  1.00  0.00    -0.387 OA
ATOM     40  H4  UNL     1      22.757 -16.418  25.019  1.00  0.00     0.210 HD
ENDBRANCH   6  39
TORSDOF 9
ENDMDL
MODEL 5
REMARK VINA RESULT: -6.520524731      2.525      4.187
REMARK  9 active torsions:
REMARK  status: ('A' for Active; 'I' for Inactive)
REMARK    1  A    between atoms: O1_2  and  C2_3 
REMARK    2  A    between atoms: C5_7  and  O3_8 
REMARK    3  A    between atoms: C6_10  and  O4_11 
REMARK    4  A    between atoms: C7_13  and  O5_15 
REMARK    5  A    between atoms: C15_23  and  O6_24 
REMARK    6  A    between atoms: C20_30  and  C21_31 
REMARK    7  A    between atoms: C21_31  and  C22_33 
REMARK    8  A    between atoms: C22_33  and  C23_34 
REMARK    9  A    between atoms: C26_37  and  C27_38 
ROOT
HETATM    1  C2  UNL     1      17.087 -14.546  21.549  1.00  0.00     0.196 C 
HETATM    2  C3  UNL     1      16.302 -15.766  21.435  1.00  0.00     0.093 C 
HETATM    3  C4  UNL     1      15.544 -15.432  20.208  1.00  0.00     0.153 C 
HETATM    4  O2  UNL     1      15.585 -14.028  19.985  1.00  0.00    -0.344 OA
HETATM    5  C5  UNL     1      15.888 -13.594  21.246  1.00  0.00     0.219 C 
HETATM    6  C6  UNL     1      14.646 -13.863  21.995  1.00  0.00     0.218 C 
HETATM    7  C7  UNL     1      13.625 -14.753  21.336  1.00  0.00     0.101 C 
HETATM    8  C8  UNL     1      12.570 -13.915  20.614  1.00  0.00     0.050 C 
HETATM    9  C9  UNL     1      14.162 -15.889  20.476  1.00  0.00     0.064 C 
HETATM   10  C10 UNL     1      13.556 -15.905  19.101  1.00  0.00    -0.009 C 
HETATM   11  C11 UNL     1      13.589 -16.976  18.168  1.00  0.00    -0.001 C 
HETATM   12  C12 UNL     1      14.711 -17.610  17.487  1.00  0.00    -0.079 C 
HETATM   13  C13 UNL     1      15.301 -16.607  16.441  1.00  0.00     0.043 C 
HETATM   14  C14 UNL     1      15.834 -18.333  17.976  1.00  0.00     0.104 C 
HETATM   15  C15 UNL     1      16.004 -18.576  19.511  1.00  0.00     0.190 C 
HETATM   16  C17 UNL     1      14.685 -19.056  19.941  1.00  0.00     0.237 C 
HETATM   17  O7  UNL     1      13.743 -18.272  20.384  1.00  0.00    -0.379 OA
HETATM   18  C18 UNL     1      13.959 -17.175  21.160  1.00  0.00     0.140 C 
HETATM   19  C19 UNL     1      14.658 -17.629  22.357  1.00  0.00     0.049 C 
HETATM   20  C20 UNL     1      16.115 -17.990  22.304  1.00  0.00     0.100 C 
HETATM   21  C26 UNL     1      16.841 -17.142  21.281  1.00  0.00     0.136 C 
HETATM   22  O10 UNL     1      16.701 -17.596  20.023  1.00  0.00    -0.333 OA
ENDROOT
BRANCH  20  23
HETATM   23  C21 UNL     1      16.714 -17.901  23.647  1.00  0.00     0.134 C 
HETATM   24  O8  UNL     1      17.289 -18.901  24.139  1.00  0.00    -0.297 OA
BRANCH  23  25
HETATM   25  C22 UNL     1      16.727 -16.731  24.550  1.00  0.00     0.082 C 
BRANCH  25  26
HETATM   26  C23 UNL     1      18.056 -16.572  25.269  1.00  0.00    -0.016 C 
HETATM   27  C24 UNL     1      18.561 -15.186  24.951  1.00  0.00     0.010 C 
HETATM   28  C25 UNL     1      17.915 -16.718  26.757  1.00  0.00     0.010 C 
ENDBRANCH  25  26
ENDBRANCH  23  25
ENDBRANCH  20  23
BRANCH  21  29
HETATM   29  C27 UNL     1      18.256 -17.045  21.747  1.00  0.00     0.270 C 
HETATM   30  O9  UNL     1      19.163 -17.784  21.518  1.00  0.00    -0.304 OA
ENDBRANCH  21  29
BRANCH   1  31
HETATM   31  O1  UNL     1      18.038 -14.271  20.609  1.00  0.00    -0.385 OA
HETATM   32  C1  UNL     1      19.230 -13.829  21.165  1.00  0.00     0.202 C 
ENDBRANCH   1  31
BRANCH  15  33
HETATM   33  O6  UNL     1      16.779 -19.744  19.545  1.00  0.00    -0.358 OA
HETATM   34  C16 UNL     1      16.182 -20.894  19.916  1.00  0.00     0.205 C 
ENDBRANCH  15  33
BRANCH   7  35
HETATM   35  O5  UNL     1      12.867 -15.256  22.433  1.00  0.00    -0.386 OA
ATOM     36  H5  UNL     1      13.470 -15.850  22.865  1.00  0.00     0.210 HD
ENDBRANCH   7  35
BRANCH   5  37
HETATM   37  O3  UNL     1      16.329 -12.292  21.267  1.00  0.00    -0.361 OA
ATOM     38  H3  UNL     1      17.240 -12.266  21.000  1.00  0.00     0.213 HD
ENDBRANCH   5  37
BRANCH   6  39
HETATM   39  O4  UNL     1      14.043 -12.569  22.101  1.00  0.00    -0.387 OA
ATOM     40  H4  UNL     1      14.207 -12.329  23.006  1.00  0.00     0.210 HD
ENDBRANCH   6  39
TORSDOF 9
ENDMDL
