MODEL 1
REMARK VINA RESULT: -1.944206311      0.000      0.000
REMARK  1 active torsions:
REMARK  status: ('A' for Active; 'I' for Inactive)
REMARK    1  A    between atoms: C7_8  and  C8_9 
ROOT
HETATM    1  C1  UNL     1      42.004   2.330  24.165  1.00  0.00     0.017 C 
HETATM    2  C2  UNL     1      41.883   0.929  24.716  1.00  0.00    -0.024 C 
HETATM    3  C3  UNL     1      40.464   0.616  24.208  1.00  0.00     0.017 C 
HETATM    4  C4  UNL     1      42.105   0.688  26.165  1.00  0.00     0.031 C 
HETATM    5  C5  UNL     1      41.223  -0.442  26.338  1.00  0.00     0.064 C 
HETATM    6  C6  UNL     1      42.101  -1.015  25.414  1.00  0.00     0.009 C 
HETATM    7 CL1  UNL     1      41.822  -2.669  24.851  1.00  0.00    -0.092 Cl
HETATM    8  C7  UNL     1      43.444  -0.278  25.002  1.00  0.00     0.033 C 
HETATM    9  C9  UNL     1      44.097   0.744  25.916  1.00  0.00     0.060 C 
HETATM   10  C10 UNL     1      43.888   1.916  26.787  1.00  0.00     0.178 C 
HETATM   11  F1  UNL     1      45.144   2.055  27.438  1.00  0.00    -0.249 F 
HETATM   12  C11 UNL     1      42.860   2.155  27.913  1.00  0.00     0.050 C 
HETATM   13  C12 UNL     1      41.464   1.669  28.072  1.00  0.00     0.001 C 
HETATM   14  C13 UNL     1      41.399   1.391  29.656  1.00  0.00     0.019 C 
HETATM   15  C14 UNL     1      40.292   2.583  28.181  1.00  0.00     0.092 C 
HETATM   16 BR1  UNL     1      39.427   3.661  26.993  1.00  0.00    -0.088 Br
HETATM   17  C15 UNL     1      39.286   1.471  28.620  1.00  0.00     0.184 C 
HETATM   18  O1  UNL     1      39.822   0.213  28.230  1.00  0.00    -0.383 OA
HETATM   19  C16 UNL     1      40.673   0.575  27.332  1.00  0.00     0.140 C 
HETATM   20  C17 UNL     1      44.386  -0.145  27.093  1.00  0.00     0.107 A 
HETATM   21  N1  UNL     1      43.701  -1.202  27.266  1.00  0.00    -0.408 N 
ATOM     22  H1  UNL     1      43.717  -2.217  27.372  1.00  0.00     0.154 HD
HETATM   23  C18 UNL     1      42.903  -0.042  27.216  1.00  0.00     0.105 A 
HETATM   24  C19 UNL     1      42.919   0.321  23.759  1.00  0.00     0.106 C 
HETATM   25 CL3  UNL     1      42.243  -0.652  22.529  1.00  0.00    -0.123 Cl
ENDROOT
BRANCH   8  26
HETATM   26  C8  UNL     1      44.498  -1.207  24.605  1.00  0.00     0.131 C 
HETATM   27 CL2  UNL     1      46.058  -0.463  24.178  1.00  0.00    -0.129 Cl
ENDBRANCH   8  26
TORSDOF 1
ENDMDL
MODEL 2
REMARK VINA RESULT: -1.942931476      3.184      4.807
REMARK  1 active torsions:
REMARK  status: ('A' for Active; 'I' for Inactive)
REMARK    1  A    between atoms: C7_8  and  C8_9 
ROOT
HETATM    1  C1  UNL     1      43.995  -2.313  24.166  1.00  0.00     0.017 C 
HETATM    2  C2  UNL     1      44.110  -0.915  24.727  1.00  0.00    -0.024 C 
HETATM    3  C3  UNL     1      45.527  -0.592  24.220  1.00  0.00     0.017 C 
HETATM    4  C4  UNL     1      43.887  -0.685  26.177  1.00  0.00     0.031 C 
HETATM    5  C5  UNL     1      44.763   0.448  26.358  1.00  0.00     0.064 C 
HETATM    6  C6  UNL     1      43.882   1.023  25.438  1.00  0.00     0.009 C 
HETATM    7 CL1  UNL     1      44.152   2.682  24.887  1.00  0.00    -0.092 Cl
HETATM    8  C7  UNL     1      42.542   0.282  25.021  1.00  0.00     0.033 C 
HETATM    9  C9  UNL     1      41.895  -0.750  25.928  1.00  0.00     0.060 C 
HETATM   10  C10 UNL     1      42.109  -1.926  26.791  1.00  0.00     0.178 C 
HETATM   11  F1  UNL     1      40.854  -2.076  27.442  1.00  0.00    -0.249 F 
HETATM   12  C11 UNL     1      43.139  -2.168  27.915  1.00  0.00     0.050 C 
HETATM   13  C12 UNL     1      44.533  -1.676  28.078  1.00  0.00     0.001 C 
HETATM   14  C13 UNL     1      44.597  -1.408  29.663  1.00  0.00     0.019 C 
HETATM   15  C14 UNL     1      45.709  -2.585  28.180  1.00  0.00     0.092 C 
HETATM   16 BR1  UNL     1      46.580  -3.650  26.985  1.00  0.00    -0.088 Br
HETATM   17  C15 UNL     1      46.710  -1.471  28.626  1.00  0.00     0.184 C 
HETATM   18  O1  UNL     1      46.167  -0.213  28.245  1.00  0.00    -0.383 OA
HETATM   19  C16 UNL     1      45.318  -0.573  27.345  1.00  0.00     0.140 C 
HETATM   20  C17 UNL     1      41.602   0.130  27.111  1.00  0.00     0.107 A 
HETATM   21  N1  UNL     1      42.282   1.190  27.292  1.00  0.00    -0.408 N 
ATOM     22  H1  UNL     1      42.260   2.204  27.405  1.00  0.00     0.154 HD
HETATM   23  C18 UNL     1      43.085   0.033  27.233  1.00  0.00     0.105 A 
HETATM   24  C19 UNL     1      43.070  -0.306  23.774  1.00  0.00     0.106 C 
HETATM   25 CL3  UNL     1      43.740   0.679  22.551  1.00  0.00    -0.123 Cl
ENDROOT
BRANCH   8  26
HETATM   26  C8  UNL     1      41.484   1.209  24.631  1.00  0.00     0.131 C 
HETATM   27 CL2  UNL     1      39.936   0.458  24.170  1.00  0.00    -0.129 Cl
ENDBRANCH   8  26
TORSDOF 1
ENDMDL
MODEL 3
REMARK VINA RESULT: -1.058330188      3.018      4.335
REMARK  1 active torsions:
REMARK  status: ('A' for Active; 'I' for Inactive)
REMARK    1  A    between atoms: C7_8  and  C8_9 
ROOT
HETATM    1  C1  UNL     1      42.895  -2.560  23.836  1.00  0.00     0.017 C 
HETATM    2  C2  UNL     1      42.346  -1.497  24.759  1.00  0.00    -0.024 C 
HETATM    3  C3  UNL     1      40.886  -1.520  24.273  1.00  0.00     0.017 C 
HETATM    4  C4  UNL     1      42.982  -0.155  24.796  1.00  0.00     0.031 C 
HETATM    5  C5  UNL     1      41.820   0.630  25.134  1.00  0.00     0.064 C 
HETATM    6  C6  UNL     1      41.859  -0.169  26.280  1.00  0.00     0.009 C 
HETATM    7 CL1  UNL     1      40.620   0.027  27.527  1.00  0.00    -0.092 Cl
HETATM    8  C7  UNL     1      43.097  -1.119  26.568  1.00  0.00     0.033 C 
HETATM    9  C9  UNL     1      44.463  -0.839  25.967  1.00  0.00     0.060 C 
HETATM   10  C10 UNL     1      45.213  -0.466  24.753  1.00  0.00     0.178 C 
HETATM   11  F1  UNL     1      46.520  -0.213  25.252  1.00  0.00    -0.249 F 
HETATM   12  C11 UNL     1      44.976   0.677  23.743  1.00  0.00     0.050 C 
HETATM   13  C12 UNL     1      43.716   1.315  23.276  1.00  0.00     0.001 C 
HETATM   14  C13 UNL     1      44.165   2.855  23.148  1.00  0.00     0.019 C 
HETATM   15  C14 UNL     1      43.286   1.317  21.849  1.00  0.00     0.092 C 
HETATM   16 BR1  UNL     1      42.656   0.027  20.726  1.00  0.00    -0.088 Br
HETATM   17  C15 UNL     1      42.141   2.361  22.049  1.00  0.00     0.184 C 
HETATM   18  O1  UNL     1      41.798   2.380  23.429  1.00  0.00    -0.383 OA
HETATM   19  C16 UNL     1      42.278   1.249  23.818  1.00  0.00     0.140 C 
HETATM   20  C17 UNL     1      44.731   0.495  26.606  1.00  0.00     0.107 A 
HETATM   21  N1  UNL     1      43.757   1.210  27.002  1.00  0.00    -0.408 N 
ATOM     22  H1  UNL     1      43.323   1.693  27.789  1.00  0.00     0.154 HD
HETATM   23  C18 UNL     1      43.673   0.891  25.632  1.00  0.00     0.105 A 
HETATM   24  C19 UNL     1      42.479  -2.348  26.031  1.00  0.00     0.106 C 
HETATM   25 CL3  UNL     1      40.992  -2.925  26.641  1.00  0.00    -0.123 Cl
ENDROOT
BRANCH   8  26
HETATM   26  C8  UNL     1      43.313  -1.348  27.993  1.00  0.00     0.131 C 
HETATM   27 CL2  UNL     1      44.731  -2.342  28.406  1.00  0.00    -0.129 Cl
ENDBRANCH   8  26
TORSDOF 1
ENDMDL
MODEL 4
REMARK VINA RESULT: -1.054741848      3.230      5.105
REMARK  1 active torsions:
REMARK  status: ('A' for Active; 'I' for Inactive)
REMARK    1  A    between atoms: C7_8  and  C8_9 
ROOT
HETATM    1  C1  UNL     1      43.103   2.558  23.837  1.00  0.00     0.017 C 
HETATM    2  C2  UNL     1      43.652   1.496  24.760  1.00  0.00    -0.024 C 
HETATM    3  C3  UNL     1      45.113   1.518  24.274  1.00  0.00     0.017 C 
HETATM    4  C4  UNL     1      43.017   0.154  24.797  1.00  0.00     0.031 C 
HETATM    5  C5  UNL     1      44.179  -0.631  25.136  1.00  0.00     0.064 C 
HETATM    6  C6  UNL     1      44.140   0.169  26.280  1.00  0.00     0.009 C 
HETATM    7 CL1  UNL     1      45.379  -0.027  27.528  1.00  0.00    -0.092 Cl
HETATM    8  C7  UNL     1      42.902   1.119  26.569  1.00  0.00     0.033 C 
HETATM    9  C9  UNL     1      41.535   0.839  25.968  1.00  0.00     0.060 C 
HETATM   10  C10 UNL     1      40.785   0.465  24.755  1.00  0.00     0.178 C 
HETATM   11  F1  UNL     1      39.478   0.212  25.254  1.00  0.00    -0.249 F 
HETATM   12  C11 UNL     1      41.022  -0.678  23.745  1.00  0.00     0.050 C 
HETATM   13  C12 UNL     1      42.282  -1.316  23.278  1.00  0.00     0.001 C 
HETATM   14  C13 UNL     1      41.833  -2.857  23.151  1.00  0.00     0.019 C 
HETATM   15  C14 UNL     1      42.711  -1.319  21.851  1.00  0.00     0.092 C 
HETATM   16 BR1  UNL     1      43.341  -0.030  20.728  1.00  0.00    -0.088 Br
HETATM   17  C15 UNL     1      43.856  -2.363  22.051  1.00  0.00     0.184 C 
HETATM   18  O1  UNL     1      44.200  -2.381  23.431  1.00  0.00    -0.383 OA
HETATM   19  C16 UNL     1      43.720  -1.250  23.820  1.00  0.00     0.140 C 
HETATM   20  C17 UNL     1      41.268  -0.496  26.608  1.00  0.00     0.107 A 
HETATM   21  N1  UNL     1      42.242  -1.210  27.004  1.00  0.00    -0.408 N 
ATOM     22  H1  UNL     1      42.676  -1.693  27.792  1.00  0.00     0.154 HD
HETATM   23  C18 UNL     1      42.325  -0.892  25.634  1.00  0.00     0.105 A 
HETATM   24  C19 UNL     1      43.520   2.347  26.032  1.00  0.00     0.106 C 
HETATM   25 CL3  UNL     1      45.007   2.924  26.641  1.00  0.00    -0.123 Cl
ENDROOT
BRANCH   8  26
HETATM   26  C8  UNL     1      42.687   1.348  27.994  1.00  0.00     0.131 C 
HETATM   27 CL2  UNL     1      41.277   2.353  28.407  1.00  0.00    -0.129 Cl
ENDBRANCH   8  26
TORSDOF 1
ENDMDL
MODEL 5
REMARK VINA RESULT: -0.889065913      2.623      3.909
REMARK  1 active torsions:
REMARK  status: ('A' for Active; 'I' for Inactive)
REMARK    1  A    between atoms: C7_8  and  C8_9 
ROOT
HETATM    1  C1  UNL     1      43.199   1.806  26.668  1.00  0.00     0.017 C 
HETATM    2  C2  UNL     1      42.647   0.550  26.037  1.00  0.00    -0.024 C 
HETATM    3  C3  UNL     1      41.417   0.372  26.944  1.00  0.00     0.017 C 
HETATM    4  C4  UNL     1      43.515  -0.648  25.903  1.00  0.00     0.031 C 
HETATM    5  C5  UNL     1      42.498  -1.668  25.995  1.00  0.00     0.064 C 
HETATM    6  C6  UNL     1      42.038  -1.034  24.839  1.00  0.00     0.009 C 
HETATM    7 CL1  UNL     1      40.565  -1.614  24.049  1.00  0.00    -0.092 Cl
HETATM    8  C7  UNL     1      42.911   0.077  24.117  1.00  0.00     0.033 C 
HETATM    9  C9  UNL     1      44.420   0.131  24.288  1.00  0.00     0.060 C 
HETATM   10  C10 UNL     1      45.546   0.062  25.237  1.00  0.00     0.178 C 
HETATM   11  F1  UNL     1      46.679  -0.014  24.381  1.00  0.00    -0.249 F 
HETATM   12  C11 UNL     1      45.856  -0.960  26.350  1.00  0.00     0.050 C 
HETATM   13  C12 UNL     1      44.948  -1.748  27.226  1.00  0.00     0.001 C 
HETATM   14  C13 UNL     1      45.729  -3.151  27.321  1.00  0.00     0.019 C 
HETATM   15  C14 UNL     1      44.954  -1.639  28.712  1.00  0.00     0.092 C 
HETATM   16 BR1  UNL     1      44.413  -0.347  29.878  1.00  0.00    -0.088 Br
HETATM   17  C15 UNL     1      44.048  -2.890  28.949  1.00  0.00     0.184 C 
HETATM   18  O1  UNL     1      43.337  -3.152  27.746  1.00  0.00    -0.383 OA
HETATM   19  C16 UNL     1      43.434  -2.015  27.148  1.00  0.00     0.140 C 
HETATM   20  C17 UNL     1      44.769  -1.206  23.696  1.00  0.00     0.107 A 
HETATM   21  N1  UNL     1      43.897  -2.131  23.670  1.00  0.00    -0.408 N 
ATOM     22  H1  UNL     1      43.369  -2.784  23.090  1.00  0.00     0.154 HD
HETATM   23  C18 UNL     1      44.144  -1.655  24.973  1.00  0.00     0.105 A 
HETATM   24  C19 UNL     1      42.227   1.234  24.727  1.00  0.00     0.106 C 
HETATM   25 CL3  UNL     1      40.541   1.448  24.563  1.00  0.00    -0.123 Cl
ENDROOT
BRANCH   8  26
HETATM   26  C8  UNL     1      42.657   0.150  22.681  1.00  0.00     0.131 C 
HETATM   27 CL2  UNL     1      42.785   1.773  21.960  1.00  0.00    -0.129 Cl
ENDBRANCH   8  26
TORSDOF 1
ENDMDL
