MODEL 1
REMARK VINA RESULT: -7.788659309      0.000      0.000
REMARK  17 active torsions:
REMARK  status: ('A' for Active; 'I' for Inactive)
REMARK    1  A    between atoms: C2_2  and  S1_4 
REMARK    2  A    between atoms: S1_4  and  C4_5 
REMARK    3  A    between atoms: C4_5  and  C5_6 
REMARK    4  A    between atoms: C5_6  and  C6_7 
REMARK    5  A    between atoms: C5_6  and  N4_17 
REMARK    6  A    between atoms: C5_6  and  C24_35 
REMARK    7  A    between atoms: C6_7  and  C7_8 
REMARK    8  A    between atoms: C7_8  and  C8_9 
REMARK    9  A    between atoms: C8_9  and  C9_10 
REMARK   10  A    between atoms: C9_10  and  C10_11 
REMARK   11  A    between atoms: C10_11  and  N1_12 
REMARK       I    between atoms: N4_17  and  C12_19 
REMARK       I    between atoms: C12_19  and  N5_21 
REMARK   12  A    between atoms: N5_21  and  C13_23 
REMARK       I    between atoms: C24_35  and  N6_37 
REMARK   13  A    between atoms: N6_37  and  C25_39 
REMARK   14  A    between atoms: C25_39  and  C26_40 
REMARK   15  A    between atoms: C26_40  and  O4_41 
REMARK   16  A    between atoms: C26_40  and  C27_43 
REMARK   17  A    between atoms: C27_43  and  N7_44 
ROOT
HETATM    1  C5  UNL     1      12.674  23.495   6.017  1.00  0.00     0.123 C 
ENDROOT
BRANCH   1   2
HETATM    2  C4  UNL     1      11.317  23.533   6.671  1.00  0.00     0.115 C 
BRANCH   2   3
HETATM    3  S1  UNL     1      10.349  24.955   6.673  1.00  0.00    -0.162 SA
BRANCH   3   4
HETATM    4  C2  UNL     1       9.975  25.929   8.061  1.00  0.00     0.039 C 
HETATM    5  C1  UNL     1      11.165  26.226   8.935  1.00  0.00     0.021 C 
HETATM    6  C3  UNL     1       8.921  25.266   8.981  1.00  0.00     0.021 C 
ENDBRANCH   3   4
ENDBRANCH   2   3
ENDBRANCH   1   2
BRANCH   1   7
HETATM    7  C6  UNL     1      13.721  23.883   6.960  1.00  0.00     0.042 C 
BRANCH   7   8
HETATM    8  C7  UNL     1      14.094  23.279   8.217  1.00  0.00     0.003 C 
BRANCH   8   9
HETATM    9  C8  UNL     1      15.513  22.873   8.478  1.00  0.00     0.002 C 
BRANCH   9  10
HETATM   10  C9  UNL     1      15.584  21.467   9.038  1.00  0.00     0.020 C 
BRANCH  10  11
HETATM   11  C10 UNL     1      16.008  20.498   7.995  1.00  0.00     0.122 C 
BRANCH  11  12
HETATM   12  N1  UNL     1      17.178  20.889   7.239  1.00  0.00    -0.367 N 
HETATM   13  C11 UNL     1      18.323  20.301   7.431  1.00  0.00     0.196 C 
HETATM   14  N2  UNL     1      19.442  20.712   6.675  1.00  0.00    -0.067 NA
HETATM   15  N3  UNL     1      18.457  19.258   8.383  1.00  0.00    -0.067 NA
ATOM     16  H1  UNL     1      17.105  21.636   6.548  1.00  0.00     0.161 HD
ENDBRANCH  11  12
ENDBRANCH  10  11
ENDBRANCH   9  10
ENDBRANCH   8   9
ENDBRANCH   7   8
ENDBRANCH   1   7
BRANCH   1  17
HETATM   17  N4  UNL     1      13.010  22.140   5.653  1.00  0.00    -0.324 N 
HETATM   18  C12 UNL     1      14.226  21.643   5.135  1.00  0.00     0.317 C 
HETATM   19  O1  UNL     1      15.289  22.282   4.958  1.00  0.00    -0.247 OA
HETATM   20  N5  UNL     1      14.323  20.251   4.743  1.00  0.00    -0.338 N 
ATOM     21  H5  UNL     1      13.475  19.688   4.815  1.00  0.00     0.164 HD
ATOM     22  H4  UNL     1      12.271  21.449   5.787  1.00  0.00     0.165 HD
BRANCH  20  23
HETATM   23  C13 UNL     1      15.488  19.603   4.270  1.00  0.00     0.096 C 
HETATM   24  C14 UNL     1      15.591  19.525   2.744  1.00  0.00     0.010 C 
HETATM   25  C15 UNL     1      14.591  18.624   2.111  1.00  0.00     0.007 C 
HETATM   26  C23 UNL     1      17.034  19.182   2.469  1.00  0.00     0.020 C 
HETATM   27  C16 UNL     1      14.374  17.309   2.774  1.00  0.00     0.001 C 
HETATM   28  C17 UNL     1      14.357  17.415   4.279  1.00  0.00     0.009 C 
HETATM   29  C18 UNL     1      15.592  18.206   4.760  1.00  0.00     0.039 C 
HETATM   30  C19 UNL     1      16.768  17.439   4.273  1.00  0.00     0.137 C 
HETATM   31  O2  UNL     1      17.819  17.469   5.206  1.00  0.00    -0.384 OA
HETATM   32  C21 UNL     1      17.582  18.046   3.194  1.00  0.00     0.004 C 
HETATM   33  C20 UNL     1      18.507  18.337   4.349  1.00  0.00     0.179 C 
HETATM   34  C22 UNL     1      18.263  17.055   2.243  1.00  0.00     0.020 C 
ENDBRANCH  20  23
ENDBRANCH   1  17
BRANCH   1  35
HETATM   35  C24 UNL     1      12.543  24.201   4.715  1.00  0.00     0.246 C 
HETATM   36  O3  UNL     1      13.238  25.199   4.390  1.00  0.00    -0.271 OA
HETATM   37  N6  UNL     1      11.629  23.757   3.772  1.00  0.00    -0.356 N 
ATOM     38  H6  UNL     1      11.035  22.960   4.004  1.00  0.00     0.162 HD
BRANCH  37  39
HETATM   39  C25 UNL     1      11.483  24.375   2.479  1.00  0.00     0.156 C 
BRANCH  39  40
HETATM   40  C26 UNL     1      10.046  24.255   1.985  1.00  0.00     0.164 C 
BRANCH  40  41
HETATM   41  O4  UNL     1       9.495  23.063   2.358  1.00  0.00    -0.392 OA
ATOM     42  H4  UNL     1       8.688  23.195   2.842  1.00  0.00     0.210 HD
ENDBRANCH  40  41
BRANCH  40  43
HETATM   43  C27 UNL     1       9.216  25.455   2.132  1.00  0.00     0.305 C 
BRANCH  43  44
HETATM   44  N7  UNL     1       8.228  25.502   3.163  1.00  0.00     0.095 N 
HETATM   45  C28 UNL     1       6.879  25.388   2.580  1.00  0.00     0.298 C 
HETATM   46  C29 UNL     1       5.834  25.704   3.630  1.00  0.00     0.198 C 
HETATM   47  O5  UNL     1       6.007  26.914   4.249  1.00  0.00    -0.388 OA
HETATM   48  C30 UNL     1       7.287  27.068   4.763  1.00  0.00     0.198 C 
HETATM   49  C31 UNL     1       8.250  26.920   3.630  1.00  0.00     0.298 C 
ENDBRANCH  43  44
ENDBRANCH  40  43
ENDBRANCH  39  40
ENDBRANCH  37  39
ENDBRANCH   1  35
TORSDOF 17
ENDMDL
MODEL 2
REMARK VINA RESULT: -7.552873494      0.898      1.193
REMARK  17 active torsions:
REMARK  status: ('A' for Active; 'I' for Inactive)
REMARK    1  A    between atoms: C2_2  and  S1_4 
REMARK    2  A    between atoms: S1_4  and  C4_5 
REMARK    3  A    between atoms: C4_5  and  C5_6 
REMARK    4  A    between atoms: C5_6  and  C6_7 
REMARK    5  A    between atoms: C5_6  and  N4_17 
REMARK    6  A    between atoms: C5_6  and  C24_35 
REMARK    7  A    between atoms: C6_7  and  C7_8 
REMARK    8  A    between atoms: C7_8  and  C8_9 
REMARK    9  A    between atoms: C8_9  and  C9_10 
REMARK   10  A    between atoms: C9_10  and  C10_11 
REMARK   11  A    between atoms: C10_11  and  N1_12 
REMARK       I    between atoms: N4_17  and  C12_19 
REMARK       I    between atoms: C12_19  and  N5_21 
REMARK   12  A    between atoms: N5_21  and  C13_23 
REMARK       I    between atoms: C24_35  and  N6_37 
REMARK   13  A    between atoms: N6_37  and  C25_39 
REMARK   14  A    between atoms: C25_39  and  C26_40 
REMARK   15  A    between atoms: C26_40  and  O4_41 
REMARK   16  A    between atoms: C26_40  and  C27_43 
REMARK   17  A    between atoms: C27_43  and  N7_44 
ROOT
HETATM    1  C5  UNL     1      12.591  23.235   5.996  1.00  0.00     0.123 C 
ENDROOT
BRANCH   1   2
HETATM    2  C4  UNL     1      11.330  23.308   6.817  1.00  0.00     0.115 C 
BRANCH   2   3
HETATM    3  S1  UNL     1      10.283  24.671   6.757  1.00  0.00    -0.162 SA
BRANCH   3   4
HETATM    4  C2  UNL     1       9.925  25.737   8.079  1.00  0.00     0.039 C 
HETATM    5  C1  UNL     1      11.125  26.095   8.915  1.00  0.00     0.021 C 
HETATM    6  C3  UNL     1       8.883  25.139   9.055  1.00  0.00     0.021 C 
ENDBRANCH   3   4
ENDBRANCH   2   3
ENDBRANCH   1   2
BRANCH   1   7
HETATM    7  C6  UNL     1      13.723  23.805   6.725  1.00  0.00     0.042 C 
BRANCH   7   8
HETATM    8  C7  UNL     1      14.101  23.641   8.108  1.00  0.00     0.003 C 
BRANCH   8   9
HETATM    9  C8  UNL     1      15.415  23.021   8.473  1.00  0.00     0.002 C 
BRANCH   9  10
HETATM   10  C9  UNL     1      15.225  21.620   9.019  1.00  0.00     0.020 C 
BRANCH  10  11
HETATM   11  C10 UNL     1      16.220  20.681   8.438  1.00  0.00     0.122 C 
BRANCH  11  12
HETATM   12  N1  UNL     1      17.392  21.311   7.869  1.00  0.00    -0.367 N 
HETATM   13  C11 UNL     1      18.577  21.075   8.352  1.00  0.00     0.196 C 
HETATM   14  N2  UNL     1      19.695  21.709   7.771  1.00  0.00    -0.067 NA
HETATM   15  N3  UNL     1      18.755  20.192   9.449  1.00  0.00    -0.067 NA
ATOM     16  H1  UNL     1      17.288  21.949   7.079  1.00  0.00     0.161 HD
ENDBRANCH  11  12
ENDBRANCH  10  11
ENDBRANCH   9  10
ENDBRANCH   8   9
ENDBRANCH   7   8
ENDBRANCH   1   7
BRANCH   1  17
HETATM   17  N4  UNL     1      12.964  21.858   5.783  1.00  0.00    -0.324 N 
HETATM   18  C12 UNL     1      14.227  21.333   5.430  1.00  0.00     0.317 C 
HETATM   19  O1  UNL     1      15.300  21.966   5.303  1.00  0.00    -0.247 OA
HETATM   20  N5  UNL     1      14.365  19.913   5.169  1.00  0.00    -0.338 N 
ATOM     21  H5  UNL     1      13.516  19.349   5.206  1.00  0.00     0.164 HD
ATOM     22  H4  UNL     1      12.218  21.173   5.903  1.00  0.00     0.165 HD
BRANCH  20  23
HETATM   23  C13 UNL     1      15.573  19.240   4.868  1.00  0.00     0.096 C 
HETATM   24  C14 UNL     1      16.343  19.827   3.682  1.00  0.00     0.010 C 
HETATM   25  C15 UNL     1      15.675  19.636   2.367  1.00  0.00     0.007 C 
HETATM   26  C23 UNL     1      17.730  19.244   3.791  1.00  0.00     0.020 C 
HETATM   27  C16 UNL     1      15.096  18.288   2.110  1.00  0.00     0.001 C 
HETATM   28  C17 UNL     1      14.415  17.710   3.325  1.00  0.00     0.009 C 
HETATM   29  C18 UNL     1      15.353  17.809   4.547  1.00  0.00     0.039 C 
HETATM   30  C19 UNL     1      16.568  17.038   4.176  1.00  0.00     0.137 C 
HETATM   31  O2  UNL     1      17.090  16.344   5.281  1.00  0.00    -0.384 OA
HETATM   32  C21 UNL     1      17.818  17.800   3.945  1.00  0.00     0.004 C 
HETATM   33  C20 UNL     1      18.144  17.263   5.316  1.00  0.00     0.179 C 
HETATM   34  C22 UNL     1      18.785  17.191   2.924  1.00  0.00     0.020 C 
ENDBRANCH  20  23
ENDBRANCH   1  17
BRANCH   1  35
HETATM   35  C24 UNL     1      12.249  23.735   4.638  1.00  0.00     0.246 C 
HETATM   36  O3  UNL     1      12.774  24.754   4.118  1.00  0.00    -0.271 OA
HETATM   37  N6  UNL     1      11.318  23.060   3.863  1.00  0.00    -0.356 N 
ATOM     38  H6  UNL     1      10.859  22.238   4.255  1.00  0.00     0.162 HD
BRANCH  37  39
HETATM   39  C25 UNL     1      10.974  23.473   2.527  1.00  0.00     0.156 C 
BRANCH  39  40
HETATM   40  C26 UNL     1       9.558  23.034   2.177  1.00  0.00     0.164 C 
BRANCH  40  41
HETATM   41  O4  UNL     1       9.540  21.751   1.708  1.00  0.00    -0.392 OA
ATOM     42  H4  UNL     1      10.411  21.370   1.719  1.00  0.00     0.210 HD
ENDBRANCH  40  41
BRANCH  40  43
HETATM   43  C27 UNL     1       8.514  23.412   3.136  1.00  0.00     0.305 C 
BRANCH  43  44
HETATM   44  N7  UNL     1       7.811  24.643   2.957  1.00  0.00     0.095 N 
HETATM   45  C28 UNL     1       8.167  25.592   4.028  1.00  0.00     0.298 C 
HETATM   46  C29 UNL     1       7.231  26.783   3.994  1.00  0.00     0.198 C 
HETATM   47  O5  UNL     1       5.902  26.456   4.042  1.00  0.00    -0.388 OA
HETATM   48  C30 UNL     1       5.551  25.524   3.075  1.00  0.00     0.198 C 
HETATM   49  C31 UNL     1       6.394  24.309   3.291  1.00  0.00     0.298 C 
ENDBRANCH  43  44
ENDBRANCH  40  43
ENDBRANCH  39  40
ENDBRANCH  37  39
ENDBRANCH   1  35
TORSDOF 17
ENDMDL
MODEL 3
REMARK VINA RESULT: -7.509280655      2.167     10.606
REMARK  17 active torsions:
REMARK  status: ('A' for Active; 'I' for Inactive)
REMARK    1  A    between atoms: C2_2  and  S1_4 
REMARK    2  A    between atoms: S1_4  and  C4_5 
REMARK    3  A    between atoms: C4_5  and  C5_6 
REMARK    4  A    between atoms: C5_6  and  C6_7 
REMARK    5  A    between atoms: C5_6  and  N4_17 
REMARK    6  A    between atoms: C5_6  and  C24_35 
REMARK    7  A    between atoms: C6_7  and  C7_8 
REMARK    8  A    between atoms: C7_8  and  C8_9 
REMARK    9  A    between atoms: C8_9  and  C9_10 
REMARK   10  A    between atoms: C9_10  and  C10_11 
REMARK   11  A    between atoms: C10_11  and  N1_12 
REMARK       I    between atoms: N4_17  and  C12_19 
REMARK       I    between atoms: C12_19  and  N5_21 
REMARK   12  A    between atoms: N5_21  and  C13_23 
REMARK       I    between atoms: C24_35  and  N6_37 
REMARK   13  A    between atoms: N6_37  and  C25_39 
REMARK   14  A    between atoms: C25_39  and  C26_40 
REMARK   15  A    between atoms: C26_40  and  O4_41 
REMARK   16  A    between atoms: C26_40  and  C27_43 
REMARK   17  A    between atoms: C27_43  and  N7_44 
ROOT
HETATM    1  C5  UNL     1      13.217  22.526   5.069  1.00  0.00     0.123 C 
ENDROOT
BRANCH   1   2
HETATM    2  C4  UNL     1      13.468  21.045   5.182  1.00  0.00     0.115 C 
BRANCH   2   3
HETATM    3  S1  UNL     1      15.029  20.366   4.931  1.00  0.00    -0.162 SA
BRANCH   3   4
HETATM    4  C2  UNL     1      15.456  19.233   3.687  1.00  0.00     0.039 C 
HETATM    5  C1  UNL     1      14.895  19.576   2.332  1.00  0.00     0.021 C 
HETATM    6  C3  UNL     1      14.969  17.798   4.003  1.00  0.00     0.021 C 
ENDBRANCH   3   4
ENDBRANCH   2   3
ENDBRANCH   1   2
BRANCH   1   7
HETATM    7  C6  UNL     1      12.759  22.877   3.725  1.00  0.00     0.042 C 
BRANCH   7   8
HETATM    8  C7  UNL     1      11.445  22.750   3.141  1.00  0.00     0.003 C 
BRANCH   8   9
HETATM    9  C8  UNL     1      10.806  23.909   2.437  1.00  0.00     0.002 C 
BRANCH   9  10
HETATM   10  C9  UNL     1       9.314  23.949   2.697  1.00  0.00     0.020 C 
BRANCH  10  11
HETATM   11  C10 UNL     1       8.999  24.806   3.869  1.00  0.00     0.122 C 
BRANCH  11  12
HETATM   12  N1  UNL     1       7.589  25.067   4.071  1.00  0.00    -0.367 N 
HETATM   13  C11 UNL     1       7.095  26.254   3.870  1.00  0.00     0.196 C 
HETATM   14  N2  UNL     1       5.716  26.468   4.079  1.00  0.00    -0.067 NA
HETATM   15  N3  UNL     1       7.921  27.326   3.445  1.00  0.00    -0.067 NA
ATOM     16  H1  UNL     1       6.976  24.310   4.375  1.00  0.00     0.161 HD
ENDBRANCH  11  12
ENDBRANCH  10  11
ENDBRANCH   9  10
ENDBRANCH   8   9
ENDBRANCH   7   8
ENDBRANCH   1   7
BRANCH   1  17
HETATM   17  N4  UNL     1      12.122  22.910   5.927  1.00  0.00    -0.324 N 
HETATM   18  C12 UNL     1      11.612  24.203   6.178  1.00  0.00     0.317 C 
HETATM   19  O1  UNL     1      11.970  25.274   5.639  1.00  0.00    -0.247 OA
HETATM   20  N5  UNL     1      10.558  24.379   7.158  1.00  0.00    -0.338 N 
ATOM     21  H5  UNL     1      10.256  23.550   7.670  1.00  0.00     0.164 HD
ATOM     22  H4  UNL     1      11.655  22.147   6.417  1.00  0.00     0.165 HD
BRANCH  20  23
HETATM   23  C13 UNL     1       9.911  25.599   7.468  1.00  0.00     0.096 C 
HETATM   24  C14 UNL     1      10.612  26.429   8.545  1.00  0.00     0.010 C 
HETATM   25  C15 UNL     1      10.566  25.829   9.905  1.00  0.00     0.007 C 
HETATM   26  C23 UNL     1      10.010  27.807   8.428  1.00  0.00     0.020 C 
HETATM   27  C16 UNL     1       9.257  25.259  10.331  1.00  0.00     0.001 C 
HETATM   28  C17 UNL     1       8.561  24.516   9.219  1.00  0.00     0.009 C 
HETATM   29  C18 UNL     1       8.523  25.391   7.949  1.00  0.00     0.039 C 
HETATM   30  C19 UNL     1       7.785  26.621   8.337  1.00  0.00     0.137 C 
HETATM   31  O2  UNL     1       6.974  27.084   7.286  1.00  0.00    -0.384 OA
HETATM   32  C21 UNL     1       8.556  27.883   8.423  1.00  0.00     0.004 C 
HETATM   33  C20 UNL     1       7.876  28.138   7.102  1.00  0.00     0.179 C 
HETATM   34  C22 UNL     1       8.050  28.899   9.453  1.00  0.00     0.020 C 
ENDBRANCH  20  23
ENDBRANCH   1  17
BRANCH   1  35
HETATM   35  C24 UNL     1      14.399  23.210   5.657  1.00  0.00     0.246 C 
HETATM   36  O3  UNL     1      15.155  23.977   5.007  1.00  0.00    -0.271 OA
HETATM   37  N6  UNL     1      14.709  23.032   6.996  1.00  0.00    -0.356 N 
ATOM     38  H6  UNL     1      14.129  22.405   7.554  1.00  0.00     0.162 HD
BRANCH  37  39
HETATM   39  C25 UNL     1      15.818  23.696   7.632  1.00  0.00     0.156 C 
BRANCH  39  40
HETATM   40  C26 UNL     1      16.385  22.839   8.757  1.00  0.00     0.164 C 
BRANCH  40  41
HETATM   41  O4  UNL     1      15.389  22.214   9.451  1.00  0.00    -0.392 OA
ATOM     42  H4  UNL     1      15.164  22.696  10.238  1.00  0.00     0.210 HD
ENDBRANCH  40  41
BRANCH  40  43
HETATM   43  C27 UNL     1      17.571  22.044   8.420  1.00  0.00     0.305 C 
BRANCH  43  44
HETATM   44  N7  UNL     1      17.450  20.627   8.285  1.00  0.00     0.095 N 
HETATM   45  C28 UNL     1      18.113  19.950   9.414  1.00  0.00     0.298 C 
HETATM   46  C29 UNL     1      18.219  18.464   9.136  1.00  0.00     0.198 C 
HETATM   47  O5  UNL     1      18.824  18.156   7.947  1.00  0.00    -0.388 OA
HETATM   48  C30 UNL     1      18.250  18.821   6.872  1.00  0.00     0.198 C 
HETATM   49  C31 UNL     1      18.349  20.288   7.142  1.00  0.00     0.298 C 
ENDBRANCH  43  44
ENDBRANCH  40  43
ENDBRANCH  39  40
ENDBRANCH  37  39
ENDBRANCH   1  35
TORSDOF 17
ENDMDL
MODEL 4
REMARK VINA RESULT: -7.329609064      2.375      9.745
REMARK  17 active torsions:
REMARK  status: ('A' for Active; 'I' for Inactive)
REMARK    1  A    between atoms: C2_2  and  S1_4 
REMARK    2  A    between atoms: S1_4  and  C4_5 
REMARK    3  A    between atoms: C4_5  and  C5_6 
REMARK    4  A    between atoms: C5_6  and  C6_7 
REMARK    5  A    between atoms: C5_6  and  N4_17 
REMARK    6  A    between atoms: C5_6  and  C24_35 
REMARK    7  A    between atoms: C6_7  and  C7_8 
REMARK    8  A    between atoms: C7_8  and  C8_9 
REMARK    9  A    between atoms: C8_9  and  C9_10 
REMARK   10  A    between atoms: C9_10  and  C10_11 
REMARK   11  A    between atoms: C10_11  and  N1_12 
REMARK       I    between atoms: N4_17  and  C12_19 
REMARK       I    between atoms: C12_19  and  N5_21 
REMARK   12  A    between atoms: N5_21  and  C13_23 
REMARK       I    between atoms: C24_35  and  N6_37 
REMARK   13  A    between atoms: N6_37  and  C25_39 
REMARK   14  A    between atoms: C25_39  and  C26_40 
REMARK   15  A    between atoms: C26_40  and  O4_41 
REMARK   16  A    between atoms: C26_40  and  C27_43 
REMARK   17  A    between atoms: C27_43  and  N7_44 
ROOT
HETATM    1  C5  UNL     1      13.233  23.616   5.873  1.00  0.00     0.123 C 
ENDROOT
BRANCH   1   2
HETATM    2  C4  UNL     1      14.684  24.017   5.815  1.00  0.00     0.115 C 
BRANCH   2   3
HETATM    3  S1  UNL     1      15.781  23.646   7.088  1.00  0.00    -0.162 SA
BRANCH   3   4
HETATM    4  C2  UNL     1      15.883  22.134   7.933  1.00  0.00     0.039 C 
HETATM    5  C1  UNL     1      14.963  22.038   9.122  1.00  0.00     0.021 C 
HETATM    6  C3  UNL     1      17.308  21.851   8.468  1.00  0.00     0.021 C 
ENDBRANCH   3   4
ENDBRANCH   2   3
ENDBRANCH   1   2
BRANCH   1   7
HETATM    7  C6  UNL     1      12.631  24.011   7.145  1.00  0.00     0.042 C 
BRANCH   7   8
HETATM    8  C7  UNL     1      12.417  25.332   7.688  1.00  0.00     0.003 C 
BRANCH   8   9
HETATM    9  C8  UNL     1      11.030  25.840   7.936  1.00  0.00     0.002 C 
BRANCH   9  10
HETATM   10  C9  UNL     1      10.873  26.322   9.364  1.00  0.00     0.020 C 
BRANCH  10  11
HETATM   11  C10 UNL     1       9.849  27.395   9.457  1.00  0.00     0.122 C 
BRANCH  11  12
HETATM   12  N1  UNL     1       8.509  26.991   9.090  1.00  0.00    -0.367 N 
HETATM   13  C11 UNL     1       7.840  27.644   8.185  1.00  0.00     0.196 C 
HETATM   14  N2  UNL     1       6.535  27.219   7.855  1.00  0.00    -0.067 NA
HETATM   15  N3  UNL     1       8.404  28.769   7.529  1.00  0.00    -0.067 NA
ATOM     16  H1  UNL     1       8.083  26.184   9.547  1.00  0.00     0.161 HD
ENDBRANCH  11  12
ENDBRANCH  10  11
ENDBRANCH   9  10
ENDBRANCH   8   9
ENDBRANCH   7   8
ENDBRANCH   1   7
BRANCH   1  17
HETATM   17  N4  UNL     1      12.478  24.344   4.882  1.00  0.00    -0.324 N 
HETATM   18  C12 UNL     1      11.158  24.113   4.436  1.00  0.00     0.317 C 
HETATM   19  O1  UNL     1      10.351  23.262   4.874  1.00  0.00    -0.247 OA
HETATM   20  N5  UNL     1      10.618  24.911   3.353  1.00  0.00    -0.338 N 
ATOM     21  H5  UNL     1      11.244  25.589   2.918  1.00  0.00     0.164 HD
ATOM     22  H4  UNL     1      12.962  25.130   4.447  1.00  0.00     0.165 HD
BRANCH  20  23
HETATM   23  C13 UNL     1       9.300  24.834   2.845  1.00  0.00     0.096 C 
HETATM   24  C14 UNL     1       8.915  25.986   1.912  1.00  0.00     0.010 C 
HETATM   25  C15 UNL     1       8.791  27.304   2.589  1.00  0.00     0.007 C 
HETATM   26  C23 UNL     1       7.675  25.509   1.198  1.00  0.00     0.020 C 
HETATM   27  C16 UNL     1       8.073  27.312   3.894  1.00  0.00     0.001 C 
HETATM   28  C17 UNL     1       8.419  26.121   4.752  1.00  0.00     0.009 C 
HETATM   29  C18 UNL     1       8.283  24.824   3.925  1.00  0.00     0.039 C 
HETATM   30  C19 UNL     1       6.867  24.789   3.476  1.00  0.00     0.137 C 
HETATM   31  O2  UNL     1       6.364  23.476   3.475  1.00  0.00    -0.384 OA
HETATM   32  C21 UNL     1       6.602  24.991   2.033  1.00  0.00     0.004 C 
HETATM   33  C20 UNL     1       6.412  23.497   2.077  1.00  0.00     0.179 C 
HETATM   34  C22 UNL     1       5.263  25.658   1.693  1.00  0.00     0.020 C 
ENDBRANCH  20  23
ENDBRANCH   1  17
BRANCH   1  35
HETATM   35  C24 UNL     1      13.160  22.201   5.420  1.00  0.00     0.246 C 
HETATM   36  O3  UNL     1      12.324  21.370   5.862  1.00  0.00    -0.271 OA
HETATM   37  N6  UNL     1      14.032  21.737   4.447  1.00  0.00    -0.356 N 
ATOM     38  H6  UNL     1      14.735  22.376   4.075  1.00  0.00     0.162 HD
BRANCH  37  39
HETATM   39  C25 UNL     1      13.985  20.389   3.941  1.00  0.00     0.156 C 
BRANCH  39  40
HETATM   40  C26 UNL     1      14.972  19.500   4.686  1.00  0.00     0.164 C 
BRANCH  40  41
HETATM   41  O4  UNL     1      14.999  19.801   6.017  1.00  0.00    -0.392 OA
ATOM     42  H4  UNL     1      14.323  19.329   6.489  1.00  0.00     0.210 HD
ENDBRANCH  40  41
BRANCH  40  43
HETATM   43  C27 UNL     1      14.959  18.080   4.317  1.00  0.00     0.305 C 
BRANCH  43  44
HETATM   44  N7  UNL     1      16.147  17.480   3.798  1.00  0.00     0.095 N 
HETATM   45  C28 UNL     1      17.333  18.025   4.484  1.00  0.00     0.298 C 
HETATM   46  C29 UNL     1      18.592  17.594   3.758  1.00  0.00     0.198 C 
HETATM   47  O5  UNL     1      18.604  17.902   2.423  1.00  0.00    -0.388 OA
HETATM   48  C30 UNL     1      17.472  17.443   1.764  1.00  0.00     0.198 C 
HETATM   49  C31 UNL     1      16.282  18.057   2.428  1.00  0.00     0.298 C 
ENDBRANCH  43  44
ENDBRANCH  40  43
ENDBRANCH  39  40
ENDBRANCH  37  39
ENDBRANCH   1  35
TORSDOF 17
ENDMDL
MODEL 5
REMARK VINA RESULT: -7.286073808      2.060      5.695
REMARK  17 active torsions:
REMARK  status: ('A' for Active; 'I' for Inactive)
REMARK    1  A    between atoms: C2_2  and  S1_4 
REMARK    2  A    between atoms: S1_4  and  C4_5 
REMARK    3  A    between atoms: C4_5  and  C5_6 
REMARK    4  A    between atoms: C5_6  and  C6_7 
REMARK    5  A    between atoms: C5_6  and  N4_17 
REMARK    6  A    between atoms: C5_6  and  C24_35 
REMARK    7  A    between atoms: C6_7  and  C7_8 
REMARK    8  A    between atoms: C7_8  and  C8_9 
REMARK    9  A    between atoms: C8_9  and  C9_10 
REMARK   10  A    between atoms: C9_10  and  C10_11 
REMARK   11  A    between atoms: C10_11  and  N1_12 
REMARK       I    between atoms: N4_17  and  C12_19 
REMARK       I    between atoms: C12_19  and  N5_21 
REMARK   12  A    between atoms: N5_21  and  C13_23 
REMARK       I    between atoms: C24_35  and  N6_37 
REMARK   13  A    between atoms: N6_37  and  C25_39 
REMARK   14  A    between atoms: C25_39  and  C26_40 
REMARK   15  A    between atoms: C26_40  and  O4_41 
REMARK   16  A    between atoms: C26_40  and  C27_43 
REMARK   17  A    between atoms: C27_43  and  N7_44 
ROOT
HETATM    1  C5  UNL     1      12.537  23.704   5.316  1.00  0.00     0.123 C 
ENDROOT
BRANCH   1   2
HETATM    2  C4  UNL     1      13.613  24.421   6.088  1.00  0.00     0.115 C 
BRANCH   2   3
HETATM    3  S1  UNL     1      14.072  23.936   7.674  1.00  0.00    -0.162 SA
BRANCH   3   4
HETATM    4  C2  UNL     1      15.266  22.738   8.065  1.00  0.00     0.039 C 
HETATM    5  C1  UNL     1      14.855  21.808   9.176  1.00  0.00     0.021 C 
HETATM    6  C3  UNL     1      16.610  23.366   8.506  1.00  0.00     0.021 C 
ENDBRANCH   3   4
ENDBRANCH   2   3
ENDBRANCH   1   2
BRANCH   1   7
HETATM    7  C6  UNL     1      12.409  24.250   3.965  1.00  0.00     0.042 C 
BRANCH   7   8
HETATM    8  C7  UNL     1      11.258  24.288   3.096  1.00  0.00     0.003 C 
BRANCH   8   9
HETATM    9  C8  UNL     1      10.667  23.022   2.556  1.00  0.00     0.002 C 
BRANCH   9  10
HETATM   10  C9  UNL     1       9.280  22.783   3.120  1.00  0.00     0.020 C 
BRANCH  10  11
HETATM   11  C10 UNL     1       8.637  24.063   3.514  1.00  0.00     0.122 C 
BRANCH  11  12
HETATM   12  N1  UNL     1       7.385  24.346   2.845  1.00  0.00    -0.367 N 
HETATM   13  C11 UNL     1       7.248  25.410   2.109  1.00  0.00     0.196 C 
HETATM   14  N2  UNL     1       6.012  25.652   1.474  1.00  0.00    -0.067 NA
HETATM   15  N3  UNL     1       8.321  26.323   1.939  1.00  0.00    -0.067 NA
ATOM     16  H1  UNL     1       6.600  23.703   2.953  1.00  0.00     0.161 HD
ENDBRANCH  11  12
ENDBRANCH  10  11
ENDBRANCH   9  10
ENDBRANCH   8   9
ENDBRANCH   7   8
ENDBRANCH   1   7
BRANCH   1  17
HETATM   17  N4  UNL     1      12.913  22.326   5.106  1.00  0.00    -0.324 N 
HETATM   18  C12 UNL     1      14.165  21.806   4.711  1.00  0.00     0.317 C 
HETATM   19  O1  UNL     1      15.228  22.445   4.535  1.00  0.00    -0.247 OA
HETATM   20  N5  UNL     1      14.304  20.385   4.462  1.00  0.00    -0.338 N 
ATOM     21  H5  UNL     1      13.462  19.815   4.539  1.00  0.00     0.164 HD
ATOM     22  H4  UNL     1      12.177  21.638   5.262  1.00  0.00     0.165 HD
BRANCH  20  23
HETATM   23  C13 UNL     1      15.505  19.717   4.123  1.00  0.00     0.096 C 
HETATM   24  C14 UNL     1      15.693  19.482   2.622  1.00  0.00     0.010 C 
HETATM   25  C15 UNL     1      14.746  18.498   2.035  1.00  0.00     0.007 C 
HETATM   26  C23 UNL     1      17.155  19.144   2.462  1.00  0.00     0.020 C 
HETATM   27  C16 UNL     1      14.513  17.254   2.821  1.00  0.00     0.001 C 
HETATM   28  C17 UNL     1      14.411  17.518   4.302  1.00  0.00     0.009 C 
HETATM   29  C18 UNL     1      15.604  18.382   4.763  1.00  0.00     0.039 C 
HETATM   30  C19 UNL     1      16.818  17.594   4.424  1.00  0.00     0.137 C 
HETATM   31  O2  UNL     1      17.815  17.745   5.403  1.00  0.00    -0.384 OA
HETATM   32  C21 UNL     1      17.680  18.102   3.332  1.00  0.00     0.004 C 
HETATM   33  C20 UNL     1      18.535  18.533   4.497  1.00  0.00     0.179 C 
HETATM   34  C22 UNL     1      18.430  17.033   2.528  1.00  0.00     0.020 C 
ENDBRANCH  20  23
ENDBRANCH   1  17
BRANCH   1  35
HETATM   35  C24 UNL     1      11.348  23.626   6.205  1.00  0.00     0.246 C 
HETATM   36  O3  UNL     1      10.844  22.543   6.602  1.00  0.00    -0.271 OA
HETATM   37  N6  UNL     1      10.743  24.788   6.659  1.00  0.00    -0.356 N 
ATOM     38  H6  UNL     1      11.113  25.686   6.347  1.00  0.00     0.162 HD
BRANCH  37  39
HETATM   39  C25 UNL     1       9.613  24.778   7.552  1.00  0.00     0.156 C 
BRANCH  39  40
HETATM   40  C26 UNL     1       9.382  26.164   8.142  1.00  0.00     0.164 C 
BRANCH  40  41
HETATM   41  O4  UNL     1      10.215  26.395   9.199  1.00  0.00    -0.392 OA
ATOM     42  H4  UNL     1      11.127  26.328   8.939  1.00  0.00     0.210 HD
ENDBRANCH  40  41
BRANCH  40  43
HETATM   43  C27 UNL     1       9.209  27.252   7.173  1.00  0.00     0.305 C 
BRANCH  43  44
HETATM   44  N7  UNL     1       7.894  27.727   6.880  1.00  0.00     0.095 N 
HETATM   45  C28 UNL     1       6.942  27.245   7.897  1.00  0.00     0.298 C 
HETATM   46  C29 UNL     1       5.521  27.519   7.446  1.00  0.00     0.198 C 
HETATM   47  O5  UNL     1       5.219  27.020   6.207  1.00  0.00    -0.388 OA
HETATM   48  C30 UNL     1       6.131  27.418   5.239  1.00  0.00     0.198 C 
HETATM   49  C31 UNL     1       7.483  26.951   5.672  1.00  0.00     0.298 C 
ENDBRANCH  43  44
ENDBRANCH  40  43
ENDBRANCH  39  40
ENDBRANCH  37  39
ENDBRANCH   1  35
TORSDOF 17
ENDMDL
