MODEL 1
REMARK VINA RESULT: -9.225972825      0.000      0.000
REMARK  1 active torsions:
REMARK  status: ('A' for Active; 'I' for Inactive)
REMARK    1  A    between atoms: C8_11  and  N2_12 
ROOT
HETATM    1  C1  UNL     1       2.875 -34.652   7.451  1.00  0.00     0.054 C 
HETATM    2  C2  UNL     1       3.820 -35.041   6.386  1.00  0.00     0.015 A 
HETATM    3  C3  UNL     1       3.481 -36.142   5.613  1.00  0.00     0.031 A 
HETATM    4  C4  UNL     1       4.335 -36.514   4.633  1.00  0.00     0.047 A 
HETATM    5  C5  UNL     1       5.469 -35.781   4.473  1.00  0.00     0.171 A 
HETATM    6  O1  UNL     1       5.835 -34.755   5.154  1.00  0.00    -0.256 OA
HETATM    7  C6  UNL     1       5.003 -34.396   6.108  1.00  0.00     0.295 A 
HETATM    8  O2  UNL     1       5.331 -33.403   6.786  1.00  0.00    -0.259 OA
HETATM    9  N1  UNL     1       5.760 -36.607   3.488  1.00  0.00    -0.288 N 
HETATM   10  C7  UNL     1       4.654 -37.327   3.643  1.00  0.00     0.096 A 
HETATM   11  C8  UNL     1       4.758 -38.248   2.714  1.00  0.00     0.126 A 
HETATM   12  N3  UNL     1       5.467 -38.624   1.851  1.00  0.00    -0.147 NA
HETATM   13  C11 UNL     1       6.403 -38.514   1.396  1.00  0.00     0.283 A 
HETATM   14  N4  UNL     1       6.870 -37.655   0.330  1.00  0.00     0.151 N 
HETATM   15  C12 UNL     1       8.415 -37.439   0.440  1.00  0.00     0.283 A 
HETATM   16  C13 UNL     1       8.050 -36.113   0.286  1.00  0.00     0.009 C 
HETATM   17  C14 UNL     1       8.020 -35.305   1.486  1.00  0.00    -0.022 C 
HETATM   18  C15 UNL     1       7.520 -35.837   2.704  1.00  0.00     0.086 C 
HETATM   19  C16 UNL     1       6.610 -36.961   2.533  1.00  0.00     0.046 A 
HETATM   20  N5  UNL     1       6.442 -38.028   1.683  1.00  0.00     0.000 N 
HETATM   21  C17 UNL     1       7.001 -39.007   0.510  1.00  0.00     0.251 A 
HETATM   22  C18 UNL     1       6.387 -39.794  -0.363  1.00  0.00     0.034 C 
HETATM   23  C19 UNL     1       8.519 -38.744   0.594  1.00  0.00     0.013 A 
HETATM   24  C20 UNL     1       8.548 -40.065   0.748  1.00  0.00    -0.022 A 
HETATM   25  C21 UNL     1       8.994 -40.955   0.100  1.00  0.00     0.012 A 
HETATM   26  C22 UNL     1       8.942 -42.321   0.484  1.00  0.00     0.001 A 
HETATM   27  C23 UNL     1       8.351 -42.670   1.669  1.00  0.00     0.001 A 
HETATM   28  C24 UNL     1       7.827 -41.687   2.434  1.00  0.00     0.008 A 
HETATM   29  C25 UNL     1       7.926 -40.484   1.984  1.00  0.00    -0.044 A 
HETATM   30  C26 UNL     1       7.062 -39.408   2.622  1.00  0.00     0.103 C 
ENDROOT
BRANCH  11  31
HETATM   31  N2  UNL     1       3.681 -39.132   2.427  1.00  0.00    -0.377 N 
HETATM   32  C9  UNL     1       3.521 -40.167   3.383  1.00  0.00     0.150 C 
HETATM   33  C10 UNL     1       2.840 -38.968   1.282  1.00  0.00     0.150 C 
ENDBRANCH  11  31
TORSDOF 1
ENDMDL
MODEL 2
REMARK VINA RESULT: -9.224931148      4.249      7.285
REMARK  1 active torsions:
REMARK  status: ('A' for Active; 'I' for Inactive)
REMARK    1  A    between atoms: C8_11  and  N2_12 
ROOT
HETATM    1  C1  UNL     1       3.187 -46.860  -1.565  1.00  0.00     0.054 C 
HETATM    2  C2  UNL     1       4.143 -45.898  -0.983  1.00  0.00     0.015 A 
HETATM    3  C3  UNL     1       3.675 -44.617  -0.731  1.00  0.00     0.031 A 
HETATM    4  C4  UNL     1       4.536 -43.722  -0.199  1.00  0.00     0.047 A 
HETATM    5  C5  UNL     1       5.806 -44.141   0.053  1.00  0.00     0.171 A 
HETATM    6  O1  UNL     1       6.295 -45.309  -0.158  1.00  0.00    -0.256 OA
HETATM    7  C6  UNL     1       5.454 -46.179  -0.676  1.00  0.00     0.295 A 
HETATM    8  O2  UNL     1       5.901 -47.322  -0.892  1.00  0.00    -0.259 OA
HETATM    9  N1  UNL     1       6.029 -42.919   0.494  1.00  0.00    -0.288 N 
HETATM   10  C7  UNL     1       4.790 -42.506   0.248  1.00  0.00     0.096 A 
HETATM   11  C8  UNL     1       4.806 -41.251   0.632  1.00  0.00     0.126 A 
HETATM   12  N3  UNL     1       5.514 -40.426   1.088  1.00  0.00    -0.147 NA
HETATM   13  C11 UNL     1       6.497 -40.187   1.358  1.00  0.00     0.283 A 
HETATM   14  N4  UNL     1       7.239 -40.377   2.585  1.00  0.00     0.151 N 
HETATM   15  C12 UNL     1       8.774 -40.418   2.293  1.00  0.00     0.283 A 
HETATM   16  C13 UNL     1       8.703 -41.551   3.086  1.00  0.00     0.009 C 
HETATM   17  C14 UNL     1       8.707 -42.824   2.399  1.00  0.00    -0.022 C 
HETATM   18  C15 UNL     1       7.982 -42.997   1.190  1.00  0.00     0.086 C 
HETATM   19  C16 UNL     1       6.888 -42.052   1.013  1.00  0.00     0.046 A 
HETATM   20  N5  UNL     1       6.602 -40.742   1.315  1.00  0.00     0.000 N 
HETATM   21  C17 UNL     1       7.074 -39.264   1.803  1.00  0.00     0.251 A 
HETATM   22  C18 UNL     1       6.412 -38.245   2.334  1.00  0.00     0.034 C 
HETATM   23  C19 UNL     1       8.596 -39.338   1.559  1.00  0.00     0.013 A 
HETATM   24  C20 UNL     1       8.342 -38.253   0.833  1.00  0.00    -0.022 A 
HETATM   25  C21 UNL     1       8.667 -37.114   0.921  1.00  0.00     0.012 A 
HETATM   26  C22 UNL     1       8.299 -36.109  -0.012  1.00  0.00     0.001 A 
HETATM   27  C23 UNL     1       7.526 -36.437  -1.094  1.00  0.00     0.001 A 
HETATM   28  C24 UNL     1       7.132 -37.722  -1.229  1.00  0.00     0.008 A 
HETATM   29  C25 UNL     1       7.519 -38.549  -0.318  1.00  0.00    -0.044 A 
HETATM   30  C26 UNL     1       6.825 -39.899  -0.237  1.00  0.00     0.103 C 
ENDROOT
BRANCH  11  31
HETATM   31  N2  UNL     1       3.611 -40.483   0.695  1.00  0.00    -0.377 N 
HETATM   32  C9  UNL     1       2.891 -40.643   1.908  1.00  0.00     0.150 C 
HETATM   33  C10 UNL     1       3.196 -39.623  -0.370  1.00  0.00     0.150 C 
ENDBRANCH  11  31
TORSDOF 1
ENDMDL
MODEL 3
REMARK VINA RESULT: -9.065424496      4.224      7.223
REMARK  1 active torsions:
REMARK  status: ('A' for Active; 'I' for Inactive)
REMARK    1  A    between atoms: C8_11  and  N2_12 
ROOT
HETATM    1  C1  UNL     1       2.136 -45.573  -2.666  1.00  0.00     0.054 C 
HETATM    2  C2  UNL     1       3.203 -44.838  -1.958  1.00  0.00     0.015 A 
HETATM    3  C3  UNL     1       2.891 -43.570  -1.490  1.00  0.00     0.031 A 
HETATM    4  C4  UNL     1       3.855 -42.881  -0.839  1.00  0.00     0.047 A 
HETATM    5  C5  UNL     1       5.067 -43.482  -0.688  1.00  0.00     0.171 A 
HETATM    6  O1  UNL     1       5.413 -44.649  -1.098  1.00  0.00    -0.256 OA
HETATM    7  C6  UNL     1       4.472 -45.317  -1.731  1.00  0.00     0.295 A 
HETATM    8  O2  UNL     1       4.778 -46.453  -2.140  1.00  0.00    -0.259 OA
HETATM    9  N1  UNL     1       5.436 -42.383  -0.060  1.00  0.00    -0.288 N 
HETATM   10  C7  UNL     1       4.254 -41.793  -0.207  1.00  0.00     0.096 A 
HETATM   11  C8  UNL     1       4.421 -40.629   0.377  1.00  0.00     0.126 A 
HETATM   12  N3  UNL     1       5.224 -39.979   0.943  1.00  0.00    -0.147 NA
HETATM   13  C11 UNL     1       6.229 -39.904   1.226  1.00  0.00     0.283 A 
HETATM   14  N4  UNL     1       6.948 -40.378   2.388  1.00  0.00     0.151 N 
HETATM   15  C12 UNL     1       8.466 -40.550   2.057  1.00  0.00     0.283 A 
HETATM   16  C13 UNL     1       8.263 -41.781   2.657  1.00  0.00     0.009 C 
HETATM   17  C14 UNL     1       8.114 -42.916   1.772  1.00  0.00    -0.022 C 
HETATM   18  C15 UNL     1       7.368 -42.802   0.568  1.00  0.00     0.086 C 
HETATM   19  C16 UNL     1       6.394 -41.719   0.573  1.00  0.00     0.046 A 
HETATM   20  N5  UNL     1       6.267 -40.453   1.091  1.00  0.00     0.000 N 
HETATM   21  C17 UNL     1       6.914 -39.141   1.801  1.00  0.00     0.251 A 
HETATM   22  C18 UNL     1       6.380 -38.152   2.507  1.00  0.00     0.034 C 
HETATM   23  C19 UNL     1       8.415 -39.350   1.513  1.00  0.00     0.013 A 
HETATM   24  C20 UNL     1       8.290 -38.139   0.979  1.00  0.00    -0.022 A 
HETATM   25  C21 UNL     1       8.748 -37.076   1.244  1.00  0.00     0.012 A 
HETATM   26  C22 UNL     1       8.499 -35.895   0.495  1.00  0.00     0.001 A 
HETATM   27  C23 UNL     1       7.688 -35.948  -0.607  1.00  0.00     0.001 A 
HETATM   28  C24 UNL     1       7.143 -37.139  -0.939  1.00  0.00     0.008 A 
HETATM   29  C25 UNL     1       7.433 -38.143  -0.185  1.00  0.00    -0.044 A 
HETATM   30  C26 UNL     1       6.583 -39.398  -0.308  1.00  0.00     0.103 C 
ENDROOT
BRANCH  11  31
HETATM   31  N2  UNL     1       3.326 -39.748   0.592  1.00  0.00    -0.377 N 
HETATM   32  C9  UNL     1       2.717 -39.289  -0.606  1.00  0.00     0.150 C 
HETATM   33  C10 UNL     1       2.884 -39.379   1.901  1.00  0.00     0.150 C 
ENDBRANCH  11  31
TORSDOF 1
ENDMDL
MODEL 4
REMARK VINA RESULT: -9.049360742      4.023      6.927
REMARK  1 active torsions:
REMARK  status: ('A' for Active; 'I' for Inactive)
REMARK    1  A    between atoms: C8_11  and  N2_12 
ROOT
HETATM    1  C1  UNL     1      -0.115 -41.541  -4.276  1.00  0.00     0.054 C 
HETATM    2  C2  UNL     1       1.116 -41.455  -3.467  1.00  0.00     0.015 A 
HETATM    3  C3  UNL     1       1.214 -40.393  -2.580  1.00  0.00     0.031 A 
HETATM    4  C4  UNL     1       2.334 -40.296  -1.830  1.00  0.00     0.047 A 
HETATM    5  C5  UNL     1       3.290 -41.249  -1.997  1.00  0.00     0.171 A 
HETATM    6  O1  UNL     1       3.255 -42.252  -2.799  1.00  0.00    -0.256 OA
HETATM    7  C6  UNL     1       2.164 -42.344  -3.528  1.00  0.00     0.295 A 
HETATM    8  O2  UNL     1       2.101 -43.307  -4.316  1.00  0.00    -0.259 OA
HETATM    9  N1  UNL     1       3.976 -40.600  -1.079  1.00  0.00    -0.288 N 
HETATM   10  C7  UNL     1       3.046 -39.666  -0.913  1.00  0.00     0.096 A 
HETATM   11  C8  UNL     1       3.562 -38.881   0.004  1.00  0.00     0.126 A 
HETATM   12  N3  UNL     1       4.519 -38.741   0.677  1.00  0.00    -0.147 NA
HETATM   13  C11 UNL     1       5.490 -39.077   0.875  1.00  0.00     0.283 A 
HETATM   14  N4  UNL     1       6.000 -40.114   1.745  1.00  0.00     0.151 N 
HETATM   15  C12 UNL     1       7.391 -40.616   1.238  1.00  0.00     0.283 A 
HETATM   16  C13 UNL     1       6.797 -41.854   1.413  1.00  0.00     0.009 C 
HETATM   17  C14 UNL     1       6.312 -42.515   0.221  1.00  0.00    -0.022 C 
HETATM   18  C15 UNL     1       5.664 -41.775  -0.804  1.00  0.00     0.086 C 
HETATM   19  C16 UNL     1       5.083 -40.518  -0.353  1.00  0.00     0.046 A 
HETATM   20  N5  UNL     1       5.355 -39.530   0.563  1.00  0.00     0.000 N 
HETATM   21  C17 UNL     1       6.371 -38.803   1.604  1.00  0.00     0.251 A 
HETATM   22  C18 UNL     1       6.165 -38.003   2.642  1.00  0.00     0.034 C 
HETATM   23  C19 UNL     1       7.733 -39.347   1.127  1.00  0.00     0.013 A 
HETATM   24  C20 UNL     1       8.009 -38.049   1.037  1.00  0.00    -0.022 A 
HETATM   25  C21 UNL     1       8.775 -37.334   1.594  1.00  0.00     0.012 A 
HETATM   26  C22 UNL     1       8.928 -35.952   1.303  1.00  0.00     0.001 A 
HETATM   27  C23 UNL     1       8.162 -35.376   0.325  1.00  0.00     0.001 A 
HETATM   28  C24 UNL     1       7.274 -36.155  -0.331  1.00  0.00     0.008 A 
HETATM   29  C25 UNL     1       7.216 -37.394   0.020  1.00  0.00    -0.044 A 
HETATM   30  C26 UNL     1       6.016 -38.210  -0.432  1.00  0.00     0.103 C 
ENDROOT
BRANCH  11  31
HETATM   31  N2  UNL     1       2.799 -37.838   0.597  1.00  0.00    -0.377 N 
HETATM   32  C9  UNL     1       1.487 -38.230   0.970  1.00  0.00     0.150 C 
HETATM   33  C10 UNL     1       3.327 -36.524   0.803  1.00  0.00     0.150 C 
ENDBRANCH  11  31
TORSDOF 1
ENDMDL
MODEL 5
REMARK VINA RESULT: -8.926653494      4.416      7.639
REMARK  1 active torsions:
REMARK  status: ('A' for Active; 'I' for Inactive)
REMARK    1  A    between atoms: C8_11  and  N2_12 
ROOT
HETATM    1  C1  UNL     1       5.001 -47.927  -1.391  1.00  0.00     0.054 C 
HETATM    2  C2  UNL     1       5.697 -46.815  -0.716  1.00  0.00     0.015 A 
HETATM    3  C3  UNL     1       5.046 -45.590  -0.684  1.00  0.00     0.031 A 
HETATM    4  C4  UNL     1       5.669 -44.559  -0.071  1.00  0.00     0.047 A 
HETATM    5  C5  UNL     1       6.893 -44.795   0.474  1.00  0.00     0.171 A 
HETATM    6  O1  UNL     1       7.543 -45.902   0.476  1.00  0.00    -0.256 OA
HETATM    7  C6  UNL     1       6.935 -46.905  -0.122  1.00  0.00     0.295 A 
HETATM    8  O2  UNL     1       7.541 -47.993  -0.136  1.00  0.00    -0.259 OA
HETATM    9  N1  UNL     1       6.879 -43.528   0.837  1.00  0.00    -0.288 N 
HETATM   10  C7  UNL     1       5.684 -43.293   0.305  1.00  0.00     0.096 A 
HETATM   11  C8  UNL     1       5.477 -42.025   0.569  1.00  0.00     0.126 A 
HETATM   12  N3  UNL     1       5.975 -41.088   1.082  1.00  0.00    -0.147 NA
HETATM   13  C11 UNL     1       6.844 -40.708   1.525  1.00  0.00     0.283 A 
HETATM   14  N4  UNL     1       7.322 -40.719   2.891  1.00  0.00     0.151 N 
HETATM   15  C12 UNL     1       8.879 -40.583   2.924  1.00  0.00     0.283 A 
HETATM   16  C13 UNL     1       8.765 -41.661   3.786  1.00  0.00     0.009 C 
HETATM   17  C14 UNL     1       9.058 -42.965   3.234  1.00  0.00    -0.022 C 
HETATM   18  C15 UNL     1       8.633 -43.309   1.923  1.00  0.00     0.086 C 
HETATM   19  C16 UNL     1       7.505 -42.526   1.440  1.00  0.00     0.046 A 
HETATM   20  N5  UNL     1       7.016 -41.246   1.555  1.00  0.00     0.000 N 
HETATM   21  C17 UNL     1       7.206 -39.691   1.992  1.00  0.00     0.251 A 
HETATM   22  C18 UNL     1       6.337 -38.732   2.281  1.00  0.00     0.034 C 
HETATM   23  C19 UNL     1       8.743 -39.585   2.074  1.00  0.00     0.013 A 
HETATM   24  C20 UNL     1       8.532 -38.592   1.214  1.00  0.00    -0.022 A 
HETATM   25  C21 UNL     1       8.702 -37.418   1.262  1.00  0.00     0.012 A 
HETATM   26  C22 UNL     1       8.434 -36.531   0.186  1.00  0.00     0.001 A 
HETATM   27  C23 UNL     1       7.952 -37.027  -0.997  1.00  0.00     0.001 A 
HETATM   28  C24 UNL     1       7.741 -38.358  -1.091  1.00  0.00     0.008 A 
HETATM   29  C25 UNL     1       8.014 -39.066  -0.049  1.00  0.00    -0.044 A 
HETATM   30  C26 UNL     1       7.473 -40.485   0.012  1.00  0.00     0.103 C 
ENDROOT
BRANCH  11  31
HETATM   31  N2  UNL     1       4.218 -41.413   0.314  1.00  0.00    -0.377 N 
HETATM   32  C9  UNL     1       3.277 -41.586   1.362  1.00  0.00     0.150 C 
HETATM   33  C10 UNL     1       3.949 -40.684  -0.886  1.00  0.00     0.150 C 
ENDBRANCH  11  31
TORSDOF 1
ENDMDL
