MODEL 1
REMARK VINA RESULT: -7.255537127      0.000      0.000
REMARK  7 active torsions:
REMARK  status: ('A' for Active; 'I' for Inactive)
REMARK    1  A    between atoms: C2_2  and  C4_4 
REMARK    2  A    between atoms: C4_4  and  N1_5 
REMARK    3  A    between atoms: C4_4  and  C21_29 
REMARK       I    between atoms: N1_5  and  C5_7 
REMARK    4  A    between atoms: C5_7  and  C6_9 
REMARK    5  A    between atoms: N2_10  and  C7_11 
REMARK    6  A    between atoms: C7_11  and  O2_12 
REMARK    7  A    between atoms: C8_14  and  C9_16 
ROOT
HETATM    1  C6  UNL     1      -1.927   2.865  21.719  1.00  0.00     0.232 C 
HETATM    2  N2  UNL     1      -1.756   4.280  22.000  1.00  0.00    -0.333 N 
HETATM    3  C15 UNL     1      -1.764   4.569  23.430  1.00  0.00     0.105 C 
HETATM    4  C16 UNL     1      -0.532   4.043  24.040  1.00  0.00     0.092 C 
HETATM    5  S1  UNL     1      -1.660   2.015  23.614  1.00  0.00    -0.185 SA
HETATM    6  C17 UNL     1      -3.210   2.971  24.723  1.00  0.00     0.076 C 
HETATM    7  C18 UNL     1      -2.992   4.308  24.153  1.00  0.00    -0.018 C 
HETATM    8  C19 UNL     1      -4.202   4.608  23.311  1.00  0.00     0.018 C 
HETATM    9  C20 UNL     1      -3.063   5.267  25.360  1.00  0.00     0.018 C 
ENDROOT
BRANCH   1  10
HETATM   10  C5  UNL     1      -0.920   2.147  21.001  1.00  0.00     0.250 C 
HETATM   11  N1  UNL     1      -0.871   0.896  20.396  1.00  0.00    -0.344 N 
ATOM     12  H1  UNL     1      -1.715   0.325  20.448  1.00  0.00     0.163 HD
HETATM   13  O1  UNL     1       0.183   2.813  20.896  1.00  0.00    -0.270 OA
BRANCH  11  14
HETATM   14  C4  UNL     1       0.254   0.330  19.703  1.00  0.00     0.189 C 
BRANCH  14  15
HETATM   15  C2  UNL     1       0.432  -1.147  19.860  1.00  0.00     0.010 C 
HETATM   16  C1  UNL     1       1.747  -1.601  19.222  1.00  0.00     0.012 C 
HETATM   17  C3  UNL     1       0.431  -1.641  21.259  1.00  0.00     0.012 C 
ENDBRANCH  14  15
BRANCH  14  18
HETATM   18  C21 UNL     1       0.124   0.658  18.262  1.00  0.00     0.197 C 
HETATM   19  O3  UNL     1      -0.866   0.273  17.572  1.00  0.00    -0.646 OA
HETATM   20  O4  UNL     1       1.080   1.408  17.589  1.00  0.00    -0.646 OA
ENDBRANCH  14  18
ENDBRANCH  11  14
ENDBRANCH   1  10
BRANCH   2  21
HETATM   21  C7  UNL     1      -1.615   5.195  20.918  1.00  0.00     0.161 C 
HETATM   22  C8  UNL     1      -2.548   5.776  19.984  1.00  0.00     0.079 C 
HETATM   23  N3  UNL     1      -3.835   5.158  19.804  1.00  0.00    -0.102 NA
BRANCH  21  24
HETATM   24  O2  UNL     1      -0.390   5.607  20.715  1.00  0.00    -0.345 OA
ATOM     25  H2  UNL     1      -0.157   6.395  21.193  1.00  0.00     0.219 HD
ENDBRANCH  21  24
BRANCH  22  26
HETATM   26  C9  UNL     1      -2.685   7.295  20.080  1.00  0.00     0.037 C 
HETATM   27  C10 UNL     1      -1.867   7.969  18.990  1.00  0.00     0.010 C 
HETATM   28  C11 UNL     1      -1.690   9.446  19.279  1.00  0.00     0.001 C 
HETATM   29  C12 UNL     1      -2.895   9.926  20.068  1.00  0.00     0.000 C 
HETATM   30  C13 UNL     1      -4.085   9.204  19.417  1.00  0.00     0.001 C 
HETATM   31  C14 UNL     1      -4.102   7.740  19.788  1.00  0.00     0.010 C 
ENDBRANCH  22  26
ENDBRANCH   2  21
TORSDOF 7
ENDMDL
MODEL 2
REMARK VINA RESULT: -6.490701403      4.179      6.243
REMARK  7 active torsions:
REMARK  status: ('A' for Active; 'I' for Inactive)
REMARK    1  A    between atoms: C2_2  and  C4_4 
REMARK    2  A    between atoms: C4_4  and  N1_5 
REMARK    3  A    between atoms: C4_4  and  C21_29 
REMARK       I    between atoms: N1_5  and  C5_7 
REMARK    4  A    between atoms: C5_7  and  C6_9 
REMARK    5  A    between atoms: N2_10  and  C7_11 
REMARK    6  A    between atoms: C7_11  and  O2_12 
REMARK    7  A    between atoms: C8_14  and  C9_16 
ROOT
HETATM    1  C6  UNL     1      -4.252   2.747  23.597  1.00  0.00     0.232 C 
HETATM    2  N2  UNL     1      -4.461   4.039  22.966  1.00  0.00    -0.333 N 
HETATM    3  C15 UNL     1      -5.852   4.254  22.584  1.00  0.00     0.105 C 
HETATM    4  C16 UNL     1      -6.668   4.434  23.795  1.00  0.00     0.092 C 
HETATM    5  S1  UNL     1      -6.217   2.125  23.961  1.00  0.00    -0.185 SA
HETATM    6  C17 UNL     1      -7.026   2.113  21.988  1.00  0.00     0.076 C 
HETATM    7  C18 UNL     1      -6.406   3.378  21.570  1.00  0.00    -0.018 C 
HETATM    8  C19 UNL     1      -5.379   3.021  20.530  1.00  0.00     0.018 C 
HETATM    9  C20 UNL     1      -7.524   4.137  20.825  1.00  0.00     0.018 C 
ENDROOT
BRANCH   1  10
HETATM   10  C5  UNL     1      -3.737   2.672  24.928  1.00  0.00     0.250 C 
HETATM   11  N1  UNL     1      -3.650   3.575  25.983  1.00  0.00    -0.344 N 
ATOM     12  H1  UNL     1      -4.021   4.511  25.821  1.00  0.00     0.163 HD
HETATM   13  O1  UNL     1      -3.247   1.508  25.206  1.00  0.00    -0.270 OA
BRANCH  11  14
HETATM   14  C4  UNL     1      -3.087   3.316  27.280  1.00  0.00     0.189 C 
BRANCH  14  15
HETATM   15  C2  UNL     1      -1.799   4.014  27.576  1.00  0.00     0.010 C 
HETATM   16  C1  UNL     1      -0.655   3.400  26.765  1.00  0.00     0.012 C 
HETATM   17  C3  UNL     1      -1.792   5.473  27.306  1.00  0.00     0.012 C 
ENDBRANCH  14  15
BRANCH  14  18
HETATM   18  C21 UNL     1      -4.095   3.688  28.304  1.00  0.00     0.197 C 
HETATM   19  O3  UNL     1      -5.262   4.069  27.992  1.00  0.00    -0.646 OA
HETATM   20  O4  UNL     1      -3.813   3.641  29.664  1.00  0.00    -0.646 OA
ENDBRANCH  14  18
ENDBRANCH  11  14
ENDBRANCH   1  10
BRANCH   2  21
HETATM   21  C7  UNL     1      -3.353   4.915  22.783  1.00  0.00     0.161 C 
HETATM   22  C8  UNL     1      -2.371   5.065  21.736  1.00  0.00     0.079 C 
HETATM   23  N3  UNL     1      -2.175   3.989  20.800  1.00  0.00    -0.102 NA
BRANCH  21  24
HETATM   24  O2  UNL     1      -3.173   5.769  23.756  1.00  0.00    -0.345 OA
ATOM     25  H2  UNL     1      -2.289   5.786  24.105  1.00  0.00     0.219 HD
ENDBRANCH  21  24
BRANCH  22  26
HETATM   26  C9  UNL     1      -2.411   6.411  21.013  1.00  0.00     0.037 C 
HETATM   27  C10 UNL     1      -1.692   6.313  19.677  1.00  0.00     0.010 C 
HETATM   28  C11 UNL     1      -1.400   7.690  19.115  1.00  0.00     0.001 C 
HETATM   29  C12 UNL     1      -2.473   8.644  19.609  1.00  0.00     0.000 C 
HETATM   30  C13 UNL     1      -3.771   7.825  19.532  1.00  0.00     0.001 C 
HETATM   31  C14 UNL     1      -3.825   6.789  20.630  1.00  0.00     0.010 C 
ENDBRANCH  22  26
ENDBRANCH   2  21
TORSDOF 7
ENDMDL
MODEL 3
REMARK VINA RESULT: -6.489939750      1.802      2.255
REMARK  7 active torsions:
REMARK  status: ('A' for Active; 'I' for Inactive)
REMARK    1  A    between atoms: C2_2  and  C4_4 
REMARK    2  A    between atoms: C4_4  and  N1_5 
REMARK    3  A    between atoms: C4_4  and  C21_29 
REMARK       I    between atoms: N1_5  and  C5_7 
REMARK    4  A    between atoms: C5_7  and  C6_9 
REMARK    5  A    between atoms: N2_10  and  C7_11 
REMARK    6  A    between atoms: C7_11  and  O2_12 
REMARK    7  A    between atoms: C8_14  and  C9_16 
ROOT
HETATM    1  C6  UNL     1      -1.818   1.974  22.786  1.00  0.00     0.232 C 
HETATM    2  N2  UNL     1      -1.273   3.321  22.828  1.00  0.00    -0.333 N 
HETATM    3  C15 UNL     1      -0.901   3.729  24.178  1.00  0.00     0.105 C 
HETATM    4  C16 UNL     1       0.284   2.968  24.607  1.00  0.00     0.092 C 
HETATM    5  S1  UNL     1      -1.337   1.257  24.693  1.00  0.00    -0.185 SA
HETATM    6  C17 UNL     1      -2.347   2.665  25.936  1.00  0.00     0.076 C 
HETATM    7  C18 UNL     1      -1.965   3.849  25.154  1.00  0.00    -0.018 C 
HETATM    8  C19 UNL     1      -3.232   4.365  24.527  1.00  0.00     0.018 C 
HETATM    9  C20 UNL     1      -1.550   4.899  26.206  1.00  0.00     0.018 C 
ENDROOT
BRANCH   1  10
HETATM   10  C5  UNL     1      -1.182   0.967  21.995  1.00  0.00     0.250 C 
HETATM   11  N1  UNL     1       0.118   0.772  21.541  1.00  0.00    -0.344 N 
ATOM     12  H1  UNL     1       0.808   1.476  21.801  1.00  0.00     0.163 HD
HETATM   13  O1  UNL     1      -2.000   0.036  21.625  1.00  0.00    -0.270 OA
BRANCH  11  14
HETATM   14  C4  UNL     1       0.583  -0.327  20.739  1.00  0.00     0.189 C 
BRANCH  14  15
HETATM   15  C2  UNL     1       0.735  -0.041  19.279  1.00  0.00     0.010 C 
HETATM   16  C1  UNL     1      -0.033  -1.070  18.446  1.00  0.00     0.012 C 
HETATM   17  C3  UNL     1       0.276   1.302  18.844  1.00  0.00     0.012 C 
ENDBRANCH  14  15
BRANCH  14  18
HETATM   18  C21 UNL     1       1.884  -0.782  21.288  1.00  0.00     0.197 C 
HETATM   19  O3  UNL     1       2.015  -1.143  22.495  1.00  0.00    -0.646 OA
HETATM   20  O4  UNL     1       3.032  -0.839  20.507  1.00  0.00    -0.646 OA
ENDBRANCH  14  18
ENDBRANCH  11  14
ENDBRANCH   1  10
BRANCH   2  21
HETATM   21  C7  UNL     1      -1.172   4.071  21.623  1.00  0.00     0.161 C 
HETATM   22  C8  UNL     1      -2.130   4.472  20.621  1.00  0.00     0.079 C 
HETATM   23  N3  UNL     1      -3.393   3.786  20.546  1.00  0.00    -0.102 NA
BRANCH  21  24
HETATM   24  O2  UNL     1       0.035   4.496  21.350  1.00  0.00    -0.345 OA
ATOM     25  H2  UNL     1       0.547   4.740  22.113  1.00  0.00     0.219 HD
ENDBRANCH  21  24
BRANCH  22  26
HETATM   26  C9  UNL     1      -2.327   5.982  20.494  1.00  0.00     0.037 C 
HETATM   27  C10 UNL     1      -1.507   6.525  19.335  1.00  0.00     0.010 C 
HETATM   28  C11 UNL     1      -1.393   8.035  19.411  1.00  0.00     0.001 C 
HETATM   29  C12 UNL     1      -2.634   8.574  20.099  1.00  0.00     0.000 C 
HETATM   30  C13 UNL     1      -3.780   7.718  19.535  1.00  0.00     0.001 C 
HETATM   31  C14 UNL     1      -3.751   6.323  20.113  1.00  0.00     0.010 C 
ENDBRANCH  22  26
ENDBRANCH   2  21
TORSDOF 7
ENDMDL
MODEL 4
REMARK VINA RESULT: -6.402984766      3.419      6.822
REMARK  7 active torsions:
REMARK  status: ('A' for Active; 'I' for Inactive)
REMARK    1  A    between atoms: C2_2  and  C4_4 
REMARK    2  A    between atoms: C4_4  and  N1_5 
REMARK    3  A    between atoms: C4_4  and  C21_29 
REMARK       I    between atoms: N1_5  and  C5_7 
REMARK    4  A    between atoms: C5_7  and  C6_9 
REMARK    5  A    between atoms: N2_10  and  C7_11 
REMARK    6  A    between atoms: C7_11  and  O2_12 
REMARK    7  A    between atoms: C8_14  and  C9_16 
ROOT
HETATM    1  C6  UNL     1      -2.488   2.690  23.640  1.00  0.00     0.232 C 
HETATM    2  N2  UNL     1      -1.967   3.550  24.690  1.00  0.00    -0.333 N 
HETATM    3  C15 UNL     1      -0.531   3.389  24.880  1.00  0.00     0.105 C 
HETATM    4  C16 UNL     1       0.180   3.955  23.722  1.00  0.00     0.092 C 
HETATM    5  S1  UNL     1      -0.728   2.020  22.724  1.00  0.00    -0.185 SA
HETATM    6  C17 UNL     1       0.254   1.060  24.355  1.00  0.00     0.076 C 
HETATM    7  C18 UNL     1      -0.061   2.099  25.345  1.00  0.00    -0.018 C 
HETATM    8  C19 UNL     1      -1.029   1.478  26.315  1.00  0.00     0.018 C 
HETATM    9  C20 UNL     1       1.253   2.309  26.128  1.00  0.00     0.018 C 
ENDROOT
BRANCH   1  10
HETATM   10  C5  UNL     1      -3.137   3.259  22.501  1.00  0.00     0.250 C 
HETATM   11  N1  UNL     1      -3.298   4.558  22.029  1.00  0.00    -0.344 N 
ATOM     12  H1  UNL     1      -2.880   5.305  22.583  1.00  0.00     0.163 HD
HETATM   13  O1  UNL     1      -3.694   2.367  21.749  1.00  0.00    -0.270 OA
BRANCH  11  14
HETATM   14  C4  UNL     1      -3.998   4.949  20.835  1.00  0.00     0.189 C 
BRANCH  14  15
HETATM   15  C2  UNL     1      -5.477   5.111  20.979  1.00  0.00     0.010 C 
HETATM   16  C1  UNL     1      -6.216   4.004  20.224  1.00  0.00     0.012 C 
HETATM   17  C3  UNL     1      -5.984   5.103  22.374  1.00  0.00     0.012 C 
ENDBRANCH  14  15
BRANCH  14  18
HETATM   18  C21 UNL     1      -3.409   6.221  20.349  1.00  0.00     0.197 C 
HETATM   19  O3  UNL     1      -2.536   6.250  19.431  1.00  0.00    -0.646 OA
HETATM   20  O4  UNL     1      -3.782   7.452  20.873  1.00  0.00    -0.646 OA
ENDBRANCH  14  18
ENDBRANCH  11  14
ENDBRANCH   1  10
BRANCH   2  21
HETATM   21  C7  UNL     1      -2.859   4.406  25.397  1.00  0.00     0.161 C 
HETATM   22  C8  UNL     1      -3.496   4.324  26.689  1.00  0.00     0.079 C 
HETATM   23  N3  UNL     1      -3.579   3.049  27.350  1.00  0.00    -0.102 NA
BRANCH  21  24
HETATM   24  O2  UNL     1      -3.176   5.502  24.757  1.00  0.00    -0.345 OA
ATOM     25  H2  UNL     1      -3.522   5.360  23.884  1.00  0.00     0.219 HD
ENDBRANCH  21  24
BRANCH  22  26
HETATM   26  C9  UNL     1      -3.085   5.418  27.673  1.00  0.00     0.037 C 
HETATM   27  C10 UNL     1      -3.347   4.968  29.101  1.00  0.00     0.010 C 
HETATM   28  C11 UNL     1      -3.296   6.142  30.059  1.00  0.00     0.001 C 
HETATM   29  C12 UNL     1      -2.341   7.178  29.494  1.00  0.00     0.000 C 
HETATM   30  C13 UNL     1      -1.181   6.349  28.920  1.00  0.00     0.001 C 
HETATM   31  C14 UNL     1      -1.591   5.654  27.643  1.00  0.00     0.010 C 
ENDBRANCH  22  26
ENDBRANCH   2  21
TORSDOF 7
ENDMDL
MODEL 5
REMARK VINA RESULT: -6.401744023      3.055      7.278
REMARK  7 active torsions:
REMARK  status: ('A' for Active; 'I' for Inactive)
REMARK    1  A    between atoms: C2_2  and  C4_4 
REMARK    2  A    between atoms: C4_4  and  N1_5 
REMARK    3  A    between atoms: C4_4  and  C21_29 
REMARK       I    between atoms: N1_5  and  C5_7 
REMARK    4  A    between atoms: C5_7  and  C6_9 
REMARK    5  A    between atoms: N2_10  and  C7_11 
REMARK    6  A    between atoms: C7_11  and  O2_12 
REMARK    7  A    between atoms: C8_14  and  C9_16 
ROOT
HETATM    1  C6  UNL     1      -2.692   3.297  23.759  1.00  0.00     0.232 C 
HETATM    2  N2  UNL     1      -2.228   3.550  22.405  1.00  0.00    -0.333 N 
HETATM    3  C15 UNL     1      -3.226   4.237  21.593  1.00  0.00     0.105 C 
HETATM    4  C16 UNL     1      -3.371   5.622  22.068  1.00  0.00     0.092 C 
HETATM    5  S1  UNL     1      -4.417   4.480  23.849  1.00  0.00    -0.185 SA
HETATM    6  C17 UNL     1      -5.577   3.651  22.263  1.00  0.00     0.076 C 
HETATM    7  C18 UNL     1      -4.460   3.528  21.316  1.00  0.00    -0.018 C 
HETATM    8  C19 UNL     1      -4.220   2.053  21.138  1.00  0.00     0.018 C 
HETATM    9  C20 UNL     1      -5.025   4.035  19.972  1.00  0.00     0.018 C 
ENDROOT
BRANCH   1  10
HETATM   10  C5  UNL     1      -1.983   3.840  24.875  1.00  0.00     0.250 C 
HETATM   11  N1  UNL     1      -2.178   3.809  26.252  1.00  0.00    -0.344 N 
ATOM     12  H1  UNL     1      -2.994   3.300  26.591  1.00  0.00     0.163 HD
HETATM   13  O1  UNL     1      -0.931   4.503  24.520  1.00  0.00    -0.270 OA
BRANCH  11  14
HETATM   14  C4  UNL     1      -1.340   4.426  27.244  1.00  0.00     0.189 C 
BRANCH  14  15
HETATM   15  C2  UNL     1      -2.044   5.304  28.228  1.00  0.00     0.010 C 
HETATM   16  C1  UNL     1      -1.161   6.490  28.619  1.00  0.00     0.012 C 
HETATM   17  C3  UNL     1      -3.342   5.858  27.768  1.00  0.00     0.012 C 
ENDBRANCH  14  15
BRANCH  14  18
HETATM   18  C21 UNL     1      -0.618   3.353  27.971  1.00  0.00     0.197 C 
HETATM   19  O3  UNL     1       0.273   2.644  27.415  1.00  0.00    -0.646 OA
HETATM   20  O4  UNL     1      -0.879   3.066  29.306  1.00  0.00    -0.646 OA
ENDBRANCH  14  18
ENDBRANCH  11  14
ENDBRANCH   1  10
BRANCH   2  21
HETATM   21  C7  UNL     1      -0.926   3.120  22.021  1.00  0.00     0.161 C 
HETATM   22  C8  UNL     1      -0.316   1.820  21.870  1.00  0.00     0.079 C 
HETATM   23  N3  UNL     1      -0.933   0.680  22.493  1.00  0.00    -0.102 NA
BRANCH  21  24
HETATM   24  O2  UNL     1      -0.096   4.091  21.742  1.00  0.00    -0.345 OA
ATOM     25  H2  UNL     1       0.541   3.882  21.070  1.00  0.00     0.219 HD
ENDBRANCH  21  24
BRANCH  22  26
HETATM   26  C9  UNL     1       0.126   1.485  20.446  1.00  0.00     0.037 C 
HETATM   27  C10 UNL     1       0.955   0.212  20.437  1.00  0.00     0.010 C 
HETATM   28  C11 UNL     1       1.700   0.057  19.126  1.00  0.00     0.001 C 
HETATM   29  C12 UNL     1       0.891   0.733  18.034  1.00  0.00     0.000 C 
HETATM   30  C13 UNL     1      -0.566   0.372  18.366  1.00  0.00     0.001 C 
HETATM   31  C14 UNL     1      -1.057   1.146  19.567  1.00  0.00     0.010 C 
ENDBRANCH  22  26
ENDBRANCH   2  21
TORSDOF 7
ENDMDL
