MODEL 1
REMARK VINA RESULT: -9.862086430      0.000      0.000
REMARK  18 active torsions:
REMARK  status: ('A' for Active; 'I' for Inactive)
REMARK    1  A    between atoms: C2_2  and  C3_3 
REMARK    2  A    between atoms: C3_3  and  C4_4 
REMARK    3  A    between atoms: C4_4  and  C5_5 
REMARK    4  A    between atoms: C7_7  and  C8_8 
REMARK    5  A    between atoms: C8_8  and  C9_9 
REMARK    6  A    between atoms: C9_9  and  N1_10 
REMARK    7  A    between atoms: C9_9  and  C24_29 
REMARK    8  A    between atoms: N1_10  and  C10_12 
REMARK    9  A    between atoms: C10_12  and  C11_13 
REMARK   10  A    between atoms: C10_12  and  C18_20 
REMARK   11  A    between atoms: C11_13  and  C12_14 
REMARK       I    between atoms: C18_20  and  N2_22 
REMARK   12  A    between atoms: N2_22  and  C19_24 
REMARK   13  A    between atoms: C19_24  and  C20_25 
REMARK   14  A    between atoms: C24_29  and  C32_41 
REMARK   15  A    between atoms: C25_30  and  C26_31 
REMARK   16  A    between atoms: C26_31  and  O2_32 
REMARK   17  A    between atoms: C26_31  and  C27_34 
REMARK   18  A    between atoms: C27_34  and  C28_35 
ROOT
HETATM    1  C9  UNL     1      -9.832  14.385  30.407  1.00  0.00     0.111 C 
ENDROOT
BRANCH   1   2
HETATM    2  C8  UNL     1     -10.442  15.210  29.259  1.00  0.00     0.069 C 
BRANCH   2   3
HETATM    3  C7  UNL     1     -10.328  14.712  27.903  1.00  0.00    -0.008 C 
HETATM    4  C6  UNL     1     -11.244  15.309  26.868  1.00  0.00     0.065 C 
HETATM    5  C5  UNL     1     -10.462  15.179  25.606  1.00  0.00     0.088 C 
HETATM    6  N3  UNL     1      -9.049  15.254  26.060  1.00  0.00    -0.352 N 
HETATM    7  C38 UNL     1      -8.998  14.544  27.300  1.00  0.00     0.244 C 
ATOM      8  H3  UNL     1      -8.274  15.718  25.585  1.00  0.00     0.163 HD
HETATM    9  O5  UNL     1      -7.966  13.936  27.679  1.00  0.00    -0.268 OA
BRANCH   5  10
HETATM   10  C4  UNL     1     -10.647  16.159  24.522  1.00  0.00     0.025 C 
BRANCH  10  11
HETATM   11  C3  UNL     1      -9.788  16.049  23.321  1.00  0.00     0.002 C 
BRANCH  11  12
HETATM   12  C2  UNL     1      -9.698  14.762  22.599  1.00  0.00    -0.004 C 
HETATM   13  C1  UNL     1      -8.325  14.599  21.962  1.00  0.00     0.005 C 
ENDBRANCH  11  12
ENDBRANCH  10  11
ENDBRANCH   5  10
ENDBRANCH   2   3
ENDBRANCH   1   2
BRANCH   1  14
HETATM   14  N1  UNL     1     -10.825  13.748  31.090  1.00  0.00    -0.401 N 
ATOM     15  H1  UNL     1     -10.615  12.835  31.495  1.00  0.00     0.154 HD
BRANCH  14  16
HETATM   16  C10 UNL     1     -12.151  14.278  31.278  1.00  0.00     0.170 C 
BRANCH  16  17
HETATM   17  C11 UNL     1     -13.007  13.045  31.001  1.00  0.00     0.039 C 
BRANCH  17  18
HETATM   18  C12 UNL     1     -13.632  12.863  29.713  1.00  0.00    -0.012 C 
HETATM   19  C13 UNL     1     -13.778  14.085  28.844  1.00  0.00     0.005 C 
HETATM   20  C14 UNL     1     -14.525  13.740  27.597  1.00  0.00     0.000 C 
HETATM   21  C15 UNL     1     -14.072  12.442  26.975  1.00  0.00     0.000 C 
HETATM   22  C16 UNL     1     -12.684  12.154  27.498  1.00  0.00     0.000 C 
HETATM   23  C17 UNL     1     -12.812  11.808  28.954  1.00  0.00     0.005 C 
ENDBRANCH  17  18
ENDBRANCH  16  17
BRANCH  16  24
HETATM   24  C18 UNL     1     -12.397  14.612  32.713  1.00  0.00     0.240 C 
HETATM   25  O1  UNL     1     -12.579  15.802  32.973  1.00  0.00    -0.271 OA
HETATM   26  N2  UNL     1     -12.423  13.634  33.698  1.00  0.00    -0.359 N 
ATOM     27  H2  UNL     1     -12.275  12.685  33.354  1.00  0.00     0.162 HD
BRANCH  26  28
HETATM   28  C19 UNL     1     -12.622  13.724  35.105  1.00  0.00     0.131 C 
BRANCH  28  29
HETATM   29  C20 UNL     1     -12.888  12.530  35.906  1.00  0.00    -0.035 C 
HETATM   30  C21 UNL     1     -11.705  11.557  35.678  1.00  0.00     0.016 C 
HETATM   31  C22 UNL     1     -12.751  12.909  37.390  1.00  0.00     0.016 C 
HETATM   32  C23 UNL     1     -14.112  11.738  35.669  1.00  0.00     0.016 C 
ENDBRANCH  28  29
ENDBRANCH  26  28
ENDBRANCH  16  24
ENDBRANCH  14  16
ENDBRANCH   1  14
BRANCH   1  33
HETATM   33  C24 UNL     1      -8.805  15.261  31.035  1.00  0.00    -0.055 C 
HETATM   34  C25 UNL     1      -7.962  16.174  30.319  1.00  0.00     0.010 C 
BRANCH  34  35
HETATM   35  C26 UNL     1      -8.232  17.337  29.503  1.00  0.00     0.143 C 
BRANCH  35  36
HETATM   36  O2  UNL     1      -8.527  18.408  30.487  1.00  0.00    -0.392 OA
ATOM     37  H2  UNL     1      -9.290  18.846  30.129  1.00  0.00     0.210 HD
ENDBRANCH  35  36
BRANCH  35  38
HETATM   38  C27 UNL     1      -7.083  18.031  28.813  1.00  0.00     0.067 C 
BRANCH  38  39
HETATM   39  C28 UNL     1      -6.313  17.069  27.952  1.00  0.00     0.129 C 
HETATM   40  C29 UNL     1      -6.175  17.335  26.507  1.00  0.00     0.058 C 
HETATM   41  C30 UNL     1      -5.228  18.487  26.273  1.00  0.00     0.173 C 
HETATM   42  O3  UNL     1      -4.605  18.920  27.432  1.00  0.00    -0.367 OA
HETATM   43  C31 UNL     1      -4.149  17.904  28.229  1.00  0.00     0.338 C 
HETATM   44  O4  UNL     1      -5.011  16.870  28.470  1.00  0.00    -0.362 OA
ENDBRANCH  38  39
ENDBRANCH  35  38
ENDBRANCH  34  35
BRANCH  33  45
HETATM   45  C32 UNL     1      -9.098  15.648  32.483  1.00  0.00     0.016 C 
HETATM   46  C33 UNL     1      -8.272  16.857  32.900  1.00  0.00     0.009 C 
HETATM   47  C34 UNL     1      -8.525  17.115  34.372  1.00  0.00     0.001 C 
HETATM   48  C35 UNL     1      -9.668  16.297  34.926  1.00  0.00     0.000 C 
HETATM   49  C36 UNL     1      -9.392  14.815  34.823  1.00  0.00     0.001 C 
HETATM   50  C37 UNL     1      -8.712  14.596  33.491  1.00  0.00     0.009 C 
ENDBRANCH  33  45
ENDBRANCH   1  33
TORSDOF 18
ENDMDL
MODEL 2
REMARK VINA RESULT: -9.664213224      2.343      5.847
REMARK  18 active torsions:
REMARK  status: ('A' for Active; 'I' for Inactive)
REMARK    1  A    between atoms: C2_2  and  C3_3 
REMARK    2  A    between atoms: C3_3  and  C4_4 
REMARK    3  A    between atoms: C4_4  and  C5_5 
REMARK    4  A    between atoms: C7_7  and  C8_8 
REMARK    5  A    between atoms: C8_8  and  C9_9 
REMARK    6  A    between atoms: C9_9  and  N1_10 
REMARK    7  A    between atoms: C9_9  and  C24_29 
REMARK    8  A    between atoms: N1_10  and  C10_12 
REMARK    9  A    between atoms: C10_12  and  C11_13 
REMARK   10  A    between atoms: C10_12  and  C18_20 
REMARK   11  A    between atoms: C11_13  and  C12_14 
REMARK       I    between atoms: C18_20  and  N2_22 
REMARK   12  A    between atoms: N2_22  and  C19_24 
REMARK   13  A    between atoms: C19_24  and  C20_25 
REMARK   14  A    between atoms: C24_29  and  C32_41 
REMARK   15  A    between atoms: C25_30  and  C26_31 
REMARK   16  A    between atoms: C26_31  and  O2_32 
REMARK   17  A    between atoms: C26_31  and  C27_34 
REMARK   18  A    between atoms: C27_34  and  C28_35 
ROOT
HETATM    1  C9  UNL     1     -10.809  14.452  28.469  1.00  0.00     0.111 C 
ENDROOT
BRANCH   1   2
HETATM    2  C8  UNL     1     -11.836  14.166  27.359  1.00  0.00     0.069 C 
BRANCH   2   3
HETATM    3  C7  UNL     1     -12.884  13.196  27.606  1.00  0.00    -0.008 C 
HETATM    4  C6  UNL     1     -12.523  11.981  28.418  1.00  0.00     0.065 C 
HETATM    5  C5  UNL     1     -13.810  11.616  29.075  1.00  0.00     0.088 C 
HETATM    6  N3  UNL     1     -14.511  12.918  29.220  1.00  0.00    -0.352 N 
HETATM    7  C38 UNL     1     -14.214  13.657  28.032  1.00  0.00     0.244 C 
ATOM      8  H3  UNL     1     -15.086  13.223  30.005  1.00  0.00     0.163 HD
HETATM    9  O5  UNL     1     -15.015  14.496  27.550  1.00  0.00    -0.268 OA
BRANCH   5  10
HETATM   10  C4  UNL     1     -13.802  10.952  30.390  1.00  0.00     0.025 C 
BRANCH  10  11
HETATM   11  C3  UNL     1     -12.686  10.033  30.706  1.00  0.00     0.002 C 
BRANCH  11  12
HETATM   12  C2  UNL     1     -12.960   8.763  31.411  1.00  0.00    -0.004 C 
HETATM   13  C1  UNL     1     -11.957   7.693  31.001  1.00  0.00     0.005 C 
ENDBRANCH  11  12
ENDBRANCH  10  11
ENDBRANCH   5  10
ENDBRANCH   2   3
ENDBRANCH   1   2
BRANCH   1  14
HETATM   14  N1  UNL     1     -11.442  14.986  29.552  1.00  0.00    -0.401 N 
ATOM     15  H1  UNL     1     -12.173  15.678  29.384  1.00  0.00     0.154 HD
BRANCH  14  16
HETATM   16  C10 UNL     1     -11.147  14.638  30.919  1.00  0.00     0.170 C 
BRANCH  16  17
HETATM   17  C11 UNL     1     -10.829  16.007  31.513  1.00  0.00     0.039 C 
BRANCH  17  18
HETATM   18  C12 UNL     1      -9.920  16.129  32.626  1.00  0.00    -0.012 C 
HETATM   19  C13 UNL     1     -10.521  16.093  34.008  1.00  0.00     0.005 C 
HETATM   20  C14 UNL     1      -9.460  16.326  35.034  1.00  0.00     0.000 C 
HETATM   21  C15 UNL     1      -8.192  15.555  34.760  1.00  0.00     0.000 C 
HETATM   22  C16 UNL     1      -8.552  14.410  33.842  1.00  0.00     0.000 C 
HETATM   23  C17 UNL     1      -8.892  14.994  32.502  1.00  0.00     0.005 C 
ENDBRANCH  17  18
ENDBRANCH  16  17
BRANCH  16  24
HETATM   24  C18 UNL     1     -12.374  14.176  31.632  1.00  0.00     0.240 C 
HETATM   25  O1  UNL     1     -13.449  14.591  31.195  1.00  0.00    -0.271 OA
HETATM   26  N2  UNL     1     -12.309  13.321  32.724  1.00  0.00    -0.359 N 
ATOM     27  H2  UNL     1     -11.363  13.035  32.979  1.00  0.00     0.162 HD
BRANCH  26  28
HETATM   28  C19 UNL     1     -13.331  12.774  33.550  1.00  0.00     0.131 C 
BRANCH  28  29
HETATM   29  C20 UNL     1     -13.007  12.133  34.825  1.00  0.00    -0.035 C 
HETATM   30  C21 UNL     1     -12.631  10.664  34.512  1.00  0.00     0.016 C 
HETATM   31  C22 UNL     1     -11.688  12.732  35.339  1.00  0.00     0.016 C 
HETATM   32  C23 UNL     1     -14.019  12.070  35.900  1.00  0.00     0.016 C 
ENDBRANCH  28  29
ENDBRANCH  26  28
ENDBRANCH  16  24
ENDBRANCH  14  16
ENDBRANCH   1  14
BRANCH   1  33
HETATM   33  C24 UNL     1      -9.637  15.068  27.790  1.00  0.00    -0.055 C 
HETATM   34  C25 UNL     1      -9.570  15.369  26.389  1.00  0.00     0.010 C 
BRANCH  34  35
HETATM   35  C26 UNL     1     -10.334  16.245  25.528  1.00  0.00     0.143 C 
BRANCH  35  36
HETATM   36  O2  UNL     1      -9.551  17.505  25.509  1.00  0.00    -0.392 OA
ATOM     37  H2  UNL     1      -9.525  17.747  24.590  1.00  0.00     0.210 HD
ENDBRANCH  35  36
BRANCH  35  38
HETATM   38  C27 UNL     1     -10.326  15.998  24.039  1.00  0.00     0.067 C 
BRANCH  38  39
HETATM   39  C28 UNL     1      -9.022  15.390  23.601  1.00  0.00     0.129 C 
HETATM   40  C29 UNL     1      -8.968  14.606  22.353  1.00  0.00     0.058 C 
HETATM   41  C30 UNL     1      -9.081  15.518  21.155  1.00  0.00     0.173 C 
HETATM   42  O3  UNL     1      -9.058  16.861  21.492  1.00  0.00    -0.367 OA
HETATM   43  C31 UNL     1      -8.103  17.183  22.420  1.00  0.00     0.338 C 
HETATM   44  O4  UNL     1      -8.014  16.379  23.522  1.00  0.00    -0.362 OA
ENDBRANCH  38  39
ENDBRANCH  35  38
ENDBRANCH  34  35
BRANCH  33  45
HETATM   45  C32 UNL     1      -8.776  15.956  28.686  1.00  0.00     0.016 C 
HETATM   46  C33 UNL     1      -9.436  17.312  28.901  1.00  0.00     0.009 C 
HETATM   47  C34 UNL     1      -8.481  18.177  29.699  1.00  0.00     0.001 C 
HETATM   48  C35 UNL     1      -7.305  17.406  30.251  1.00  0.00     0.000 C 
HETATM   49  C36 UNL     1      -6.469  16.803  29.147  1.00  0.00     0.001 C 
HETATM   50  C37 UNL     1      -7.435  16.310  28.096  1.00  0.00     0.009 C 
ENDBRANCH  33  45
ENDBRANCH   1  33
TORSDOF 18
ENDMDL
MODEL 3
REMARK VINA RESULT: -9.495435054      1.787      8.120
REMARK  18 active torsions:
REMARK  status: ('A' for Active; 'I' for Inactive)
REMARK    1  A    between atoms: C2_2  and  C3_3 
REMARK    2  A    between atoms: C3_3  and  C4_4 
REMARK    3  A    between atoms: C4_4  and  C5_5 
REMARK    4  A    between atoms: C7_7  and  C8_8 
REMARK    5  A    between atoms: C8_8  and  C9_9 
REMARK    6  A    between atoms: C9_9  and  N1_10 
REMARK    7  A    between atoms: C9_9  and  C24_29 
REMARK    8  A    between atoms: N1_10  and  C10_12 
REMARK    9  A    between atoms: C10_12  and  C11_13 
REMARK   10  A    between atoms: C10_12  and  C18_20 
REMARK   11  A    between atoms: C11_13  and  C12_14 
REMARK       I    between atoms: C18_20  and  N2_22 
REMARK   12  A    between atoms: N2_22  and  C19_24 
REMARK   13  A    between atoms: C19_24  and  C20_25 
REMARK   14  A    between atoms: C24_29  and  C32_41 
REMARK   15  A    between atoms: C25_30  and  C26_31 
REMARK   16  A    between atoms: C26_31  and  O2_32 
REMARK   17  A    between atoms: C26_31  and  C27_34 
REMARK   18  A    between atoms: C27_34  and  C28_35 
ROOT
HETATM    1  C9  UNL     1     -10.636  15.728  29.772  1.00  0.00     0.111 C 
ENDROOT
BRANCH   1   2
HETATM    2  C8  UNL     1     -11.242  15.994  28.382  1.00  0.00     0.069 C 
BRANCH   2   3
HETATM    3  C7  UNL     1     -10.354  16.156  27.250  1.00  0.00    -0.008 C 
HETATM    4  C6  UNL     1     -10.395  15.097  26.182  1.00  0.00     0.065 C 
HETATM    5  C5  UNL     1     -10.000  15.839  24.950  1.00  0.00     0.088 C 
HETATM    6  N3  UNL     1     -10.481  17.221  25.206  1.00  0.00    -0.352 N 
HETATM    7  C38 UNL     1     -10.244  17.468  26.594  1.00  0.00     0.244 C 
ATOM      8  H3  UNL     1     -10.896  17.862  24.530  1.00  0.00     0.163 HD
HETATM    9  O5  UNL     1      -9.998  18.618  27.035  1.00  0.00    -0.268 OA
BRANCH   5  10
HETATM   10  C4  UNL     1     -10.513  15.411  23.638  1.00  0.00     0.025 C 
BRANCH  10  11
HETATM   11  C3  UNL     1      -9.586  14.728  22.709  1.00  0.00     0.002 C 
BRANCH  11  12
HETATM   12  C2  UNL     1      -8.623  15.523  21.918  1.00  0.00    -0.004 C 
HETATM   13  C1  UNL     1      -9.310  16.163  20.719  1.00  0.00     0.005 C 
ENDBRANCH  11  12
ENDBRANCH  10  11
ENDBRANCH   5  10
ENDBRANCH   2   3
ENDBRANCH   1   2
BRANCH   1  14
HETATM   14  N1  UNL     1      -9.295  15.974  29.741  1.00  0.00    -0.401 N 
ATOM     15  H1  UNL     1      -8.711  15.364  29.169  1.00  0.00     0.154 HD
BRANCH  14  16
HETATM   16  C10 UNL     1      -8.649  17.041  30.464  1.00  0.00     0.170 C 
BRANCH  16  17
HETATM   17  C11 UNL     1      -8.036  16.277  31.635  1.00  0.00     0.039 C 
BRANCH  17  18
HETATM   18  C12 UNL     1      -8.834  15.946  32.790  1.00  0.00    -0.012 C 
HETATM   19  C13 UNL     1      -8.584  14.606  33.434  1.00  0.00     0.005 C 
HETATM   20  C14 UNL     1      -9.554  14.385  34.549  1.00  0.00     0.000 C 
HETATM   21  C15 UNL     1      -9.737  15.601  35.424  1.00  0.00     0.000 C 
HETATM   22  C16 UNL     1      -8.527  16.485  35.224  1.00  0.00     0.000 C 
HETATM   23  C17 UNL     1      -8.604  17.049  33.834  1.00  0.00     0.005 C 
ENDBRANCH  17  18
ENDBRANCH  16  17
BRANCH  16  24
HETATM   24  C18 UNL     1      -7.488  17.581  29.697  1.00  0.00     0.240 C 
HETATM   25  O1  UNL     1      -6.369  17.295  30.126  1.00  0.00    -0.271 OA
HETATM   26  N2  UNL     1      -7.660  18.360  28.560  1.00  0.00    -0.359 N 
ATOM     27  H2  UNL     1      -8.634  18.513  28.298  1.00  0.00     0.162 HD
BRANCH  26  28
HETATM   28  C19 UNL     1      -6.713  18.982  27.696  1.00  0.00     0.131 C 
BRANCH  28  29
HETATM   29  C20 UNL     1      -5.981  18.203  26.698  1.00  0.00    -0.035 C 
HETATM   30  C21 UNL     1      -5.546  19.186  25.584  1.00  0.00     0.016 C 
HETATM   31  C22 UNL     1      -4.645  17.764  27.321  1.00  0.00     0.016 C 
HETATM   32  C23 UNL     1      -6.643  17.077  26.007  1.00  0.00     0.016 C 
ENDBRANCH  28  29
ENDBRANCH  26  28
ENDBRANCH  16  24
ENDBRANCH  14  16
ENDBRANCH   1  14
BRANCH   1  33
HETATM   33  C24 UNL     1     -11.249  14.457  30.246  1.00  0.00    -0.055 C 
HETATM   34  C25 UNL     1     -11.639  14.194  31.601  1.00  0.00     0.010 C 
BRANCH  34  35
HETATM   35  C26 UNL     1     -12.598  14.808  32.491  1.00  0.00     0.143 C 
BRANCH  35  36
HETATM   36  O2  UNL     1     -13.735  15.165  31.607  1.00  0.00    -0.392 OA
ATOM     37  H2  UNL     1     -14.489  15.157  32.185  1.00  0.00     0.210 HD
ENDBRANCH  35  36
BRANCH  35  38
HETATM   38  C27 UNL     1     -13.374  13.936  33.448  1.00  0.00     0.067 C 
BRANCH  38  39
HETATM   39  C28 UNL     1     -12.578  12.720  33.833  1.00  0.00     0.129 C 
HETATM   40  C29 UNL     1     -12.366  12.411  35.260  1.00  0.00     0.058 C 
HETATM   41  C30 UNL     1     -13.648  11.918  35.887  1.00  0.00     0.173 C 
HETATM   42  O3  UNL     1     -14.663  11.729  34.965  1.00  0.00    -0.367 OA
HETATM   43  C31 UNL     1     -14.261  11.100  33.817  1.00  0.00     0.338 C 
HETATM   44  O4  UNL     1     -13.117  11.561  33.227  1.00  0.00    -0.362 OA
ENDBRANCH  38  39
ENDBRANCH  35  38
ENDBRANCH  34  35
BRANCH  33  45
HETATM   45  C32 UNL     1     -12.042  13.698  29.183  1.00  0.00     0.016 C 
HETATM   46  C33 UNL     1     -13.374  14.382  28.908  1.00  0.00     0.009 C 
HETATM   47  C34 UNL     1     -14.153  13.519  27.936  1.00  0.00     0.001 C 
HETATM   48  C35 UNL     1     -13.325  12.404  27.341  1.00  0.00     0.000 C 
HETATM   49  C36 UNL     1     -12.827  11.455  28.406  1.00  0.00     0.001 C 
HETATM   50  C37 UNL     1     -12.442  12.304  29.594  1.00  0.00     0.009 C 
ENDBRANCH  33  45
ENDBRANCH   1  33
TORSDOF 18
ENDMDL
MODEL 4
REMARK VINA RESULT: -9.260415719      1.528      2.005
REMARK  18 active torsions:
REMARK  status: ('A' for Active; 'I' for Inactive)
REMARK    1  A    between atoms: C2_2  and  C3_3 
REMARK    2  A    between atoms: C3_3  and  C4_4 
REMARK    3  A    between atoms: C4_4  and  C5_5 
REMARK    4  A    between atoms: C7_7  and  C8_8 
REMARK    5  A    between atoms: C8_8  and  C9_9 
REMARK    6  A    between atoms: C9_9  and  N1_10 
REMARK    7  A    between atoms: C9_9  and  C24_29 
REMARK    8  A    between atoms: N1_10  and  C10_12 
REMARK    9  A    between atoms: C10_12  and  C11_13 
REMARK   10  A    between atoms: C10_12  and  C18_20 
REMARK   11  A    between atoms: C11_13  and  C12_14 
REMARK       I    between atoms: C18_20  and  N2_22 
REMARK   12  A    between atoms: N2_22  and  C19_24 
REMARK   13  A    between atoms: C19_24  and  C20_25 
REMARK   14  A    between atoms: C24_29  and  C32_41 
REMARK   15  A    between atoms: C25_30  and  C26_31 
REMARK   16  A    between atoms: C26_31  and  O2_32 
REMARK   17  A    between atoms: C26_31  and  C27_34 
REMARK   18  A    between atoms: C27_34  and  C28_35 
ROOT
HETATM    1  C9  UNL     1     -10.402  14.469  30.342  1.00  0.00     0.111 C 
ENDROOT
BRANCH   1   2
HETATM    2  C8  UNL     1     -11.134  15.621  29.630  1.00  0.00     0.069 C 
BRANCH   2   3
HETATM    3  C7  UNL     1     -11.290  15.568  28.190  1.00  0.00    -0.008 C 
HETATM    4  C6  UNL     1     -10.675  16.681  27.386  1.00  0.00     0.065 C 
HETATM    5  C5  UNL     1     -10.367  16.029  26.081  1.00  0.00     0.088 C 
HETATM    6  N3  UNL     1     -10.114  14.612  26.449  1.00  0.00    -0.352 N 
HETATM    7  C38 UNL     1     -11.054  14.301  27.481  1.00  0.00     0.244 C 
ATOM      8  H3  UNL     1      -9.413  13.988  26.048  1.00  0.00     0.163 HD
HETATM    9  O5  UNL     1     -11.512  13.143  27.639  1.00  0.00    -0.268 OA
BRANCH   5  10
HETATM   10  C4  UNL     1      -9.231  16.502  25.272  1.00  0.00     0.025 C 
BRANCH  10  11
HETATM   11  C3  UNL     1      -8.639  15.575  24.282  1.00  0.00     0.002 C 
BRANCH  11  12
HETATM   12  C2  UNL     1      -9.383  15.245  23.048  1.00  0.00    -0.004 C 
HETATM   13  C1  UNL     1      -8.445  14.686  21.987  1.00  0.00     0.005 C 
ENDBRANCH  11  12
ENDBRANCH  10  11
ENDBRANCH   5  10
ENDBRANCH   2   3
ENDBRANCH   1   2
BRANCH   1  14
HETATM   14  N1  UNL     1     -11.308  13.679  30.984  1.00  0.00    -0.401 N 
ATOM     15  H1  UNL     1     -10.963  12.843  31.455  1.00  0.00     0.154 HD
BRANCH  14  16
HETATM   16  C10 UNL     1     -12.723  13.946  31.040  1.00  0.00     0.170 C 
BRANCH  16  17
HETATM   17  C11 UNL     1     -13.294  12.651  30.470  1.00  0.00     0.039 C 
BRANCH  17  18
HETATM   18  C12 UNL     1     -13.823  11.636  31.348  1.00  0.00    -0.012 C 
HETATM   19  C13 UNL     1     -15.251  11.209  31.120  1.00  0.00     0.005 C 
HETATM   20  C14 UNL     1     -15.666  10.229  32.168  1.00  0.00     0.000 C 
HETATM   21  C15 UNL     1     -14.619   9.179  32.446  1.00  0.00     0.000 C 
HETATM   22  C16 UNL     1     -13.704   9.129  31.244  1.00  0.00     0.000 C 
HETATM   23  C17 UNL     1     -12.912  10.405  31.225  1.00  0.00     0.005 C 
ENDBRANCH  17  18
ENDBRANCH  16  17
BRANCH  16  24
HETATM   24  C18 UNL     1     -13.204  13.998  32.453  1.00  0.00     0.240 C 
HETATM   25  O1  UNL     1     -14.164  14.737  32.676  1.00  0.00    -0.271 OA
HETATM   26  N2  UNL     1     -12.603  13.253  33.458  1.00  0.00    -0.359 N 
ATOM     27  H2  UNL     1     -11.828  12.669  33.144  1.00  0.00     0.162 HD
BRANCH  26  28
HETATM   28  C19 UNL     1     -12.881  13.160  34.852  1.00  0.00     0.131 C 
BRANCH  28  29
HETATM   29  C20 UNL     1     -13.006  11.860  35.510  1.00  0.00    -0.035 C 
HETATM   30  C21 UNL     1     -12.423  12.013  36.935  1.00  0.00     0.016 C 
HETATM   31  C22 UNL     1     -14.499  11.596  35.767  1.00  0.00     0.016 C 
HETATM   32  C23 UNL     1     -12.347  10.672  34.930  1.00  0.00     0.016 C 
ENDBRANCH  28  29
ENDBRANCH  26  28
ENDBRANCH  16  24
ENDBRANCH  14  16
ENDBRANCH   1  14
BRANCH   1  33
HETATM   33  C24 UNL     1      -9.211  15.083  30.990  1.00  0.00    -0.055 C 
HETATM   34  C25 UNL     1      -8.177  15.792  30.292  1.00  0.00     0.010 C 
BRANCH  34  35
HETATM   35  C26 UNL     1      -8.170  16.996  29.491  1.00  0.00     0.143 C 
BRANCH  35  36
HETATM   36  O2  UNL     1      -8.679  18.044  30.410  1.00  0.00    -0.392 OA
ATOM     37  H2  UNL     1      -9.100  18.671  29.834  1.00  0.00     0.210 HD
ENDBRANCH  35  36
BRANCH  35  38
HETATM   38  C27 UNL     1      -6.851  17.655  29.170  1.00  0.00     0.067 C 
BRANCH  38  39
HETATM   39  C28 UNL     1      -6.378  17.271  27.796  1.00  0.00     0.129 C 
HETATM   40  C29 UNL     1      -6.228  18.313  26.761  1.00  0.00     0.058 C 
HETATM   41  C30 UNL     1      -5.029  19.181  27.060  1.00  0.00     0.173 C 
HETATM   42  O3  UNL     1      -4.278  18.718  28.127  1.00  0.00    -0.367 OA
HETATM   43  C31 UNL     1      -4.065  17.366  28.111  1.00  0.00     0.338 C 
HETATM   44  O4  UNL     1      -5.151  16.571  27.869  1.00  0.00    -0.362 OA
ENDBRANCH  38  39
ENDBRANCH  35  38
ENDBRANCH  34  35
BRANCH  33  45
HETATM   45  C32 UNL     1      -9.425  15.509  32.441  1.00  0.00     0.016 C 
HETATM   46  C33 UNL     1      -8.481  16.643  32.819  1.00  0.00     0.009 C 
HETATM   47  C34 UNL     1      -8.666  16.936  34.294  1.00  0.00     0.001 C 
HETATM   48  C35 UNL     1      -9.861  16.229  34.892  1.00  0.00     0.000 C 
HETATM   49  C36 UNL     1      -9.721  14.728  34.798  1.00  0.00     0.001 C 
HETATM   50  C37 UNL     1      -9.104  14.437  33.450  1.00  0.00     0.009 C 
ENDBRANCH  33  45
ENDBRANCH   1  33
TORSDOF 18
ENDMDL
MODEL 5
REMARK VINA RESULT: -9.230871115      2.794      7.390
REMARK  18 active torsions:
REMARK  status: ('A' for Active; 'I' for Inactive)
REMARK    1  A    between atoms: C2_2  and  C3_3 
REMARK    2  A    between atoms: C3_3  and  C4_4 
REMARK    3  A    between atoms: C4_4  and  C5_5 
REMARK    4  A    between atoms: C7_7  and  C8_8 
REMARK    5  A    between atoms: C8_8  and  C9_9 
REMARK    6  A    between atoms: C9_9  and  N1_10 
REMARK    7  A    between atoms: C9_9  and  C24_29 
REMARK    8  A    between atoms: N1_10  and  C10_12 
REMARK    9  A    between atoms: C10_12  and  C11_13 
REMARK   10  A    between atoms: C10_12  and  C18_20 
REMARK   11  A    between atoms: C11_13  and  C12_14 
REMARK       I    between atoms: C18_20  and  N2_22 
REMARK   12  A    between atoms: N2_22  and  C19_24 
REMARK   13  A    between atoms: C19_24  and  C20_25 
REMARK   14  A    between atoms: C24_29  and  C32_41 
REMARK   15  A    between atoms: C25_30  and  C26_31 
REMARK   16  A    between atoms: C26_31  and  O2_32 
REMARK   17  A    between atoms: C26_31  and  C27_34 
REMARK   18  A    between atoms: C27_34  and  C28_35 
ROOT
HETATM    1  C9  UNL     1      -8.167  17.142  25.696  1.00  0.00     0.111 C 
ENDROOT
BRANCH   1   2
HETATM    2  C8  UNL     1      -8.241  17.874  27.048  1.00  0.00     0.069 C 
BRANCH   2   3
HETATM    3  C7  UNL     1      -8.698  17.144  28.214  1.00  0.00    -0.008 C 
HETATM    4  C6  UNL     1      -7.660  16.739  29.226  1.00  0.00     0.065 C 
HETATM    5  C5  UNL     1      -8.426  16.704  30.505  1.00  0.00     0.088 C 
HETATM    6  N3  UNL     1      -9.487  17.725  30.304  1.00  0.00    -0.352 N 
HETATM    7  C38 UNL     1      -9.892  17.606  28.938  1.00  0.00     0.244 C 
ATOM      8  H3  UNL     1      -9.852  18.376  30.999  1.00  0.00     0.163 HD
HETATM    9  O5  UNL     1     -11.061  17.868  28.564  1.00  0.00    -0.268 OA
BRANCH   5  10
HETATM   10  C4  UNL     1      -7.745  16.995  31.778  1.00  0.00     0.025 C 
BRANCH  10  11
HETATM   11  C3  UNL     1      -8.541  16.961  33.025  1.00  0.00     0.002 C 
BRANCH  11  12
HETATM   12  C2  UNL     1      -8.453  15.786  33.919  1.00  0.00    -0.004 C 
HETATM   13  C1  UNL     1      -8.821  16.168  35.346  1.00  0.00     0.005 C 
ENDBRANCH  11  12
ENDBRANCH  10  11
ENDBRANCH   5  10
ENDBRANCH   2   3
ENDBRANCH   1   2
BRANCH   1  14
HETATM   14  N1  UNL     1      -9.028  16.085  25.699  1.00  0.00    -0.401 N 
ATOM     15  H1  UNL     1      -8.634  15.150  25.802  1.00  0.00     0.154 HD
BRANCH  14  16
HETATM   16  C10 UNL     1     -10.458  16.202  25.566  1.00  0.00     0.170 C 
BRANCH  16  17
HETATM   17  C11 UNL     1     -10.656  15.781  24.112  1.00  0.00     0.039 C 
BRANCH  17  18
HETATM   18  C12 UNL     1      -9.524  15.647  23.228  1.00  0.00    -0.012 C 
HETATM   19  C13 UNL     1      -9.307  14.297  22.594  1.00  0.00     0.005 C 
HETATM   20  C14 UNL     1      -8.048  14.305  21.791  1.00  0.00     0.000 C 
HETATM   21  C15 UNL     1      -7.888  15.549  20.951  1.00  0.00     0.000 C 
HETATM   22  C16 UNL     1      -9.262  16.156  20.783  1.00  0.00     0.000 C 
HETATM   23  C17 UNL     1      -9.684  16.697  22.119  1.00  0.00     0.005 C 
ENDBRANCH  17  18
ENDBRANCH  16  17
BRANCH  16  24
HETATM   24  C18 UNL     1     -11.159  15.161  26.375  1.00  0.00     0.240 C 
HETATM   25  O1  UNL     1     -10.650  14.039  26.379  1.00  0.00    -0.271 OA
HETATM   26  N2  UNL     1     -12.317  15.443  27.087  1.00  0.00    -0.359 N 
ATOM     27  H2  UNL     1     -12.629  16.412  27.016  1.00  0.00     0.162 HD
BRANCH  26  28
HETATM   28  C19 UNL     1     -13.145  14.616  27.899  1.00  0.00     0.131 C 
BRANCH  28  29
HETATM   29  C20 UNL     1     -12.637  14.032  29.140  1.00  0.00    -0.035 C 
HETATM   30  C21 UNL     1     -13.779  14.114  30.182  1.00  0.00     0.016 C 
HETATM   31  C22 UNL     1     -12.469  12.519  28.921  1.00  0.00     0.016 C 
HETATM   32  C23 UNL     1     -11.448  14.611  29.798  1.00  0.00     0.016 C 
ENDBRANCH  28  29
ENDBRANCH  26  28
ENDBRANCH  16  24
ENDBRANCH  14  16
ENDBRANCH   1  14
BRANCH   1  33
HETATM   33  C24 UNL     1      -6.719  17.050  25.363  1.00  0.00    -0.055 C 
HETATM   34  C25 UNL     1      -6.185  17.061  24.032  1.00  0.00     0.010 C 
BRANCH  34  35
HETATM   35  C26 UNL     1      -6.210  18.037  22.964  1.00  0.00     0.143 C 
BRANCH  35  36
HETATM   36  O2  UNL     1      -6.167  19.343  23.667  1.00  0.00    -0.392 OA
ATOM     37  H2  UNL     1      -5.994  19.971  22.976  1.00  0.00     0.210 HD
ENDBRANCH  35  36
BRANCH  35  38
HETATM   38  C27 UNL     1      -4.972  18.236  22.125  1.00  0.00     0.067 C 
BRANCH  38  39
HETATM   39  C28 UNL     1      -3.780  18.542  22.989  1.00  0.00     0.129 C 
HETATM   40  C29 UNL     1      -2.731  17.519  23.170  1.00  0.00     0.058 C 
HETATM   41  C30 UNL     1      -1.924  17.365  21.904  1.00  0.00     0.173 C 
HETATM   42  O3  UNL     1      -2.247  18.303  20.938  1.00  0.00    -0.367 OA
HETATM   43  C31 UNL     1      -2.387  19.575  21.424  1.00  0.00     0.338 C 
HETATM   44  O4  UNL     1      -3.141  19.727  22.554  1.00  0.00    -0.362 OA
ENDBRANCH  38  39
ENDBRANCH  35  38
ENDBRANCH  34  35
BRANCH  33  45
HETATM   45  C32 UNL     1      -5.783  17.588  26.443  1.00  0.00     0.016 C 
HETATM   46  C33 UNL     1      -5.574  19.088  26.282  1.00  0.00     0.009 C 
HETATM   47  C34 UNL     1      -4.551  19.532  27.309  1.00  0.00     0.001 C 
HETATM   48  C35 UNL     1      -4.230  18.461  28.325  1.00  0.00     0.000 C 
HETATM   49  C36 UNL     1      -3.633  17.237  27.671  1.00  0.00     0.001 C 
HETATM   50  C37 UNL     1      -4.384  17.031  26.377  1.00  0.00     0.009 C 
ENDBRANCH  33  45
ENDBRANCH   1  33
TORSDOF 18
ENDMDL
