MODEL 1
REMARK VINA RESULT: -6.361608504      0.000      0.000
REMARK  4 active torsions:
REMARK  status: ('A' for Active; 'I' for Inactive)
REMARK    1  A    between atoms: C9_11  and  S1_12 
REMARK    2  A    between atoms: S1_12  and  S2_13 
REMARK    3  A    between atoms: S2_13  and  C10_14 
REMARK    4  A    between atoms: N2_16  and  O3_18 
ROOT
HETATM    1  C1  UNL     1      24.857   1.392  16.644  1.00  0.00     0.052 C 
HETATM    2  C2  UNL     1      24.696   2.450  17.629  1.00  0.00     0.114 A 
HETATM    3  O1  UNL     1      25.685   3.414  17.692  1.00  0.00    -0.342 OA
HETATM    4  C3  UNL     1      25.936   2.465  18.765  1.00  0.00     0.296 A 
HETATM    5  O2  UNL     1      25.238   2.800  19.952  1.00  0.00    -0.352 OA
HETATM    6  C4  UNL     1      24.666   2.027  20.935  1.00  0.00     0.139 C 
HETATM    7  C5  UNL     1      24.691   0.554  20.551  1.00  0.00     0.034 C 
HETATM    8  C6  UNL     1      24.046   0.668  19.187  1.00  0.00     0.010 C 
HETATM    9  C7  UNL     1      23.947   2.229  18.943  1.00  0.00     0.026 C 
HETATM   10  C8  UNL     1      23.144   2.987  19.563  1.00  0.00     0.026 C 
HETATM   11  C9  UNL     1      22.987   2.188  20.879  1.00  0.00     0.088 C 
ENDROOT
BRANCH  11  12
HETATM   12  S1  UNL     1      22.073   0.811  20.789  1.00  0.00    -0.082 SA
BRANCH  12  13
HETATM   13  S2  UNL     1      20.202   0.938  21.738  1.00  0.00    -0.022 SA
BRANCH  13  14
HETATM   14  C10 UNL     1      19.001   1.534  20.573  1.00  0.00     0.184 C 
HETATM   15  N1  UNL     1      17.608   1.549  20.894  1.00  0.00    -0.072 NA
HETATM   16  N2  UNL     1      19.406   1.956  19.462  1.00  0.00    -0.249 N 
ATOM     17  H2  UNL     1      20.411   1.933  19.293  1.00  0.00     0.196 HD
BRANCH  16  18
HETATM   18  O3  UNL     1      18.634   2.431  18.483  1.00  0.00    -0.288 OA
ATOM     19  H3  UNL     1      18.507   2.028  17.633  1.00  0.00     0.244 HD
ENDBRANCH  16  18
ENDBRANCH  13  14
ENDBRANCH  12  13
ENDBRANCH  11  12
TORSDOF 4
ENDMDL
MODEL 2
REMARK VINA RESULT: -6.231686423      1.586      2.348
REMARK  4 active torsions:
REMARK  status: ('A' for Active; 'I' for Inactive)
REMARK    1  A    between atoms: C9_11  and  S1_12 
REMARK    2  A    between atoms: S1_12  and  S2_13 
REMARK    3  A    between atoms: S2_13  and  C10_14 
REMARK    4  A    between atoms: N2_16  and  O3_18 
ROOT
HETATM    1  C1  UNL     1      24.395   5.800  19.271  1.00  0.00     0.052 C 
HETATM    2  C2  UNL     1      25.237   4.880  20.019  1.00  0.00     0.114 A 
HETATM    3  O1  UNL     1      26.586   5.172  20.092  1.00  0.00    -0.342 OA
HETATM    4  C3  UNL     1      26.416   4.162  19.058  1.00  0.00     0.296 A 
HETATM    5  O2  UNL     1      26.456   2.846  19.582  1.00  0.00    -0.352 OA
HETATM    6  C4  UNL     1      25.799   1.692  19.225  1.00  0.00     0.139 C 
HETATM    7  C5  UNL     1      24.744   1.974  18.165  1.00  0.00     0.034 C 
HETATM    8  C6  UNL     1      24.009   3.091  18.871  1.00  0.00     0.010 C 
HETATM    9  C7  UNL     1      24.906   3.393  20.140  1.00  0.00     0.026 C 
HETATM   10  C8  UNL     1      25.004   2.613  21.133  1.00  0.00     0.026 C 
HETATM   11  C9  UNL     1      24.708   1.261  20.439  1.00  0.00     0.088 C 
ENDROOT
BRANCH  11  12
HETATM   12  S1  UNL     1      23.132   0.992  20.013  1.00  0.00    -0.082 SA
BRANCH  12  13
HETATM   13  S2  UNL     1      21.721   1.577  21.458  1.00  0.00    -0.022 SA
BRANCH  13  14
HETATM   14  C10 UNL     1      20.107   1.597  20.717  1.00  0.00     0.184 C 
HETATM   15  N1  UNL     1      19.002   0.943  21.343  1.00  0.00    -0.072 NA
HETATM   16  N2  UNL     1      19.955   2.213  19.633  1.00  0.00    -0.249 N 
ATOM     17  H2  UNL     1      20.776   2.672  19.239  1.00  0.00     0.196 HD
BRANCH  16  18
HETATM   18  O3  UNL     1      18.813   2.319  18.954  1.00  0.00    -0.288 OA
ATOM     19  H3  UNL     1      18.346   3.127  18.778  1.00  0.00     0.244 HD
ENDBRANCH  16  18
ENDBRANCH  13  14
ENDBRANCH  12  13
ENDBRANCH  11  12
TORSDOF 4
ENDMDL
MODEL 3
REMARK VINA RESULT: -6.212773413      1.325      1.831
REMARK  4 active torsions:
REMARK  status: ('A' for Active; 'I' for Inactive)
REMARK    1  A    between atoms: C9_11  and  S1_12 
REMARK    2  A    between atoms: S1_12  and  S2_13 
REMARK    3  A    between atoms: S2_13  and  C10_14 
REMARK    4  A    between atoms: N2_16  and  O3_18 
ROOT
HETATM    1  C1  UNL     1      25.407   5.003  17.653  1.00  0.00     0.052 C 
HETATM    2  C2  UNL     1      25.984   4.248  18.753  1.00  0.00     0.114 A 
HETATM    3  O1  UNL     1      27.246   3.717  18.564  1.00  0.00    -0.342 OA
HETATM    4  C3  UNL     1      26.288   2.645  18.343  1.00  0.00     0.296 A 
HETATM    5  O2  UNL     1      25.952   1.970  19.543  1.00  0.00    -0.352 OA
HETATM    6  C4  UNL     1      24.784   1.390  19.978  1.00  0.00     0.139 C 
HETATM    7  C5  UNL     1      23.640   1.685  19.017  1.00  0.00     0.034 C 
HETATM    8  C6  UNL     1      23.778   3.191  18.961  1.00  0.00     0.010 C 
HETATM    9  C7  UNL     1      25.120   3.478  19.751  1.00  0.00     0.026 C 
HETATM   10  C8  UNL     1      25.236   3.354  21.006  1.00  0.00     0.026 C 
HETATM   11  C9  UNL     1      24.155   2.277  21.267  1.00  0.00     0.088 C 
ENDROOT
BRANCH  11  12
HETATM   12  S1  UNL     1      22.583   2.787  21.172  1.00  0.00    -0.082 SA
BRANCH  12  13
HETATM   13  S2  UNL     1      21.159   1.345  21.731  1.00  0.00    -0.022 SA
BRANCH  13  14
HETATM   14  C10 UNL     1      19.697   1.562  20.746  1.00  0.00     0.184 C 
HETATM   15  N1  UNL     1      18.423   1.110  21.208  1.00  0.00    -0.072 NA
HETATM   16  N2  UNL     1      19.806   2.136  19.634  1.00  0.00    -0.249 N 
ATOM     17  H2  UNL     1      20.738   2.449  19.361  1.00  0.00     0.196 HD
BRANCH  16  18
HETATM   18  O3  UNL     1      18.809   2.372  18.780  1.00  0.00    -0.288 OA
ATOM     19  H3  UNL     1      18.715   1.983  17.919  1.00  0.00     0.244 HD
ENDBRANCH  16  18
ENDBRANCH  13  14
ENDBRANCH  12  13
ENDBRANCH  11  12
TORSDOF 4
ENDMDL
MODEL 4
REMARK VINA RESULT: -6.176143377      1.661      2.067
REMARK  4 active torsions:
REMARK  status: ('A' for Active; 'I' for Inactive)
REMARK    1  A    between atoms: C9_11  and  S1_12 
REMARK    2  A    between atoms: S1_12  and  S2_13 
REMARK    3  A    between atoms: S2_13  and  C10_14 
REMARK    4  A    between atoms: N2_16  and  O3_18 
ROOT
HETATM    1  C1  UNL     1      26.212   2.552  17.802  1.00  0.00     0.052 C 
HETATM    2  C2  UNL     1      25.093   3.480  17.780  1.00  0.00     0.114 A 
HETATM    3  O1  UNL     1      25.249   4.645  17.051  1.00  0.00    -0.342 OA
HETATM    4  C3  UNL     1      25.482   4.973  18.449  1.00  0.00     0.296 A 
HETATM    5  O2  UNL     1      24.284   5.308  19.129  1.00  0.00    -0.352 OA
HETATM    6  C4  UNL     1      23.871   5.101  20.423  1.00  0.00     0.139 C 
HETATM    7  C5  UNL     1      24.859   4.220  21.175  1.00  0.00     0.034 C 
HETATM    8  C6  UNL     1      24.925   3.070  20.194  1.00  0.00     0.010 C 
HETATM    9  C7  UNL     1      24.108   3.592  18.943  1.00  0.00     0.026 C 
HETATM   10  C8  UNL     1      22.849   3.736  18.936  1.00  0.00     0.026 C 
HETATM   11  C9  UNL     1      22.603   3.987  20.443  1.00  0.00     0.088 C 
ENDROOT
BRANCH  11  12
HETATM   12  S1  UNL     1      22.738   2.668  21.433  1.00  0.00    -0.082 SA
BRANCH  12  13
HETATM   13  S2  UNL     1      21.700   0.964  20.768  1.00  0.00    -0.022 SA
BRANCH  13  14
HETATM   14  C10 UNL     1      19.983   1.372  20.573  1.00  0.00     0.184 C 
HETATM   15  N1  UNL     1      19.009   0.933  21.522  1.00  0.00    -0.072 NA
HETATM   16  N2  UNL     1      19.643   2.070  19.585  1.00  0.00    -0.249 N 
ATOM     17  H2  UNL     1      20.382   2.365  18.948  1.00  0.00     0.196 HD
BRANCH  16  18
HETATM   18  O3  UNL     1      18.399   2.457  19.299  1.00  0.00    -0.288 OA
ATOM     19  H3  UNL     1      18.048   2.587  18.426  1.00  0.00     0.244 HD
ENDBRANCH  16  18
ENDBRANCH  13  14
ENDBRANCH  12  13
ENDBRANCH  11  12
TORSDOF 4
ENDMDL
MODEL 5
REMARK VINA RESULT: -6.149285327      6.100      7.578
REMARK  4 active torsions:
REMARK  status: ('A' for Active; 'I' for Inactive)
REMARK    1  A    between atoms: C9_11  and  S1_12 
REMARK    2  A    between atoms: S1_12  and  S2_13 
REMARK    3  A    between atoms: S2_13  and  C10_14 
REMARK    4  A    between atoms: N2_16  and  O3_18 
ROOT
HETATM    1  C1  UNL     1      23.922   8.427  12.556  1.00  0.00     0.052 C 
HETATM    2  C2  UNL     1      23.710   8.420  13.995  1.00  0.00     0.114 A 
HETATM    3  O1  UNL     1      23.437   9.632  14.601  1.00  0.00    -0.342 OA
HETATM    4  C3  UNL     1      24.848   9.348  14.816  1.00  0.00     0.296 A 
HETATM    5  O2  UNL     1      25.068   8.573  15.982  1.00  0.00    -0.352 OA
HETATM    6  C4  UNL     1      25.992   7.601  16.281  1.00  0.00     0.139 C 
HETATM    7  C5  UNL     1      26.808   7.230  15.051  1.00  0.00     0.034 C 
HETATM    8  C6  UNL     1      25.665   6.939  14.104  1.00  0.00     0.010 C 
HETATM    9  C7  UNL     1      24.380   7.395  14.909  1.00  0.00     0.026 C 
HETATM   10  C8  UNL     1      23.921   6.771  15.911  1.00  0.00     0.026 C 
HETATM   11  C9  UNL     1      25.220   6.108  16.429  1.00  0.00     0.088 C 
ENDROOT
BRANCH  11  12
HETATM   12  S1  UNL     1      25.796   4.839  15.536  1.00  0.00    -0.082 SA
BRANCH  12  13
HETATM   13  S2  UNL     1      26.493   3.214  16.673  1.00  0.00    -0.022 SA
BRANCH  13  14
HETATM   14  C10 UNL     1      25.590   1.755  16.213  1.00  0.00     0.184 C 
HETATM   15  N1  UNL     1      24.544   1.245  17.042  1.00  0.00    -0.072 NA
HETATM   16  N2  UNL     1      25.884   1.187  15.132  1.00  0.00    -0.249 N 
ATOM     17  H2  UNL     1      26.631   1.602  14.576  1.00  0.00     0.196 HD
BRANCH  16  18
HETATM   18  O3  UNL     1      25.303   0.087  14.650  1.00  0.00    -0.288 OA
ATOM     19  H3  UNL     1      25.678  -0.498  14.003  1.00  0.00     0.244 HD
ENDBRANCH  16  18
ENDBRANCH  13  14
ENDBRANCH  12  13
ENDBRANCH  11  12
TORSDOF 4
ENDMDL
