MODEL 1
REMARK VINA RESULT: -6.736812668      0.000      0.000
REMARK  20 active torsions:
REMARK  status: ('A' for Active; 'I' for Inactive)
REMARK       I    between atoms: N1_2  and  C2_4 
REMARK    1  A    between atoms: C2_4  and  C3_6 
REMARK    2  A    between atoms: C3_6  and  C6_9 
REMARK    3  A    between atoms: C6_9  and  N2_10 
REMARK    4  A    between atoms: C6_9  and  C7_14 
REMARK       I    between atoms: C7_14  and  N3_16 
REMARK    5  A    between atoms: N3_16  and  C9_18 
REMARK    6  A    between atoms: C9_18  and  C10_19 
REMARK    7  A    between atoms: C10_19  and  C11_20 
REMARK    8  A    between atoms: C10_19  and  C18_30 
REMARK    9  A    between atoms: C11_20  and  C12_21 
REMARK   10  A    between atoms: C12_21  and  C13_22 
REMARK   11  A    between atoms: C18_30  and  C19_31 
REMARK   12  A    between atoms: C18_30  and  N5_38 
REMARK   13  A    between atoms: C19_31  and  C20_32 
REMARK       I    between atoms: N5_38  and  C26_40 
REMARK   14  A    between atoms: C26_40  and  C27_42 
REMARK   15  A    between atoms: C27_42  and  C28_43 
REMARK       I    between atoms: C28_43  and  N6_45 
REMARK   16  A    between atoms: N6_45  and  C29_47 
REMARK   17  A    between atoms: C29_47  and  C30_48 
REMARK   18  A    between atoms: C30_48  and  C31_49 
REMARK   19  A    between atoms: C31_49  and  C32_50 
REMARK   20  A    between atoms: C32_50  and  N7_51 
ROOT
HETATM    1  C18 UNL     1      32.059  29.085  20.242  1.00  0.00     0.035 C 
ENDROOT
BRANCH   1   2
HETATM    2  C10 UNL     1      31.322  30.173  19.667  1.00  0.00    -0.036 C 
BRANCH   2   3
HETATM    3  C9  UNL     1      29.928  30.530  19.853  1.00  0.00     0.161 C 
BRANCH   3   4
HETATM    4  N3  UNL     1      28.980  30.336  18.761  1.00  0.00    -0.351 N 
HETATM    5  C7  UNL     1      27.592  30.279  18.929  1.00  0.00     0.251 C 
HETATM    6  O2  UNL     1      27.157  30.486  20.121  1.00  0.00    -0.271 OA
HETATM    7  C8  UNL     1      29.546  30.177  17.413  1.00  0.00     0.153 C 
BRANCH   5   8
HETATM    8  C6  UNL     1      26.566  30.013  17.942  1.00  0.00     0.291 C 
BRANCH   8   9
HETATM    9  C3  UNL     1      25.933  28.627  18.052  1.00  0.00     0.070 C 
HETATM   10  C4  UNL     1      25.104  28.305  16.826  1.00  0.00     0.028 C 
HETATM   11  C5  UNL     1      27.078  27.620  18.096  1.00  0.00     0.028 C 
BRANCH   9  12
HETATM   12  C2  UNL     1      25.095  28.464  19.241  1.00  0.00     0.227 C 
HETATM   13  N1  UNL     1      25.594  27.848  20.432  1.00  0.00    -0.365 N 
HETATM   14  C1  UNL     1      24.790  27.677  21.600  1.00  0.00     0.149 C 
ATOM     15  H1  UNL     1      26.560  27.520  20.448  1.00  0.00     0.161 HD
HETATM   16  O1  UNL     1      23.906  28.858  19.252  1.00  0.00    -0.273 OA
ENDBRANCH   9  12
ENDBRANCH   8   9
BRANCH   8  17
HETATM   17  N2  UNL     1      25.513  30.978  17.951  1.00  0.00    -0.065 N 
ATOM     18  H23 UNL     1      24.593  30.561  17.807  1.00  0.00     0.275 HD
ATOM     19  H22 UNL     1      25.341  31.367  18.879  1.00  0.00     0.275 HD
ATOM     20  H21 UNL     1      25.736  31.693  17.258  1.00  0.00     0.275 HD
ENDBRANCH   8  17
ENDBRANCH   5   8
ENDBRANCH   3   4
ENDBRANCH   2   3
BRANCH   2  21
HETATM   21  C11 UNL     1      32.153  31.465  19.454  1.00  0.00     0.038 C 
BRANCH  21  22
HETATM   22  C12 UNL     1      33.508  31.126  18.812  1.00  0.00     0.009 C 
BRANCH  22  23
HETATM   23  C13 UNL     1      33.267  30.723  17.365  1.00  0.00    -0.011 C 
HETATM   24  C14 UNL     1      32.696  31.846  16.539  1.00  0.00     0.032 C 
HETATM   25  C15 UNL     1      32.914  31.473  15.082  1.00  0.00     0.232 C 
HETATM   26  N4  UNL     1      34.322  31.561  14.747  1.00  0.00    -0.075 N 
HETATM   27  C16 UNL     1      35.165  31.346  15.901  1.00  0.00     0.232 C 
ATOM     28  H42 UNL     1      34.563  30.925  13.987  1.00  0.00     0.277 HD
ATOM     29  H41 UNL     1      34.540  32.446  14.288  1.00  0.00     0.277 HD
HETATM   30  C17 UNL     1      34.579  30.253  16.802  1.00  0.00     0.032 C 
ENDBRANCH  22  23
ENDBRANCH  21  22
ENDBRANCH   2  21
ENDBRANCH   1   2
BRANCH   1  31
HETATM   31  C19 UNL     1      32.705  28.925  21.527  1.00  0.00     0.008 C 
BRANCH  31  32
HETATM   32  C20 UNL     1      34.077  28.388  21.680  1.00  0.00     0.010 C 
HETATM   33  C21 UNL     1      35.154  29.378  21.745  1.00  0.00     0.008 C 
HETATM   34  C22 UNL     1      36.129  29.117  22.895  1.00  0.00     0.001 C 
HETATM   35  C23 UNL     1      36.590  27.678  22.816  1.00  0.00     0.000 C 
HETATM   36  C24 UNL     1      35.418  26.797  23.074  1.00  0.00     0.001 C 
HETATM   37  C25 UNL     1      34.090  27.428  22.881  1.00  0.00     0.008 C 
ENDBRANCH  31  32
ENDBRANCH   1  31
BRANCH   1  38
HETATM   38  N5  UNL     1      31.457  27.763  19.841  1.00  0.00    -0.324 N 
HETATM   39  C26 UNL     1      32.046  26.925  18.892  1.00  0.00     0.266 C 
HETATM   40  O3  UNL     1      33.145  27.361  18.382  1.00  0.00    -0.269 OA
ATOM     41  H5  UNL     1      30.584  27.470  20.279  1.00  0.00     0.169 HD
BRANCH  39  42
HETATM   42  C27 UNL     1      31.589  25.617  18.396  1.00  0.00     0.222 C 
HETATM   43  C33 UNL     1      30.305  25.249  19.055  1.00  0.00     0.058 C 
HETATM   44  C34 UNL     1      29.544  24.170  18.309  1.00  0.00     0.006 C 
HETATM   45  C35 UNL     1      29.242  24.713  16.935  1.00  0.00     0.026 C 
HETATM   46  C36 UNL     1      30.203  25.791  16.523  1.00  0.00     0.170 C 
HETATM   47  O5  UNL     1      31.475  25.648  16.994  1.00  0.00    -0.361 OA
BRANCH  42  48
HETATM   48  C28 UNL     1      32.613  24.603  18.688  1.00  0.00     0.262 C 
HETATM   49  O4  UNL     1      32.815  23.653  17.897  1.00  0.00    -0.270 OA
HETATM   50  N6  UNL     1      33.392  24.662  19.858  1.00  0.00    -0.358 N 
ATOM     51  H6  UNL     1      33.234  25.422  20.520  1.00  0.00     0.162 HD
BRANCH  50  52
HETATM   52  C29 UNL     1      34.428  23.658  20.155  1.00  0.00     0.122 C 
BRANCH  52  53
HETATM   53  C30 UNL     1      35.742  24.389  20.324  1.00  0.00     0.021 C 
BRANCH  53  54
HETATM   54  C31 UNL     1      36.796  23.580  20.990  1.00  0.00     0.029 C 
BRANCH  54  55
HETATM   55  C32 UNL     1      37.659  22.860  19.995  1.00  0.00     0.229 C 
BRANCH  55  56
HETATM   56  N7  UNL     1      38.954  22.513  20.579  1.00  0.00    -0.079 N 
ATOM     57  H73 UNL     1      39.367  23.303  21.073  1.00  0.00     0.274 HD
ATOM     58  H72 UNL     1      38.852  21.873  21.366  1.00  0.00     0.274 HD
ATOM     59  H71 UNL     1      39.586  22.140  19.870  1.00  0.00     0.274 HD
ENDBRANCH  55  56
ENDBRANCH  54  55
ENDBRANCH  53  54
ENDBRANCH  52  53
ENDBRANCH  50  52
ENDBRANCH  42  48
ENDBRANCH  39  42
ENDBRANCH   1  38
TORSDOF 20
ENDMDL
MODEL 2
REMARK VINA RESULT: -6.598901963      4.051      7.776
REMARK  20 active torsions:
REMARK  status: ('A' for Active; 'I' for Inactive)
REMARK       I    between atoms: N1_2  and  C2_4 
REMARK    1  A    between atoms: C2_4  and  C3_6 
REMARK    2  A    between atoms: C3_6  and  C6_9 
REMARK    3  A    between atoms: C6_9  and  N2_10 
REMARK    4  A    between atoms: C6_9  and  C7_14 
REMARK       I    between atoms: C7_14  and  N3_16 
REMARK    5  A    between atoms: N3_16  and  C9_18 
REMARK    6  A    between atoms: C9_18  and  C10_19 
REMARK    7  A    between atoms: C10_19  and  C11_20 
REMARK    8  A    between atoms: C10_19  and  C18_30 
REMARK    9  A    between atoms: C11_20  and  C12_21 
REMARK   10  A    between atoms: C12_21  and  C13_22 
REMARK   11  A    between atoms: C18_30  and  C19_31 
REMARK   12  A    between atoms: C18_30  and  N5_38 
REMARK   13  A    between atoms: C19_31  and  C20_32 
REMARK       I    between atoms: N5_38  and  C26_40 
REMARK   14  A    between atoms: C26_40  and  C27_42 
REMARK   15  A    between atoms: C27_42  and  C28_43 
REMARK       I    between atoms: C28_43  and  N6_45 
REMARK   16  A    between atoms: N6_45  and  C29_47 
REMARK   17  A    between atoms: C29_47  and  C30_48 
REMARK   18  A    between atoms: C30_48  and  C31_49 
REMARK   19  A    between atoms: C31_49  and  C32_50 
REMARK   20  A    between atoms: C32_50  and  N7_51 
ROOT
HETATM    1  C18 UNL     1      33.424  26.744  18.288  1.00  0.00     0.035 C 
ENDROOT
BRANCH   1   2
HETATM    2  C10 UNL     1      33.389  26.217  16.954  1.00  0.00    -0.036 C 
BRANCH   2   3
HETATM    3  C9  UNL     1      32.446  25.283  16.366  1.00  0.00     0.161 C 
BRANCH   3   4
HETATM    4  N3  UNL     1      32.868  23.917  16.075  1.00  0.00    -0.351 N 
HETATM    5  C7  UNL     1      33.051  22.930  17.051  1.00  0.00     0.251 C 
HETATM    6  O2  UNL     1      32.751  23.261  18.256  1.00  0.00    -0.271 OA
HETATM    7  C8  UNL     1      33.125  23.588  14.665  1.00  0.00     0.153 C 
BRANCH   5   8
HETATM    8  C6  UNL     1      33.539  21.575  16.893  1.00  0.00     0.291 C 
BRANCH   8   9
HETATM    9  C3  UNL     1      35.028  21.406  17.192  1.00  0.00     0.070 C 
HETATM   10  C4  UNL     1      35.753  22.734  17.128  1.00  0.00     0.028 C 
HETATM   11  C5  UNL     1      35.136  20.905  18.628  1.00  0.00     0.028 C 
BRANCH   9  12
HETATM   12  C2  UNL     1      35.697  20.462  16.295  1.00  0.00     0.227 C 
HETATM   13  N1  UNL     1      35.314  20.332  14.922  1.00  0.00    -0.365 N 
HETATM   14  C1  UNL     1      35.952  19.414  14.033  1.00  0.00     0.149 C 
ATOM     15  H1  UNL     1      34.557  20.917  14.565  1.00  0.00     0.161 HD
HETATM   16  O1  UNL     1      36.629  19.731  16.704  1.00  0.00    -0.273 OA
ENDBRANCH   9  12
ENDBRANCH   8   9
BRANCH   8  17
HETATM   17  N2  UNL     1      32.822  20.624  17.682  1.00  0.00    -0.065 N 
ATOM     18  H23 UNL     1      31.866  20.481  17.357  1.00  0.00     0.275 HD
ATOM     19  H22 UNL     1      33.154  19.668  17.547  1.00  0.00     0.275 HD
ATOM     20  H21 UNL     1      32.869  20.925  18.655  1.00  0.00     0.275 HD
ENDBRANCH   8  17
ENDBRANCH   5   8
ENDBRANCH   3   4
ENDBRANCH   2   3
BRANCH   2  21
HETATM   21  C11 UNL     1      33.869  27.209  15.863  1.00  0.00     0.038 C 
BRANCH  21  22
HETATM   22  C12 UNL     1      35.405  27.226  15.798  1.00  0.00     0.009 C 
BRANCH  22  23
HETATM   23  C13 UNL     1      35.851  28.610  15.350  1.00  0.00    -0.011 C 
HETATM   24  C14 UNL     1      34.764  29.642  15.489  1.00  0.00     0.032 C 
HETATM   25  C15 UNL     1      35.441  31.001  15.437  1.00  0.00     0.232 C 
HETATM   26  N4  UNL     1      36.205  31.228  16.649  1.00  0.00    -0.075 N 
HETATM   27  C16 UNL     1      36.646  29.988  17.247  1.00  0.00     0.232 C 
ATOM     28  H42 UNL     1      36.989  31.858  16.482  1.00  0.00     0.277 HD
ATOM     29  H41 UNL     1      35.683  31.797  17.316  1.00  0.00     0.277 HD
HETATM   30  C17 UNL     1      37.057  28.983  16.166  1.00  0.00     0.032 C 
ENDBRANCH  22  23
ENDBRANCH  21  22
ENDBRANCH   2  21
ENDBRANCH   1   2
BRANCH   1  31
HETATM   31  C19 UNL     1      32.433  27.439  19.081  1.00  0.00     0.008 C 
BRANCH  31  32
HETATM   32  C20 UNL     1      32.112  28.873  18.896  1.00  0.00     0.010 C 
HETATM   33  C21 UNL     1      31.086  29.425  19.784  1.00  0.00     0.008 C 
HETATM   34  C22 UNL     1      31.504  30.752  20.420  1.00  0.00     0.001 C 
HETATM   35  C23 UNL     1      31.964  31.686  19.321  1.00  0.00     0.000 C 
HETATM   36  C24 UNL     1      33.202  31.120  18.716  1.00  0.00     0.001 C 
HETATM   37  C25 UNL     1      33.424  29.674  18.950  1.00  0.00     0.008 C 
ENDBRANCH  31  32
ENDBRANCH   1  31
BRANCH   1  38
HETATM   38  N5  UNL     1      34.217  25.840  19.197  1.00  0.00    -0.324 N 
HETATM   39  C26 UNL     1      35.509  26.150  19.626  1.00  0.00     0.266 C 
HETATM   40  O3  UNL     1      35.979  27.268  19.190  1.00  0.00    -0.269 OA
ATOM     41  H5  UNL     1      33.793  24.967  19.510  1.00  0.00     0.169 HD
BRANCH  39  42
HETATM   42  C27 UNL     1      36.406  25.383  20.504  1.00  0.00     0.222 C 
HETATM   43  C33 UNL     1      35.864  24.010  20.702  1.00  0.00     0.058 C 
HETATM   44  C34 UNL     1      36.905  23.028  21.205  1.00  0.00     0.006 C 
HETATM   45  C35 UNL     1      37.995  22.970  20.165  1.00  0.00     0.026 C 
HETATM   46  C36 UNL     1      38.050  24.214  19.324  1.00  0.00     0.170 C 
HETATM   47  O5  UNL     1      37.707  25.367  19.966  1.00  0.00    -0.361 OA
BRANCH  42  48
HETATM   48  C28 UNL     1      36.521  26.070  21.799  1.00  0.00     0.262 C 
HETATM   49  O4  UNL     1      36.187  25.493  22.860  1.00  0.00    -0.270 OA
HETATM   50  N6  UNL     1      37.002  27.389  21.890  1.00  0.00    -0.358 N 
ATOM     51  H6  UNL     1      37.268  27.879  21.036  1.00  0.00     0.162 HD
BRANCH  50  52
HETATM   52  C29 UNL     1      37.132  28.082  23.183  1.00  0.00     0.122 C 
BRANCH  52  53
HETATM   53  C30 UNL     1      36.121  29.206  23.206  1.00  0.00     0.021 C 
BRANCH  53  54
HETATM   54  C31 UNL     1      35.111  29.127  22.119  1.00  0.00     0.029 C 
BRANCH  54  55
HETATM   55  C32 UNL     1      33.758  28.740  22.641  1.00  0.00     0.229 C 
BRANCH  55  56
HETATM   56  N7  UNL     1      33.533  27.303  22.498  1.00  0.00    -0.079 N 
ATOM     57  H73 UNL     1      33.047  27.083  21.629  1.00  0.00     0.274 HD
ATOM     58  H72 UNL     1      34.403  26.802  22.321  1.00  0.00     0.274 HD
ATOM     59  H71 UNL     1      33.041  26.928  23.309  1.00  0.00     0.274 HD
ENDBRANCH  55  56
ENDBRANCH  54  55
ENDBRANCH  53  54
ENDBRANCH  52  53
ENDBRANCH  50  52
ENDBRANCH  42  48
ENDBRANCH  39  42
ENDBRANCH   1  38
TORSDOF 20
ENDMDL
MODEL 3
REMARK VINA RESULT: -6.473163692      2.822      4.968
REMARK  20 active torsions:
REMARK  status: ('A' for Active; 'I' for Inactive)
REMARK       I    between atoms: N1_2  and  C2_4 
REMARK    1  A    between atoms: C2_4  and  C3_6 
REMARK    2  A    between atoms: C3_6  and  C6_9 
REMARK    3  A    between atoms: C6_9  and  N2_10 
REMARK    4  A    between atoms: C6_9  and  C7_14 
REMARK       I    between atoms: C7_14  and  N3_16 
REMARK    5  A    between atoms: N3_16  and  C9_18 
REMARK    6  A    between atoms: C9_18  and  C10_19 
REMARK    7  A    between atoms: C10_19  and  C11_20 
REMARK    8  A    between atoms: C10_19  and  C18_30 
REMARK    9  A    between atoms: C11_20  and  C12_21 
REMARK   10  A    between atoms: C12_21  and  C13_22 
REMARK   11  A    between atoms: C18_30  and  C19_31 
REMARK   12  A    between atoms: C18_30  and  N5_38 
REMARK   13  A    between atoms: C19_31  and  C20_32 
REMARK       I    between atoms: N5_38  and  C26_40 
REMARK   14  A    between atoms: C26_40  and  C27_42 
REMARK   15  A    between atoms: C27_42  and  C28_43 
REMARK       I    between atoms: C28_43  and  N6_45 
REMARK   16  A    between atoms: N6_45  and  C29_47 
REMARK   17  A    between atoms: C29_47  and  C30_48 
REMARK   18  A    between atoms: C30_48  and  C31_49 
REMARK   19  A    between atoms: C31_49  and  C32_50 
REMARK   20  A    between atoms: C32_50  and  N7_51 
ROOT
HETATM    1  C18 UNL     1      32.564  26.963  18.708  1.00  0.00     0.035 C 
ENDROOT
BRANCH   1   2
HETATM    2  C10 UNL     1      32.463  26.680  17.305  1.00  0.00    -0.036 C 
BRANCH   2   3
HETATM    3  C9  UNL     1      31.415  25.976  16.589  1.00  0.00     0.161 C 
BRANCH   3   4
HETATM    4  N3  UNL     1      30.018  26.221  16.928  1.00  0.00    -0.351 N 
HETATM    5  C7  UNL     1      29.271  25.418  17.797  1.00  0.00     0.251 C 
HETATM    6  O2  UNL     1      29.906  24.458  18.369  1.00  0.00    -0.271 OA
HETATM    7  C8  UNL     1      29.375  27.381  16.292  1.00  0.00     0.153 C 
BRANCH   5   8
HETATM    8  C6  UNL     1      27.868  25.515  18.145  1.00  0.00     0.291 C 
BRANCH   8   9
HETATM    9  C3  UNL     1      26.985  24.452  17.493  1.00  0.00     0.070 C 
HETATM   10  C4  UNL     1      25.622  25.012  17.143  1.00  0.00     0.028 C 
HETATM   11  C5  UNL     1      27.659  24.061  16.182  1.00  0.00     0.028 C 
BRANCH   9  12
HETATM   12  C2  UNL     1      26.803  23.260  18.323  1.00  0.00     0.227 C 
HETATM   13  N1  UNL     1      27.739  22.178  18.296  1.00  0.00    -0.365 N 
HETATM   14  C1  UNL     1      27.576  21.005  19.095  1.00  0.00     0.149 C 
ATOM     15  H1  UNL     1      28.552  22.246  17.684  1.00  0.00     0.161 HD
HETATM   16  O1  UNL     1      25.815  23.147  19.085  1.00  0.00    -0.273 OA
ENDBRANCH   9  12
ENDBRANCH   8   9
BRANCH   8  17
HETATM   17  N2  UNL     1      27.633  25.477  19.554  1.00  0.00    -0.065 N 
ATOM     18  H23 UNL     1      27.161  24.623  19.853  1.00  0.00     0.275 HD
ATOM     19  H22 UNL     1      28.490  25.354  20.094  1.00  0.00     0.275 HD
ATOM     20  H21 UNL     1      27.122  26.322  19.809  1.00  0.00     0.275 HD
ENDBRANCH   8  17
ENDBRANCH   5   8
ENDBRANCH   3   4
ENDBRANCH   2   3
BRANCH   2  21
HETATM   21  C11 UNL     1      33.053  27.782  16.388  1.00  0.00     0.038 C 
BRANCH  21  22
HETATM   22  C12 UNL     1      34.477  27.404  15.950  1.00  0.00     0.009 C 
BRANCH  22  23
HETATM   23  C13 UNL     1      35.226  28.681  15.596  1.00  0.00    -0.011 C 
HETATM   24  C14 UNL     1      34.409  29.920  15.852  1.00  0.00     0.032 C 
HETATM   25  C15 UNL     1      35.382  31.087  15.885  1.00  0.00     0.232 C 
HETATM   26  N4  UNL     1      36.194  31.029  17.086  1.00  0.00    -0.075 N 
HETATM   27  C16 UNL     1      36.344  29.675  17.570  1.00  0.00     0.232 C 
ATOM     28  H42 UNL     1      37.100  31.474  16.942  1.00  0.00     0.277 HD
ATOM     29  H41 UNL     1      35.827  31.645  17.811  1.00  0.00     0.277 HD
HETATM   30  C17 UNL     1      36.496  28.697  16.400  1.00  0.00     0.032 C 
ENDBRANCH  22  23
ENDBRANCH  21  22
ENDBRANCH   2  21
ENDBRANCH   1   2
BRANCH   1  31
HETATM   31  C19 UNL     1      31.665  27.623  19.630  1.00  0.00     0.008 C 
BRANCH  31  32
HETATM   32  C20 UNL     1      31.717  29.078  19.906  1.00  0.00     0.010 C 
HETATM   33  C21 UNL     1      33.049  29.687  19.904  1.00  0.00     0.008 C 
HETATM   34  C22 UNL     1      33.108  30.977  19.083  1.00  0.00     0.001 C 
HETATM   35  C23 UNL     1      31.991  31.889  19.542  1.00  0.00     0.000 C 
HETATM   36  C24 UNL     1      30.693  31.248  19.194  1.00  0.00     0.001 C 
HETATM   37  C25 UNL     1      30.747  29.788  18.948  1.00  0.00     0.008 C 
ENDBRANCH  31  32
ENDBRANCH   1  31
BRANCH   1  38
HETATM   38  N5  UNL     1      33.245  25.829  19.432  1.00  0.00    -0.324 N 
HETATM   39  C26 UNL     1      34.611  25.835  19.722  1.00  0.00     0.266 C 
HETATM   40  O3  UNL     1      35.252  26.880  19.328  1.00  0.00    -0.269 OA
ATOM     41  H5  UNL     1      32.686  25.027  19.721  1.00  0.00     0.169 HD
BRANCH  39  42
HETATM   42  C27 UNL     1      35.418  24.817  20.414  1.00  0.00     0.222 C 
HETATM   43  C33 UNL     1      34.600  23.594  20.640  1.00  0.00     0.058 C 
HETATM   44  C34 UNL     1      35.440  22.364  20.930  1.00  0.00     0.006 C 
HETATM   45  C35 UNL     1      36.322  22.139  19.728  1.00  0.00     0.026 C 
HETATM   46  C36 UNL     1      36.547  23.398  18.941  1.00  0.00     0.170 C 
HETATM   47  O5  UNL     1      36.585  24.546  19.676  1.00  0.00    -0.361 OA
BRANCH  42  48
HETATM   48  C28 UNL     1      35.880  25.358  21.701  1.00  0.00     0.262 C 
HETATM   49  O4  UNL     1      36.678  24.710  22.417  1.00  0.00    -0.270 OA
HETATM   50  N6  UNL     1      35.441  26.610  22.171  1.00  0.00    -0.358 N 
ATOM     51  H6  UNL     1      34.782  27.147  21.607  1.00  0.00     0.162 HD
BRANCH  50  52
HETATM   52  C29 UNL     1      35.907  27.166  23.453  1.00  0.00     0.122 C 
BRANCH  52  53
HETATM   53  C30 UNL     1      37.055  28.105  23.158  1.00  0.00     0.021 C 
BRANCH  53  54
HETATM   54  C31 UNL     1      37.033  28.665  21.781  1.00  0.00     0.029 C 
BRANCH  54  55
HETATM   55  C32 UNL     1      38.310  28.388  21.044  1.00  0.00     0.229 C 
BRANCH  55  56
HETATM   56  N7  UNL     1      38.101  27.400  19.987  1.00  0.00    -0.079 N 
ATOM     57  H73 UNL     1      37.854  26.487  20.368  1.00  0.00     0.274 HD
ATOM     58  H72 UNL     1      37.246  27.586  19.463  1.00  0.00     0.274 HD
ATOM     59  H71 UNL     1      38.914  27.344  19.373  1.00  0.00     0.274 HD
ENDBRANCH  55  56
ENDBRANCH  54  55
ENDBRANCH  53  54
ENDBRANCH  52  53
ENDBRANCH  50  52
ENDBRANCH  42  48
ENDBRANCH  39  42
ENDBRANCH   1  38
TORSDOF 20
ENDMDL
MODEL 4
REMARK VINA RESULT: -6.419871767      3.503      7.030
REMARK  20 active torsions:
REMARK  status: ('A' for Active; 'I' for Inactive)
REMARK       I    between atoms: N1_2  and  C2_4 
REMARK    1  A    between atoms: C2_4  and  C3_6 
REMARK    2  A    between atoms: C3_6  and  C6_9 
REMARK    3  A    between atoms: C6_9  and  N2_10 
REMARK    4  A    between atoms: C6_9  and  C7_14 
REMARK       I    between atoms: C7_14  and  N3_16 
REMARK    5  A    between atoms: N3_16  and  C9_18 
REMARK    6  A    between atoms: C9_18  and  C10_19 
REMARK    7  A    between atoms: C10_19  and  C11_20 
REMARK    8  A    between atoms: C10_19  and  C18_30 
REMARK    9  A    between atoms: C11_20  and  C12_21 
REMARK   10  A    between atoms: C12_21  and  C13_22 
REMARK   11  A    between atoms: C18_30  and  C19_31 
REMARK   12  A    between atoms: C18_30  and  N5_38 
REMARK   13  A    between atoms: C19_31  and  C20_32 
REMARK       I    between atoms: N5_38  and  C26_40 
REMARK   14  A    between atoms: C26_40  and  C27_42 
REMARK   15  A    between atoms: C27_42  and  C28_43 
REMARK       I    between atoms: C28_43  and  N6_45 
REMARK   16  A    between atoms: N6_45  and  C29_47 
REMARK   17  A    between atoms: C29_47  and  C30_48 
REMARK   18  A    between atoms: C30_48  and  C31_49 
REMARK   19  A    between atoms: C31_49  and  C32_50 
REMARK   20  A    between atoms: C32_50  and  N7_51 
ROOT
HETATM    1  C18 UNL     1      33.409  25.825  19.154  1.00  0.00     0.035 C 
ENDROOT
BRANCH   1   2
HETATM    2  C10 UNL     1      32.327  25.691  18.221  1.00  0.00    -0.036 C 
BRANCH   2   3
HETATM    3  C9  UNL     1      31.438  26.713  17.700  1.00  0.00     0.161 C 
BRANCH   3   4
HETATM    4  N3  UNL     1      31.990  27.974  17.219  1.00  0.00    -0.351 N 
HETATM    5  C7  UNL     1      32.109  29.127  18.003  1.00  0.00     0.251 C 
HETATM    6  O2  UNL     1      31.767  29.011  19.237  1.00  0.00    -0.271 OA
HETATM    7  C8  UNL     1      32.429  28.013  15.816  1.00  0.00     0.153 C 
BRANCH   5   8
HETATM    8  C6  UNL     1      32.563  30.447  17.617  1.00  0.00     0.291 C 
BRANCH   8   9
HETATM    9  C3  UNL     1      31.444  31.475  17.462  1.00  0.00     0.070 C 
HETATM   10  C4  UNL     1      30.118  30.802  17.173  1.00  0.00     0.028 C 
HETATM   11  C5  UNL     1      31.303  32.182  18.806  1.00  0.00     0.028 C 
BRANCH   9  12
HETATM   12  C2  UNL     1      31.705  32.465  16.415  1.00  0.00     0.227 C 
HETATM   13  N1  UNL     1      30.786  33.526  16.140  1.00  0.00    -0.365 N 
HETATM   14  C1  UNL     1      31.023  34.498  15.120  1.00  0.00     0.149 C 
ATOM     15  H1  UNL     1      29.931  33.592  16.692  1.00  0.00     0.161 HD
HETATM   16  O1  UNL     1      32.747  32.411  15.721  1.00  0.00    -0.273 OA
ENDBRANCH   9  12
ENDBRANCH   8   9
BRANCH   8  17
HETATM   17  N2  UNL     1      33.537  30.990  18.510  1.00  0.00    -0.065 N 
ATOM     18  H23 UNL     1      33.959  31.850  18.160  1.00  0.00     0.275 HD
ATOM     19  H22 UNL     1      33.123  31.379  19.358  1.00  0.00     0.275 HD
ATOM     20  H21 UNL     1      34.225  30.262  18.704  1.00  0.00     0.275 HD
ENDBRANCH   8  17
ENDBRANCH   5   8
ENDBRANCH   3   4
ENDBRANCH   2   3
BRANCH   2  21
HETATM   21  C11 UNL     1      32.556  24.612  17.130  1.00  0.00     0.038 C 
BRANCH  21  22
HETATM   22  C12 UNL     1      32.071  23.241  17.628  1.00  0.00     0.009 C 
BRANCH  22  23
HETATM   23  C13 UNL     1      32.882  22.161  16.928  1.00  0.00    -0.011 C 
HETATM   24  C14 UNL     1      34.365  22.323  17.139  1.00  0.00     0.032 C 
HETATM   25  C15 UNL     1      35.005  20.991  16.783  1.00  0.00     0.232 C 
HETATM   26  N4  UNL     1      34.682  19.995  17.787  1.00  0.00    -0.075 N 
HETATM   27  C16 UNL     1      33.427  20.281  18.445  1.00  0.00     0.232 C 
ATOM     28  H42 UNL     1      34.689  19.055  17.393  1.00  0.00     0.277 HD
ATOM     29  H41 UNL     1      35.439  19.890  18.463  1.00  0.00     0.277 HD
HETATM   30  C17 UNL     1      32.406  20.832  17.443  1.00  0.00     0.032 C 
ENDBRANCH  22  23
ENDBRANCH  21  22
ENDBRANCH   2  21
ENDBRANCH   1   2
BRANCH   1  31
HETATM   31  C19 UNL     1      33.842  25.000  20.261  1.00  0.00     0.008 C 
BRANCH  31  32
HETATM   32  C20 UNL     1      35.133  24.273  20.269  1.00  0.00     0.010 C 
HETATM   33  C21 UNL     1      36.189  24.843  21.107  1.00  0.00     0.008 C 
HETATM   34  C22 UNL     1      36.875  23.797  21.988  1.00  0.00     0.001 C 
HETATM   35  C23 UNL     1      37.310  22.642  21.111  1.00  0.00     0.000 C 
HETATM   36  C24 UNL     1      36.091  21.980  20.573  1.00  0.00     0.001 C 
HETATM   37  C25 UNL     1      34.855  22.797  20.600  1.00  0.00     0.008 C 
ENDBRANCH  31  32
ENDBRANCH   1  31
BRANCH   1  38
HETATM   38  N5  UNL     1      34.628  26.395  18.474  1.00  0.00    -0.324 N 
HETATM   39  C26 UNL     1      35.217  27.598  18.870  1.00  0.00     0.266 C 
HETATM   40  O3  UNL     1      34.644  28.189  19.860  1.00  0.00    -0.269 OA
ATOM     41  H5  UNL     1      35.039  25.881  17.695  1.00  0.00     0.169 HD
BRANCH  39  42
HETATM   42  C27 UNL     1      36.397  28.281  18.317  1.00  0.00     0.222 C 
HETATM   43  C33 UNL     1      37.244  27.304  17.578  1.00  0.00     0.058 C 
HETATM   44  C34 UNL     1      38.215  27.969  16.620  1.00  0.00     0.006 C 
HETATM   45  C35 UNL     1      37.392  28.743  15.623  1.00  0.00     0.026 C 
HETATM   46  C36 UNL     1      36.038  29.109  16.162  1.00  0.00     0.170 C 
HETATM   47  O5  UNL     1      35.992  29.355  17.502  1.00  0.00    -0.361 OA
BRANCH  42  48
HETATM   48  C28 UNL     1      37.166  28.885  19.415  1.00  0.00     0.262 C 
HETATM   49  O4  UNL     1      37.350  30.123  19.460  1.00  0.00    -0.270 OA
HETATM   50  N6  UNL     1      37.723  28.099  20.441  1.00  0.00    -0.358 N 
ATOM     51  H6  UNL     1      37.594  27.087  20.414  1.00  0.00     0.162 HD
BRANCH  50  52
HETATM   52  C29 UNL     1      38.485  28.695  21.551  1.00  0.00     0.122 C 
BRANCH  52  53
HETATM   53  C30 UNL     1      37.772  28.347  22.838  1.00  0.00     0.021 C 
BRANCH  53  54
HETATM   54  C31 UNL     1      36.345  28.763  22.865  1.00  0.00     0.029 C 
BRANCH  54  55
HETATM   55  C32 UNL     1      35.465  27.701  23.455  1.00  0.00     0.229 C 
BRANCH  55  56
HETATM   56  N7  UNL     1      34.191  27.621  22.743  1.00  0.00    -0.079 N 
ATOM     57  H73 UNL     1      33.521  28.307  23.091  1.00  0.00     0.274 HD
ATOM     58  H72 UNL     1      34.274  27.959  21.784  1.00  0.00     0.274 HD
ATOM     59  H71 UNL     1      33.812  26.674  22.776  1.00  0.00     0.274 HD
ENDBRANCH  55  56
ENDBRANCH  54  55
ENDBRANCH  53  54
ENDBRANCH  52  53
ENDBRANCH  50  52
ENDBRANCH  42  48
ENDBRANCH  39  42
ENDBRANCH   1  38
TORSDOF 20
ENDMDL
MODEL 5
REMARK VINA RESULT: -6.388801663      3.096      4.952
REMARK  20 active torsions:
REMARK  status: ('A' for Active; 'I' for Inactive)
REMARK       I    between atoms: N1_2  and  C2_4 
REMARK    1  A    between atoms: C2_4  and  C3_6 
REMARK    2  A    between atoms: C3_6  and  C6_9 
REMARK    3  A    between atoms: C6_9  and  N2_10 
REMARK    4  A    between atoms: C6_9  and  C7_14 
REMARK       I    between atoms: C7_14  and  N3_16 
REMARK    5  A    between atoms: N3_16  and  C9_18 
REMARK    6  A    between atoms: C9_18  and  C10_19 
REMARK    7  A    between atoms: C10_19  and  C11_20 
REMARK    8  A    between atoms: C10_19  and  C18_30 
REMARK    9  A    between atoms: C11_20  and  C12_21 
REMARK   10  A    between atoms: C12_21  and  C13_22 
REMARK   11  A    between atoms: C18_30  and  C19_31 
REMARK   12  A    between atoms: C18_30  and  N5_38 
REMARK   13  A    between atoms: C19_31  and  C20_32 
REMARK       I    between atoms: N5_38  and  C26_40 
REMARK   14  A    between atoms: C26_40  and  C27_42 
REMARK   15  A    between atoms: C27_42  and  C28_43 
REMARK       I    between atoms: C28_43  and  N6_45 
REMARK   16  A    between atoms: N6_45  and  C29_47 
REMARK   17  A    between atoms: C29_47  and  C30_48 
REMARK   18  A    between atoms: C30_48  and  C31_49 
REMARK   19  A    between atoms: C31_49  and  C32_50 
REMARK   20  A    between atoms: C32_50  and  N7_51 
ROOT
HETATM    1  C18 UNL     1      35.521  27.034  18.510  1.00  0.00     0.035 C 
ENDROOT
BRANCH   1   2
HETATM    2  C10 UNL     1      35.823  28.022  17.515  1.00  0.00    -0.036 C 
BRANCH   2   3
HETATM    3  C9  UNL     1      35.389  29.405  17.441  1.00  0.00     0.161 C 
BRANCH   3   4
HETATM    4  N3  UNL     1      33.967  29.721  17.512  1.00  0.00    -0.351 N 
HETATM    5  C7  UNL     1      33.372  30.422  18.567  1.00  0.00     0.251 C 
HETATM    6  O2  UNL     1      34.168  30.861  19.476  1.00  0.00    -0.271 OA
HETATM    7  C8  UNL     1      33.126  29.248  16.401  1.00  0.00     0.153 C 
BRANCH   5   8
HETATM    8  C6  UNL     1      31.971  30.722  18.785  1.00  0.00     0.291 C 
BRANCH   8   9
HETATM    9  C3  UNL     1      31.266  29.764  19.743  1.00  0.00     0.070 C 
HETATM   10  C4  UNL     1      32.110  29.500  20.973  1.00  0.00     0.028 C 
HETATM   11  C5  UNL     1      29.996  30.465  20.214  1.00  0.00     0.028 C 
BRANCH   9  12
HETATM   12  C2  UNL     1      30.916  28.482  19.130  1.00  0.00     0.227 C 
HETATM   13  N1  UNL     1      31.377  27.240  19.672  1.00  0.00    -0.365 N 
HETATM   14  C1  UNL     1      31.050  25.980  19.084  1.00  0.00     0.149 C 
ATOM     15  H1  UNL     1      31.962  27.255  20.508  1.00  0.00     0.161 HD
HETATM   16  O1  UNL     1      30.200  28.431  18.103  1.00  0.00    -0.273 OA
ENDBRANCH   9  12
ENDBRANCH   8   9
BRANCH   8  17
HETATM   17  N2  UNL     1      31.748  32.054  19.252  1.00  0.00    -0.065 N 
ATOM     18  H23 UNL     1      31.816  32.134  20.267  1.00  0.00     0.275 HD
ATOM     19  H22 UNL     1      32.510  32.689  19.015  1.00  0.00     0.275 HD
ATOM     20  H21 UNL     1      30.846  32.365  18.891  1.00  0.00     0.275 HD
ENDBRANCH   8  17
ENDBRANCH   5   8
ENDBRANCH   3   4
ENDBRANCH   2   3
BRANCH   2  21
HETATM   21  C11 UNL     1      37.245  27.903  16.908  1.00  0.00     0.038 C 
BRANCH  21  22
HETATM   22  C12 UNL     1      37.400  28.869  15.722  1.00  0.00     0.009 C 
BRANCH  22  23
HETATM   23  C13 UNL     1      37.965  28.093  14.541  1.00  0.00    -0.011 C 
HETATM   24  C14 UNL     1      36.922  27.260  13.844  1.00  0.00     0.032 C 
HETATM   25  C15 UNL     1      37.487  26.905  12.479  1.00  0.00     0.232 C 
HETATM   26  N4  UNL     1      37.524  28.082  11.630  1.00  0.00    -0.075 N 
HETATM   27  C16 UNL     1      37.644  29.298  12.402  1.00  0.00     0.232 C 
ATOM     28  H42 UNL     1      38.264  28.011  10.932  1.00  0.00     0.277 HD
ATOM     29  H41 UNL     1      36.718  28.115  11.006  1.00  0.00     0.277 HD
HETATM   30  C17 UNL     1      38.579  29.089  13.598  1.00  0.00     0.032 C 
ENDBRANCH  22  23
ENDBRANCH  21  22
ENDBRANCH   2  21
ENDBRANCH   1   2
BRANCH   1  31
HETATM   31  C19 UNL     1      35.018  27.143  19.863  1.00  0.00     0.008 C 
BRANCH  31  32
HETATM   32  C20 UNL     1      35.900  27.307  21.041  1.00  0.00     0.010 C 
HETATM   33  C21 UNL     1      37.336  27.145  20.800  1.00  0.00     0.008 C 
HETATM   34  C22 UNL     1      38.171  28.267  21.420  1.00  0.00     0.001 C 
HETATM   35  C23 UNL     1      37.781  28.406  22.877  1.00  0.00     0.000 C 
HETATM   36  C24 UNL     1      36.368  28.872  22.939  1.00  0.00     0.001 C 
HETATM   37  C25 UNL     1      35.568  28.650  21.711  1.00  0.00     0.008 C 
ENDBRANCH  31  32
ENDBRANCH   1  31
BRANCH   1  38
HETATM   38  N5  UNL     1      34.923  25.804  17.874  1.00  0.00    -0.324 N 
HETATM   39  C26 UNL     1      35.631  24.608  17.738  1.00  0.00     0.266 C 
HETATM   40  O3  UNL     1      36.835  24.628  18.195  1.00  0.00    -0.269 OA
ATOM     41  H5  UNL     1      33.964  25.848  17.530  1.00  0.00     0.169 HD
BRANCH  39  42
HETATM   42  C27 UNL     1      35.195  23.333  17.148  1.00  0.00     0.222 C 
HETATM   43  C33 UNL     1      33.743  23.398  16.824  1.00  0.00     0.058 C 
HETATM   44  C34 UNL     1      33.309  22.336  15.832  1.00  0.00     0.006 C 
HETATM   45  C35 UNL     1      34.095  22.567  14.566  1.00  0.00     0.026 C 
HETATM   46  C36 UNL     1      35.382  23.300  14.819  1.00  0.00     0.170 C 
HETATM   47  O5  UNL     1      35.978  23.035  16.016  1.00  0.00    -0.361 OA
BRANCH  42  48
HETATM   48  C28 UNL     1      35.450  22.245  18.103  1.00  0.00     0.262 C 
HETATM   49  O4  UNL     1      36.282  21.346  17.841  1.00  0.00    -0.270 OA
HETATM   50  N6  UNL     1      34.770  22.173  19.333  1.00  0.00    -0.358 N 
ATOM     51  H6  UNL     1      34.079  22.890  19.559  1.00  0.00     0.162 HD
BRANCH  50  52
HETATM   52  C29 UNL     1      35.025  21.094  20.302  1.00  0.00     0.122 C 
BRANCH  52  53
HETATM   53  C30 UNL     1      35.729  21.703  21.494  1.00  0.00     0.021 C 
BRANCH  53  54
HETATM   54  C31 UNL     1      36.170  23.106  21.278  1.00  0.00     0.029 C 
BRANCH  54  55
HETATM   55  C32 UNL     1      37.665  23.234  21.320  1.00  0.00     0.229 C 
BRANCH  55  56
HETATM   56  N7  UNL     1      38.277  22.610  20.148  1.00  0.00    -0.079 N 
ATOM     57  H73 UNL     1      37.650  21.935  19.710  1.00  0.00     0.274 HD
ATOM     58  H72 UNL     1      38.363  23.268  19.373  1.00  0.00     0.274 HD
ATOM     59  H71 UNL     1      39.176  22.190  20.386  1.00  0.00     0.274 HD
ENDBRANCH  55  56
ENDBRANCH  54  55
ENDBRANCH  53  54
ENDBRANCH  52  53
ENDBRANCH  50  52
ENDBRANCH  42  48
ENDBRANCH  39  42
ENDBRANCH   1  38
TORSDOF 20
ENDMDL
