MODEL 1
REMARK VINA RESULT: -7.117433256      0.000      0.000
REMARK  5 active torsions:
REMARK  status: ('A' for Active; 'I' for Inactive)
REMARK    1  A    between atoms: C1_2  and  C2_4 
REMARK    2  A    between atoms: C2_4  and  C3_5 
REMARK    3  A    between atoms: C3_5  and  C4_6 
REMARK    4  A    between atoms: C8_10  and  N1_11 
REMARK       I    between atoms: N1_11  and  C9_13 
REMARK    5  A    between atoms: C9_13  and  C10_15 
ROOT
HETATM    1  C4  UNL     1      42.817  -1.649  33.338  1.00  0.00    -0.035 C 
HETATM    2  C5  UNL     1      41.591  -0.955  32.748  1.00  0.00     0.015 C 
HETATM    3  C6  UNL     1      42.342  -0.744  31.480  1.00  0.00    -0.007 C 
HETATM    4  C7  UNL     1      41.624  -1.117  30.228  1.00  0.00     0.030 C 
HETATM    5  C8  UNL     1      41.912  -2.475  29.715  1.00  0.00     0.085 C 
HETATM    6  C15 UNL     1      42.055  -3.453  30.838  1.00  0.00     0.030 C 
HETATM    7  C16 UNL     1      43.093  -3.098  31.829  1.00  0.00    -0.007 C 
HETATM    8  C17 UNL     1      42.735  -3.109  33.299  1.00  0.00     0.015 C 
HETATM    9  C18 UNL     1      43.395  -1.660  31.954  1.00  0.00     0.002 C 
ENDROOT
BRANCH   5  10
HETATM   10  N1  UNL     1      43.021  -2.434  28.818  1.00  0.00    -0.356 N 
HETATM   11  C9  UNL     1      43.308  -3.392  27.813  1.00  0.00     0.222 C 
HETATM   12  O3  UNL     1      42.500  -4.350  27.721  1.00  0.00    -0.273 OA
ATOM     13  H1  UNL     1      43.663  -1.646  28.907  1.00  0.00     0.162 HD
BRANCH  11  14
HETATM   14  C10 UNL     1      44.442  -3.347  26.904  1.00  0.00     0.081 C 
HETATM   15  C11 UNL     1      45.090  -2.002  26.761  1.00  0.00     0.041 C 
HETATM   16  C12 UNL     1      44.494  -1.096  25.741  1.00  0.00     0.233 C 
HETATM   17  N2  UNL     1      44.108  -1.725  24.507  1.00  0.00    -0.075 N 
HETATM   18  C13 UNL     1      44.752  -3.012  24.447  1.00  0.00     0.233 C 
ATOM     19  H22 UNL     1      43.097  -1.784  24.393  1.00  0.00     0.277 HD
ATOM     20  H21 UNL     1      44.304  -1.147  23.690  1.00  0.00     0.277 HD
HETATM   21  C14 UNL     1      44.102  -3.868  25.519  1.00  0.00     0.041 C 
ENDBRANCH  11  14
ENDBRANCH   5  10
BRANCH   1  22
HETATM   22  C3  UNL     1      43.467  -0.862  34.370  1.00  0.00     0.020 C 
BRANCH  22  23
HETATM   23  C2  UNL     1      44.862  -0.469  34.372  1.00  0.00     0.114 C 
BRANCH  23  24
HETATM   24  C1  UNL     1      45.279   0.641  33.495  1.00  0.00     0.172 C 
HETATM   25  O1  UNL     1      46.301   0.694  32.994  1.00  0.00    -0.648 OA
HETATM   26  O2  UNL     1      44.355   1.682  33.271  1.00  0.00    -0.648 OA
ENDBRANCH  23  24
ENDBRANCH  22  23
ENDBRANCH   1  22
TORSDOF 5
ENDMDL
MODEL 2
REMARK VINA RESULT: -6.967809158      2.803      7.496
REMARK  5 active torsions:
REMARK  status: ('A' for Active; 'I' for Inactive)
REMARK    1  A    between atoms: C1_2  and  C2_4 
REMARK    2  A    between atoms: C2_4  and  C3_5 
REMARK    3  A    between atoms: C3_5  and  C4_6 
REMARK    4  A    between atoms: C8_10  and  N1_11 
REMARK       I    between atoms: N1_11  and  C9_13 
REMARK    5  A    between atoms: C9_13  and  C10_15 
ROOT
HETATM    1  C4  UNL     1      43.375  -3.123  28.773  1.00  0.00    -0.035 C 
HETATM    2  C5  UNL     1      42.915  -4.029  29.913  1.00  0.00     0.015 C 
HETATM    3  C6  UNL     1      43.784  -3.264  30.849  1.00  0.00    -0.007 C 
HETATM    4  C7  UNL     1      43.147  -2.834  32.126  1.00  0.00     0.030 C 
HETATM    5  C8  UNL     1      42.601  -1.459  32.128  1.00  0.00     0.085 C 
HETATM    6  C15 UNL     1      41.976  -1.128  30.809  1.00  0.00     0.030 C 
HETATM    7  C16 UNL     1      42.884  -1.268  29.651  1.00  0.00    -0.007 C 
HETATM    8  C17 UNL     1      42.420  -2.063  28.450  1.00  0.00     0.015 C 
HETATM    9  C18 UNL     1      43.987  -2.234  29.814  1.00  0.00     0.002 C 
ENDROOT
BRANCH   5  10
HETATM   10  N1  UNL     1      43.600  -0.537  32.561  1.00  0.00    -0.356 N 
HETATM   11  C9  UNL     1      43.466   0.387  33.629  1.00  0.00     0.222 C 
HETATM   12  O3  UNL     1      42.365   0.371  34.233  1.00  0.00    -0.273 OA
ATOM     13  H1  UNL     1      44.488  -0.543  32.058  1.00  0.00     0.162 HD
BRANCH  11  14
HETATM   14  C10 UNL     1      44.487   1.327  34.062  1.00  0.00     0.081 C 
HETATM   15  C11 UNL     1      45.858   0.745  34.231  1.00  0.00     0.041 C 
HETATM   16  C12 UNL     1      46.148   0.131  35.556  1.00  0.00     0.233 C 
HETATM   17  N2  UNL     1      45.643   0.851  36.694  1.00  0.00    -0.075 N 
HETATM   18  C13 UNL     1      45.311   2.184  36.261  1.00  0.00     0.233 C 
ATOM     19  H22 UNL     1      44.863   0.377  37.147  1.00  0.00     0.277 HD
ATOM     20  H21 UNL     1      46.286   0.842  37.485  1.00  0.00     0.277 HD
HETATM   21  C14 UNL     1      44.109   2.051  35.342  1.00  0.00     0.041 C 
ENDBRANCH  11  14
ENDBRANCH   5  10
BRANCH   1  22
HETATM   22  C3  UNL     1      44.240  -3.803  27.826  1.00  0.00     0.020 C 
BRANCH  22  23
HETATM   23  C2  UNL     1      44.029  -3.872  26.395  1.00  0.00     0.114 C 
BRANCH  23  24
HETATM   24  C1  UNL     1      44.670  -2.855  25.541  1.00  0.00     0.172 C 
HETATM   25  O1  UNL     1      44.573  -2.837  24.406  1.00  0.00    -0.648 OA
HETATM   26  O2  UNL     1      45.439  -1.858  26.175  1.00  0.00    -0.648 OA
ENDBRANCH  23  24
ENDBRANCH  22  23
ENDBRANCH   1  22
TORSDOF 5
ENDMDL
MODEL 3
REMARK VINA RESULT: -6.756729310      4.748      7.058
REMARK  5 active torsions:
REMARK  status: ('A' for Active; 'I' for Inactive)
REMARK    1  A    between atoms: C1_2  and  C2_4 
REMARK    2  A    between atoms: C2_4  and  C3_5 
REMARK    3  A    between atoms: C3_5  and  C4_6 
REMARK    4  A    between atoms: C8_10  and  N1_11 
REMARK       I    between atoms: N1_11  and  C9_13 
REMARK    5  A    between atoms: C9_13  and  C10_15 
ROOT
HETATM    1  C4  UNL     1      43.114  -2.562  29.226  1.00  0.00    -0.035 C 
HETATM    2  C5  UNL     1      41.967  -3.486  28.824  1.00  0.00     0.015 C 
HETATM    3  C6  UNL     1      42.935  -4.611  28.712  1.00  0.00    -0.007 C 
HETATM    4  C7  UNL     1      42.539  -5.881  29.384  1.00  0.00     0.030 C 
HETATM    5  C8  UNL     1      43.078  -6.069  30.750  1.00  0.00     0.085 C 
HETATM    6  C15 UNL     1      43.094  -4.775  31.502  1.00  0.00     0.030 C 
HETATM    7  C16 UNL     1      43.858  -3.695  30.842  1.00  0.00    -0.007 C 
HETATM    8  C17 UNL     1      43.207  -2.340  30.668  1.00  0.00     0.015 C 
HETATM    9  C18 UNL     1      43.963  -3.788  29.374  1.00  0.00     0.002 C 
ENDROOT
BRANCH   5  10
HETATM   10  N1  UNL     1      44.336  -6.738  30.691  1.00  0.00    -0.356 N 
HETATM   11  C9  UNL     1      44.849  -7.623  31.673  1.00  0.00     0.222 C 
HETATM   12  O3  UNL     1      44.112  -7.822  32.671  1.00  0.00    -0.273 OA
ATOM     13  H1  UNL     1      44.918  -6.565  29.871  1.00  0.00     0.162 HD
BRANCH  11  14
HETATM   14  C10 UNL     1      46.134  -8.300  31.609  1.00  0.00     0.081 C 
HETATM   15  C11 UNL     1      46.195  -9.465  30.668  1.00  0.00     0.041 C 
HETATM   16  C12 UNL     1      45.760 -10.776  31.224  1.00  0.00     0.233 C 
HETATM   17  N2  UNL     1      46.192 -11.051  32.567  1.00  0.00    -0.075 N 
HETATM   18  C13 UNL     1      47.256 -10.133  32.885  1.00  0.00     0.233 C 
ATOM     19  H22 UNL     1      45.429 -11.019  33.242  1.00  0.00     0.277 HD
ATOM     20  H21 UNL     1      46.457 -12.026  32.706  1.00  0.00     0.277 HD
HETATM   21  C14 UNL     1      46.623  -8.755  32.973  1.00  0.00     0.041 C 
ENDBRANCH  11  14
ENDBRANCH   5  10
BRANCH   1  22
HETATM   22  C3  UNL     1      43.444  -1.593  28.196  1.00  0.00     0.020 C 
BRANCH  22  23
HETATM   23  C2  UNL     1      44.661  -1.586  27.409  1.00  0.00     0.114 C 
BRANCH  23  24
HETATM   24  C1  UNL     1      44.597  -2.054  26.013  1.00  0.00     0.172 C 
HETATM   25  O1  UNL     1      44.637  -1.355  25.114  1.00  0.00    -0.648 OA
HETATM   26  O2  UNL     1      44.480  -3.442  25.792  1.00  0.00    -0.648 OA
ENDBRANCH  23  24
ENDBRANCH  22  23
ENDBRANCH   1  22
TORSDOF 5
ENDMDL
MODEL 4
REMARK VINA RESULT: -6.680768612      4.518      6.598
REMARK  5 active torsions:
REMARK  status: ('A' for Active; 'I' for Inactive)
REMARK    1  A    between atoms: C1_2  and  C2_4 
REMARK    2  A    between atoms: C2_4  and  C3_5 
REMARK    3  A    between atoms: C3_5  and  C4_6 
REMARK    4  A    between atoms: C8_10  and  N1_11 
REMARK       I    between atoms: N1_11  and  C9_13 
REMARK    5  A    between atoms: C9_13  and  C10_15 
ROOT
HETATM    1  C4  UNL     1      43.534  -2.898  29.695  1.00  0.00    -0.035 C 
HETATM    2  C5  UNL     1      42.340  -3.419  28.900  1.00  0.00     0.015 C 
HETATM    3  C6  UNL     1      43.008  -4.745  28.798  1.00  0.00    -0.007 C 
HETATM    4  C7  UNL     1      42.165  -5.928  29.131  1.00  0.00     0.030 C 
HETATM    5  C8  UNL     1      42.280  -6.414  30.524  1.00  0.00     0.085 C 
HETATM    6  C15 UNL     1      42.413  -5.271  31.482  1.00  0.00     0.030 C 
HETATM    7  C16 UNL     1      43.553  -4.372  31.204  1.00  0.00    -0.007 C 
HETATM    8  C17 UNL     1      43.309  -2.880  31.140  1.00  0.00     0.015 C 
HETATM    9  C18 UNL     1      44.001  -4.319  29.800  1.00  0.00     0.002 C 
ENDROOT
BRANCH   5  10
HETATM   10  N1  UNL     1      43.315  -7.391  30.617  1.00  0.00    -0.356 N 
HETATM   11  C9  UNL     1      43.141  -8.750  30.982  1.00  0.00     0.222 C 
HETATM   12  O3  UNL     1      41.962  -9.102  31.237  1.00  0.00    -0.273 OA
ATOM     13  H1  UNL     1      44.265  -7.085  30.403  1.00  0.00     0.162 HD
BRANCH  11  14
HETATM   14  C10 UNL     1      44.201  -9.740  31.078  1.00  0.00     0.081 C 
HETATM   15  C11 UNL     1      44.869  -9.829  32.417  1.00  0.00     0.041 C 
HETATM   16  C12 UNL     1      46.002  -8.890  32.645  1.00  0.00     0.233 C 
HETATM   17  N2  UNL     1      46.889  -8.710  31.528  1.00  0.00    -0.075 N 
HETATM   18  C13 UNL     1      46.654  -9.786  30.600  1.00  0.00     0.233 C 
ATOM     19  H22 UNL     1      46.801  -7.791  31.097  1.00  0.00     0.277 HD
ATOM     20  H21 UNL     1      47.867  -8.636  31.807  1.00  0.00     0.277 HD
HETATM   21  C14 UNL     1      45.270  -9.556  30.016  1.00  0.00     0.041 C 
ENDBRANCH  11  14
ENDBRANCH   5  10
BRANCH   1  22
HETATM   22  C3  UNL     1      44.335  -1.944  28.949  1.00  0.00     0.020 C 
BRANCH  22  23
HETATM   23  C2  UNL     1      44.028  -1.444  27.625  1.00  0.00     0.114 C 
BRANCH  23  24
HETATM   24  C1  UNL     1      44.801  -1.965  26.482  1.00  0.00     0.172 C 
HETATM   25  O1  UNL     1      45.823  -1.562  26.181  1.00  0.00    -0.648 OA
HETATM   26  O2  UNL     1      44.235  -3.018  25.734  1.00  0.00    -0.648 OA
ENDBRANCH  23  24
ENDBRANCH  22  23
ENDBRANCH   1  22
TORSDOF 5
ENDMDL
MODEL 5
REMARK VINA RESULT: -6.680273139      2.787      7.115
REMARK  5 active torsions:
REMARK  status: ('A' for Active; 'I' for Inactive)
REMARK    1  A    between atoms: C1_2  and  C2_4 
REMARK    2  A    between atoms: C2_4  and  C3_5 
REMARK    3  A    between atoms: C3_5  and  C4_6 
REMARK    4  A    between atoms: C8_10  and  N1_11 
REMARK       I    between atoms: N1_11  and  C9_13 
REMARK    5  A    between atoms: C9_13  and  C10_15 
ROOT
HETATM    1  C4  UNL     1      43.328  -3.019  29.067  1.00  0.00    -0.035 C 
HETATM    2  C5  UNL     1      42.861  -4.158  29.970  1.00  0.00     0.015 C 
HETATM    3  C6  UNL     1      43.609  -3.545  31.102  1.00  0.00    -0.007 C 
HETATM    4  C7  UNL     1      42.860  -3.414  32.383  1.00  0.00     0.030 C 
HETATM    5  C8  UNL     1      42.217  -2.100  32.609  1.00  0.00     0.085 C 
HETATM    6  C15 UNL     1      41.658  -1.550  31.333  1.00  0.00     0.030 C 
HETATM    7  C16 UNL     1      42.649  -1.406  30.245  1.00  0.00    -0.007 C 
HETATM    8  C17 UNL     1      42.323  -1.973  28.880  1.00  0.00     0.015 C 
HETATM    9  C18 UNL     1      43.805  -2.320  30.305  1.00  0.00     0.002 C 
ENDROOT
BRANCH   5  10
HETATM   10  N1  UNL     1      43.116  -1.226  33.289  1.00  0.00    -0.356 N 
HETATM   11  C9  UNL     1      42.746  -0.203  34.199  1.00  0.00     0.222 C 
HETATM   12  O3  UNL     1      41.514  -0.078  34.412  1.00  0.00    -0.273 OA
ATOM     13  H1  UNL     1      44.112  -1.347  33.104  1.00  0.00     0.162 HD
BRANCH  11  14
HETATM   14  C10 UNL     1      43.667   0.687  34.887  1.00  0.00     0.081 C 
HETATM   15  C11 UNL     1      44.525   1.530  33.992  1.00  0.00     0.041 C 
HETATM   16  C12 UNL     1      45.794   0.904  33.528  1.00  0.00     0.233 C 
HETATM   17  N2  UNL     1      46.505   0.141  34.518  1.00  0.00    -0.075 N 
HETATM   18  C13 UNL     1      45.982   0.499  35.810  1.00  0.00     0.233 C 
ATOM     19  H22 UNL     1      46.471  -0.863  34.342  1.00  0.00     0.277 HD
ATOM     20  H21 UNL     1      47.516   0.256  34.455  1.00  0.00     0.277 HD
HETATM   21  C14 UNL     1      44.565  -0.046  35.867  1.00  0.00     0.041 C 
ENDBRANCH  11  14
ENDBRANCH   5  10
BRANCH   1  22
HETATM   22  C3  UNL     1      44.301  -3.447  28.078  1.00  0.00     0.020 C 
BRANCH  22  23
HETATM   23  C2  UNL     1      44.039  -3.625  26.664  1.00  0.00     0.114 C 
BRANCH  23  24
HETATM   24  C1  UNL     1      44.701  -2.718  25.708  1.00  0.00     0.172 C 
HETATM   25  O1  UNL     1      44.566  -2.790  24.579  1.00  0.00    -0.648 OA
HETATM   26  O2  UNL     1      45.542  -1.715  26.231  1.00  0.00    -0.648 OA
ENDBRANCH  23  24
ENDBRANCH  22  23
ENDBRANCH   1  22
TORSDOF 5
ENDMDL
