MODEL 1
REMARK VINA RESULT: -7.000230800      0.000      0.000
REMARK  17 active torsions:
REMARK  status: ('A' for Active; 'I' for Inactive)
REMARK       I    between atoms: C2_2  and  N1_4 
REMARK    1  A    between atoms: N1_4  and  C3_6 
REMARK    2  A    between atoms: C3_6  and  C4_7 
REMARK    3  A    between atoms: C4_7  and  C5_8 
REMARK    4  A    between atoms: C5_8  and  O3_10 
REMARK    5  A    between atoms: O3_10  and  C6_11 
REMARK    6  A    between atoms: C6_11  and  N2_12 
REMARK    7  A    between atoms: C7_13  and  N3_14 
REMARK    8  A    between atoms: C8_15  and  O4_16 
REMARK    9  A    between atoms: C12_22  and  O5_23 
REMARK   10  A    between atoms: C13_25  and  C14_26 
REMARK   11  A    between atoms: C14_26  and  O7_28 
REMARK   12  A    between atoms: O7_28  and  C15_29 
REMARK   13  A    between atoms: C15_29  and  C16_30 
REMARK   14  A    between atoms: N7_34  and  C17_35 
REMARK   15  A    between atoms: C21_43  and  C22_44 
REMARK       I    between atoms: C22_44  and  N10_46 
REMARK   16  A    between atoms: C23_48  and  C24_50 
REMARK   17  A    between atoms: C25_55  and  N14_56 
ROOT
HETATM    1  N2  UNL     1      69.804  35.323  71.444  1.00  0.00    -0.118 N 
HETATM    2  C7  UNL     1      69.758  36.487  70.798  1.00  0.00     0.183 A 
HETATM    3  C21 UNL     1      69.772  37.509  71.719  1.00  0.00     0.163 A 
HETATM    4  N13 UNL     1      69.832  36.954  72.927  1.00  0.00    -0.182 N 
ATOM      5  H13 UNL     1      69.857  37.455  73.815  1.00  0.00     0.184 HD
HETATM    6  C25 UNL     1      69.855  35.612  72.772  1.00  0.00     0.686 A 
ENDROOT
BRANCH   2   7
HETATM    7  N3  UNL     1      69.777  36.692  69.422  1.00  0.00    -0.226 N 
HETATM    8  C8  UNL     1      69.106  36.794  68.729  1.00  0.00     0.210 A 
HETATM    9  C9  UNL     1      69.614  37.016  67.280  1.00  0.00     0.105 A 
HETATM   10  C12 UNL     1      68.704  36.998  67.335  1.00  0.00     0.161 A 
HETATM   11  N4  UNL     1      69.922  36.873  68.225  1.00  0.00     0.000 N 
HETATM   12  C10 UNL     1      70.968  37.086  66.848  1.00  0.00    -0.004 A 
HETATM   13  C13 UNL     1      68.924  37.168  66.238  1.00  0.00     0.057 A 
HETATM   14  C11 UNL     1      71.242  36.927  67.899  1.00  0.00    -0.003 A 
BRANCH   8  15
HETATM   15  O4  UNL     1      67.918  36.682  69.444  1.00  0.00    -0.365 OA
ATOM     16  H4  UNL     1      67.273  36.587  68.754  1.00  0.00     0.212 HD
ENDBRANCH   8  15
BRANCH  13  17
HETATM   17  C14 UNL     1      68.089  37.321  65.078  1.00  0.00     0.290 C 
HETATM   18  O6  UNL     1      68.119  38.337  64.407  1.00  0.00    -0.260 OA
BRANCH  17  19
HETATM   19  O7  UNL     1      67.231  36.332  64.688  1.00  0.00    -0.310 OA
BRANCH  19  20
HETATM   20  C15 UNL     1      67.382  34.970  64.646  1.00  0.00     0.258 C 
BRANCH  20  21
HETATM   21  C16 UNL     1      66.212  34.285  65.220  1.00  0.00     0.135 A 
HETATM   22  N5  UNL     1      65.955  32.978  65.260  1.00  0.00    -0.268 N 
HETATM   23  N6  UNL     1      64.783  32.777  65.904  1.00  0.00     0.003 NA
ATOM     24  H5  UNL     1      66.548  32.246  64.868  1.00  0.00     0.185 HD
HETATM   25  N7  UNL     1      64.283  33.943  66.277  1.00  0.00    -0.178 N 
HETATM   26  N9  UNL     1      65.141  34.843  65.864  1.00  0.00    -0.266 N 
ATOM     27  H9  UNL     1      65.025  35.846  66.007  1.00  0.00     0.190 HD
BRANCH  25  28
HETATM   28  C17 UNL     1      63.040  34.178  66.995  1.00  0.00     0.089 A 
HETATM   29  C18 UNL     1      62.313  33.234  67.700  1.00  0.00     0.051 A 
HETATM   30  C19 UNL     1      61.177  33.810  68.249  1.00  0.00     0.090 A 
HETATM   31  N8  UNL     1      61.213  35.116  67.874  1.00  0.00    -0.373 N 
HETATM   32  C20 UNL     1      62.315  35.333  67.132  1.00  0.00     0.120 A 
ATOM     33  H8  UNL     1      60.516  35.820  68.117  1.00  0.00     0.164 HD
ENDBRANCH  25  28
ENDBRANCH  20  21
ENDBRANCH  19  20
ENDBRANCH  17  19
ENDBRANCH  13  17
BRANCH  10  34
HETATM   34  O5  UNL     1      67.321  36.988  67.347  1.00  0.00    -0.378 OA
ATOM     35  H5  UNL     1      66.557  37.057  66.787  1.00  0.00     0.211 HD
ENDBRANCH  10  34
ENDBRANCH   2   7
BRANCH   1  36
HETATM   36  C6  UNL     1      69.821  34.025  70.859  1.00  0.00     0.264 C 
BRANCH  36  37
HETATM   37  O3  UNL     1      69.101  33.030  71.433  1.00  0.00    -0.273 OA
BRANCH  37  38
HETATM   38  C5  UNL     1      67.826  32.655  71.543  1.00  0.00     0.266 C 
HETATM   39  O2  UNL     1      67.047  33.367  72.226  1.00  0.00    -0.265 OA
BRANCH  38  40
HETATM   40  C4  UNL     1      67.224  31.423  70.924  1.00  0.00     0.131 C 
BRANCH  40  41
HETATM   41  C3  UNL     1      66.889  31.588  69.489  1.00  0.00     0.132 C 
BRANCH  41  42
HETATM   42  N1  UNL     1      68.049  31.816  68.684  1.00  0.00    -0.361 N 
HETATM   43  C2  UNL     1      68.265  33.024  67.977  1.00  0.00     0.213 C 
HETATM   44  C1  UNL     1      69.440  33.276  67.152  1.00  0.00     0.117 C 
HETATM   45  O1  UNL     1      67.400  33.950  68.054  1.00  0.00    -0.274 OA
ATOM     46  H1  UNL     1      68.749  31.077  68.616  1.00  0.00     0.162 HD
ENDBRANCH  41  42
ENDBRANCH  40  41
ENDBRANCH  38  40
ENDBRANCH  37  38
ENDBRANCH  36  37
ENDBRANCH   1  36
BRANCH   3  47
HETATM   47  C22 UNL     1      69.721  38.940  71.395  1.00  0.00     0.278 C 
HETATM   48  O8  UNL     1      68.654  39.381  70.833  1.00  0.00    -0.266 OA
HETATM   49  N10 UNL     1      70.780  39.779  71.686  1.00  0.00    -0.306 N 
HETATM   50  C23 UNL     1      71.435  39.988  72.735  1.00  0.00     0.184 C 
ATOM     51  H10 UNL     1      71.089  40.339  70.892  1.00  0.00     0.170 HD
HETATM   52  N11 UNL     1      71.156  39.310  73.942  1.00  0.00    -0.077 NA
BRANCH  50  53
HETATM   53  C24 UNL     1      72.540  40.983  72.740  1.00  0.00     0.296 C 
HETATM   54  N12 UNL     1      73.867  40.570  72.907  1.00  0.00    -0.055 NA
HETATM   55  O9  UNL     1      72.273  42.190  72.594  1.00  0.00    -0.268 OA
ENDBRANCH  50  53
ENDBRANCH   3  47
BRANCH   6  56
HETATM   56  N14 UNL     1      69.976  34.761  73.766  1.00  0.00    -0.234 N 
ATOM     57 2H14 UNL     1      69.186  34.350  74.262  1.00  0.00     0.174 HD
ATOM     58 1H14 UNL     1      70.841  34.442  74.202  1.00  0.00     0.174 HD
ENDBRANCH   6  56
TORSDOF 17
ENDMDL
MODEL 2
REMARK VINA RESULT: -6.813917972      1.172      1.838
REMARK  17 active torsions:
REMARK  status: ('A' for Active; 'I' for Inactive)
REMARK       I    between atoms: C2_2  and  N1_4 
REMARK    1  A    between atoms: N1_4  and  C3_6 
REMARK    2  A    between atoms: C3_6  and  C4_7 
REMARK    3  A    between atoms: C4_7  and  C5_8 
REMARK    4  A    between atoms: C5_8  and  O3_10 
REMARK    5  A    between atoms: O3_10  and  C6_11 
REMARK    6  A    between atoms: C6_11  and  N2_12 
REMARK    7  A    between atoms: C7_13  and  N3_14 
REMARK    8  A    between atoms: C8_15  and  O4_16 
REMARK    9  A    between atoms: C12_22  and  O5_23 
REMARK   10  A    between atoms: C13_25  and  C14_26 
REMARK   11  A    between atoms: C14_26  and  O7_28 
REMARK   12  A    between atoms: O7_28  and  C15_29 
REMARK   13  A    between atoms: C15_29  and  C16_30 
REMARK   14  A    between atoms: N7_34  and  C17_35 
REMARK   15  A    between atoms: C21_43  and  C22_44 
REMARK       I    between atoms: C22_44  and  N10_46 
REMARK   16  A    between atoms: C23_48  and  C24_50 
REMARK   17  A    between atoms: C25_55  and  N14_56 
ROOT
HETATM    1  N2  UNL     1      69.668  35.039  71.063  1.00  0.00    -0.118 N 
HETATM    2  C7  UNL     1      69.681  36.247  70.499  1.00  0.00     0.183 A 
HETATM    3  C21 UNL     1      69.715  37.201  71.489  1.00  0.00     0.163 A 
HETATM    4  N13 UNL     1      69.729  36.563  72.657  1.00  0.00    -0.182 N 
ATOM      5  H13 UNL     1      69.755  37.000  73.578  1.00  0.00     0.184 HD
HETATM    6  C25 UNL     1      69.704  35.235  72.409  1.00  0.00     0.686 A 
ENDROOT
BRANCH   2   7
HETATM    7  N3  UNL     1      69.736  36.545  69.142  1.00  0.00    -0.226 N 
HETATM    8  C8  UNL     1      69.084  36.677  68.436  1.00  0.00     0.210 A 
HETATM    9  C9  UNL     1      69.630  37.008  67.022  1.00  0.00     0.105 A 
HETATM   10  C12 UNL     1      68.718  36.965  67.047  1.00  0.00     0.161 A 
HETATM   11  N4  UNL     1      69.912  36.809  67.965  1.00  0.00     0.000 N 
HETATM   12  C10 UNL     1      70.994  37.140  66.639  1.00  0.00    -0.004 A 
HETATM   13  C13 UNL     1      68.967  37.214  65.971  1.00  0.00     0.057 A 
HETATM   14  C11 UNL     1      71.239  36.916  67.685  1.00  0.00    -0.003 A 
BRANCH   8  15
HETATM   15  O4  UNL     1      67.878  36.488  69.104  1.00  0.00    -0.365 OA
ATOM     16  H4  UNL     1      67.263  36.380  68.388  1.00  0.00     0.212 HD
ENDBRANCH   8  15
BRANCH  13  17
HETATM   17  C14 UNL     1      68.164  37.425  64.798  1.00  0.00     0.290 C 
HETATM   18  O6  UNL     1      68.012  38.538  64.327  1.00  0.00    -0.260 OA
BRANCH  17  19
HETATM   19  O7  UNL     1      67.541  36.384  64.170  1.00  0.00    -0.310 OA
BRANCH  19  20
HETATM   20  C15 UNL     1      67.832  35.045  64.137  1.00  0.00     0.258 C 
BRANCH  20  21
HETATM   21  C16 UNL     1      66.748  34.248  64.737  1.00  0.00     0.135 A 
HETATM   22  N5  UNL     1      66.612  32.923  64.761  1.00  0.00    -0.268 N 
HETATM   23  N6  UNL     1      65.485  32.607  65.439  1.00  0.00     0.003 NA
ATOM     24  H5  UNL     1      67.254  32.254  64.336  1.00  0.00     0.185 HD
HETATM   25  N7  UNL     1      64.896  33.717  65.851  1.00  0.00    -0.178 N 
HETATM   26  N9  UNL     1      65.655  34.697  65.426  1.00  0.00    -0.266 N 
ATOM     27  H9  UNL     1      65.454  35.683  65.591  1.00  0.00     0.190 HD
BRANCH  25  28
HETATM   28  C17 UNL     1      63.663  33.827  66.613  1.00  0.00     0.089 A 
HETATM   29  C18 UNL     1      62.942  34.987  66.839  1.00  0.00     0.051 A 
HETATM   30  C19 UNL     1      61.825  34.718  67.616  1.00  0.00     0.090 A 
HETATM   31  N8  UNL     1      61.866  33.383  67.865  1.00  0.00    -0.373 N 
HETATM   32  C20 UNL     1      62.954  32.857  67.272  1.00  0.00     0.120 A 
ATOM     33  H8  UNL     1      61.182  32.863  68.414  1.00  0.00     0.164 HD
ENDBRANCH  25  28
ENDBRANCH  20  21
ENDBRANCH  19  20
ENDBRANCH  17  19
ENDBRANCH  13  17
BRANCH  10  34
HETATM   34  O5  UNL     1      67.337  36.921  67.014  1.00  0.00    -0.378 OA
ATOM     35  H5  UNL     1      66.583  37.133  66.476  1.00  0.00     0.211 HD
ENDBRANCH  10  34
ENDBRANCH   2   7
BRANCH   1  36
HETATM   36  C6  UNL     1      69.647  33.785  70.391  1.00  0.00     0.264 C 
BRANCH  36  37
HETATM   37  O3  UNL     1      68.536  33.418  69.707  1.00  0.00    -0.273 OA
BRANCH  37  38
HETATM   38  C5  UNL     1      68.181  33.146  68.450  1.00  0.00     0.266 C 
HETATM   39  O2  UNL     1      67.417  33.946  67.854  1.00  0.00    -0.265 OA
BRANCH  38  40
HETATM   40  C4  UNL     1      68.610  31.933  67.669  1.00  0.00     0.131 C 
BRANCH  40  41
HETATM   41  C3  UNL     1      67.607  30.841  67.678  1.00  0.00     0.132 C 
BRANCH  41  42
HETATM   42  N1  UNL     1      66.394  31.224  68.331  1.00  0.00    -0.361 N 
HETATM   43  C2  UNL     1      65.735  30.394  69.270  1.00  0.00     0.213 C 
HETATM   44  C1  UNL     1      64.498  30.765  69.948  1.00  0.00     0.117 C 
HETATM   45  O1  UNL     1      66.231  29.260  69.551  1.00  0.00    -0.274 OA
ATOM     46  H1  UNL     1      65.987  32.133  68.112  1.00  0.00     0.162 HD
ENDBRANCH  41  42
ENDBRANCH  40  41
ENDBRANCH  38  40
ENDBRANCH  37  38
ENDBRANCH  36  37
ENDBRANCH   1  36
BRANCH   3  47
HETATM   47  C22 UNL     1      69.727  38.652  71.265  1.00  0.00     0.278 C 
HETATM   48  O8  UNL     1      68.815  39.139  70.502  1.00  0.00    -0.266 OA
HETATM   49  N10 UNL     1      70.680  39.462  71.853  1.00  0.00    -0.306 N 
HETATM   50  C23 UNL     1      71.070  39.591  73.038  1.00  0.00     0.184 C 
ATOM     51  H10 UNL     1      71.160  40.074  71.195  1.00  0.00     0.170 HD
HETATM   52  N11 UNL     1      70.525  38.830  74.095  1.00  0.00    -0.077 NA
BRANCH  50  53
HETATM   53  C24 UNL     1      72.134  40.576  73.370  1.00  0.00     0.296 C 
HETATM   54  N12 UNL     1      72.856  40.465  74.565  1.00  0.00    -0.055 NA
HETATM   55  O9  UNL     1      72.376  41.501  72.575  1.00  0.00    -0.268 OA
ENDBRANCH  50  53
ENDBRANCH   3  47
BRANCH   6  56
HETATM   56  N14 UNL     1      69.771  34.313  73.344  1.00  0.00    -0.234 N 
ATOM     57 2H14 UNL     1      70.634  33.842  73.617  1.00  0.00     0.174 HD
ATOM     58 1H14 UNL     1      68.996  33.914  73.873  1.00  0.00     0.174 HD
ENDBRANCH   6  56
TORSDOF 17
ENDMDL
MODEL 3
REMARK VINA RESULT: -6.783940205      2.731      4.069
REMARK  17 active torsions:
REMARK  status: ('A' for Active; 'I' for Inactive)
REMARK       I    between atoms: C2_2  and  N1_4 
REMARK    1  A    between atoms: N1_4  and  C3_6 
REMARK    2  A    between atoms: C3_6  and  C4_7 
REMARK    3  A    between atoms: C4_7  and  C5_8 
REMARK    4  A    between atoms: C5_8  and  O3_10 
REMARK    5  A    between atoms: O3_10  and  C6_11 
REMARK    6  A    between atoms: C6_11  and  N2_12 
REMARK    7  A    between atoms: C7_13  and  N3_14 
REMARK    8  A    between atoms: C8_15  and  O4_16 
REMARK    9  A    between atoms: C12_22  and  O5_23 
REMARK   10  A    between atoms: C13_25  and  C14_26 
REMARK   11  A    between atoms: C14_26  and  O7_28 
REMARK   12  A    between atoms: O7_28  and  C15_29 
REMARK   13  A    between atoms: C15_29  and  C16_30 
REMARK   14  A    between atoms: N7_34  and  C17_35 
REMARK   15  A    between atoms: C21_43  and  C22_44 
REMARK       I    between atoms: C22_44  and  N10_46 
REMARK   16  A    between atoms: C23_48  and  C24_50 
REMARK   17  A    between atoms: C25_55  and  N14_56 
ROOT
HETATM    1  N2  UNL     1      69.766  35.024  70.810  1.00  0.00    -0.118 N 
HETATM    2  C7  UNL     1      69.754  36.245  70.277  1.00  0.00     0.183 A 
HETATM    3  C21 UNL     1      69.721  37.174  71.291  1.00  0.00     0.163 A 
HETATM    4  N13 UNL     1      69.718  36.506  72.443  1.00  0.00    -0.182 N 
ATOM      5  H13 UNL     1      69.697  36.920  73.374  1.00  0.00     0.184 HD
HETATM    6  C25 UNL     1      69.748  35.185  72.161  1.00  0.00     0.686 A 
ENDROOT
BRANCH   2   7
HETATM    7  N3  UNL     1      69.844  36.580  68.930  1.00  0.00    -0.226 N 
HETATM    8  C8  UNL     1      69.212  36.712  68.207  1.00  0.00     0.210 A 
HETATM    9  C9  UNL     1      69.793  37.096  66.821  1.00  0.00     0.105 A 
HETATM   10  C12 UNL     1      68.883  37.026  66.814  1.00  0.00     0.161 A 
HETATM   11  N4  UNL     1      70.050  36.881  67.767  1.00  0.00     0.000 N 
HETATM   12  C10 UNL     1      71.164  37.279  66.487  1.00  0.00    -0.004 A 
HETATM   13  C13 UNL     1      69.160  37.310  65.754  1.00  0.00     0.057 A 
HETATM   14  C11 UNL     1      71.382  37.035  67.535  1.00  0.00    -0.003 A 
BRANCH   8  15
HETATM   15  O4  UNL     1      67.991  36.469  68.828  1.00  0.00    -0.365 OA
ATOM     16  H4  UNL     1      67.398  36.394  68.091  1.00  0.00     0.212 HD
ENDBRANCH   8  15
BRANCH  13  17
HETATM   17  C14 UNL     1      68.389  37.528  64.560  1.00  0.00     0.290 C 
HETATM   18  O6  UNL     1      67.897  38.615  64.314  1.00  0.00    -0.260 OA
BRANCH  17  19
HETATM   19  O7  UNL     1      68.179  36.522  63.659  1.00  0.00    -0.310 OA
BRANCH  19  20
HETATM   20  C15 UNL     1      68.979  35.479  63.268  1.00  0.00     0.258 C 
BRANCH  20  21
HETATM   21  C16 UNL     1      68.430  34.801  62.082  1.00  0.00     0.135 A 
HETATM   22  N5  UNL     1      68.143  35.324  60.890  1.00  0.00    -0.268 N 
HETATM   23  N6  UNL     1      67.684  34.345  60.076  1.00  0.00     0.003 NA
ATOM     24  H5  UNL     1      68.252  36.305  60.632  1.00  0.00     0.185 HD
HETATM   25  N7  UNL     1      67.673  33.198  60.735  1.00  0.00    -0.178 N 
HETATM   26  N9  UNL     1      68.119  33.478  61.935  1.00  0.00    -0.266 N 
ATOM     27  H9  UNL     1      68.222  32.785  62.678  1.00  0.00     0.190 HD
BRANCH  25  28
HETATM   28  C17 UNL     1      67.253  31.901  60.233  1.00  0.00     0.089 A 
HETATM   29  C18 UNL     1      67.071  30.753  60.984  1.00  0.00     0.051 A 
HETATM   30  C19 UNL     1      66.676  29.700  60.172  1.00  0.00     0.090 A 
HETATM   31  N8  UNL     1      66.618  30.212  58.915  1.00  0.00    -0.373 N 
HETATM   32  C20 UNL     1      66.960  31.513  58.951  1.00  0.00     0.120 A 
ATOM     33  H8  UNL     1      66.357  29.693  58.076  1.00  0.00     0.164 HD
ENDBRANCH  25  28
ENDBRANCH  20  21
ENDBRANCH  19  20
ENDBRANCH  17  19
ENDBRANCH  13  17
BRANCH  10  34
HETATM   34  O5  UNL     1      67.506  36.940  66.734  1.00  0.00    -0.378 OA
ATOM     35  H5  UNL     1      66.744  37.330  66.321  1.00  0.00     0.211 HD
ENDBRANCH  10  34
ENDBRANCH   2   7
BRANCH   1  36
HETATM   36  C6  UNL     1      69.813  33.788  70.106  1.00  0.00     0.264 C 
BRANCH  36  37
HETATM   37  O3  UNL     1      68.739  33.400  69.374  1.00  0.00    -0.273 OA
BRANCH  37  38
HETATM   38  C5  UNL     1      68.448  32.516  68.420  1.00  0.00     0.266 C 
HETATM   39  O2  UNL     1      67.512  31.700  68.620  1.00  0.00    -0.265 OA
BRANCH  38  40
HETATM   40  C4  UNL     1      69.163  32.391  67.102  1.00  0.00     0.131 C 
BRANCH  40  41
HETATM   41  C3  UNL     1      68.678  33.344  66.075  1.00  0.00     0.132 C 
BRANCH  41  42
HETATM   42  N1  UNL     1      67.441  33.957  66.446  1.00  0.00    -0.361 N 
HETATM   43  C2  UNL     1      66.283  33.898  65.633  1.00  0.00     0.213 C 
HETATM   44  C1  UNL     1      65.012  34.516  65.993  1.00  0.00     0.117 C 
HETATM   45  O1  UNL     1      66.333  33.278  64.526  1.00  0.00    -0.274 OA
ATOM     46  H1  UNL     1      67.391  34.457  67.334  1.00  0.00     0.162 HD
ENDBRANCH  41  42
ENDBRANCH  40  41
ENDBRANCH  38  40
ENDBRANCH  37  38
ENDBRANCH  36  37
ENDBRANCH   1  36
BRANCH   3  47
HETATM   47  C22 UNL     1      69.687  38.630  71.104  1.00  0.00     0.278 C 
HETATM   48  O8  UNL     1      68.774  39.106  70.337  1.00  0.00    -0.266 OA
HETATM   49  N10 UNL     1      70.603  39.455  71.729  1.00  0.00    -0.306 N 
HETATM   50  C23 UNL     1      70.968  39.566  72.924  1.00  0.00     0.184 C 
ATOM     51  H10 UNL     1      71.073  40.100  71.095  1.00  0.00     0.170 HD
HETATM   52  N11 UNL     1      70.430  38.761  73.952  1.00  0.00    -0.077 NA
BRANCH  50  53
HETATM   53  C24 UNL     1      71.992  40.577  73.300  1.00  0.00     0.296 C 
HETATM   54  N12 UNL     1      72.746  40.422  74.471  1.00  0.00    -0.055 NA
HETATM   55  O9  UNL     1      72.174  41.563  72.564  1.00  0.00    -0.268 OA
ENDBRANCH  50  53
ENDBRANCH   3  47
BRANCH   6  56
HETATM   56  N14 UNL     1      69.817  34.242  73.074  1.00  0.00    -0.234 N 
ATOM     57 2H14 UNL     1      69.008  33.876  73.576  1.00  0.00     0.174 HD
ATOM     58 1H14 UNL     1      70.660  33.796  73.437  1.00  0.00     0.174 HD
ENDBRANCH   6  56
TORSDOF 17
ENDMDL
MODEL 4
REMARK VINA RESULT: -6.778237609      2.999      6.009
REMARK  17 active torsions:
REMARK  status: ('A' for Active; 'I' for Inactive)
REMARK       I    between atoms: C2_2  and  N1_4 
REMARK    1  A    between atoms: N1_4  and  C3_6 
REMARK    2  A    between atoms: C3_6  and  C4_7 
REMARK    3  A    between atoms: C4_7  and  C5_8 
REMARK    4  A    between atoms: C5_8  and  O3_10 
REMARK    5  A    between atoms: O3_10  and  C6_11 
REMARK    6  A    between atoms: C6_11  and  N2_12 
REMARK    7  A    between atoms: C7_13  and  N3_14 
REMARK    8  A    between atoms: C8_15  and  O4_16 
REMARK    9  A    between atoms: C12_22  and  O5_23 
REMARK   10  A    between atoms: C13_25  and  C14_26 
REMARK   11  A    between atoms: C14_26  and  O7_28 
REMARK   12  A    between atoms: O7_28  and  C15_29 
REMARK   13  A    between atoms: C15_29  and  C16_30 
REMARK   14  A    between atoms: N7_34  and  C17_35 
REMARK   15  A    between atoms: C21_43  and  C22_44 
REMARK       I    between atoms: C22_44  and  N10_46 
REMARK   16  A    between atoms: C23_48  and  C24_50 
REMARK   17  A    between atoms: C25_55  and  N14_56 
ROOT
HETATM    1  N2  UNL     1      70.434  36.208  65.728  1.00  0.00    -0.118 N 
HETATM    2  C7  UNL     1      69.377  36.145  66.536  1.00  0.00     0.183 A 
HETATM    3  C21 UNL     1      69.303  37.309  67.265  1.00  0.00     0.163 A 
HETATM    4  N13 UNL     1      70.320  38.080  66.888  1.00  0.00    -0.182 N 
ATOM      5  H13 UNL     1      70.532  39.010  67.249  1.00  0.00     0.184 HD
HETATM    6  C25 UNL     1      71.020  37.417  65.942  1.00  0.00     0.686 A 
ENDROOT
BRANCH   2   7
HETATM    7  N3  UNL     1      68.428  35.130  66.609  1.00  0.00    -0.226 N 
HETATM    8  C8  UNL     1      67.593  34.932  66.158  1.00  0.00     0.210 A 
HETATM    9  C9  UNL     1      66.852  33.636  66.581  1.00  0.00     0.105 A 
HETATM   10  C12 UNL     1      66.408  34.099  65.932  1.00  0.00     0.161 A 
HETATM   11  N4  UNL     1      67.671  34.188  66.763  1.00  0.00     0.000 N 
HETATM   12  C10 UNL     1      67.264  32.696  67.567  1.00  0.00    -0.004 A 
HETATM   13  C13 UNL     1      65.762  33.192  66.133  1.00  0.00     0.057 A 
HETATM   14  C11 UNL     1      68.138  33.341  67.720  1.00  0.00    -0.003 A 
BRANCH   8  15
HETATM   15  O4  UNL     1      67.465  36.002  65.279  1.00  0.00    -0.365 OA
ATOM     16  H4  UNL     1      66.766  35.713  64.705  1.00  0.00     0.212 HD
ENDBRANCH   8  15
BRANCH  13  17
HETATM   17  C14 UNL     1      64.508  32.738  65.597  1.00  0.00     0.290 C 
HETATM   18  O6  UNL     1      64.463  31.982  64.644  1.00  0.00    -0.260 OA
BRANCH  17  19
HETATM   19  O7  UNL     1      63.319  33.142  66.138  1.00  0.00    -0.310 OA
BRANCH  19  20
HETATM   20  C15 UNL     1      62.972  34.294  66.796  1.00  0.00     0.258 C 
BRANCH  20  21
HETATM   21  C16 UNL     1      61.815  34.075  67.679  1.00  0.00     0.135 A 
HETATM   22  N5  UNL     1      60.851  34.935  68.009  1.00  0.00    -0.268 N 
HETATM   23  N6  UNL     1      59.966  34.316  68.824  1.00  0.00     0.003 NA
ATOM     24  H5  UNL     1      60.792  35.905  67.698  1.00  0.00     0.185 HD
HETATM   25  N7  UNL     1      60.352  33.066  69.020  1.00  0.00    -0.178 N 
HETATM   26  N9  UNL     1      61.459  32.928  68.334  1.00  0.00    -0.266 N 
ATOM     27  H9  UNL     1      61.997  32.061  68.293  1.00  0.00     0.190 HD
BRANCH  25  28
HETATM   28  C17 UNL     1      59.686  32.058  69.829  1.00  0.00     0.089 A 
HETATM   29  C18 UNL     1      59.652  30.698  69.576  1.00  0.00     0.051 A 
HETATM   30  C19 UNL     1      58.918  30.042  70.552  1.00  0.00     0.090 A 
HETATM   31  N8  UNL     1      58.501  31.012  71.408  1.00  0.00    -0.373 N 
HETATM   32  C20 UNL     1      58.956  32.204  70.980  1.00  0.00     0.120 A 
ATOM     33  H8  UNL     1      57.934  30.861  72.243  1.00  0.00     0.164 HD
ENDBRANCH  25  28
ENDBRANCH  20  21
ENDBRANCH  19  20
ENDBRANCH  17  19
ENDBRANCH  13  17
BRANCH  10  34
HETATM   34  O5  UNL     1      65.688  34.747  64.946  1.00  0.00    -0.378 OA
ATOM     35  H5  UNL     1      65.735  35.452  64.311  1.00  0.00     0.211 HD
ENDBRANCH  10  34
ENDBRANCH   2   7
BRANCH   1  36
HETATM   36  C6  UNL     1      70.858  35.215  64.800  1.00  0.00     0.264 C 
BRANCH  36  37
HETATM   37  O3  UNL     1      70.172  35.055  63.641  1.00  0.00    -0.273 OA
BRANCH  37  38
HETATM   38  C5  UNL     1      69.681  34.060  62.902  1.00  0.00     0.266 C 
HETATM   39  O2  UNL     1      70.484  33.290  62.317  1.00  0.00    -0.265 OA
BRANCH  38  40
HETATM   40  C4  UNL     1      68.219  33.777  62.686  1.00  0.00     0.131 C 
BRANCH  40  41
HETATM   41  C3  UNL     1      67.628  34.545  61.564  1.00  0.00     0.132 C 
BRANCH  41  42
HETATM   42  N1  UNL     1      68.356  34.369  60.345  1.00  0.00    -0.361 N 
HETATM   43  C2  UNL     1      68.608  35.433  59.445  1.00  0.00     0.213 C 
HETATM   44  C1  UNL     1      69.348  35.276  58.198  1.00  0.00     0.117 C 
HETATM   45  O1  UNL     1      68.175  36.594  59.719  1.00  0.00    -0.274 OA
ATOM     46  H1  UNL     1      68.708  33.440  60.116  1.00  0.00     0.162 HD
ENDBRANCH  41  42
ENDBRANCH  40  41
ENDBRANCH  38  40
ENDBRANCH  37  38
ENDBRANCH  36  37
ENDBRANCH   1  36
BRANCH   3  47
HETATM   47  C22 UNL     1      68.279  37.612  68.273  1.00  0.00     0.278 C 
HETATM   48  O8  UNL     1      67.093  37.167  68.063  1.00  0.00    -0.266 OA
HETATM   49  N10 UNL     1      68.581  38.346  69.404  1.00  0.00    -0.306 N 
HETATM   50  C23 UNL     1      69.477  38.235  70.274  1.00  0.00     0.184 C 
ATOM     51  H10 UNL     1      67.951  39.132  69.563  1.00  0.00     0.170 HD
HETATM   52  N11 UNL     1      70.444  37.207  70.229  1.00  0.00    -0.077 NA
BRANCH  50  53
HETATM   53  C24 UNL     1      69.542  39.196  71.407  1.00  0.00     0.296 C 
HETATM   54  N12 UNL     1      70.645  39.205  72.270  1.00  0.00    -0.055 NA
HETATM   55  O9  UNL     1      68.604  39.996  71.581  1.00  0.00    -0.268 OA
ENDBRANCH  50  53
ENDBRANCH   3  47
BRANCH   6  56
HETATM   56  N14 UNL     1      72.056  37.921  65.308  1.00  0.00    -0.234 N 
ATOM     57 2H14 UNL     1      71.985  38.627  64.575  1.00  0.00     0.174 HD
ATOM     58 1H14 UNL     1      73.034  37.653  65.415  1.00  0.00     0.174 HD
ENDBRANCH   6  56
TORSDOF 17
ENDMDL
MODEL 5
REMARK VINA RESULT: -6.758087955      1.400      1.880
REMARK  17 active torsions:
REMARK  status: ('A' for Active; 'I' for Inactive)
REMARK       I    between atoms: C2_2  and  N1_4 
REMARK    1  A    between atoms: N1_4  and  C3_6 
REMARK    2  A    between atoms: C3_6  and  C4_7 
REMARK    3  A    between atoms: C4_7  and  C5_8 
REMARK    4  A    between atoms: C5_8  and  O3_10 
REMARK    5  A    between atoms: O3_10  and  C6_11 
REMARK    6  A    between atoms: C6_11  and  N2_12 
REMARK    7  A    between atoms: C7_13  and  N3_14 
REMARK    8  A    between atoms: C8_15  and  O4_16 
REMARK    9  A    between atoms: C12_22  and  O5_23 
REMARK   10  A    between atoms: C13_25  and  C14_26 
REMARK   11  A    between atoms: C14_26  and  O7_28 
REMARK   12  A    between atoms: O7_28  and  C15_29 
REMARK   13  A    between atoms: C15_29  and  C16_30 
REMARK   14  A    between atoms: N7_34  and  C17_35 
REMARK   15  A    between atoms: C21_43  and  C22_44 
REMARK       I    between atoms: C22_44  and  N10_46 
REMARK   16  A    between atoms: C23_48  and  C24_50 
REMARK   17  A    between atoms: C25_55  and  N14_56 
ROOT
HETATM    1  N2  UNL     1      69.680  35.027  70.943  1.00  0.00    -0.118 N 
HETATM    2  C7  UNL     1      69.693  36.246  70.404  1.00  0.00     0.183 A 
HETATM    3  C21 UNL     1      69.693  37.180  71.414  1.00  0.00     0.163 A 
HETATM    4  N13 UNL     1      69.685  36.518  72.569  1.00  0.00    -0.182 N 
ATOM      5  H13 UNL     1      69.683  36.936  73.499  1.00  0.00     0.184 HD
HETATM    6  C25 UNL     1      69.679  35.195  72.293  1.00  0.00     0.686 A 
ENDROOT
BRANCH   2   7
HETATM    7  N3  UNL     1      69.779  36.573  69.055  1.00  0.00    -0.226 N 
HETATM    8  C8  UNL     1      69.144  36.695  68.332  1.00  0.00     0.210 A 
HETATM    9  C9  UNL     1      69.720  37.074  66.942  1.00  0.00     0.105 A 
HETATM   10  C12 UNL     1      68.811  36.997  66.937  1.00  0.00     0.161 A 
HETATM   11  N4  UNL     1      69.980  36.867  67.889  1.00  0.00     0.000 N 
HETATM   12  C10 UNL     1      71.089  37.264  66.605  1.00  0.00    -0.004 A 
HETATM   13  C13 UNL     1      69.083  37.276  65.875  1.00  0.00     0.057 A 
HETATM   14  C11 UNL     1      71.311  37.029  67.653  1.00  0.00    -0.003 A 
BRANCH   8  15
HETATM   15  O4  UNL     1      67.926  36.448  68.957  1.00  0.00    -0.365 OA
ATOM     16  H4  UNL     1      67.517  35.825  68.369  1.00  0.00     0.212 HD
ENDBRANCH   8  15
BRANCH  13  17
HETATM   17  C14 UNL     1      68.309  37.480  64.681  1.00  0.00     0.290 C 
HETATM   18  O6  UNL     1      67.975  38.597  64.326  1.00  0.00    -0.260 OA
BRANCH  17  19
HETATM   19  O7  UNL     1      67.917  36.428  63.902  1.00  0.00    -0.310 OA
BRANCH  19  20
HETATM   20  C15 UNL     1      68.386  35.142  63.820  1.00  0.00     0.258 C 
BRANCH  20  21
HETATM   21  C16 UNL     1      67.380  34.176  64.289  1.00  0.00     0.135 A 
HETATM   22  N5  UNL     1      67.283  32.877  64.004  1.00  0.00    -0.268 N 
HETATM   23  N6  UNL     1      66.226  32.356  64.669  1.00  0.00     0.003 NA
ATOM     24  H5  UNL     1      67.906  32.360  63.384  1.00  0.00     0.185 HD
HETATM   25  N7  UNL     1      65.643  33.308  65.378  1.00  0.00    -0.178 N 
HETATM   26  N9  UNL     1      66.336  34.395  65.146  1.00  0.00    -0.266 N 
ATOM     27  H9  UNL     1      66.122  35.304  65.558  1.00  0.00     0.190 HD
BRANCH  25  28
HETATM   28  C17 UNL     1      64.476  33.175  66.235  1.00  0.00     0.089 A 
HETATM   29  C18 UNL     1      63.501  34.135  66.442  1.00  0.00     0.051 A 
HETATM   30  C19 UNL     1      62.542  33.667  67.329  1.00  0.00     0.090 A 
HETATM   31  N8  UNL     1      62.938  32.411  67.664  1.00  0.00    -0.373 N 
HETATM   32  C20 UNL     1      64.082  32.121  67.017  1.00  0.00     0.120 A 
ATOM     33  H8  UNL     1      62.446  31.787  68.304  1.00  0.00     0.164 HD
ENDBRANCH  25  28
ENDBRANCH  20  21
ENDBRANCH  19  20
ENDBRANCH  17  19
ENDBRANCH  13  17
BRANCH  10  34
HETATM   34  O5  UNL     1      67.433  36.901  66.861  1.00  0.00    -0.378 OA
ATOM     35  H5  UNL     1      66.627  37.285  67.185  1.00  0.00     0.211 HD
ENDBRANCH  10  34
ENDBRANCH   2   7
BRANCH   1  36
HETATM   36  C6  UNL     1      69.689  33.787  70.245  1.00  0.00     0.264 C 
BRANCH  36  37
HETATM   37  O3  UNL     1      68.536  33.324  69.701  1.00  0.00    -0.273 OA
BRANCH  37  38
HETATM   38  C5  UNL     1      68.061  32.994  68.499  1.00  0.00     0.266 C 
HETATM   39  O2  UNL     1      67.635  33.908  67.749  1.00  0.00    -0.265 OA
BRANCH  38  40
HETATM   40  C4  UNL     1      67.972  31.595  67.953  1.00  0.00     0.131 C 
BRANCH  40  41
HETATM   41  C3  UNL     1      69.205  31.155  67.256  1.00  0.00     0.132 C 
BRANCH  41  42
HETATM   42  N1  UNL     1      70.112  32.235  67.025  1.00  0.00    -0.361 N 
HETATM   43  C2  UNL     1      70.526  32.623  65.728  1.00  0.00     0.213 C 
HETATM   44  C1  UNL     1      71.450  33.721  65.470  1.00  0.00     0.117 C 
HETATM   45  O1  UNL     1      70.080  31.992  64.720  1.00  0.00    -0.274 OA
ATOM     46  H1  UNL     1      70.476  32.748  67.829  1.00  0.00     0.162 HD
ENDBRANCH  41  42
ENDBRANCH  40  41
ENDBRANCH  38  40
ENDBRANCH  37  38
ENDBRANCH  36  37
ENDBRANCH   1  36
BRANCH   3  47
HETATM   47  C22 UNL     1      69.694  38.635  71.220  1.00  0.00     0.278 C 
HETATM   48  O8  UNL     1      68.797  39.129  70.445  1.00  0.00    -0.266 OA
HETATM   49  N10 UNL     1      70.624  39.442  71.848  1.00  0.00    -0.306 N 
HETATM   50  C23 UNL     1      70.984  39.551  73.044  1.00  0.00     0.184 C 
ATOM     51  H10 UNL     1      71.114  40.073  71.214  1.00  0.00     0.170 HD
HETATM   52  N11 UNL     1      70.421  38.763  74.072  1.00  0.00    -0.077 NA
BRANCH  50  53
HETATM   53  C24 UNL     1      72.028  40.539  73.424  1.00  0.00     0.296 C 
HETATM   54  N12 UNL     1      72.312  41.628  72.590  1.00  0.00    -0.055 NA
HETATM   55  O9  UNL     1      72.649  40.389  74.492  1.00  0.00    -0.268 OA
ENDBRANCH  50  53
ENDBRANCH   3  47
BRANCH   6  56
HETATM   56  N14 UNL     1      69.734  34.255  73.210  1.00  0.00    -0.234 N 
ATOM     57 2H14 UNL     1      70.590  33.768  73.475  1.00  0.00     0.174 HD
ATOM     58 1H14 UNL     1      68.953  33.855  73.730  1.00  0.00     0.174 HD
ENDBRANCH   6  56
TORSDOF 17
ENDMDL
