MODEL 1
REMARK VINA RESULT: -8.437045311      0.000      0.000
REMARK  11 active torsions:
REMARK  status: ('A' for Active; 'I' for Inactive)
REMARK       I    between atoms: N1_4  and  C4_6 
REMARK    1  A    between atoms: C4_6  and  C5_8 
REMARK    2  A    between atoms: C7_10  and  C8_11 
REMARK    3  A    between atoms: C8_11  and  C9_12 
REMARK    4  A    between atoms: C9_12  and  C10_13 
REMARK    5  A    between atoms: C10_13  and  C11_14 
REMARK    6  A    between atoms: N2_17  and  C14_18 
REMARK    7  A    between atoms: C14_18  and  O2_19 
REMARK    8  A    between atoms: C14_18  and  C15_21 
REMARK       I    between atoms: C15_21  and  N3_23 
REMARK    9  A    between atoms: C16_25  and  N4_27 
REMARK   10  A    between atoms: N4_27  and  C18_29 
REMARK   11  A    between atoms: C26_37  and  C27_38 
ROOT
HETATM    1  C5  UNL     1      -4.508   3.506  22.634  1.00  0.00     0.179 C 
HETATM    2  C6  UNL     1      -3.146   3.323  23.193  1.00  0.00     0.060 C 
HETATM    3  C7  UNL     1      -2.339   4.597  23.119  1.00  0.00     0.095 C 
HETATM    4  N2  UNL     1      -2.131   4.767  21.658  1.00  0.00    -0.314 N 
HETATM    5  C25 UNL     1      -2.969   5.688  20.924  1.00  0.00     0.110 C 
HETATM    6  C26 UNL     1      -2.526   6.890  20.318  1.00  0.00     0.106 C 
HETATM    7  C28 UNL     1      -4.081   4.840  20.414  1.00  0.00     0.269 C 
HETATM    8  O5  UNL     1      -4.528   4.983  19.317  1.00  0.00    -0.266 OA
HETATM    9  N6  UNL     1      -4.652   3.817  21.233  1.00  0.00    -0.342 N 
ATOM     10  H6  UNL     1      -5.279   3.187  20.732  1.00  0.00     0.163 HD
ENDROOT
BRANCH   4  11
HETATM   11  C14 UNL     1      -1.168   3.931  21.140  1.00  0.00     0.213 C 
BRANCH  11  12
HETATM   12  O2  UNL     1       0.059   4.382  21.167  1.00  0.00    -0.342 OA
ATOM     13  H2  UNL     1       0.738   3.737  21.323  1.00  0.00     0.219 HD
ENDBRANCH  11  12
BRANCH  11  14
HETATM   14  C15 UNL     1      -1.171   2.618  20.560  1.00  0.00     0.298 C 
HETATM   15  O3  UNL     1      -2.175   2.080  20.099  1.00  0.00    -0.263 OA
HETATM   16  N3  UNL     1       0.023   1.876  20.495  1.00  0.00    -0.310 N 
HETATM   17  C16 UNL     1       0.275   0.775  19.931  1.00  0.00     0.076 C 
ATOM     18  H3  UNL     1       0.813   2.296  20.985  1.00  0.00     0.170 HD
HETATM   19  C17 UNL     1       1.642   0.231  20.034  1.00  0.00     0.089 C 
BRANCH  17  20
HETATM   20  N4  UNL     1      -0.706   0.075  19.210  1.00  0.00    -0.374 N 
ATOM     21  H4  UNL     1      -1.463  -0.297  19.784  1.00  0.00     0.161 HD
BRANCH  20  22
HETATM   22  C18 UNL     1      -0.830  -0.201  17.845  1.00  0.00     0.092 C 
HETATM   23  C19 UNL     1      -1.555  -1.440  17.378  1.00  0.00     0.013 C 
HETATM   24  C20 UNL     1      -1.662  -1.072  15.882  1.00  0.00     0.012 C 
HETATM   25  C23 UNL     1      -0.268  -2.143  17.380  1.00  0.00    -0.002 C 
HETATM   26  C21 UNL     1      -0.135  -1.014  15.697  1.00  0.00    -0.007 C 
HETATM   27  C22 UNL     1       0.141  -2.502  15.968  1.00  0.00     0.010 C 
HETATM   28  C24 UNL     1       0.323  -0.776  17.087  1.00  0.00     0.017 C 
ENDBRANCH  20  22
ENDBRANCH  17  20
ENDBRANCH  11  14
ENDBRANCH   4  11
BRANCH   3  29
HETATM   29  C8  UNL     1      -1.199   4.725  24.012  1.00  0.00     0.026 C 
BRANCH  29  30
HETATM   30  C9  UNL     1      -0.732   3.429  24.678  1.00  0.00     0.002 C 
BRANCH  30  31
HETATM   31  C10 UNL     1       0.703   3.124  24.348  1.00  0.00     0.004 C 
BRANCH  31  32
HETATM   32  C11 UNL     1       1.297   2.249  25.398  1.00  0.00    -0.023 C 
HETATM   33  C12 UNL     1       1.459   0.845  24.837  1.00  0.00     0.009 C 
HETATM   34  C13 UNL     1       0.559   2.176  26.683  1.00  0.00     0.009 C 
ENDBRANCH  31  32
ENDBRANCH  30  31
ENDBRANCH  29  30
ENDBRANCH   3  29
BRANCH   6  35
HETATM   35  C27 UNL     1      -1.540   7.098  19.282  1.00  0.00     0.257 C 
HETATM   36  N5  UNL     1      -0.391   6.316  18.999  1.00  0.00    -0.058 NA
HETATM   37  O4  UNL     1      -1.651   8.070  18.501  1.00  0.00    -0.272 OA
ENDBRANCH   6  35
BRANCH   1  38
HETATM   38  C4  UNL     1      -5.383   4.366  23.508  1.00  0.00     0.244 C 
HETATM   39  N1  UNL     1      -5.130   4.615  24.867  1.00  0.00    -0.333 N 
HETATM   40  C2  UNL     1      -5.975   4.674  25.814  1.00  0.00    -0.018 C 
ATOM     41  H1  UNL     1      -4.155   4.766  25.124  1.00  0.00     0.168 HD
HETATM   42  C1  UNL     1      -5.440   4.958  27.192  1.00  0.00     0.062 C 
HETATM   43  C3  UNL     1      -7.430   4.490  25.695  1.00  0.00     0.062 C 
HETATM   44  O1  UNL     1      -6.381   4.872  22.961  1.00  0.00    -0.271 OA
ENDBRANCH   1  38
TORSDOF 11
ENDMDL
MODEL 2
REMARK VINA RESULT: -8.429510781      1.196      1.708
REMARK  11 active torsions:
REMARK  status: ('A' for Active; 'I' for Inactive)
REMARK       I    between atoms: N1_4  and  C4_6 
REMARK    1  A    between atoms: C4_6  and  C5_8 
REMARK    2  A    between atoms: C7_10  and  C8_11 
REMARK    3  A    between atoms: C8_11  and  C9_12 
REMARK    4  A    between atoms: C9_12  and  C10_13 
REMARK    5  A    between atoms: C10_13  and  C11_14 
REMARK    6  A    between atoms: N2_17  and  C14_18 
REMARK    7  A    between atoms: C14_18  and  O2_19 
REMARK    8  A    between atoms: C14_18  and  C15_21 
REMARK       I    between atoms: C15_21  and  N3_23 
REMARK    9  A    between atoms: C16_25  and  N4_27 
REMARK   10  A    between atoms: N4_27  and  C18_29 
REMARK   11  A    between atoms: C26_37  and  C27_38 
ROOT
HETATM    1  C5  UNL     1      -4.650   3.518  22.625  1.00  0.00     0.179 C 
HETATM    2  C6  UNL     1      -3.326   3.309  23.260  1.00  0.00     0.060 C 
HETATM    3  C7  UNL     1      -2.490   4.566  23.229  1.00  0.00     0.095 C 
HETATM    4  N2  UNL     1      -2.196   4.727  21.782  1.00  0.00    -0.314 N 
HETATM    5  C25 UNL     1      -2.972   5.662  20.999  1.00  0.00     0.110 C 
HETATM    6  C26 UNL     1      -2.471   6.853  20.417  1.00  0.00     0.106 C 
HETATM    7  C28 UNL     1      -4.071   4.836  20.430  1.00  0.00     0.269 C 
HETATM    8  O5  UNL     1      -4.452   4.985  19.308  1.00  0.00    -0.266 OA
HETATM    9  N6  UNL     1      -4.708   3.827  21.217  1.00  0.00    -0.342 N 
ATOM     10  H6  UNL     1      -5.318   3.209  20.683  1.00  0.00     0.163 HD
ENDROOT
BRANCH   4  11
HETATM   11  C14 UNL     1      -1.223   3.870  21.321  1.00  0.00     0.213 C 
BRANCH  11  12
HETATM   12  O2  UNL     1       0.013   4.263  21.484  1.00  0.00    -0.342 OA
ATOM     13  H2  UNL     1       0.677   3.586  21.434  1.00  0.00     0.219 HD
ENDBRANCH  11  12
BRANCH  11  14
HETATM   14  C15 UNL     1      -1.224   2.582  20.685  1.00  0.00     0.298 C 
HETATM   15  O3  UNL     1      -2.236   2.042  20.243  1.00  0.00    -0.263 OA
HETATM   16  N3  UNL     1      -0.019   1.870  20.539  1.00  0.00    -0.310 N 
HETATM   17  C16 UNL     1       0.231   0.800  19.917  1.00  0.00     0.076 C 
ATOM     18  H3  UNL     1       0.783   2.287  21.013  1.00  0.00     0.170 HD
HETATM   19  C17 UNL     1       1.612   0.283  19.940  1.00  0.00     0.089 C 
BRANCH  17  20
HETATM   20  N4  UNL     1      -0.766   0.110  19.209  1.00  0.00    -0.374 N 
ATOM     21  H4  UNL     1      -1.539  -0.219  19.786  1.00  0.00     0.161 HD
BRANCH  20  22
HETATM   22  C18 UNL     1      -0.885  -0.205  17.852  1.00  0.00     0.092 C 
HETATM   23  C19 UNL     1      -1.484  -1.522  17.423  1.00  0.00     0.013 C 
HETATM   24  C20 UNL     1      -1.657  -1.198  15.923  1.00  0.00     0.012 C 
HETATM   25  C23 UNL     1      -0.130  -2.085  17.410  1.00  0.00    -0.002 C 
HETATM   26  C21 UNL     1      -0.149  -0.983  15.704  1.00  0.00    -0.007 C 
HETATM   27  C22 UNL     1       0.288  -2.427  15.996  1.00  0.00     0.010 C 
HETATM   28  C24 UNL     1       0.308  -0.670  17.080  1.00  0.00     0.017 C 
ENDBRANCH  20  22
ENDBRANCH  17  20
ENDBRANCH  11  14
ENDBRANCH   4  11
BRANCH   3  29
HETATM   29  C8  UNL     1      -1.400   4.674  24.185  1.00  0.00     0.026 C 
BRANCH  29  30
HETATM   30  C9  UNL     1      -1.731   4.245  25.616  1.00  0.00     0.002 C 
BRANCH  30  31
HETATM   31  C10 UNL     1      -2.360   5.365  26.397  1.00  0.00     0.004 C 
BRANCH  31  32
HETATM   32  C11 UNL     1      -2.248   5.098  27.860  1.00  0.00    -0.023 C 
HETATM   33  C12 UNL     1      -1.777   6.363  28.559  1.00  0.00     0.009 C 
HETATM   34  C13 UNL     1      -1.367   3.970  28.253  1.00  0.00     0.009 C 
ENDBRANCH  31  32
ENDBRANCH  30  31
ENDBRANCH  29  30
ENDBRANCH   3  29
BRANCH   6  35
HETATM   35  C27 UNL     1      -1.424   7.037  19.438  1.00  0.00     0.257 C 
HETATM   36  N5  UNL     1      -0.165   6.389  19.373  1.00  0.00    -0.058 NA
HETATM   37  O4  UNL     1      -1.580   7.855  18.504  1.00  0.00    -0.272 OA
ENDBRANCH   6  35
BRANCH   1  38
HETATM   38  C4  UNL     1      -5.555   4.399  23.446  1.00  0.00     0.244 C 
HETATM   39  N1  UNL     1      -5.436   4.567  24.835  1.00  0.00    -0.333 N 
HETATM   40  C2  UNL     1      -6.372   4.644  25.690  1.00  0.00    -0.018 C 
ATOM     41  H1  UNL     1      -4.486   4.636  25.200  1.00  0.00     0.168 HD
HETATM   42  C1  UNL     1      -5.972   4.827  27.129  1.00  0.00     0.062 C 
HETATM   43  C3  UNL     1      -7.814   4.572  25.409  1.00  0.00     0.062 C 
HETATM   44  O1  UNL     1      -6.452   5.000  22.824  1.00  0.00    -0.271 OA
ENDBRANCH   1  38
TORSDOF 11
ENDMDL
MODEL 3
REMARK VINA RESULT: -8.156420739      0.732      1.070
REMARK  11 active torsions:
REMARK  status: ('A' for Active; 'I' for Inactive)
REMARK       I    between atoms: N1_4  and  C4_6 
REMARK    1  A    between atoms: C4_6  and  C5_8 
REMARK    2  A    between atoms: C7_10  and  C8_11 
REMARK    3  A    between atoms: C8_11  and  C9_12 
REMARK    4  A    between atoms: C9_12  and  C10_13 
REMARK    5  A    between atoms: C10_13  and  C11_14 
REMARK    6  A    between atoms: N2_17  and  C14_18 
REMARK    7  A    between atoms: C14_18  and  O2_19 
REMARK    8  A    between atoms: C14_18  and  C15_21 
REMARK       I    between atoms: C15_21  and  N3_23 
REMARK    9  A    between atoms: C16_25  and  N4_27 
REMARK   10  A    between atoms: N4_27  and  C18_29 
REMARK   11  A    between atoms: C26_37  and  C27_38 
ROOT
HETATM    1  C5  UNL     1      -4.279   3.235  22.794  1.00  0.00     0.179 C 
HETATM    2  C6  UNL     1      -2.893   3.093  23.303  1.00  0.00     0.060 C 
HETATM    3  C7  UNL     1      -2.139   4.399  23.234  1.00  0.00     0.095 C 
HETATM    4  N2  UNL     1      -1.986   4.611  21.771  1.00  0.00    -0.314 N 
HETATM    5  C25 UNL     1      -2.884   5.514  21.087  1.00  0.00     0.110 C 
HETATM    6  C26 UNL     1      -2.508   6.746  20.496  1.00  0.00     0.106 C 
HETATM    7  C28 UNL     1      -3.978   4.635  20.594  1.00  0.00     0.269 C 
HETATM    8  O5  UNL     1      -4.467   4.785  19.515  1.00  0.00    -0.266 OA
HETATM    9  N6  UNL     1      -4.481   3.571  21.406  1.00  0.00    -0.342 N 
ATOM     10  H6  UNL     1      -5.100   2.929  20.911  1.00  0.00     0.163 HD
ENDROOT
BRANCH   4  11
HETATM   11  C14 UNL     1      -1.010   3.825  21.203  1.00  0.00     0.213 C 
BRANCH  11  12
HETATM   12  O2  UNL     1       0.203   4.313  21.222  1.00  0.00    -0.342 OA
ATOM     13  H2  UNL     1       0.893   3.730  20.927  1.00  0.00     0.219 HD
ENDBRANCH  11  12
BRANCH  11  14
HETATM   14  C15 UNL     1      -0.986   2.535  20.572  1.00  0.00     0.298 C 
HETATM   15  O3  UNL     1      -1.986   1.976  20.129  1.00  0.00    -0.263 OA
HETATM   16  N3  UNL     1       0.233   1.844  20.434  1.00  0.00    -0.310 N 
HETATM   17  C16 UNL     1       0.505   0.777  19.818  1.00  0.00     0.076 C 
ATOM     18  H3  UNL     1       1.025   2.277  20.909  1.00  0.00     0.170 HD
HETATM   19  C17 UNL     1       1.894   0.284  19.848  1.00  0.00     0.089 C 
BRANCH  17  20
HETATM   20  N4  UNL     1      -0.477   0.066  19.108  1.00  0.00    -0.374 N 
ATOM     21  H4  UNL     1      -1.427   0.410  19.246  1.00  0.00     0.161 HD
BRANCH  20  22
HETATM   22  C18 UNL     1      -0.382  -1.030  18.246  1.00  0.00     0.092 C 
HETATM   23  C19 UNL     1      -0.014  -0.832  16.795  1.00  0.00     0.013 C 
HETATM   24  C20 UNL     1       0.250  -2.312  16.439  1.00  0.00     0.012 C 
HETATM   25  C23 UNL     1      -1.446  -0.746  16.488  1.00  0.00    -0.002 C 
HETATM   26  C21 UNL     1      -1.191  -2.741  16.770  1.00  0.00    -0.007 C 
HETATM   27  C22 UNL     1      -1.883  -1.934  15.659  1.00  0.00     0.010 C 
HETATM   28  C24 UNL     1      -1.619  -1.658  17.688  1.00  0.00     0.017 C 
ENDBRANCH  20  22
ENDBRANCH  17  20
ENDBRANCH  11  14
ENDBRANCH   4  11
BRANCH   3  29
HETATM   29  C8  UNL     1      -0.975   4.553  24.092  1.00  0.00     0.026 C 
BRANCH  29  30
HETATM   30  C9  UNL     1      -0.500   3.279  24.795  1.00  0.00     0.002 C 
BRANCH  30  31
HETATM   31  C10 UNL     1       0.976   3.063  24.608  1.00  0.00     0.004 C 
BRANCH  31  32
HETATM   32  C11 UNL     1       1.454   1.972  25.503  1.00  0.00    -0.023 C 
HETATM   33  C12 UNL     1       1.348   0.646  24.766  1.00  0.00     0.009 C 
HETATM   34  C13 UNL     1       0.767   1.853  26.814  1.00  0.00     0.009 C 
ENDBRANCH  31  32
ENDBRANCH  30  31
ENDBRANCH  29  30
ENDBRANCH   3  29
BRANCH   6  35
HETATM   35  C27 UNL     1      -1.567   7.016  19.434  1.00  0.00     0.257 C 
HETATM   36  N5  UNL     1      -1.593   8.073  18.489  1.00  0.00    -0.058 NA
HETATM   37  O4  UNL     1      -0.580   6.263  19.268  1.00  0.00    -0.272 OA
ENDBRANCH   6  35
BRANCH   1  38
HETATM   38  C4  UNL     1      -5.156   4.040  23.717  1.00  0.00     0.244 C 
HETATM   39  N1  UNL     1      -4.684   4.727  24.847  1.00  0.00    -0.333 N 
HETATM   40  C2  UNL     1      -5.242   4.824  25.984  1.00  0.00    -0.018 C 
ATOM     41  H1  UNL     1      -3.788   5.202  24.744  1.00  0.00     0.168 HD
HETATM   42  C1  UNL     1      -4.521   5.625  27.034  1.00  0.00     0.062 C 
HETATM   43  C3  UNL     1      -6.530   4.228  26.375  1.00  0.00     0.062 C 
HETATM   44  O1  UNL     1      -6.368   4.079  23.430  1.00  0.00    -0.271 OA
ENDBRANCH   1  38
TORSDOF 11
ENDMDL
MODEL 4
REMARK VINA RESULT: -7.865800462      1.469      2.042
REMARK  11 active torsions:
REMARK  status: ('A' for Active; 'I' for Inactive)
REMARK       I    between atoms: N1_4  and  C4_6 
REMARK    1  A    between atoms: C4_6  and  C5_8 
REMARK    2  A    between atoms: C7_10  and  C8_11 
REMARK    3  A    between atoms: C8_11  and  C9_12 
REMARK    4  A    between atoms: C9_12  and  C10_13 
REMARK    5  A    between atoms: C10_13  and  C11_14 
REMARK    6  A    between atoms: N2_17  and  C14_18 
REMARK    7  A    between atoms: C14_18  and  O2_19 
REMARK    8  A    between atoms: C14_18  and  C15_21 
REMARK       I    between atoms: C15_21  and  N3_23 
REMARK    9  A    between atoms: C16_25  and  N4_27 
REMARK   10  A    between atoms: N4_27  and  C18_29 
REMARK   11  A    between atoms: C26_37  and  C27_38 
ROOT
HETATM    1  C5  UNL     1      -4.662   3.541  22.585  1.00  0.00     0.179 C 
HETATM    2  C6  UNL     1      -3.333   3.287  23.192  1.00  0.00     0.060 C 
HETATM    3  C7  UNL     1      -2.471   4.526  23.179  1.00  0.00     0.095 C 
HETATM    4  N2  UNL     1      -2.197   4.719  21.732  1.00  0.00    -0.314 N 
HETATM    5  C25 UNL     1      -2.965   5.690  20.987  1.00  0.00     0.110 C 
HETATM    6  C26 UNL     1      -2.448   6.885  20.427  1.00  0.00     0.106 C 
HETATM    7  C28 UNL     1      -4.090   4.902  20.415  1.00  0.00     0.269 C 
HETATM    8  O5  UNL     1      -4.487   5.088  19.304  1.00  0.00    -0.266 OA
HETATM    9  N6  UNL     1      -4.736   3.887  21.186  1.00  0.00    -0.342 N 
ATOM     10  H6  UNL     1      -5.369   3.296  20.647  1.00  0.00     0.163 HD
ENDROOT
BRANCH   4  11
HETATM   11  C14 UNL     1      -1.250   3.854  21.233  1.00  0.00     0.213 C 
BRANCH  11  12
HETATM   12  O2  UNL     1      -0.021   4.056  21.630  1.00  0.00    -0.342 OA
ATOM     13  H2  UNL     1       0.083   4.394  22.512  1.00  0.00     0.219 HD
ENDBRANCH  11  12
BRANCH  11  14
HETATM   14  C15 UNL     1      -1.277   2.720  20.351  1.00  0.00     0.298 C 
HETATM   15  O3  UNL     1      -0.739   2.705  19.246  1.00  0.00    -0.263 OA
HETATM   16  N3  UNL     1      -1.944   1.543  20.740  1.00  0.00    -0.310 N 
HETATM   17  C16 UNL     1      -1.992   0.408  20.190  1.00  0.00     0.076 C 
ATOM     18  H3  UNL     1      -2.476   1.621  21.607  1.00  0.00     0.170 HD
HETATM   19  C17 UNL     1      -2.785  -0.652  20.839  1.00  0.00     0.089 C 
BRANCH  17  20
HETATM   20  N4  UNL     1      -1.306   0.140  18.994  1.00  0.00    -0.374 N 
ATOM     21  H4  UNL     1      -0.598   0.833  18.752  1.00  0.00     0.161 HD
BRANCH  20  22
HETATM   22  C18 UNL     1      -1.423  -0.909  18.077  1.00  0.00     0.092 C 
HETATM   23  C19 UNL     1      -0.218  -1.743  17.713  1.00  0.00     0.013 C 
HETATM   24  C20 UNL     1      -0.962  -2.878  16.974  1.00  0.00     0.012 C 
HETATM   25  C23 UNL     1       0.026  -0.825  16.595  1.00  0.00    -0.002 C 
HETATM   26  C21 UNL     1      -1.535  -1.927  15.907  1.00  0.00    -0.007 C 
HETATM   27  C22 UNL     1      -0.192  -1.530  15.274  1.00  0.00     0.010 C 
HETATM   28  C24 UNL     1      -1.477  -0.623  16.611  1.00  0.00     0.017 C 
ENDBRANCH  20  22
ENDBRANCH  17  20
ENDBRANCH  11  14
ENDBRANCH   4  11
BRANCH   3  29
HETATM   29  C8  UNL     1      -1.363   4.587  24.119  1.00  0.00     0.026 C 
BRANCH  29  30
HETATM   30  C9  UNL     1      -1.694   4.182  25.558  1.00  0.00     0.002 C 
BRANCH  30  31
HETATM   31  C10 UNL     1      -2.300   5.322  26.327  1.00  0.00     0.004 C 
BRANCH  31  32
HETATM   32  C11 UNL     1      -2.211   5.059  27.791  1.00  0.00    -0.023 C 
HETATM   33  C12 UNL     1      -1.774   6.333  28.497  1.00  0.00     0.009 C 
HETATM   34  C13 UNL     1      -1.320   3.946  28.203  1.00  0.00     0.009 C 
ENDBRANCH  31  32
ENDBRANCH  30  31
ENDBRANCH  29  30
ENDBRANCH   3  29
BRANCH   6  35
HETATM   35  C27 UNL     1      -1.414   7.072  19.436  1.00  0.00     0.257 C 
HETATM   36  N5  UNL     1      -0.143   6.446  19.368  1.00  0.00    -0.058 NA
HETATM   37  O4  UNL     1      -1.593   7.873  18.490  1.00  0.00    -0.272 OA
ENDBRANCH   6  35
BRANCH   1  38
HETATM   38  C4  UNL     1      -5.534   4.419  23.443  1.00  0.00     0.244 C 
HETATM   39  N1  UNL     1      -5.390   4.547  24.835  1.00  0.00    -0.333 N 
HETATM   40  C2  UNL     1      -6.312   4.621  25.706  1.00  0.00    -0.018 C 
ATOM     41  H1  UNL     1      -4.434   4.584  25.187  1.00  0.00     0.168 HD
HETATM   42  C1  UNL     1      -5.886   4.755  27.143  1.00  0.00     0.062 C 
HETATM   43  C3  UNL     1      -7.759   4.589  25.446  1.00  0.00     0.062 C 
HETATM   44  O1  UNL     1      -6.426   5.057  22.852  1.00  0.00    -0.271 OA
ENDBRANCH   1  38
TORSDOF 11
ENDMDL
MODEL 5
REMARK VINA RESULT: -7.845925519      1.620      2.404
REMARK  11 active torsions:
REMARK  status: ('A' for Active; 'I' for Inactive)
REMARK       I    between atoms: N1_4  and  C4_6 
REMARK    1  A    between atoms: C4_6  and  C5_8 
REMARK    2  A    between atoms: C7_10  and  C8_11 
REMARK    3  A    between atoms: C8_11  and  C9_12 
REMARK    4  A    between atoms: C9_12  and  C10_13 
REMARK    5  A    between atoms: C10_13  and  C11_14 
REMARK    6  A    between atoms: N2_17  and  C14_18 
REMARK    7  A    between atoms: C14_18  and  O2_19 
REMARK    8  A    between atoms: C14_18  and  C15_21 
REMARK       I    between atoms: C15_21  and  N3_23 
REMARK    9  A    between atoms: C16_25  and  N4_27 
REMARK   10  A    between atoms: N4_27  and  C18_29 
REMARK   11  A    between atoms: C26_37  and  C27_38 
ROOT
HETATM    1  C5  UNL     1      -4.713   3.576  22.509  1.00  0.00     0.179 C 
HETATM    2  C6  UNL     1      -3.380   3.326  23.108  1.00  0.00     0.060 C 
HETATM    3  C7  UNL     1      -2.518   4.566  23.084  1.00  0.00     0.095 C 
HETATM    4  N2  UNL     1      -2.254   4.753  21.634  1.00  0.00    -0.314 N 
HETATM    5  C25 UNL     1      -3.029   5.720  20.890  1.00  0.00     0.110 C 
HETATM    6  C26 UNL     1      -2.516   6.912  20.321  1.00  0.00     0.106 C 
HETATM    7  C28 UNL     1      -4.157   4.928  20.329  1.00  0.00     0.269 C 
HETATM    8  O5  UNL     1      -4.561   5.109  19.220  1.00  0.00    -0.266 OA
HETATM    9  N6  UNL     1      -4.797   3.916  21.110  1.00  0.00    -0.342 N 
ATOM     10  H6  UNL     1      -5.433   3.322  20.577  1.00  0.00     0.163 HD
ENDROOT
BRANCH   4  11
HETATM   11  C14 UNL     1      -1.311   3.885  21.132  1.00  0.00     0.213 C 
BRANCH  11  12
HETATM   12  O2  UNL     1      -0.071   4.126  21.473  1.00  0.00    -0.342 OA
ATOM     13  H2  UNL     1       0.537   3.403  21.374  1.00  0.00     0.219 HD
ENDBRANCH  11  12
BRANCH  11  14
HETATM   14  C15 UNL     1      -1.348   2.718  20.297  1.00  0.00     0.298 C 
HETATM   15  O3  UNL     1      -0.674   2.588  19.278  1.00  0.00    -0.263 OA
HETATM   16  N3  UNL     1      -2.189   1.640  20.634  1.00  0.00    -0.310 N 
HETATM   17  C16 UNL     1      -2.292   0.490  20.124  1.00  0.00     0.076 C 
ATOM     18  H3  UNL     1      -2.819   1.819  21.417  1.00  0.00     0.170 HD
HETATM   19  C17 UNL     1      -3.278  -0.444  20.697  1.00  0.00     0.089 C 
BRANCH  17  20
HETATM   20  N4  UNL     1      -1.489   0.089  19.044  1.00  0.00    -0.374 N 
ATOM     21  H4  UNL     1      -1.624   0.637  18.195  1.00  0.00     0.161 HD
BRANCH  20  22
HETATM   22  C18 UNL     1      -0.538  -0.929  18.927  1.00  0.00     0.092 C 
HETATM   23  C19 UNL     1       0.337  -1.296  20.101  1.00  0.00     0.013 C 
HETATM   24  C20 UNL     1       0.914  -2.611  19.533  1.00  0.00     0.012 C 
HETATM   25  C23 UNL     1       1.333  -0.341  19.603  1.00  0.00    -0.002 C 
HETATM   26  C21 UNL     1       1.571  -1.907  18.332  1.00  0.00    -0.007 C 
HETATM   27  C22 UNL     1       2.576  -1.068  19.137  1.00  0.00     0.010 C 
HETATM   28  C24 UNL     1       0.761  -0.669  18.236  1.00  0.00     0.017 C 
ENDBRANCH  20  22
ENDBRANCH  17  20
ENDBRANCH  11  14
ENDBRANCH   4  11
BRANCH   3  29
HETATM   29  C8  UNL     1      -1.404   4.631  24.016  1.00  0.00     0.026 C 
BRANCH  29  30
HETATM   30  C9  UNL     1      -1.712   4.183  25.447  1.00  0.00     0.002 C 
BRANCH  30  31
HETATM   31  C10 UNL     1      -2.379   5.274  26.236  1.00  0.00     0.004 C 
BRANCH  31  32
HETATM   32  C11 UNL     1      -2.269   4.992  27.696  1.00  0.00    -0.023 C 
HETATM   33  C12 UNL     1      -1.847   6.265  28.414  1.00  0.00     0.009 C 
HETATM   34  C13 UNL     1      -1.353   3.890  28.083  1.00  0.00     0.009 C 
ENDBRANCH  31  32
ENDBRANCH  30  31
ENDBRANCH  29  30
ENDBRANCH   3  29
BRANCH   6  35
HETATM   35  C27 UNL     1      -1.489   7.096  19.322  1.00  0.00     0.257 C 
HETATM   36  N5  UNL     1      -0.296   6.349  19.146  1.00  0.00    -0.058 NA
HETATM   37  O4  UNL     1      -1.599   8.010  18.473  1.00  0.00    -0.272 OA
ENDBRANCH   6  35
BRANCH   1  38
HETATM   38  C4  UNL     1      -5.580   4.458  23.370  1.00  0.00     0.244 C 
HETATM   39  N1  UNL     1      -5.448   4.566  24.764  1.00  0.00    -0.333 N 
HETATM   40  C2  UNL     1      -6.377   4.645  25.626  1.00  0.00    -0.018 C 
ATOM     41  H1  UNL     1      -4.495   4.584  25.125  1.00  0.00     0.168 HD
HETATM   42  C1  UNL     1      -5.963   4.755  27.069  1.00  0.00     0.062 C 
HETATM   43  C3  UNL     1      -7.822   4.638  25.352  1.00  0.00     0.062 C 
HETATM   44  O1  UNL     1      -6.456   5.116  22.777  1.00  0.00    -0.271 OA
ENDBRANCH   1  38
TORSDOF 11
ENDMDL
