MODEL 1
REMARK VINA RESULT: -7.044199777      0.000      0.000
REMARK  12 active torsions:
REMARK  status: ('A' for Active; 'I' for Inactive)
REMARK    1  A    between atoms: C5_5  and  C6_6 
REMARK    2  A    between atoms: C6_6  and  N1_7 
REMARK       I    between atoms: N1_7  and  C7_9 
REMARK    3  A    between atoms: C7_9  and  C8_11 
REMARK    4  A    between atoms: C8_11  and  N2_12 
REMARK       I    between atoms: N2_12  and  C9_14 
REMARK    5  A    between atoms: C9_14  and  C10_16 
REMARK    6  A    between atoms: C10_16  and  N3_17 
REMARK    7  A    between atoms: N3_17  and  N4_18 
REMARK    8  A    between atoms: N4_18  and  C13_21 
REMARK    9  A    between atoms: C13_21  and  C14_22 
REMARK   10  A    between atoms: C14_22  and  N5_23 
REMARK   11  A    between atoms: N5_23  and  N6_24 
REMARK   12  A    between atoms: C17_29  and  O3_30 
ROOT
HETATM    1  N1  UNL     1      -1.351  19.644  16.061  1.00  0.00    -0.359 N 
ATOM      2  H1  UNL     1      -1.276  19.416  17.053  1.00  0.00     0.162 HD
HETATM    3  C7  UNL     1      -2.583  19.446  15.429  1.00  0.00     0.235 C 
HETATM    4  O1  UNL     1      -2.643  19.741  14.186  1.00  0.00    -0.272 OA
ENDROOT
BRANCH   1   5
HETATM    5  C6  UNL     1      -0.174  20.155  15.382  1.00  0.00     0.127 C 
BRANCH   5   6
HETATM    6  C5  UNL     1       1.103  19.654  16.047  1.00  0.00     0.005 C 
HETATM    7  C4  UNL     1       1.470  20.577  17.155  1.00  0.00     0.015 C 
HETATM    8  C2  UNL     1       2.930  20.513  17.564  1.00  0.00    -0.042 C 
HETATM    9  C1  UNL     1       3.113  21.679  18.543  1.00  0.00     0.015 C 
HETATM   10  C3  UNL     1       3.188  19.279  18.331  1.00  0.00     0.015 C 
HETATM   11  C22 UNL     1       3.738  20.798  16.386  1.00  0.00     0.012 C 
HETATM   12  C16 UNL     1       3.461  19.912  15.184  1.00  0.00    -0.001 C 
HETATM   13  C21 UNL     1       5.116  20.376  16.195  1.00  0.00     0.030 C 
HETATM   14  C15 UNL     1       2.153  19.357  15.042  1.00  0.00     0.019 C 
HETATM   15  C17 UNL     1       4.106  20.759  14.111  1.00  0.00     0.157 C 
HETATM   16  C20 UNL     1       4.633  19.059  15.603  1.00  0.00     0.028 C 
HETATM   17  C18 UNL     1       5.446  21.009  14.831  1.00  0.00     0.155 C 
HETATM   18  O4  UNL     1       6.322  20.086  14.333  1.00  0.00    -0.382 OA
HETATM   19  C19 UNL     1       5.660  18.873  14.481  1.00  0.00     0.174 C 
BRANCH  15  20
HETATM   20  O3  UNL     1       3.484  21.999  14.015  1.00  0.00    -0.392 OA
ATOM     21  H3  UNL     1       3.994  22.594  13.478  1.00  0.00     0.210 HD
ENDBRANCH  15  20
ENDBRANCH   5   6
ENDBRANCH   1   5
BRANCH   3  22
HETATM   22  C8  UNL     1      -3.822  18.939  16.024  1.00  0.00     0.225 C 
BRANCH  22  23
HETATM   23  N2  UNL     1      -3.868  17.542  16.290  1.00  0.00    -0.351 N 
HETATM   24  C9  UNL     1      -3.289  17.033  17.475  1.00  0.00     0.234 C 
HETATM   25  O2  UNL     1      -2.737  17.798  18.299  1.00  0.00    -0.272 OA
ATOM     26  H2  UNL     1      -4.316  16.909  15.628  1.00  0.00     0.163 HD
BRANCH  24  27
HETATM   27  C10 UNL     1      -3.318  15.586  17.780  1.00  0.00     0.245 C 
BRANCH  27  28
HETATM   28  N3  UNL     1      -2.544  15.339  18.956  1.00  0.00    -0.038 NA
BRANCH  28  29
HETATM   29  N4  UNL     1      -1.441  14.505  18.714  1.00  0.00     0.009 N 
HETATM   30  C11 UNL     1      -1.369  13.410  19.636  1.00  0.00     0.297 C 
HETATM   31  C12 UNL     1      -0.234  15.283  18.799  1.00  0.00     0.297 C 
BRANCH  29  32
HETATM   32  C13 UNL     1      -1.655  13.943  17.380  1.00  0.00     0.321 C 
BRANCH  32  33
HETATM   33  C14 UNL     1      -1.267  12.522  17.328  1.00  0.00     0.210 C 
BRANCH  33  34
HETATM   34  N5  UNL     1      -1.673  11.801  16.412  1.00  0.00    -0.348 NA
BRANCH  34  35
HETATM   35  N6  UNL     1      -1.969  11.181  15.367  1.00  0.00    -0.281 N 
ATOM     36  H62 UNL     1      -1.064  11.467  14.996  1.00  0.00     0.191 HD
ATOM     37  H61 UNL     1      -2.348  10.641  14.590  1.00  0.00     0.191 HD
ENDBRANCH  34  35
ENDBRANCH  33  34
ENDBRANCH  32  33
ENDBRANCH  29  32
ENDBRANCH  28  29
ENDBRANCH  27  28
ENDBRANCH  24  27
ENDBRANCH  22  23
ENDBRANCH   3  22
TORSDOF 12
ENDMDL
MODEL 2
REMARK VINA RESULT: -6.996589697      1.853      2.860
REMARK  12 active torsions:
REMARK  status: ('A' for Active; 'I' for Inactive)
REMARK    1  A    between atoms: C5_5  and  C6_6 
REMARK    2  A    between atoms: C6_6  and  N1_7 
REMARK       I    between atoms: N1_7  and  C7_9 
REMARK    3  A    between atoms: C7_9  and  C8_11 
REMARK    4  A    between atoms: C8_11  and  N2_12 
REMARK       I    between atoms: N2_12  and  C9_14 
REMARK    5  A    between atoms: C9_14  and  C10_16 
REMARK    6  A    between atoms: C10_16  and  N3_17 
REMARK    7  A    between atoms: N3_17  and  N4_18 
REMARK    8  A    between atoms: N4_18  and  C13_21 
REMARK    9  A    between atoms: C13_21  and  C14_22 
REMARK   10  A    between atoms: C14_22  and  N5_23 
REMARK   11  A    between atoms: N5_23  and  N6_24 
REMARK   12  A    between atoms: C17_29  and  O3_30 
ROOT
HETATM    1  N1  UNL     1       0.711  18.714  17.862  1.00  0.00    -0.359 N 
ATOM      2  H1  UNL     1       0.462  17.725  17.832  1.00  0.00     0.162 HD
HETATM    3  C7  UNL     1      -0.318  19.659  17.799  1.00  0.00     0.235 C 
HETATM    4  O1  UNL     1       0.030  20.889  17.838  1.00  0.00    -0.272 OA
ENDROOT
BRANCH   1   5
HETATM    5  C6  UNL     1       2.117  19.064  17.967  1.00  0.00     0.127 C 
BRANCH   5   6
HETATM    6  C5  UNL     1       2.808  18.969  16.612  1.00  0.00     0.005 C 
HETATM    7  C4  UNL     1       3.851  20.026  16.521  1.00  0.00     0.015 C 
HETATM    8  C2  UNL     1       4.258  20.384  15.104  1.00  0.00    -0.042 C 
HETATM    9  C1  UNL     1       5.158  21.616  15.255  1.00  0.00     0.015 C 
HETATM   10  C3  UNL     1       5.103  19.317  14.534  1.00  0.00     0.015 C 
HETATM   11  C22 UNL     1       3.060  20.801  14.386  1.00  0.00     0.012 C 
HETATM   12  C16 UNL     1       1.920  19.798  14.398  1.00  0.00    -0.001 C 
HETATM   13  C21 UNL     1       2.892  20.755  12.943  1.00  0.00     0.030 C 
HETATM   14  C15 UNL     1       1.820  18.903  15.506  1.00  0.00     0.019 C 
HETATM   15  C17 UNL     1       0.791  20.717  13.991  1.00  0.00     0.157 C 
HETATM   16  C20 UNL     1       2.389  19.321  13.046  1.00  0.00     0.028 C 
HETATM   17  C18 UNL     1       1.488  21.365  12.777  1.00  0.00     0.155 C 
HETATM   18  O4  UNL     1       1.048  20.681  11.678  1.00  0.00    -0.382 OA
HETATM   19  C19 UNL     1       1.277  19.348  11.991  1.00  0.00     0.174 C 
BRANCH  15  20
HETATM   20  O3  UNL     1       0.617  21.735  14.922  1.00  0.00    -0.392 OA
ATOM     21  H3  UNL     1       0.346  22.540  14.498  1.00  0.00     0.210 HD
ENDBRANCH  15  20
ENDBRANCH   5   6
ENDBRANCH   1   5
BRANCH   3  22
HETATM   22  C8  UNL     1      -1.758  19.407  17.693  1.00  0.00     0.225 C 
BRANCH  22  23
HETATM   23  N2  UNL     1      -2.199  18.109  18.073  1.00  0.00    -0.351 N 
HETATM   24  C9  UNL     1      -2.731  17.235  17.098  1.00  0.00     0.234 C 
HETATM   25  O2  UNL     1      -2.818  17.587  15.899  1.00  0.00    -0.272 OA
ATOM     26  H2  UNL     1      -2.132  17.809  19.045  1.00  0.00     0.163 HD
BRANCH  24  27
HETATM   27  C10 UNL     1      -3.200  15.879  17.460  1.00  0.00     0.245 C 
BRANCH  27  28
HETATM   28  N3  UNL     1      -2.626  15.503  18.714  1.00  0.00    -0.038 NA
BRANCH  28  29
HETATM   29  N4  UNL     1      -1.559  14.602  18.574  1.00  0.00     0.009 N 
HETATM   30  C11 UNL     1      -1.594  13.556  19.553  1.00  0.00     0.297 C 
HETATM   31  C12 UNL     1      -0.318  15.320  18.685  1.00  0.00     0.297 C 
BRANCH  29  32
HETATM   32  C13 UNL     1      -1.734  13.981  17.261  1.00  0.00     0.321 C 
BRANCH  32  33
HETATM   33  C14 UNL     1      -1.388  12.549  17.293  1.00  0.00     0.210 C 
BRANCH  33  34
HETATM   34  N5  UNL     1      -1.609  11.835  16.312  1.00  0.00    -0.348 NA
BRANCH  34  35
HETATM   35  N6  UNL     1      -2.021  11.170  15.336  1.00  0.00    -0.281 N 
ATOM     36  H62 UNL     1      -2.950  11.544  15.532  1.00  0.00     0.191 HD
ATOM     37  H61 UNL     1      -2.205  10.580  14.525  1.00  0.00     0.191 HD
ENDBRANCH  34  35
ENDBRANCH  33  34
ENDBRANCH  32  33
ENDBRANCH  29  32
ENDBRANCH  28  29
ENDBRANCH  27  28
ENDBRANCH  24  27
ENDBRANCH  22  23
ENDBRANCH   3  22
TORSDOF 12
ENDMDL
MODEL 3
REMARK VINA RESULT: -6.918854039      2.646      4.152
REMARK  12 active torsions:
REMARK  status: ('A' for Active; 'I' for Inactive)
REMARK    1  A    between atoms: C5_5  and  C6_6 
REMARK    2  A    between atoms: C6_6  and  N1_7 
REMARK       I    between atoms: N1_7  and  C7_9 
REMARK    3  A    between atoms: C7_9  and  C8_11 
REMARK    4  A    between atoms: C8_11  and  N2_12 
REMARK       I    between atoms: N2_12  and  C9_14 
REMARK    5  A    between atoms: C9_14  and  C10_16 
REMARK    6  A    between atoms: C10_16  and  N3_17 
REMARK    7  A    between atoms: N3_17  and  N4_18 
REMARK    8  A    between atoms: N4_18  and  C13_21 
REMARK    9  A    between atoms: C13_21  and  C14_22 
REMARK   10  A    between atoms: C14_22  and  N5_23 
REMARK   11  A    between atoms: N5_23  and  N6_24 
REMARK   12  A    between atoms: C17_29  and  O3_30 
ROOT
HETATM    1  N1  UNL     1       3.436  20.807  20.489  1.00  0.00    -0.359 N 
ATOM      2  H1  UNL     1       2.738  21.549  20.545  1.00  0.00     0.162 HD
HETATM    3  C7  UNL     1       3.008  19.484  20.636  1.00  0.00     0.235 C 
HETATM    4  O1  UNL     1       3.907  18.578  20.560  1.00  0.00    -0.272 OA
ENDROOT
BRANCH   1   5
HETATM    5  C6  UNL     1       4.820  21.182  20.262  1.00  0.00     0.127 C 
BRANCH   5   6
HETATM    6  C5  UNL     1       5.012  21.744  18.858  1.00  0.00     0.005 C 
HETATM    7  C4  UNL     1       3.959  22.762  18.593  1.00  0.00     0.015 C 
HETATM    8  C2  UNL     1       3.705  23.031  17.122  1.00  0.00    -0.042 C 
HETATM    9  C1  UNL     1       2.460  23.926  17.097  1.00  0.00     0.015 C 
HETATM   10  C3  UNL     1       4.807  23.832  16.555  1.00  0.00     0.015 C 
HETATM   11  C22 UNL     1       3.349  21.767  16.491  1.00  0.00     0.012 C 
HETATM   12  C16 UNL     1       4.354  20.644  16.683  1.00  0.00    -0.001 C 
HETATM   13  C21 UNL     1       3.503  21.465  15.077  1.00  0.00     0.030 C 
HETATM   14  C15 UNL     1       5.165  20.659  17.858  1.00  0.00     0.019 C 
HETATM   15  C17 UNL     1       3.474  19.471  16.317  1.00  0.00     0.157 C 
HETATM   16  C20 UNL     1       4.928  20.991  15.331  1.00  0.00     0.028 C 
HETATM   17  C18 UNL     1       2.914  20.045  15.000  1.00  0.00     0.155 C 
HETATM   18  O4  UNL     1       3.679  19.512  14.000  1.00  0.00    -0.382 OA
HETATM   19  C19 UNL     1       4.985  19.785  14.387  1.00  0.00     0.174 C 
BRANCH  15  20
HETATM   20  O3  UNL     1       2.391  19.373  17.183  1.00  0.00    -0.392 OA
ATOM     21  H3  UNL     1       1.600  19.137  16.713  1.00  0.00     0.210 HD
ENDBRANCH  15  20
ENDBRANCH   5   6
ENDBRANCH   1   5
BRANCH   3  22
HETATM   22  C8  UNL     1       1.641  19.006  20.866  1.00  0.00     0.225 C 
BRANCH  22  23
HETATM   23  N2  UNL     1       0.936  18.539  19.722  1.00  0.00    -0.351 N 
HETATM   24  C9  UNL     1       0.587  17.173  19.623  1.00  0.00     0.234 C 
HETATM   25  O2  UNL     1       0.887  16.365  20.531  1.00  0.00    -0.272 OA
ATOM     26  H2  UNL     1       0.684  19.187  18.976  1.00  0.00     0.163 HD
BRANCH  24  27
HETATM   27  C10 UNL     1      -0.145  16.655  18.446  1.00  0.00     0.245 C 
BRANCH  27  28
HETATM   28  N3  UNL     1      -0.206  15.228  18.521  1.00  0.00    -0.038 NA
BRANCH  28  29
HETATM   29  N4  UNL     1      -1.522  14.741  18.517  1.00  0.00     0.009 N 
HETATM   30  C11 UNL     1      -2.495  15.790  18.588  1.00  0.00     0.297 C 
HETATM   31  C12 UNL     1      -1.698  13.849  19.632  1.00  0.00     0.297 C 
BRANCH  29  32
HETATM   32  C13 UNL     1      -1.692  14.069  17.228  1.00  0.00     0.321 C 
BRANCH  32  33
HETATM   33  C14 UNL     1      -1.395  12.629  17.331  1.00  0.00     0.210 C 
BRANCH  33  34
HETATM   34  N5  UNL     1      -1.685  11.868  16.404  1.00  0.00    -0.348 NA
BRANCH  34  35
HETATM   35  N6  UNL     1      -2.046  11.259  15.373  1.00  0.00    -0.281 N 
ATOM     36  H62 UNL     1      -1.059  11.096  15.179  1.00  0.00     0.191 HD
ATOM     37  H61 UNL     1      -2.491  10.797  14.580  1.00  0.00     0.191 HD
ENDBRANCH  34  35
ENDBRANCH  33  34
ENDBRANCH  32  33
ENDBRANCH  29  32
ENDBRANCH  28  29
ENDBRANCH  27  28
ENDBRANCH  24  27
ENDBRANCH  22  23
ENDBRANCH   3  22
TORSDOF 12
ENDMDL
MODEL 4
REMARK VINA RESULT: -6.870910628      1.872      3.112
REMARK  12 active torsions:
REMARK  status: ('A' for Active; 'I' for Inactive)
REMARK    1  A    between atoms: C5_5  and  C6_6 
REMARK    2  A    between atoms: C6_6  and  N1_7 
REMARK       I    between atoms: N1_7  and  C7_9 
REMARK    3  A    between atoms: C7_9  and  C8_11 
REMARK    4  A    between atoms: C8_11  and  N2_12 
REMARK       I    between atoms: N2_12  and  C9_14 
REMARK    5  A    between atoms: C9_14  and  C10_16 
REMARK    6  A    between atoms: C10_16  and  N3_17 
REMARK    7  A    between atoms: N3_17  and  N4_18 
REMARK    8  A    between atoms: N4_18  and  C13_21 
REMARK    9  A    between atoms: C13_21  and  C14_22 
REMARK   10  A    between atoms: C14_22  and  N5_23 
REMARK   11  A    between atoms: N5_23  and  N6_24 
REMARK   12  A    between atoms: C17_29  and  O3_30 
ROOT
HETATM    1  N1  UNL     1       0.648  19.765  13.686  1.00  0.00    -0.359 N 
ATOM      2  H1  UNL     1       0.818  18.821  14.033  1.00  0.00     0.162 HD
HETATM    3  C7  UNL     1      -0.575  20.372  13.992  1.00  0.00     0.235 C 
HETATM    4  O1  UNL     1      -0.756  21.555  13.541  1.00  0.00    -0.272 OA
ENDROOT
BRANCH   1   5
HETATM    5  C6  UNL     1       1.687  20.406  12.899  1.00  0.00     0.127 C 
BRANCH   5   6
HETATM    6  C5  UNL     1       2.835  20.874  13.786  1.00  0.00     0.005 C 
HETATM    7  C4  UNL     1       3.884  19.819  13.822  1.00  0.00     0.015 C 
HETATM    8  C2  UNL     1       4.815  19.903  15.017  1.00  0.00    -0.042 C 
HETATM    9  C1  UNL     1       5.648  18.618  14.955  1.00  0.00     0.015 C 
HETATM   10  C3  UNL     1       5.760  21.023  14.846  1.00  0.00     0.015 C 
HETATM   11  C22 UNL     1       4.001  19.840  16.224  1.00  0.00     0.012 C 
HETATM   12  C16 UNL     1       2.894  20.877  16.310  1.00  0.00    -0.001 C 
HETATM   13  C21 UNL     1       4.390  20.361  17.524  1.00  0.00     0.030 C 
HETATM   14  C15 UNL     1       2.338  21.373  15.092  1.00  0.00     0.019 C 
HETATM   15  C17 UNL     1       2.049  20.235  17.387  1.00  0.00     0.157 C 
HETATM   16  C20 UNL     1       3.818  21.723  17.151  1.00  0.00     0.028 C 
HETATM   17  C18 UNL     1       3.185  19.956  18.392  1.00  0.00     0.155 C 
HETATM   18  O4  UNL     1       3.162  20.990  19.285  1.00  0.00    -0.382 OA
HETATM   19  C19 UNL     1       3.191  22.129  18.491  1.00  0.00     0.174 C 
BRANCH  15  20
HETATM   20  O3  UNL     1       1.585  18.990  16.978  1.00  0.00    -0.392 OA
ATOM     21  H3  UNL     1       0.636  18.983  16.921  1.00  0.00     0.210 HD
ENDBRANCH  15  20
ENDBRANCH   5   6
ENDBRANCH   1   5
BRANCH   3  22
HETATM   22  C8  UNL     1      -1.680  19.812  14.774  1.00  0.00     0.225 C 
BRANCH  22  23
HETATM   23  N2  UNL     1      -1.326  19.168  15.993  1.00  0.00    -0.351 N 
HETATM   24  C9  UNL     1      -2.071  18.054  16.441  1.00  0.00     0.234 C 
HETATM   25  O2  UNL     1      -3.042  17.622  15.778  1.00  0.00    -0.272 OA
ATOM     26  H2  UNL     1      -0.537  19.510  16.541  1.00  0.00     0.163 HD
BRANCH  24  27
HETATM   27  C10 UNL     1      -1.730  17.364  17.704  1.00  0.00     0.245 C 
BRANCH  27  28
HETATM   28  N3  UNL     1      -0.970  16.190  17.407  1.00  0.00    -0.038 NA
BRANCH  28  29
HETATM   29  N4  UNL     1      -1.420  15.061  18.110  1.00  0.00     0.009 N 
HETATM   30  C11 UNL     1      -2.440  15.380  19.064  1.00  0.00     0.297 C 
HETATM   31  C12 UNL     1      -0.305  14.453  18.787  1.00  0.00     0.297 C 
BRANCH  29  32
HETATM   32  C13 UNL     1      -2.016  14.180  17.106  1.00  0.00     0.321 C 
BRANCH  32  33
HETATM   33  C14 UNL     1      -1.570  12.786  17.283  1.00  0.00     0.210 C 
BRANCH  33  34
HETATM   34  N5  UNL     1      -1.697  11.973  16.363  1.00  0.00    -0.348 NA
BRANCH  34  35
HETATM   35  N6  UNL     1      -1.989  11.251  15.385  1.00  0.00    -0.281 N 
ATOM     36  H62 UNL     1      -1.375  11.841  14.825  1.00  0.00     0.191 HD
ATOM     37  H61 UNL     1      -2.318  10.580  14.691  1.00  0.00     0.191 HD
ENDBRANCH  34  35
ENDBRANCH  33  34
ENDBRANCH  32  33
ENDBRANCH  29  32
ENDBRANCH  28  29
ENDBRANCH  27  28
ENDBRANCH  24  27
ENDBRANCH  22  23
ENDBRANCH   3  22
TORSDOF 12
ENDMDL
MODEL 5
REMARK VINA RESULT: -6.759742815      2.019      3.207
REMARK  12 active torsions:
REMARK  status: ('A' for Active; 'I' for Inactive)
REMARK    1  A    between atoms: C5_5  and  C6_6 
REMARK    2  A    between atoms: C6_6  and  N1_7 
REMARK       I    between atoms: N1_7  and  C7_9 
REMARK    3  A    between atoms: C7_9  and  C8_11 
REMARK    4  A    between atoms: C8_11  and  N2_12 
REMARK       I    between atoms: N2_12  and  C9_14 
REMARK    5  A    between atoms: C9_14  and  C10_16 
REMARK    6  A    between atoms: C10_16  and  N3_17 
REMARK    7  A    between atoms: N3_17  and  N4_18 
REMARK    8  A    between atoms: N4_18  and  C13_21 
REMARK    9  A    between atoms: C13_21  and  C14_22 
REMARK   10  A    between atoms: C14_22  and  N5_23 
REMARK   11  A    between atoms: N5_23  and  N6_24 
REMARK   12  A    between atoms: C17_29  and  O3_30 
ROOT
HETATM    1  N1  UNL     1      -1.551  20.195  15.265  1.00  0.00    -0.359 N 
ATOM      2  H1  UNL     1      -0.656  20.068  15.739  1.00  0.00     0.162 HD
HETATM    3  C7  UNL     1      -2.723  20.002  16.003  1.00  0.00     0.235 C 
HETATM    4  O1  UNL     1      -3.827  20.168  15.380  1.00  0.00    -0.272 OA
ENDROOT
BRANCH   1   5
HETATM    5  C6  UNL     1      -1.538  20.566  13.862  1.00  0.00     0.127 C 
BRANCH   5   6
HETATM    6  C5  UNL     1      -0.136  20.954  13.410  1.00  0.00     0.005 C 
HETATM    7  C4  UNL     1       0.292  20.045  12.312  1.00  0.00     0.015 C 
HETATM    8  C2  UNL     1       1.794  19.968  12.113  1.00  0.00    -0.042 C 
HETATM    9  C1  UNL     1       1.997  18.833  11.102  1.00  0.00     0.015 C 
HETATM   10  C3  UNL     1       2.284  21.199  11.462  1.00  0.00     0.015 C 
HETATM   11  C22 UNL     1       2.392  19.546  13.373  1.00  0.00     0.012 C 
HETATM   12  C16 UNL     1       2.036  20.403  14.575  1.00  0.00    -0.001 C 
HETATM   13  C21 UNL     1       3.764  19.807  13.777  1.00  0.00     0.030 C 
HETATM   14  C15 UNL     1       0.784  21.091  14.567  1.00  0.00     0.019 C 
HETATM   15  C17 UNL     1       2.430  19.446  15.676  1.00  0.00     0.157 C 
HETATM   16  C20 UNL     1       3.336  21.142  14.372  1.00  0.00     0.028 C 
HETATM   17  C18 UNL     1       3.828  19.083  15.134  1.00  0.00     0.155 C 
HETATM   18  O4  UNL     1       4.712  19.883  15.802  1.00  0.00    -0.382 OA
HETATM   19  C19 UNL     1       4.205  21.166  15.635  1.00  0.00     0.174 C 
BRANCH  15  20
HETATM   20  O3  UNL     1       1.679  18.278  15.612  1.00  0.00    -0.392 OA
ATOM     21  H3  UNL     1       1.305  18.161  14.747  1.00  0.00     0.210 HD
ENDBRANCH  15  20
ENDBRANCH   5   6
ENDBRANCH   1   5
BRANCH   3  22
HETATM   22  C8  UNL     1      -2.840  19.630  17.416  1.00  0.00     0.225 C 
BRANCH  22  23
HETATM   23  N2  UNL     1      -2.308  18.361  17.779  1.00  0.00    -0.351 N 
HETATM   24  C9  UNL     1      -0.925  18.226  18.038  1.00  0.00     0.234 C 
HETATM   25  O2  UNL     1      -0.158  19.212  17.955  1.00  0.00    -0.272 OA
ATOM     26  H2  UNL     1      -2.923  17.550  17.852  1.00  0.00     0.163 HD
BRANCH  24  27
HETATM   27  C10 UNL     1      -0.341  16.921  18.416  1.00  0.00     0.245 C 
BRANCH  27  28
HETATM   28  N3  UNL     1      -0.783  15.923  17.492  1.00  0.00    -0.038 NA
BRANCH  28  29
HETATM   29  N4  UNL     1      -1.595  14.949  18.093  1.00  0.00     0.009 N 
HETATM   30  C11 UNL     1      -2.933  14.959  17.582  1.00  0.00     0.297 C 
HETATM   31  C12 UNL     1      -1.623  15.171  19.514  1.00  0.00     0.297 C 
BRANCH  29  32
HETATM   32  C13 UNL     1      -0.997  13.661  17.738  1.00  0.00     0.321 C 
BRANCH  32  33
HETATM   33  C14 UNL     1      -2.031  12.661  17.416  1.00  0.00     0.210 C 
BRANCH  33  34
HETATM   34  N5  UNL     1      -1.879  11.898  16.458  1.00  0.00    -0.348 NA
BRANCH  34  35
HETATM   35  N6  UNL     1      -1.889  11.208  15.415  1.00  0.00    -0.281 N 
ATOM     36  H62 UNL     1      -1.108  10.684  15.810  1.00  0.00     0.191 HD
ATOM     37  H61 UNL     1      -2.019  10.739  14.519  1.00  0.00     0.191 HD
ENDBRANCH  34  35
ENDBRANCH  33  34
ENDBRANCH  32  33
ENDBRANCH  29  32
ENDBRANCH  28  29
ENDBRANCH  27  28
ENDBRANCH  24  27
ENDBRANCH  22  23
ENDBRANCH   3  22
TORSDOF 12
ENDMDL
