MODEL 1
REMARK VINA RESULT: -7.085981606      0.000      0.000
REMARK  9 active torsions:
REMARK  status: ('A' for Active; 'I' for Inactive)
REMARK    1  A    between atoms: C2_2  and  C3_3 
REMARK    2  A    between atoms: C2_2  and  C28_35 
REMARK    3  A    between atoms: C4_4  and  C5_5 
REMARK    4  A    between atoms: C5_5  and  N1_6 
REMARK    5  A    between atoms: C13_15  and  N3_16 
REMARK    6  A    between atoms: N3_16  and  C14_18 
REMARK    7  A    between atoms: C14_18  and  N4_19 
REMARK    8  A    between atoms: C25_30  and  O1_31 
REMARK    9  A    between atoms: C28_35  and  O2_36 
ROOT
HETATM    1  N1  UNL     1      15.308 -12.844  18.194  1.00  0.00    -0.027 N 
HETATM    2  C6  UNL     1      15.313 -12.877  16.721  1.00  0.00     0.281 C 
HETATM    3  C7  UNL     1      13.939 -12.979  18.520  1.00  0.00     0.211 C 
HETATM    4  C8  UNL     1      13.494 -12.149  19.725  1.00  0.00     0.047 C 
HETATM    5  C9  UNL     1      13.885 -12.599  21.020  1.00  0.00     0.051 C 
HETATM    6  C10 UNL     1      13.668 -13.902  21.674  1.00  0.00     0.066 C 
HETATM    7  N2  UNL     1      14.301 -14.876  21.016  1.00  0.00    -0.380 N 
HETATM    8  C11 UNL     1      14.098 -16.164  21.694  1.00  0.00     0.150 C 
HETATM    9  C12 UNL     1      14.838 -14.301  19.949  1.00  0.00     0.115 C 
HETATM   10  C13 UNL     1      15.260 -13.102  20.818  1.00  0.00     0.126 C 
HETATM   11  C19 UNL     1      15.745 -14.110  18.826  1.00  0.00     0.143 C 
HETATM   12  C20 UNL     1      16.197 -15.157  17.929  1.00  0.00     0.019 C 
HETATM   13  C21 UNL     1      15.598 -16.066  16.986  1.00  0.00    -0.018 A 
HETATM   14  C22 UNL     1      16.188 -17.527  17.140  1.00  0.00     0.020 C 
HETATM   15  C23 UNL     1      14.825 -16.010  15.803  1.00  0.00     0.021 A 
HETATM   16  C24 UNL     1      14.022 -16.092  16.986  1.00  0.00     0.028 A 
HETATM   17  C25 UNL     1      13.757 -15.616  18.298  1.00  0.00     0.136 C 
HETATM   18  C26 UNL     1      13.682 -14.361  19.013  1.00  0.00     0.045 C 
HETATM   19  C27 UNL     1      12.256 -14.243  19.382  1.00  0.00     0.023 C 
ENDROOT
BRANCH   1  20
HETATM   20  C5  UNL     1      16.045 -11.687  18.361  1.00  0.00     0.337 C 
BRANCH  20  21
HETATM   21  C4  UNL     1      17.486 -12.007  18.470  1.00  0.00    -0.078 C 
HETATM   22  C3  UNL     1      18.690 -12.247  18.564  1.00  0.00    -0.098 C 
BRANCH  22  23
HETATM   23  C2  UNL     1      20.108 -12.554  18.684  1.00  0.00     0.084 C 
HETATM   24  C1  UNL     1      20.807 -12.001  17.477  1.00  0.00     0.025 C 
BRANCH  23  25
HETATM   25  C28 UNL     1      20.730 -11.927  19.912  1.00  0.00     0.180 C 
BRANCH  25  26
HETATM   26  O2  UNL     1      21.315 -12.948  20.645  1.00  0.00    -0.400 OA
ATOM     27  H2  UNL     1      20.873 -12.982  21.485  1.00  0.00     0.209 HD
ENDBRANCH  25  26
ENDBRANCH  23  25
ENDBRANCH  22  23
ENDBRANCH  20  21
ENDBRANCH   1  20
BRANCH  17  28
HETATM   28  O1  UNL     1      14.532 -16.607  18.965  1.00  0.00    -0.394 OA
ATOM     29  H1  UNL     1      13.796 -17.029  19.393  1.00  0.00     0.210 HD
ENDBRANCH  17  28
BRANCH  10  30
HETATM   30  N3  UNL     1      15.760 -13.635  22.134  1.00  0.00    -0.371 N 
ATOM     31  H3  UNL     1      15.151 -14.144  22.776  1.00  0.00     0.160 HD
BRANCH  30  32
HETATM   32  C14 UNL     1      17.089 -13.398  22.427  1.00  0.00     0.300 C 
BRANCH  32  33
HETATM   33  N4  UNL     1      18.041 -14.479  22.353  1.00  0.00     0.003 N 
HETATM   34  C15 UNL     1      19.177 -14.304  23.284  1.00  0.00     0.292 C 
HETATM   35  C16 UNL     1      17.499 -15.755  22.604  1.00  0.00     0.216 A 
HETATM   36  C17 UNL     1      17.898 -16.198  21.455  1.00  0.00     0.052 A 
HETATM   37  C18 UNL     1      18.490 -14.912  21.108  1.00  0.00     0.216 A 
ENDBRANCH  32  33
ENDBRANCH  30  32
ENDBRANCH  10  30
TORSDOF 9
ENDMDL
MODEL 2
REMARK VINA RESULT: -7.000181606      2.872      5.198
REMARK  9 active torsions:
REMARK  status: ('A' for Active; 'I' for Inactive)
REMARK    1  A    between atoms: C2_2  and  C3_3 
REMARK    2  A    between atoms: C2_2  and  C28_35 
REMARK    3  A    between atoms: C4_4  and  C5_5 
REMARK    4  A    between atoms: C5_5  and  N1_6 
REMARK    5  A    between atoms: C13_15  and  N3_16 
REMARK    6  A    between atoms: N3_16  and  C14_18 
REMARK    7  A    between atoms: C14_18  and  N4_19 
REMARK    8  A    between atoms: C25_30  and  O1_31 
REMARK    9  A    between atoms: C28_35  and  O2_36 
ROOT
HETATM    1  N1  UNL     1      16.842 -12.294  17.884  1.00  0.00    -0.027 N 
HETATM    2  C6  UNL     1      18.287 -12.202  17.616  1.00  0.00     0.281 C 
HETATM    3  C7  UNL     1      16.560 -13.666  17.690  1.00  0.00     0.211 C 
HETATM    4  C8  UNL     1      15.208 -13.943  17.032  1.00  0.00     0.047 C 
HETATM    5  C9  UNL     1      14.037 -13.777  17.830  1.00  0.00     0.051 C 
HETATM    6  C10 UNL     1      13.679 -14.387  19.123  1.00  0.00     0.066 C 
HETATM    7  N2  UNL     1      14.527 -14.005  20.080  1.00  0.00    -0.380 N 
HETATM    8  C11 UNL     1      14.142 -14.598  21.368  1.00  0.00     0.150 C 
HETATM    9  C12 UNL     1      15.443 -13.261  19.475  1.00  0.00     0.115 C 
HETATM   10  C13 UNL     1      14.335 -12.583  18.649  1.00  0.00     0.126 C 
HETATM   11  C19 UNL     1      16.493 -12.265  19.323  1.00  0.00     0.143 C 
HETATM   12  C20 UNL     1      17.592 -12.060  20.249  1.00  0.00     0.019 C 
HETATM   13  C21 UNL     1      18.712 -12.823  20.739  1.00  0.00    -0.018 A 
HETATM   14  C22 UNL     1      18.871 -12.669  22.307  1.00  0.00     0.020 C 
HETATM   15  C23 UNL     1      19.859 -13.470  20.226  1.00  0.00     0.021 A 
HETATM   16  C24 UNL     1      18.725 -14.342  20.318  1.00  0.00     0.028 A 
HETATM   17  C25 UNL     1      17.343 -14.551  20.065  1.00  0.00     0.136 C 
HETATM   18  C26 UNL     1      16.377 -14.324  19.014  1.00  0.00     0.045 C 
HETATM   19  C27 UNL     1      15.998 -15.684  18.575  1.00  0.00     0.023 C 
ENDROOT
BRANCH   1  20
HETATM   20  C5  UNL     1      16.427 -11.280  17.042  1.00  0.00     0.337 C 
BRANCH  20  21
HETATM   21  C4  UNL     1      16.796 -11.593  15.643  1.00  0.00    -0.078 C 
HETATM   22  C3  UNL     1      17.081 -11.839  14.470  1.00  0.00    -0.098 C 
BRANCH  22  23
HETATM   23  C2  UNL     1      17.443 -12.131  13.091  1.00  0.00     0.084 C 
HETATM   24  C1  UNL     1      16.637 -13.315  12.641  1.00  0.00     0.025 C 
BRANCH  23  25
HETATM   25  C28 UNL     1      17.139 -10.978  12.160  1.00  0.00     0.180 C 
BRANCH  25  26
HETATM   26  O2  UNL     1      17.717  -9.843  12.708  1.00  0.00    -0.400 OA
ATOM     27  H2  UNL     1      17.559  -9.127  12.104  1.00  0.00     0.209 HD
ENDBRANCH  25  26
ENDBRANCH  23  25
ENDBRANCH  22  23
ENDBRANCH  20  21
ENDBRANCH   1  20
BRANCH  17  28
HETATM   28  O1  UNL     1      16.900 -14.124  21.349  1.00  0.00    -0.394 OA
ATOM     29  H1  UNL     1      16.010 -14.443  21.252  1.00  0.00     0.210 HD
ENDBRANCH  17  28
BRANCH  10  30
HETATM   30  N3  UNL     1      13.160 -12.337  19.558  1.00  0.00    -0.371 N 
ATOM     31  H3  UNL     1      12.606 -13.103  19.941  1.00  0.00     0.160 HD
BRANCH  30  32
HETATM   32  C14 UNL     1      12.874 -11.017  19.846  1.00  0.00     0.300 C 
BRANCH  32  33
HETATM   33  N4  UNL     1      13.004 -10.536  21.200  1.00  0.00     0.003 N 
HETATM   34  C15 UNL     1      14.299  -9.868  21.447  1.00  0.00     0.292 C 
HETATM   35  C16 UNL     1      11.995  -9.637  21.602  1.00  0.00     0.216 A 
HETATM   36  C17 UNL     1      11.660 -10.392  22.599  1.00  0.00     0.052 A 
HETATM   37  C18 UNL     1      12.677 -11.379  22.260  1.00  0.00     0.216 A 
ENDBRANCH  32  33
ENDBRANCH  30  32
ENDBRANCH  10  30
TORSDOF 9
ENDMDL
MODEL 3
REMARK VINA RESULT: -6.978544672      3.000      6.265
REMARK  9 active torsions:
REMARK  status: ('A' for Active; 'I' for Inactive)
REMARK    1  A    between atoms: C2_2  and  C3_3 
REMARK    2  A    between atoms: C2_2  and  C28_35 
REMARK    3  A    between atoms: C4_4  and  C5_5 
REMARK    4  A    between atoms: C5_5  and  N1_6 
REMARK    5  A    between atoms: C13_15  and  N3_16 
REMARK    6  A    between atoms: N3_16  and  C14_18 
REMARK    7  A    between atoms: C14_18  and  N4_19 
REMARK    8  A    between atoms: C25_30  and  O1_31 
REMARK    9  A    between atoms: C28_35  and  O2_36 
ROOT
HETATM    1  N1  UNL     1      13.283 -12.013  20.500  1.00  0.00    -0.027 N 
HETATM    2  C6  UNL     1      12.180 -12.498  21.348  1.00  0.00     0.281 C 
HETATM    3  C7  UNL     1      14.439 -12.386  21.222  1.00  0.00     0.211 C 
HETATM    4  C8  UNL     1      15.577 -11.365  21.157  1.00  0.00     0.047 C 
HETATM    5  C9  UNL     1      16.319 -11.278  19.941  1.00  0.00     0.051 C 
HETATM    6  C10 UNL     1      17.041 -12.324  19.196  1.00  0.00     0.066 C 
HETATM    7  N2  UNL     1      16.198 -13.259  18.751  1.00  0.00    -0.380 N 
HETATM    8  C11 UNL     1      16.927 -14.280  17.987  1.00  0.00     0.150 C 
HETATM    9  C12 UNL     1      15.006 -12.925  19.225  1.00  0.00     0.115 C 
HETATM   10  C13 UNL     1      15.294 -11.450  18.890  1.00  0.00     0.126 C 
HETATM   11  C19 UNL     1      13.554 -12.866  19.320  1.00  0.00     0.143 C 
HETATM   12  C20 UNL     1      12.657 -13.987  19.114  1.00  0.00     0.019 C 
HETATM   13  C21 UNL     1      12.409 -15.265  19.731  1.00  0.00    -0.018 A 
HETATM   14  C22 UNL     1      12.236 -16.405  18.647  1.00  0.00     0.020 C 
HETATM   15  C23 UNL     1      12.031 -15.776  20.994  1.00  0.00     0.021 A 
HETATM   16  C24 UNL     1      13.452 -15.690  20.834  1.00  0.00     0.028 A 
HETATM   17  C25 UNL     1      14.575 -14.916  20.439  1.00  0.00     0.136 C 
HETATM   18  C26 UNL     1      15.072 -13.565  20.568  1.00  0.00     0.045 C 
HETATM   19  C27 UNL     1      16.283 -13.705  21.405  1.00  0.00     0.023 C 
ENDROOT
BRANCH   1  20
HETATM   20  C5  UNL     1      12.842 -10.714  20.339  1.00  0.00     0.337 C 
BRANCH  20  21
HETATM   21  C4  UNL     1      12.286 -10.199  21.611  1.00  0.00    -0.078 C 
HETATM   22  C3  UNL     1      11.839  -9.748  22.666  1.00  0.00    -0.098 C 
BRANCH  22  23
HETATM   23  C2  UNL     1      11.289  -9.230  23.910  1.00  0.00     0.084 C 
HETATM   24  C1  UNL     1      11.440 -10.290  24.962  1.00  0.00     0.025 C 
BRANCH  23  25
HETATM   25  C28 UNL     1      12.015  -7.991  24.388  1.00  0.00     0.180 C 
BRANCH  25  26
HETATM   26  O2  UNL     1      13.330  -8.095  23.963  1.00  0.00    -0.400 OA
ATOM     27  H2  UNL     1      13.312  -8.279  23.031  1.00  0.00     0.209 HD
ENDBRANCH  25  26
ENDBRANCH  23  25
ENDBRANCH  22  23
ENDBRANCH  20  21
ENDBRANCH   1  20
BRANCH  17  28
HETATM   28  O1  UNL     1      14.631 -15.420  19.108  1.00  0.00    -0.394 OA
ATOM     29  H1  UNL     1      14.884 -14.597  18.707  1.00  0.00     0.210 HD
ENDBRANCH  17  28
BRANCH  10  30
HETATM   30  N3  UNL     1      15.985 -11.403  17.553  1.00  0.00    -0.371 N 
ATOM     31  H3  UNL     1      16.984 -11.589  17.457  1.00  0.00     0.160 HD
BRANCH  30  32
HETATM   32  C14 UNL     1      15.194 -11.094  16.464  1.00  0.00     0.300 C 
BRANCH  32  33
HETATM   33  N4  UNL     1      15.587 -11.533  15.148  1.00  0.00     0.003 N 
HETATM   34  C15 UNL     1      17.022 -11.883  15.068  1.00  0.00     0.292 C 
HETATM   35  C16 UNL     1      14.867 -12.643  14.661  1.00  0.00     0.216 A 
HETATM   36  C17 UNL     1      14.485 -11.988  13.611  1.00  0.00     0.052 A 
HETATM   37  C18 UNL     1      15.200 -10.791  14.035  1.00  0.00     0.216 A 
ENDBRANCH  32  33
ENDBRANCH  30  32
ENDBRANCH  10  30
TORSDOF 9
ENDMDL
MODEL 4
REMARK VINA RESULT: -6.931272647      2.532      5.925
REMARK  9 active torsions:
REMARK  status: ('A' for Active; 'I' for Inactive)
REMARK    1  A    between atoms: C2_2  and  C3_3 
REMARK    2  A    between atoms: C2_2  and  C28_35 
REMARK    3  A    between atoms: C4_4  and  C5_5 
REMARK    4  A    between atoms: C5_5  and  N1_6 
REMARK    5  A    between atoms: C13_15  and  N3_16 
REMARK    6  A    between atoms: N3_16  and  C14_18 
REMARK    7  A    between atoms: C14_18  and  N4_19 
REMARK    8  A    between atoms: C25_30  and  O1_31 
REMARK    9  A    between atoms: C28_35  and  O2_36 
ROOT
HETATM    1  N1  UNL     1      14.826 -11.780  19.465  1.00  0.00    -0.027 N 
HETATM    2  C6  UNL     1      15.484 -10.710  20.234  1.00  0.00     0.281 C 
HETATM    3  C7  UNL     1      15.666 -11.935  18.338  1.00  0.00     0.211 C 
HETATM    4  C8  UNL     1      14.921 -12.225  17.034  1.00  0.00     0.047 C 
HETATM    5  C9  UNL     1      14.380 -13.533  16.857  1.00  0.00     0.051 C 
HETATM    6  C10 UNL     1      15.042 -14.848  16.923  1.00  0.00     0.066 C 
HETATM    7  N2  UNL     1      15.515 -15.082  18.150  1.00  0.00    -0.380 N 
HETATM    8  C11 UNL     1      16.147 -16.406  18.207  1.00  0.00     0.150 C 
HETATM    9  C12 UNL     1      15.271 -13.981  18.846  1.00  0.00     0.115 C 
HETATM   10  C13 UNL     1      13.876 -13.890  18.200  1.00  0.00     0.126 C 
HETATM   11  C19 UNL     1      15.046 -13.138  20.012  1.00  0.00     0.143 C 
HETATM   12  C20 UNL     1      15.786 -13.220  21.257  1.00  0.00     0.019 C 
HETATM   13  C21 UNL     1      17.150 -13.042  21.685  1.00  0.00    -0.018 A 
HETATM   14  C22 UNL     1      17.598 -14.194  22.675  1.00  0.00     0.020 C 
HETATM   15  C23 UNL     1      18.137 -12.029  21.691  1.00  0.00     0.021 A 
HETATM   16  C24 UNL     1      18.200 -12.858  20.523  1.00  0.00     0.028 A 
HETATM   17  C25 UNL     1      17.509 -13.484  19.452  1.00  0.00     0.136 C 
HETATM   18  C26 UNL     1      16.473 -13.178  18.491  1.00  0.00     0.045 C 
HETATM   19  C27 UNL     1      17.175 -13.191  17.189  1.00  0.00     0.023 C 
ENDROOT
BRANCH   1  20
HETATM   20  C5  UNL     1      13.557 -11.236  19.429  1.00  0.00     0.337 C 
BRANCH  20  21
HETATM   21  C4  UNL     1      13.031 -11.069  20.803  1.00  0.00    -0.078 C 
HETATM   22  C3  UNL     1      12.583 -10.907  21.938  1.00  0.00    -0.098 C 
BRANCH  22  23
HETATM   23  C2  UNL     1      12.052 -10.741  23.283  1.00  0.00     0.084 C 
HETATM   24  C1  UNL     1      11.805  -9.277  23.507  1.00  0.00     0.025 C 
BRANCH  23  25
HETATM   25  C28 UNL     1      10.741 -11.471  23.479  1.00  0.00     0.180 C 
BRANCH  25  26
HETATM   26  O2  UNL     1      10.655 -11.811  24.820  1.00  0.00    -0.400 OA
ATOM     27  H2  UNL     1      11.496 -12.171  25.074  1.00  0.00     0.209 HD
ENDBRANCH  25  26
ENDBRANCH  23  25
ENDBRANCH  22  23
ENDBRANCH  20  21
ENDBRANCH   1  20
BRANCH  17  28
HETATM   28  O1  UNL     1      17.322 -14.730  20.114  1.00  0.00    -0.394 OA
ATOM     29  H1  UNL     1      16.418 -14.844  19.848  1.00  0.00     0.210 HD
ENDBRANCH  17  28
BRANCH  10  30
HETATM   30  N3  UNL     1      13.305 -15.281  18.130  1.00  0.00    -0.371 N 
ATOM     31  H3  UNL     1      13.742 -16.015  17.571  1.00  0.00     0.160 HD
BRANCH  30  32
HETATM   32  C14 UNL     1      12.157 -15.511  18.862  1.00  0.00     0.300 C 
BRANCH  32  33
HETATM   33  N4  UNL     1      12.238 -16.217  20.116  1.00  0.00     0.003 N 
HETATM   34  C15 UNL     1      11.073 -17.096  20.353  1.00  0.00     0.292 C 
HETATM   35  C16 UNL     1      13.391 -17.014  20.266  1.00  0.00     0.216 A 
HETATM   36  C17 UNL     1      13.735 -16.391  21.347  1.00  0.00     0.052 A 
HETATM   37  C18 UNL     1      12.569 -15.519  21.275  1.00  0.00     0.216 A 
ENDBRANCH  32  33
ENDBRANCH  30  32
ENDBRANCH  10  30
TORSDOF 9
ENDMDL
MODEL 5
REMARK VINA RESULT: -6.895111658      1.989      3.431
REMARK  9 active torsions:
REMARK  status: ('A' for Active; 'I' for Inactive)
REMARK    1  A    between atoms: C2_2  and  C3_3 
REMARK    2  A    between atoms: C2_2  and  C28_35 
REMARK    3  A    between atoms: C4_4  and  C5_5 
REMARK    4  A    between atoms: C5_5  and  N1_6 
REMARK    5  A    between atoms: C13_15  and  N3_16 
REMARK    6  A    between atoms: N3_16  and  C14_18 
REMARK    7  A    between atoms: C14_18  and  N4_19 
REMARK    8  A    between atoms: C25_30  and  O1_31 
REMARK    9  A    between atoms: C28_35  and  O2_36 
ROOT
HETATM    1  N1  UNL     1      16.253 -12.467  20.499  1.00  0.00    -0.027 N 
HETATM    2  C6  UNL     1      17.313 -11.762  19.759  1.00  0.00     0.281 C 
HETATM    3  C7  UNL     1      15.125 -11.631  20.332  1.00  0.00     0.211 C 
HETATM    4  C8  UNL     1      14.223 -11.539  21.564  1.00  0.00     0.047 C 
HETATM    5  C9  UNL     1      13.393 -12.660  21.863  1.00  0.00     0.051 C 
HETATM    6  C10 UNL     1      12.397 -13.350  21.024  1.00  0.00     0.066 C 
HETATM    7  N2  UNL     1      12.978 -13.913  19.962  1.00  0.00    -0.380 N 
HETATM    8  C11 UNL     1      11.977 -14.619  19.150  1.00  0.00     0.150 C 
HETATM    9  C12 UNL     1      14.256 -13.566  20.023  1.00  0.00     0.115 C 
HETATM   10  C13 UNL     1      14.245 -13.824  21.540  1.00  0.00     0.126 C 
HETATM   11  C19 UNL     1      15.690 -13.633  19.781  1.00  0.00     0.143 C 
HETATM   12  C20 UNL     1      16.309 -13.971  18.513  1.00  0.00     0.019 C 
HETATM   13  C21 UNL     1      16.350 -13.422  17.182  1.00  0.00    -0.018 A 
HETATM   14  C22 UNL     1      16.170 -14.551  16.087  1.00  0.00     0.020 C 
HETATM   15  C23 UNL     1      16.743 -12.225  16.540  1.00  0.00     0.021 A 
HETATM   16  C24 UNL     1      15.361 -12.222  16.921  1.00  0.00     0.028 A 
HETATM   17  C25 UNL     1      14.388 -12.466  17.925  1.00  0.00     0.136 C 
HETATM   18  C26 UNL     1      14.197 -12.244  19.341  1.00  0.00     0.045 C 
HETATM   19  C27 UNL     1      13.078 -11.280  19.406  1.00  0.00     0.023 C 
ENDROOT
BRANCH   1  20
HETATM   20  C5  UNL     1      16.934 -12.639  21.689  1.00  0.00     0.337 C 
BRANCH  20  21
HETATM   21  C4  UNL     1      18.375 -12.856  21.428  1.00  0.00    -0.078 C 
HETATM   22  C3  UNL     1      19.572 -13.061  21.223  1.00  0.00    -0.098 C 
BRANCH  22  23
HETATM   23  C2  UNL     1      20.985 -13.288  20.960  1.00  0.00     0.084 C 
HETATM   24  C1  UNL     1      21.500 -12.128  20.157  1.00  0.00     0.025 C 
BRANCH  23  25
HETATM   25  C28 UNL     1      21.801 -13.374  22.231  1.00  0.00     0.180 C 
BRANCH  25  26
HETATM   26  O2  UNL     1      21.913 -14.717  22.558  1.00  0.00    -0.400 OA
ATOM     27  H2  UNL     1      21.517 -15.213  21.852  1.00  0.00     0.209 HD
ENDBRANCH  25  26
ENDBRANCH  23  25
ENDBRANCH  22  23
ENDBRANCH  20  21
ENDBRANCH   1  20
BRANCH  17  28
HETATM   28  O1  UNL     1      14.092 -13.797  17.513  1.00  0.00    -0.394 OA
ATOM     29  H1  UNL     1      14.648 -13.782  16.742  1.00  0.00     0.210 HD
ENDBRANCH  17  28
BRANCH  10  30
HETATM   30  N3  UNL     1      13.444 -15.073  21.795  1.00  0.00    -0.371 N 
ATOM     31  H3  UNL     1      12.425 -15.057  21.850  1.00  0.00     0.160 HD
BRANCH  30  32
HETATM   32  C14 UNL     1      14.163 -16.242  21.949  1.00  0.00     0.300 C 
BRANCH  32  33
HETATM   33  N4  UNL     1      13.831 -17.396  21.151  1.00  0.00     0.003 N 
HETATM   34  C15 UNL     1      14.517 -17.401  19.841  1.00  0.00     0.292 C 
HETATM   35  C16 UNL     1      14.112 -18.634  21.765  1.00  0.00     0.216 A 
HETATM   36  C17 UNL     1      12.881 -19.019  21.651  1.00  0.00     0.052 A 
HETATM   37  C18 UNL     1      12.497 -17.768  21.007  1.00  0.00     0.216 A 
ENDBRANCH  32  33
ENDBRANCH  30  32
ENDBRANCH  10  30
TORSDOF 9
ENDMDL
