MODEL 1
REMARK VINA RESULT: -9.359082184      0.000      0.000
REMARK  16 active torsions:
REMARK  status: ('A' for Active; 'I' for Inactive)
REMARK    1  A    between atoms: C4_6  and  C5_7 
REMARK    2  A    between atoms: C8_10  and  C9_11 
REMARK    3  A    between atoms: C9_11  and  C10_12 
REMARK    4  A    between atoms: C15_21  and  C16_22 
REMARK    5  A    between atoms: C17_23  and  C18_24 
REMARK    6  A    between atoms: C18_24  and  N4_25 
REMARK    7  A    between atoms: N4_25  and  C20_27 
REMARK    8  A    between atoms: C20_27  and  C21_28 
REMARK    9  A    between atoms: C27_34  and  C28_35 
REMARK       I    between atoms: C28_35  and  N5_37 
REMARK   10  A    between atoms: C29_39  and  C30_40 
REMARK   11  A    between atoms: C30_40  and  C31_41 
REMARK   12  A    between atoms: C35_45  and  C36_46 
REMARK   13  A    between atoms: C36_46  and  N6_47 
REMARK   14  A    between atoms: N6_47  and  N7_49 
REMARK   15  A    between atoms: C38_53  and  C39_54 
REMARK   16  A    between atoms: C39_54  and  C40_55 
ROOT
HETATM    1  C1  UNL     1      13.834  64.590  33.122  1.00  0.00     0.040 C 
HETATM    2  C2  UNL     1      14.346  64.710  31.730  1.00  0.00     0.017 C 
HETATM    3  C3  UNL     1      13.844  63.953  30.749  1.00  0.00     0.101 A 
HETATM    4  N1  UNL     1      12.841  62.992  30.809  1.00  0.00    -0.342 N 
ATOM      5  H1  UNL     1      12.342  62.745  31.663  1.00  0.00     0.167 HD
HETATM    6  C4  UNL     1      12.585  62.381  29.520  1.00  0.00     0.067 A 
HETATM    7  C13 UNL     1      13.592  62.944  28.597  1.00  0.00     0.083 A 
HETATM    8  C14 UNL     1      14.593  61.851  28.248  1.00  0.00     0.046 C 
HETATM    9  C15 UNL     1      13.121  63.747  27.449  1.00  0.00     0.057 C 
HETATM   10  C27 UNL     1      14.206  64.863  27.306  1.00  0.00     0.116 C 
HETATM   11  C35 UNL     1      15.106  64.729  28.483  1.00  0.00     0.141 C 
HETATM   12  N9  UNL     1      14.257  63.986  29.405  1.00  0.00    -0.342 N 
ENDROOT
BRANCH  11  13
HETATM   13  C36 UNL     1      16.396  64.098  28.248  1.00  0.00     0.107 C 
BRANCH  13  14
HETATM   14  N6  UNL     1      17.500  64.421  28.825  1.00  0.00    -0.306 N 
ATOM     15  H6  UNL     1      17.517  64.515  29.840  1.00  0.00     0.186 HD
BRANCH  14  16
HETATM   16  N7  UNL     1      18.675  64.648  28.108  1.00  0.00    -0.255 N 
HETATM   17  C37 UNL     1      19.539  63.746  27.675  1.00  0.00     0.207 A 
HETATM   18  N8  UNL     1      20.526  64.377  27.019  1.00  0.00    -0.353 N 
HETATM   19  C38 UNL     1      20.295  65.699  27.032  1.00  0.00     0.034 A 
ATOM     20  H8  UNL     1      21.327  63.923  26.579  1.00  0.00     0.166 HD
HETATM   21  C42 UNL     1      19.106  65.864  27.733  1.00  0.00     0.053 A 
HETATM   22  C43 UNL     1      18.423  67.151  28.020  1.00  0.00     0.072 C 
BRANCH  19  23
HETATM   23  C39 UNL     1      21.146  66.713  26.419  1.00  0.00     0.059 C 
BRANCH  23  24
HETATM   24  C40 UNL     1      22.467  66.170  25.927  1.00  0.00     0.002 C 
HETATM   25  C41 UNL     1      23.650  66.995  26.325  1.00  0.00     0.005 C 
ENDBRANCH  23  24
ENDBRANCH  19  23
ENDBRANCH  14  16
ENDBRANCH  13  14
ENDBRANCH  11  13
BRANCH  10  26
HETATM   26  C28 UNL     1      13.471  66.158  27.395  1.00  0.00     0.228 C 
HETATM   27  O1  UNL     1      13.466  66.811  28.514  1.00  0.00    -0.273 OA
HETATM   28  N5  UNL     1      12.767  66.740  26.349  1.00  0.00    -0.340 N 
HETATM   29  C29 UNL     1      12.720  66.549  25.114  1.00  0.00     0.064 C 
ATOM     30  H5  UNL     1      12.150  67.491  26.657  1.00  0.00     0.167 HD
BRANCH  29  31
HETATM   31  C30 UNL     1      11.793  67.430  24.318  1.00  0.00     0.053 C 
BRANCH  31  32
HETATM   32  C31 UNL     1      11.312  66.688  23.096  1.00  0.00    -0.047 C 
HETATM   33  C32 UNL     1      11.307  67.608  21.880  1.00  0.00     0.015 C 
HETATM   34  C33 UNL     1       9.952  66.091  23.232  1.00  0.00     0.015 C 
HETATM   35  C34 UNL     1      12.321  65.593  22.768  1.00  0.00     0.015 C 
ENDBRANCH  31  32
ENDBRANCH  29  31
ENDBRANCH  10  26
BRANCH   9  36
HETATM   36  C16 UNL     1      13.109  63.083  26.105  1.00  0.00    -0.021 C 
HETATM   37  C17 UNL     1      14.120  63.223  25.286  1.00  0.00    -0.001 C 
BRANCH  37  38
HETATM   38  C18 UNL     1      14.305  62.661  23.948  1.00  0.00     0.299 C 
BRANCH  38  39
HETATM   39  N4  UNL     1      15.677  62.603  23.554  1.00  0.00     0.091 N 
HETATM   40  C19 UNL     1      16.042  63.894  22.894  1.00  0.00     0.310 C 
BRANCH  39  41
HETATM   41  C20 UNL     1      16.616  62.429  24.658  1.00  0.00     0.310 C 
BRANCH  41  42
HETATM   42  C21 UNL     1      17.565  61.330  24.511  1.00  0.00    -0.030 A 
HETATM   43  C22 UNL     1      18.511  61.100  25.484  1.00  0.00     0.009 A 
HETATM   44  C23 UNL     1      19.419  60.062  25.403  1.00  0.00     0.001 A 
HETATM   45  C24 UNL     1      19.384  59.223  24.311  1.00  0.00     0.000 A 
HETATM   46  C25 UNL     1      18.445  59.439  23.329  1.00  0.00     0.001 A 
HETATM   47  C26 UNL     1      17.539  60.489  23.427  1.00  0.00     0.009 A 
ENDBRANCH  41  42
ENDBRANCH  39  41
ENDBRANCH  38  39
ENDBRANCH  37  38
ENDBRANCH   9  36
BRANCH   6  48
HETATM   48  C5  UNL     1      11.611  61.482  29.377  1.00  0.00     0.058 A 
HETATM   49  C6  UNL     1      11.025  60.998  28.249  1.00  0.00     0.034 A 
HETATM   50  C7  UNL     1      10.037  60.098  28.576  1.00  0.00     0.032 A 
HETATM   51  C8  UNL     1      10.015  60.022  29.966  1.00  0.00     0.034 A 
HETATM   52  N3  UNL     1      10.947  60.844  30.392  1.00  0.00    -0.355 N 
ATOM     53  H3  UNL     1      11.155  60.992  31.380  1.00  0.00     0.166 HD
BRANCH  51  54
HETATM   54  C9  UNL     1       9.209  59.272  30.674  1.00  0.00     0.054 C 
BRANCH  54  55
HETATM   55  C10 UNL     1       7.958  59.660  31.278  1.00  0.00     0.008 A 
HETATM   56  N2  UNL     1       7.332  60.697  31.650  1.00  0.00    -0.393 N 
HETATM   57  C11 UNL     1       6.144  60.077  32.146  1.00  0.00     0.125 A 
ATOM     58  H2  UNL     1       7.597  61.681  31.608  1.00  0.00     0.159 HD
HETATM   59  C12 UNL     1       6.784  58.824  31.734  1.00  0.00     0.076 A 
ENDBRANCH  54  55
ENDBRANCH  51  54
ENDBRANCH   6  48
TORSDOF 16
ENDMDL
MODEL 2
REMARK VINA RESULT: -9.329626478      2.902      6.110
REMARK  16 active torsions:
REMARK  status: ('A' for Active; 'I' for Inactive)
REMARK    1  A    between atoms: C4_6  and  C5_7 
REMARK    2  A    between atoms: C8_10  and  C9_11 
REMARK    3  A    between atoms: C9_11  and  C10_12 
REMARK    4  A    between atoms: C15_21  and  C16_22 
REMARK    5  A    between atoms: C17_23  and  C18_24 
REMARK    6  A    between atoms: C18_24  and  N4_25 
REMARK    7  A    between atoms: N4_25  and  C20_27 
REMARK    8  A    between atoms: C20_27  and  C21_28 
REMARK    9  A    between atoms: C27_34  and  C28_35 
REMARK       I    between atoms: C28_35  and  N5_37 
REMARK   10  A    between atoms: C29_39  and  C30_40 
REMARK   11  A    between atoms: C30_40  and  C31_41 
REMARK   12  A    between atoms: C35_45  and  C36_46 
REMARK   13  A    between atoms: C36_46  and  N6_47 
REMARK   14  A    between atoms: N6_47  and  N7_49 
REMARK   15  A    between atoms: C38_53  and  C39_54 
REMARK   16  A    between atoms: C39_54  and  C40_55 
ROOT
HETATM    1  C1  UNL     1      17.694  64.356  28.518  1.00  0.00     0.040 C 
HETATM    2  C2  UNL     1      17.285  64.622  27.113  1.00  0.00     0.017 C 
HETATM    3  C3  UNL     1      16.045  64.348  26.697  1.00  0.00     0.101 A 
HETATM    4  N1  UNL     1      14.980  63.811  27.411  1.00  0.00    -0.342 N 
ATOM      5  H1  UNL     1      15.029  63.554  28.397  1.00  0.00     0.167 HD
HETATM    6  C4  UNL     1      13.791  63.657  26.596  1.00  0.00     0.067 A 
HETATM    7  C13 UNL     1      14.187  64.040  25.225  1.00  0.00     0.083 A 
HETATM    8  C14 UNL     1      14.216  62.786  24.362  1.00  0.00     0.046 C 
HETATM    9  C15 UNL     1      13.528  65.208  24.604  1.00  0.00     0.057 C 
HETATM   10  C27 UNL     1      14.666  65.877  23.768  1.00  0.00     0.116 C 
HETATM   11  C35 UNL     1      15.922  65.159  24.116  1.00  0.00     0.141 C 
HETATM   12  N9  UNL     1      15.560  64.558  25.394  1.00  0.00    -0.342 N 
ENDROOT
BRANCH  11  13
HETATM   13  C36 UNL     1      16.413  64.196  23.143  1.00  0.00     0.107 C 
BRANCH  13  14
HETATM   14  N6  UNL     1      17.595  63.687  23.128  1.00  0.00    -0.306 N 
ATOM     15  H6  UNL     1      18.372  64.254  22.791  1.00  0.00     0.186 HD
BRANCH  14  16
HETATM   16  N7  UNL     1      17.849  62.385  23.559  1.00  0.00    -0.255 N 
HETATM   17  C37 UNL     1      17.207  61.282  23.208  1.00  0.00     0.207 A 
HETATM   18  N8  UNL     1      17.771  60.239  23.837  1.00  0.00    -0.353 N 
HETATM   19  C38 UNL     1      18.784  60.675  24.602  1.00  0.00     0.034 A 
ATOM     20  H8  UNL     1      17.476  59.267  23.748  1.00  0.00     0.166 HD
HETATM   21  C42 UNL     1      18.827  62.052  24.418  1.00  0.00     0.053 A 
HETATM   22  C43 UNL     1      19.781  62.997  25.051  1.00  0.00     0.072 C 
BRANCH  19  23
HETATM   23  C39 UNL     1      19.638  59.835  25.435  1.00  0.00     0.059 C 
BRANCH  23  24
HETATM   24  C40 UNL     1      19.796  58.429  24.905  1.00  0.00     0.002 C 
HETATM   25  C41 UNL     1      19.814  57.377  25.969  1.00  0.00     0.005 C 
ENDBRANCH  23  24
ENDBRANCH  19  23
ENDBRANCH  14  16
ENDBRANCH  13  14
ENDBRANCH  11  13
BRANCH  10  26
HETATM   26  C28 UNL     1      14.755  67.284  24.255  1.00  0.00     0.228 C 
HETATM   27  O1  UNL     1      14.622  67.529  25.520  1.00  0.00    -0.273 OA
HETATM   28  N5  UNL     1      14.972  68.389  23.442  1.00  0.00    -0.340 N 
HETATM   29  C29 UNL     1      15.357  68.543  22.262  1.00  0.00     0.064 C 
ATOM     30  H5  UNL     1      14.775  69.271  23.913  1.00  0.00     0.167 HD
BRANCH  29  31
HETATM   31  C30 UNL     1      15.459  69.957  21.753  1.00  0.00     0.053 C 
BRANCH  31  32
HETATM   32  C31 UNL     1      16.275  69.983  20.484  1.00  0.00    -0.047 C 
HETATM   33  C32 UNL     1      16.757  68.582  20.131  1.00  0.00     0.015 C 
HETATM   34  C33 UNL     1      17.461  70.886  20.532  1.00  0.00     0.015 C 
HETATM   35  C34 UNL     1      15.363  70.397  19.334  1.00  0.00     0.015 C 
ENDBRANCH  31  32
ENDBRANCH  29  31
ENDBRANCH  10  26
BRANCH   9  36
HETATM   36  C16 UNL     1      12.454  64.935  23.594  1.00  0.00    -0.021 C 
HETATM   37  C17 UNL     1      11.788  65.921  23.050  1.00  0.00    -0.001 C 
BRANCH  37  38
HETATM   38  C18 UNL     1      10.718  65.869  22.053  1.00  0.00     0.299 C 
BRANCH  38  39
HETATM   39  N4  UNL     1      10.647  67.049  21.252  1.00  0.00     0.091 N 
HETATM   40  C19 UNL     1       9.685  68.002  21.885  1.00  0.00     0.310 C 
BRANCH  39  41
HETATM   41  C20 UNL     1      11.911  67.769  21.124  1.00  0.00     0.310 C 
BRANCH  41  42
HETATM   42  C21 UNL     1      12.557  67.680  19.819  1.00  0.00    -0.030 A 
HETATM   43  C22 UNL     1      13.552  66.753  19.604  1.00  0.00     0.009 A 
HETATM   44  C23 UNL     1      14.181  66.613  18.381  1.00  0.00     0.001 A 
HETATM   45  C24 UNL     1      13.806  67.428  17.336  1.00  0.00     0.000 A 
HETATM   46  C25 UNL     1      12.814  68.360  17.535  1.00  0.00     0.001 A 
HETATM   47  C26 UNL     1      12.191  68.487  18.771  1.00  0.00     0.009 A 
ENDBRANCH  41  42
ENDBRANCH  39  41
ENDBRANCH  38  39
ENDBRANCH  37  38
ENDBRANCH   9  36
BRANCH   6  48
HETATM   48  C5  UNL     1      12.653  63.215  27.132  1.00  0.00     0.058 A 
HETATM   49  C6  UNL     1      11.538  63.897  27.503  1.00  0.00     0.034 A 
HETATM   50  C7  UNL     1      10.610  63.034  28.040  1.00  0.00     0.032 A 
HETATM   51  C8  UNL     1      11.179  61.765  27.997  1.00  0.00     0.034 A 
HETATM   52  N3  UNL     1      12.369  61.915  27.461  1.00  0.00    -0.355 N 
ATOM     53  H3  UNL     1      13.016  61.142  27.306  1.00  0.00     0.166 HD
BRANCH  51  54
HETATM   54  C9  UNL     1      10.612  60.662  28.418  1.00  0.00     0.054 C 
BRANCH  54  55
HETATM   55  C10 UNL     1       9.759  60.502  29.570  1.00  0.00     0.008 A 
HETATM   56  N2  UNL     1       9.053  61.190  30.367  1.00  0.00    -0.393 N 
HETATM   57  C11 UNL     1       8.572  60.138  31.206  1.00  0.00     0.125 A 
ATOM     58  H2  UNL     1       8.880  62.195  30.399  1.00  0.00     0.159 HD
HETATM   59  C12 UNL     1       9.350  59.260  30.327  1.00  0.00     0.076 A 
ENDBRANCH  54  55
ENDBRANCH  51  54
ENDBRANCH   6  48
TORSDOF 16
ENDMDL
MODEL 3
REMARK VINA RESULT: -9.193469239      3.232      9.349
REMARK  16 active torsions:
REMARK  status: ('A' for Active; 'I' for Inactive)
REMARK    1  A    between atoms: C4_6  and  C5_7 
REMARK    2  A    between atoms: C8_10  and  C9_11 
REMARK    3  A    between atoms: C9_11  and  C10_12 
REMARK    4  A    between atoms: C15_21  and  C16_22 
REMARK    5  A    between atoms: C17_23  and  C18_24 
REMARK    6  A    between atoms: C18_24  and  N4_25 
REMARK    7  A    between atoms: N4_25  and  C20_27 
REMARK    8  A    between atoms: C20_27  and  C21_28 
REMARK    9  A    between atoms: C27_34  and  C28_35 
REMARK       I    between atoms: C28_35  and  N5_37 
REMARK   10  A    between atoms: C29_39  and  C30_40 
REMARK   11  A    between atoms: C30_40  and  C31_41 
REMARK   12  A    between atoms: C35_45  and  C36_46 
REMARK   13  A    between atoms: C36_46  and  N6_47 
REMARK   14  A    between atoms: N6_47  and  N7_49 
REMARK   15  A    between atoms: C38_53  and  C39_54 
REMARK   16  A    between atoms: C39_54  and  C40_55 
ROOT
HETATM    1  C1  UNL     1      16.269  65.421  18.751  1.00  0.00     0.040 C 
HETATM    2  C2  UNL     1      15.467  65.735  19.965  1.00  0.00     0.017 C 
HETATM    3  C3  UNL     1      15.700  65.104  21.120  1.00  0.00     0.101 A 
HETATM    4  N1  UNL     1      16.642  64.123  21.409  1.00  0.00    -0.342 N 
ATOM      5  H1  UNL     1      17.305  63.755  20.728  1.00  0.00     0.167 HD
HETATM    6  C4  UNL     1      16.574  63.683  22.788  1.00  0.00     0.067 A 
HETATM    7  C13 UNL     1      15.417  64.383  23.381  1.00  0.00     0.083 A 
HETATM    8  C14 UNL     1      14.310  63.367  23.627  1.00  0.00     0.046 C 
HETATM    9  C15 UNL     1      15.660  65.322  24.497  1.00  0.00     0.057 C 
HETATM   10  C27 UNL     1      14.628  66.469  24.251  1.00  0.00     0.116 C 
HETATM   11  C35 UNL     1      14.007  66.199  22.927  1.00  0.00     0.141 C 
HETATM   12  N9  UNL     1      15.001  65.323  22.320  1.00  0.00    -0.342 N 
ENDROOT
BRANCH  11  13
HETATM   13  C36 UNL     1      12.666  65.632  22.939  1.00  0.00     0.107 C 
BRANCH  13  14
HETATM   14  N6  UNL     1      11.809  65.723  21.983  1.00  0.00    -0.306 N 
ATOM     15  H6  UNL     1      11.858  65.056  21.213  1.00  0.00     0.186 HD
BRANCH  14  16
HETATM   16  N7  UNL     1      10.817  66.702  21.965  1.00  0.00    -0.255 N 
HETATM   17  C37 UNL     1       9.720  66.749  22.703  1.00  0.00     0.207 A 
HETATM   18  N8  UNL     1       9.038  67.862  22.388  1.00  0.00    -0.353 N 
HETATM   19  C38 UNL     1       9.701  68.536  21.436  1.00  0.00     0.034 A 
ATOM     20  H8  UNL     1       8.154  68.150  22.806  1.00  0.00     0.166 HD
HETATM   21  C42 UNL     1      10.841  67.785  21.170  1.00  0.00     0.053 A 
HETATM   22  C43 UNL     1      11.904  68.113  20.186  1.00  0.00     0.072 C 
BRANCH  19  23
HETATM   23  C39 UNL     1       9.274  69.795  20.837  1.00  0.00     0.059 C 
BRANCH  23  24
HETATM   24  C40 UNL     1       8.192  70.497  21.624  1.00  0.00     0.002 C 
HETATM   25  C41 UNL     1       8.518  71.914  21.976  1.00  0.00     0.005 C 
ENDBRANCH  23  24
ENDBRANCH  19  23
ENDBRANCH  14  16
ENDBRANCH  13  14
ENDBRANCH  11  13
BRANCH  10  26
HETATM   26  C28 UNL     1      15.428  67.725  24.171  1.00  0.00     0.228 C 
HETATM   27  O1  UNL     1      16.716  67.653  24.048  1.00  0.00    -0.273 OA
HETATM   28  N5  UNL     1      14.895  69.006  24.220  1.00  0.00    -0.340 N 
HETATM   29  C29 UNL     1      13.741  69.477  24.111  1.00  0.00     0.064 C 
ATOM     30  H5  UNL     1      15.601  69.723  24.380  1.00  0.00     0.167 HD
BRANCH  29  31
HETATM   31  C30 UNL     1      13.595  70.971  24.231  1.00  0.00     0.053 C 
BRANCH  31  32
HETATM   32  C31 UNL     1      12.250  71.396  23.697  1.00  0.00    -0.047 C 
HETATM   33  C32 UNL     1      11.967  72.850  24.056  1.00  0.00     0.015 C 
HETATM   34  C33 UNL     1      11.105  70.568  24.177  1.00  0.00     0.015 C 
HETATM   35  C34 UNL     1      12.303  71.360  22.173  1.00  0.00     0.015 C 
ENDBRANCH  31  32
ENDBRANCH  29  31
ENDBRANCH  10  26
BRANCH   9  36
HETATM   36  C16 UNL     1      15.339  64.841  25.881  1.00  0.00    -0.021 C 
HETATM   37  C17 UNL     1      14.457  65.470  26.615  1.00  0.00    -0.001 C 
BRANCH  37  38
HETATM   38  C18 UNL     1      14.003  65.164  27.971  1.00  0.00     0.299 C 
BRANCH  38  39
HETATM   39  N4  UNL     1      12.757  64.465  27.996  1.00  0.00     0.091 N 
HETATM   40  C19 UNL     1      11.843  65.077  26.985  1.00  0.00     0.310 C 
BRANCH  39  41
HETATM   41  C20 UNL     1      12.853  63.048  27.656  1.00  0.00     0.310 C 
BRANCH  41  42
HETATM   42  C21 UNL     1      12.043  62.149  28.470  1.00  0.00    -0.030 A 
HETATM   43  C22 UNL     1      11.224  61.221  27.867  1.00  0.00     0.009 A 
HETATM   44  C23 UNL     1      10.453  60.332  28.591  1.00  0.00     0.001 A 
HETATM   45  C24 UNL     1      10.498  60.371  29.967  1.00  0.00     0.000 A 
HETATM   46  C25 UNL     1      11.311  61.292  30.586  1.00  0.00     0.001 A 
HETATM   47  C26 UNL     1      12.080  62.179  29.842  1.00  0.00     0.009 A 
ENDBRANCH  41  42
ENDBRANCH  39  41
ENDBRANCH  38  39
ENDBRANCH  37  38
ENDBRANCH   9  36
BRANCH   6  48
HETATM   48  C5  UNL     1      17.445  62.790  23.259  1.00  0.00     0.058 A 
HETATM   49  C6  UNL     1      18.460  62.944  24.151  1.00  0.00     0.034 A 
HETATM   50  C7  UNL     1      19.124  61.751  24.325  1.00  0.00     0.032 A 
HETATM   51  C8  UNL     1      18.489  60.822  23.505  1.00  0.00     0.034 A 
HETATM   52  N3  UNL     1      17.518  61.469  22.902  1.00  0.00    -0.355 N 
ATOM     53  H3  UNL     1      16.882  61.031  22.236  1.00  0.00     0.166 HD
BRANCH  51  54
HETATM   54  C9  UNL     1      18.823  59.562  23.383  1.00  0.00     0.054 C 
BRANCH  54  55
HETATM   55  C10 UNL     1      19.246  58.664  24.430  1.00  0.00     0.008 A 
HETATM   56  N2  UNL     1      19.171  57.442  24.760  1.00  0.00    -0.393 N 
HETATM   57  C11 UNL     1      19.905  57.495  25.984  1.00  0.00     0.125 A 
ATOM     58  H2  UNL     1      18.720  56.657  24.291  1.00  0.00     0.159 HD
HETATM   59  C12 UNL     1      20.057  58.921  25.679  1.00  0.00     0.076 A 
ENDBRANCH  54  55
ENDBRANCH  51  54
ENDBRANCH   6  48
TORSDOF 16
ENDMDL
MODEL 4
REMARK VINA RESULT: -9.153234821      2.386      9.099
REMARK  16 active torsions:
REMARK  status: ('A' for Active; 'I' for Inactive)
REMARK    1  A    between atoms: C4_6  and  C5_7 
REMARK    2  A    between atoms: C8_10  and  C9_11 
REMARK    3  A    between atoms: C9_11  and  C10_12 
REMARK    4  A    between atoms: C15_21  and  C16_22 
REMARK    5  A    between atoms: C17_23  and  C18_24 
REMARK    6  A    between atoms: C18_24  and  N4_25 
REMARK    7  A    between atoms: N4_25  and  C20_27 
REMARK    8  A    between atoms: C20_27  and  C21_28 
REMARK    9  A    between atoms: C27_34  and  C28_35 
REMARK       I    between atoms: C28_35  and  N5_37 
REMARK   10  A    between atoms: C29_39  and  C30_40 
REMARK   11  A    between atoms: C30_40  and  C31_41 
REMARK   12  A    between atoms: C35_45  and  C36_46 
REMARK   13  A    between atoms: C36_46  and  N6_47 
REMARK   14  A    between atoms: N6_47  and  N7_49 
REMARK   15  A    between atoms: C38_53  and  C39_54 
REMARK   16  A    between atoms: C39_54  and  C40_55 
ROOT
HETATM    1  C1  UNL     1      14.955  66.315  20.129  1.00  0.00     0.040 C 
HETATM    2  C2  UNL     1      14.438  66.358  21.524  1.00  0.00     0.017 C 
HETATM    3  C3  UNL     1      14.897  65.510  22.449  1.00  0.00     0.101 A 
HETATM    4  N1  UNL     1      15.855  64.510  22.324  1.00  0.00    -0.342 N 
ATOM      5  H1  UNL     1      16.349  64.302  21.456  1.00  0.00     0.167 HD
HETATM    6  C4  UNL     1      16.072  63.796  23.566  1.00  0.00     0.067 A 
HETATM    7  C13 UNL     1      15.086  64.337  24.524  1.00  0.00     0.083 A 
HETATM    8  C14 UNL     1      14.033  63.269  24.788  1.00  0.00     0.046 C 
HETATM    9  C15 UNL     1      15.584  65.032  25.729  1.00  0.00     0.057 C 
HETATM   10  C27 UNL     1      14.551  66.184  25.948  1.00  0.00     0.116 C 
HETATM   11  C35 UNL     1      13.655  66.178  24.761  1.00  0.00     0.141 C 
HETATM   12  N9  UNL     1      14.476  65.465  23.790  1.00  0.00    -0.342 N 
ENDROOT
BRANCH  11  13
HETATM   13  C36 UNL     1      12.335  65.592  24.943  1.00  0.00     0.107 C 
BRANCH  13  14
HETATM   14  N6  UNL     1      11.234  66.082  24.493  1.00  0.00    -0.306 N 
ATOM     15  H6  UNL     1      10.455  66.220  25.137  1.00  0.00     0.186 HD
BRANCH  14  16
HETATM   16  N7  UNL     1      11.068  66.429  23.152  1.00  0.00    -0.255 N 
HETATM   17  C37 UNL     1      10.889  65.614  22.126  1.00  0.00     0.207 A 
HETATM   18  N8  UNL     1      10.760  66.350  21.011  1.00  0.00    -0.353 N 
HETATM   19  C38 UNL     1      10.860  67.651  21.322  1.00  0.00     0.034 A 
ATOM     20  H8  UNL     1      10.610  65.978  20.073  1.00  0.00     0.166 HD
HETATM   21  C42 UNL     1      11.058  67.694  22.697  1.00  0.00     0.053 A 
HETATM   22  C43 UNL     1      11.227  68.913  23.527  1.00  0.00     0.072 C 
BRANCH  19  23
HETATM   23  C39 UNL     1      10.769  68.757  20.374  1.00  0.00     0.059 C 
BRANCH  23  24
HETATM   24  C40 UNL     1      12.001  68.911  19.513  1.00  0.00     0.002 C 
HETATM   25  C41 UNL     1      11.874  68.295  18.156  1.00  0.00     0.005 C 
ENDBRANCH  23  24
ENDBRANCH  19  23
ENDBRANCH  14  16
ENDBRANCH  13  14
ENDBRANCH  11  13
BRANCH  10  26
HETATM   26  C28 UNL     1      15.346  67.447  25.956  1.00  0.00     0.228 C 
HETATM   27  O1  UNL     1      14.732  68.586  26.014  1.00  0.00    -0.273 OA
HETATM   28  N5  UNL     1      16.732  67.506  25.902  1.00  0.00    -0.340 N 
HETATM   29  C29 UNL     1      17.649  66.671  26.058  1.00  0.00     0.064 C 
ATOM     30  H5  UNL     1      17.080  68.441  25.687  1.00  0.00     0.167 HD
BRANCH  29  31
HETATM   31  C30 UNL     1      19.064  67.168  25.908  1.00  0.00     0.053 C 
BRANCH  31  32
HETATM   32  C31 UNL     1      19.992  66.321  26.742  1.00  0.00    -0.047 C 
HETATM   33  C32 UNL     1      20.499  65.131  25.937  1.00  0.00     0.015 C 
HETATM   34  C33 UNL     1      19.390  65.805  28.006  1.00  0.00     0.015 C 
HETATM   35  C34 UNL     1      21.234  67.145  27.067  1.00  0.00     0.015 C 
ENDBRANCH  31  32
ENDBRANCH  29  31
ENDBRANCH  10  26
BRANCH   9  36
HETATM   36  C16 UNL     1      15.555  64.273  27.022  1.00  0.00    -0.021 C 
HETATM   37  C17 UNL     1      15.364  64.899  28.155  1.00  0.00    -0.001 C 
BRANCH  37  38
HETATM   38  C18 UNL     1      15.296  64.349  29.509  1.00  0.00     0.299 C 
BRANCH  38  39
HETATM   39  N4  UNL     1      14.514  63.156  29.587  1.00  0.00     0.091 N 
HETATM   40  C19 UNL     1      15.108  62.258  30.624  1.00  0.00     0.310 C 
BRANCH  39  41
HETATM   41  C20 UNL     1      13.124  63.370  29.980  1.00  0.00     0.310 C 
BRANCH  41  42
HETATM   42  C21 UNL     1      12.181  62.344  29.545  1.00  0.00    -0.030 A 
HETATM   43  C22 UNL     1      12.044  62.056  28.206  1.00  0.00     0.009 A 
HETATM   44  C23 UNL     1      11.182  61.080  27.743  1.00  0.00     0.001 A 
HETATM   45  C24 UNL     1      10.429  60.366  28.649  1.00  0.00     0.000 A 
HETATM   46  C25 UNL     1      10.554  60.642  29.991  1.00  0.00     0.001 A 
HETATM   47  C26 UNL     1      11.426  61.627  30.439  1.00  0.00     0.009 A 
ENDBRANCH  41  42
ENDBRANCH  39  41
ENDBRANCH  38  39
ENDBRANCH  37  38
ENDBRANCH   9  36
BRANCH   6  48
HETATM   48  C5  UNL     1      17.003  62.844  23.648  1.00  0.00     0.058 A 
HETATM   49  C6  UNL     1      18.317  62.932  23.985  1.00  0.00     0.034 A 
HETATM   50  C7  UNL     1      18.910  61.691  23.911  1.00  0.00     0.032 A 
HETATM   51  C8  UNL     1      17.917  60.802  23.512  1.00  0.00     0.034 A 
HETATM   52  N3  UNL     1      16.822  61.514  23.370  1.00  0.00    -0.355 N 
ATOM     53  H3  UNL     1      15.928  61.117  23.082  1.00  0.00     0.166 HD
BRANCH  51  54
HETATM   54  C9  UNL     1      18.078  59.517  23.324  1.00  0.00     0.054 C 
BRANCH  54  55
HETATM   55  C10 UNL     1      18.760  58.585  24.188  1.00  0.00     0.008 A 
HETATM   56  N2  UNL     1      18.860  57.339  24.398  1.00  0.00    -0.393 N 
HETATM   57  C11 UNL     1      19.788  57.368  25.484  1.00  0.00     0.125 A 
ATOM     58  H2  UNL     1      18.411  56.551  23.931  1.00  0.00     0.159 HD
HETATM   59  C12 UNL     1      19.747  58.822  25.307  1.00  0.00     0.076 A 
ENDBRANCH  54  55
ENDBRANCH  51  54
ENDBRANCH   6  48
TORSDOF 16
ENDMDL
MODEL 5
REMARK VINA RESULT: -9.015919591      2.678      9.097
REMARK  16 active torsions:
REMARK  status: ('A' for Active; 'I' for Inactive)
REMARK    1  A    between atoms: C4_6  and  C5_7 
REMARK    2  A    between atoms: C8_10  and  C9_11 
REMARK    3  A    between atoms: C9_11  and  C10_12 
REMARK    4  A    between atoms: C15_21  and  C16_22 
REMARK    5  A    between atoms: C17_23  and  C18_24 
REMARK    6  A    between atoms: C18_24  and  N4_25 
REMARK    7  A    between atoms: N4_25  and  C20_27 
REMARK    8  A    between atoms: C20_27  and  C21_28 
REMARK    9  A    between atoms: C27_34  and  C28_35 
REMARK       I    between atoms: C28_35  and  N5_37 
REMARK   10  A    between atoms: C29_39  and  C30_40 
REMARK   11  A    between atoms: C30_40  and  C31_41 
REMARK   12  A    between atoms: C35_45  and  C36_46 
REMARK   13  A    between atoms: C36_46  and  N6_47 
REMARK   14  A    between atoms: N6_47  and  N7_49 
REMARK   15  A    between atoms: C38_53  and  C39_54 
REMARK   16  A    between atoms: C39_54  and  C40_55 
ROOT
HETATM    1  C1  UNL     1      13.486  66.260  21.127  1.00  0.00     0.040 C 
HETATM    2  C2  UNL     1      13.313  66.133  22.599  1.00  0.00     0.017 C 
HETATM    3  C3  UNL     1      14.062  65.280  23.305  1.00  0.00     0.101 A 
HETATM    4  N1  UNL     1      15.061  64.420  22.864  1.00  0.00    -0.342 N 
ATOM      5  H1  UNL     1      15.355  64.341  21.890  1.00  0.00     0.167 HD
HETATM    6  C4  UNL     1      15.639  63.646  23.945  1.00  0.00     0.067 A 
HETATM    7  C13 UNL     1      14.856  63.986  25.151  1.00  0.00     0.083 A 
HETATM    8  C14 UNL     1      14.012  62.779  25.535  1.00  0.00     0.046 C 
HETATM    9  C15 UNL     1      15.551  64.645  26.277  1.00  0.00     0.057 C 
HETATM   10  C27 UNL     1      14.486  65.639  26.841  1.00  0.00     0.116 C 
HETATM   11  C35 UNL     1      13.340  65.611  25.893  1.00  0.00     0.141 C 
HETATM   12  N9  UNL     1      13.977  65.082  24.694  1.00  0.00    -0.342 N 
ENDROOT
BRANCH  11  13
HETATM   13  C36 UNL     1      12.169  64.854  26.308  1.00  0.00     0.107 C 
BRANCH  13  14
HETATM   14  N6  UNL     1      11.045  65.362  26.678  1.00  0.00    -0.306 N 
ATOM     15  H6  UNL     1      10.596  66.055  26.080  1.00  0.00     0.186 HD
BRANCH  14  16
HETATM   16  N7  UNL     1      10.421  64.996  27.871  1.00  0.00    -0.255 N 
HETATM   17  C37 UNL     1       9.392  64.180  28.022  1.00  0.00     0.207 A 
HETATM   18  N8  UNL     1       9.107  64.086  29.331  1.00  0.00    -0.353 N 
HETATM   19  C38 UNL     1       9.960  64.852  30.028  1.00  0.00     0.034 A 
ATOM     20  H8  UNL     1       8.359  63.521  29.733  1.00  0.00     0.166 HD
HETATM   21  C42 UNL     1      10.800  65.432  29.084  1.00  0.00     0.053 A 
HETATM   22  C43 UNL     1      11.920  66.368  29.357  1.00  0.00     0.072 C 
BRANCH  19  23
HETATM   23  C39 UNL     1       9.967  65.007  31.478  1.00  0.00     0.059 C 
BRANCH  23  24
HETATM   24  C40 UNL     1       9.455  63.790  32.214  1.00  0.00     0.002 C 
HETATM   25  C41 UNL     1       8.097  63.970  32.815  1.00  0.00     0.005 C 
ENDBRANCH  23  24
ENDBRANCH  19  23
ENDBRANCH  14  16
ENDBRANCH  13  14
ENDBRANCH  11  13
BRANCH  10  26
HETATM   26  C28 UNL     1      15.125  66.986  26.798  1.00  0.00     0.228 C 
HETATM   27  O1  UNL     1      14.975  67.729  25.748  1.00  0.00    -0.273 OA
HETATM   28  N5  UNL     1      15.894  67.528  27.820  1.00  0.00    -0.340 N 
HETATM   29  C29 UNL     1      16.077  67.239  29.023  1.00  0.00     0.064 C 
ATOM     30  H5  UNL     1      16.428  68.344  27.524  1.00  0.00     0.167 HD
BRANCH  29  31
HETATM   31  C30 UNL     1      17.023  68.114  29.804  1.00  0.00     0.053 C 
BRANCH  31  32
HETATM   32  C31 UNL     1      17.839  67.267  30.747  1.00  0.00    -0.047 C 
HETATM   33  C32 UNL     1      16.928  66.459  31.663  1.00  0.00     0.015 C 
HETATM   34  C33 UNL     1      18.792  68.035  31.600  1.00  0.00     0.015 C 
HETATM   35  C34 UNL     1      18.605  66.233  29.928  1.00  0.00     0.015 C 
ENDBRANCH  31  32
ENDBRANCH  29  31
ENDBRANCH  10  26
BRANCH   9  36
HETATM   36  C16 UNL     1      15.907  63.792  27.458  1.00  0.00    -0.021 C 
HETATM   37  C17 UNL     1      15.435  64.072  28.646  1.00  0.00    -0.001 C 
BRANCH  37  38
HETATM   38  C18 UNL     1      15.654  63.371  29.911  1.00  0.00     0.299 C 
BRANCH  38  39
HETATM   39  N4  UNL     1      14.652  62.391  30.185  1.00  0.00     0.091 N 
HETATM   40  C19 UNL     1      14.895  61.822  31.545  1.00  0.00     0.310 C 
BRANCH  39  41
HETATM   41  C20 UNL     1      13.287  62.909  30.197  1.00  0.00     0.310 C 
BRANCH  41  42
HETATM   42  C21 UNL     1      12.268  62.011  29.664  1.00  0.00    -0.030 A 
HETATM   43  C22 UNL     1      11.397  61.372  30.517  1.00  0.00     0.009 A 
HETATM   44  C23 UNL     1      10.401  60.529  30.064  1.00  0.00     0.001 A 
HETATM   45  C24 UNL     1      10.269  60.314  28.710  1.00  0.00     0.000 A 
HETATM   46  C25 UNL     1      11.131  60.945  27.843  1.00  0.00     0.001 A 
HETATM   47  C26 UNL     1      12.127  61.790  28.317  1.00  0.00     0.009 A 
ENDBRANCH  41  42
ENDBRANCH  39  41
ENDBRANCH  38  39
ENDBRANCH  37  38
ENDBRANCH   9  36
BRANCH   6  48
HETATM   48  C5  UNL     1      16.656  62.814  23.716  1.00  0.00     0.058 A 
HETATM   49  C6  UNL     1      17.980  63.075  23.549  1.00  0.00     0.034 A 
HETATM   50  C7  UNL     1      18.666  61.906  23.308  1.00  0.00     0.032 A 
HETATM   51  C8  UNL     1      17.724  60.882  23.327  1.00  0.00     0.034 A 
HETATM   52  N3  UNL     1      16.566  61.454  23.568  1.00  0.00    -0.355 N 
ATOM     53  H3  UNL     1      15.689  60.938  23.638  1.00  0.00     0.166 HD
BRANCH  51  54
HETATM   54  C9  UNL     1      17.977  59.612  23.137  1.00  0.00     0.054 C 
BRANCH  54  55
HETATM   55  C10 UNL     1      18.664  58.714  24.033  1.00  0.00     0.008 A 
HETATM   56  N2  UNL     1      18.815  57.474  24.249  1.00  0.00    -0.393 N 
HETATM   57  C11 UNL     1      19.691  57.547  25.375  1.00  0.00     0.125 A 
ATOM     58  H2  UNL     1      18.427  56.666  23.763  1.00  0.00     0.159 HD
HETATM   59  C12 UNL     1      19.589  58.999  25.195  1.00  0.00     0.076 A 
ENDBRANCH  54  55
ENDBRANCH  51  54
ENDBRANCH   6  48
TORSDOF 16
ENDMDL
