MODEL 1
REMARK VINA RESULT: -8.936105865      0.000      0.000
REMARK  13 active torsions:
REMARK  status: ('A' for Active; 'I' for Inactive)
REMARK    1  A    between atoms: C2_2  and  O1_3 
REMARK    2  A    between atoms: N2_21  and  C15_22 
REMARK    3  A    between atoms: C15_22  and  C16_23 
REMARK    4  A    between atoms: C16_23  and  C17_24 
REMARK    5  A    between atoms: C17_24  and  C18_25 
REMARK    6  A    between atoms: C18_25  and  C19_26 
REMARK    7  A    between atoms: C19_26  and  C20_27 
REMARK    8  A    between atoms: C20_27  and  C21_28 
REMARK    9  A    between atoms: C21_28  and  C22_29 
REMARK   10  A    between atoms: C22_29  and  C23_30 
REMARK   11  A    between atoms: C23_30  and  C24_31 
REMARK   12  A    between atoms: C24_31  and  N3_32 
REMARK   13  A    between atoms: C32_40  and  O5_41 
ROOT
HETATM    1  C1  UNL     1      17.841  25.286  18.934  1.00  0.00     0.082 C 
HETATM    2  C2  UNL     1      17.227  24.149  18.201  1.00  0.00     0.186 C 
HETATM    3  O2  UNL     1      16.931  23.146  19.059  1.00  0.00    -0.341 OA
HETATM    4  C3  UNL     1      15.628  23.473  19.437  1.00  0.00     0.078 A 
HETATM    5  C4  UNL     1      15.528  24.332  20.641  1.00  0.00     0.047 C 
HETATM    6  C5  UNL     1      14.740  22.512  18.965  1.00  0.00     0.043 A 
HETATM    7  C6  UNL     1      14.953  21.376  18.304  1.00  0.00     0.023 C 
HETATM    8  O3  UNL     1      14.473  21.131  16.863  1.00  0.00     0.000 OA
HETATM    9  C7  UNL     1      14.261  21.873  15.699  1.00  0.00     0.109 A 
HETATM   10  C8  UNL     1      14.823  21.737  14.506  1.00  0.00     0.157 A 
HETATM   11  O4  UNL     1      14.696  22.761  13.768  1.00  0.00    -0.293 OA
HETATM   12  C9  UNL     1      15.440  20.596  14.257  1.00  0.00     0.051 A 
HETATM   13  C10 UNL     1      15.294  19.839  15.431  1.00  0.00     0.009 A 
HETATM   14  C11 UNL     1      14.624  20.363  16.482  1.00  0.00    -0.046 A 
HETATM   15  C12 UNL     1      13.939  21.826  16.525  1.00  0.00     0.093 A 
HETATM   16  N1  UNL     1      13.103  22.644  17.451  1.00  0.00    -0.394 N 
HETATM   17  C13 UNL     1      11.870  22.741  18.292  1.00  0.00     0.138 C 
HETATM   18  C14 UNL     1      11.760  21.341  18.993  1.00  0.00     0.141 C 
HETATM   19  N2  UNL     1      12.706  20.466  18.402  1.00  0.00    -0.386 N 
HETATM   20  C28 UNL     1      13.991  20.269  18.715  1.00  0.00     0.092 C 
HETATM   21  C29 UNL     1      14.683  19.428  17.677  1.00  0.00     0.062 C 
HETATM   22  C30 UNL     1      13.482  24.033  17.872  1.00  0.00     0.134 C 
HETATM   23  C31 UNL     1      14.818  23.932  18.352  1.00  0.00     0.045 A 
HETATM   24  C32 UNL     1      15.911  24.465  17.541  1.00  0.00     0.193 C 
ENDROOT
BRANCH  19  25
HETATM   25  C15 UNL     1      12.028  19.356  17.879  1.00  0.00     0.058 C 
BRANCH  25  26
HETATM   26  C16 UNL     1      10.970  19.636  16.842  1.00  0.00     0.044 C 
BRANCH  26  27
HETATM   27  C17 UNL     1      11.217  19.050  15.505  1.00  0.00     0.005 C 
BRANCH  27  28
HETATM   28  C18 UNL     1      11.454  17.551  15.566  1.00  0.00     0.000 C 
BRANCH  28  29
HETATM   29  C19 UNL     1      10.817  16.826  14.407  1.00  0.00     0.000 C 
BRANCH  29  30
HETATM   30  C20 UNL     1       9.338  16.696  14.542  1.00  0.00     0.000 C 
BRANCH  30  31
HETATM   31  C21 UNL     1       8.931  15.401  15.218  1.00  0.00     0.000 C 
BRANCH  31  32
HETATM   32  C22 UNL     1       7.936  15.593  16.321  1.00  0.00     0.002 C 
BRANCH  32  33
HETATM   33  C23 UNL     1       8.638  16.028  17.570  1.00  0.00     0.028 C 
BRANCH  33  34
HETATM   34  C24 UNL     1       8.231  17.348  18.094  1.00  0.00     0.236 C 
BRANCH  34  35
HETATM   35  N3  UNL     1       7.956  17.478  19.484  1.00  0.00    -0.079 N 
HETATM   36  C25 UNL     1       9.029  18.290  20.129  1.00  0.00     0.271 C 
HETATM   37  C26 UNL     1       6.758  18.264  19.694  1.00  0.00     0.271 C 
HETATM   38  C27 UNL     1       7.820  16.266  20.230  1.00  0.00     0.271 C 
ENDBRANCH  34  35
ENDBRANCH  33  34
ENDBRANCH  32  33
ENDBRANCH  31  32
ENDBRANCH  30  31
ENDBRANCH  29  30
ENDBRANCH  28  29
ENDBRANCH  27  28
ENDBRANCH  26  27
ENDBRANCH  25  26
ENDBRANCH  19  25
BRANCH  24  39
HETATM   39  O5  UNL     1      15.770  25.877  17.638  1.00  0.00    -0.389 OA
ATOM     40  H5  UNL     1      15.972  26.211  16.771  1.00  0.00     0.210 HD
ENDBRANCH  24  39
BRANCH   2  41
HETATM   41  O1  UNL     1      18.138  23.622  17.259  1.00  0.00    -0.363 OA
ATOM     42  H1  UNL     1      18.378  22.733  17.493  1.00  0.00     0.213 HD
ENDBRANCH   2  41
TORSDOF 13
ENDMDL
MODEL 2
REMARK VINA RESULT: -8.926257063      1.349      1.794
REMARK  13 active torsions:
REMARK  status: ('A' for Active; 'I' for Inactive)
REMARK    1  A    between atoms: C2_2  and  O1_3 
REMARK    2  A    between atoms: N2_21  and  C15_22 
REMARK    3  A    between atoms: C15_22  and  C16_23 
REMARK    4  A    between atoms: C16_23  and  C17_24 
REMARK    5  A    between atoms: C17_24  and  C18_25 
REMARK    6  A    between atoms: C18_25  and  C19_26 
REMARK    7  A    between atoms: C19_26  and  C20_27 
REMARK    8  A    between atoms: C20_27  and  C21_28 
REMARK    9  A    between atoms: C21_28  and  C22_29 
REMARK   10  A    between atoms: C22_29  and  C23_30 
REMARK   11  A    between atoms: C23_30  and  C24_31 
REMARK   12  A    between atoms: C24_31  and  N3_32 
REMARK   13  A    between atoms: C32_40  and  O5_41 
ROOT
HETATM    1  C1  UNL     1      17.906  25.308  18.859  1.00  0.00     0.082 C 
HETATM    2  C2  UNL     1      17.286  24.171  18.129  1.00  0.00     0.186 C 
HETATM    3  O2  UNL     1      17.005  23.164  18.987  1.00  0.00    -0.341 OA
HETATM    4  C3  UNL     1      15.706  23.484  19.383  1.00  0.00     0.078 A 
HETATM    5  C4  UNL     1      15.618  24.338  20.592  1.00  0.00     0.047 C 
HETATM    6  C5  UNL     1      14.815  22.522  18.919  1.00  0.00     0.043 A 
HETATM    7  C6  UNL     1      15.023  21.390  18.250  1.00  0.00     0.023 C 
HETATM    8  O3  UNL     1      14.525  21.149  16.815  1.00  0.00     0.000 OA
HETATM    9  C7  UNL     1      14.296  21.894  15.656  1.00  0.00     0.109 A 
HETATM   10  C8  UNL     1      14.843  21.765  14.455  1.00  0.00     0.157 A 
HETATM   11  O4  UNL     1      14.702  22.792  13.724  1.00  0.00    -0.293 OA
HETATM   12  C9  UNL     1      15.461  20.628  14.194  1.00  0.00     0.051 A 
HETATM   13  C10 UNL     1      15.333  19.865  15.367  1.00  0.00     0.009 A 
HETATM   14  C11 UNL     1      14.674  20.382  16.428  1.00  0.00    -0.046 A 
HETATM   15  C12 UNL     1      13.985  21.843  16.487  1.00  0.00     0.093 A 
HETATM   16  N1  UNL     1      13.158  22.655  17.427  1.00  0.00    -0.394 N 
HETATM   17  C13 UNL     1      11.936  22.743  18.284  1.00  0.00     0.138 C 
HETATM   18  C14 UNL     1      11.840  21.340  18.981  1.00  0.00     0.141 C 
HETATM   19  N2  UNL     1      12.781  20.471  18.373  1.00  0.00    -0.386 N 
HETATM   20  C28 UNL     1      14.071  20.277  18.670  1.00  0.00     0.092 C 
HETATM   21  C29 UNL     1      14.753  19.443  17.619  1.00  0.00     0.062 C 
HETATM   22  C30 UNL     1      13.537  24.042  17.848  1.00  0.00     0.134 C 
HETATM   23  C31 UNL     1      14.880  23.944  18.311  1.00  0.00     0.045 A 
HETATM   24  C32 UNL     1      15.961  24.485  17.487  1.00  0.00     0.193 C 
ENDROOT
BRANCH  19  25
HETATM   25  C15 UNL     1      12.100  19.361  17.855  1.00  0.00     0.058 C 
BRANCH  25  26
HETATM   26  C16 UNL     1      11.061  19.637  16.798  1.00  0.00     0.044 C 
BRANCH  26  27
HETATM   27  C17 UNL     1      11.296  18.987  15.489  1.00  0.00     0.005 C 
BRANCH  27  28
HETATM   28  C18 UNL     1      11.304  17.471  15.588  1.00  0.00     0.000 C 
BRANCH  28  29
HETATM   29  C19 UNL     1      10.705  16.817  14.369  1.00  0.00     0.000 C 
BRANCH  29  30
HETATM   30  C20 UNL     1       9.234  16.600  14.486  1.00  0.00     0.000 C 
BRANCH  30  31
HETATM   31  C21 UNL     1       8.883  15.144  14.730  1.00  0.00     0.000 C 
BRANCH  31  32
HETATM   32  C22 UNL     1       7.826  14.626  13.805  1.00  0.00     0.002 C 
BRANCH  32  33
HETATM   33  C23 UNL     1       6.584  14.310  14.578  1.00  0.00     0.028 C 
BRANCH  33  34
HETATM   34  C24 UNL     1       6.676  14.528  16.036  1.00  0.00     0.236 C 
BRANCH  34  35
HETATM   35  N3  UNL     1       5.646  15.264  16.686  1.00  0.00    -0.079 N 
HETATM   36  C25 UNL     1       5.357  16.505  15.911  1.00  0.00     0.271 C 
HETATM   37  C26 UNL     1       4.396  14.534  16.647  1.00  0.00     0.271 C 
HETATM   38  C27 UNL     1       5.887  15.645  18.044  1.00  0.00     0.271 C 
ENDBRANCH  34  35
ENDBRANCH  33  34
ENDBRANCH  32  33
ENDBRANCH  31  32
ENDBRANCH  30  31
ENDBRANCH  29  30
ENDBRANCH  28  29
ENDBRANCH  27  28
ENDBRANCH  26  27
ENDBRANCH  25  26
ENDBRANCH  19  25
BRANCH  24  39
HETATM   39  O5  UNL     1      15.816  25.896  17.592  1.00  0.00    -0.389 OA
ATOM     40  H5  UNL     1      15.316  26.156  16.827  1.00  0.00     0.210 HD
ENDBRANCH  24  39
BRANCH   2  41
HETATM   41  O1  UNL     1      18.187  23.652  17.173  1.00  0.00    -0.363 OA
ATOM     42  H1  UNL     1      18.569  22.839  17.486  1.00  0.00     0.213 HD
ENDBRANCH   2  41
TORSDOF 13
ENDMDL
MODEL 3
REMARK VINA RESULT: -8.804119639      0.813      1.137
REMARK  13 active torsions:
REMARK  status: ('A' for Active; 'I' for Inactive)
REMARK    1  A    between atoms: C2_2  and  O1_3 
REMARK    2  A    between atoms: N2_21  and  C15_22 
REMARK    3  A    between atoms: C15_22  and  C16_23 
REMARK    4  A    between atoms: C16_23  and  C17_24 
REMARK    5  A    between atoms: C17_24  and  C18_25 
REMARK    6  A    between atoms: C18_25  and  C19_26 
REMARK    7  A    between atoms: C19_26  and  C20_27 
REMARK    8  A    between atoms: C20_27  and  C21_28 
REMARK    9  A    between atoms: C21_28  and  C22_29 
REMARK   10  A    between atoms: C22_29  and  C23_30 
REMARK   11  A    between atoms: C23_30  and  C24_31 
REMARK   12  A    between atoms: C24_31  and  N3_32 
REMARK   13  A    between atoms: C32_40  and  O5_41 
ROOT
HETATM    1  C1  UNL     1      18.007  25.345  18.658  1.00  0.00     0.082 C 
HETATM    2  C2  UNL     1      17.324  24.212  17.982  1.00  0.00     0.186 C 
HETATM    3  O2  UNL     1      17.114  23.204  18.859  1.00  0.00    -0.341 OA
HETATM    4  C3  UNL     1      15.854  23.528  19.364  1.00  0.00     0.078 A 
HETATM    5  C4  UNL     1      15.871  24.379  20.577  1.00  0.00     0.047 C 
HETATM    6  C5  UNL     1      14.924  22.569  18.976  1.00  0.00     0.043 A 
HETATM    7  C6  UNL     1      15.071  21.437  18.290  1.00  0.00     0.023 C 
HETATM    8  O3  UNL     1      14.452  21.201  16.902  1.00  0.00     0.000 OA
HETATM    9  C7  UNL     1      14.128  21.949  15.768  1.00  0.00     0.109 A 
HETATM   10  C8  UNL     1      14.571  21.820  14.525  1.00  0.00     0.157 A 
HETATM   11  O4  UNL     1      14.372  22.849  13.810  1.00  0.00    -0.293 OA
HETATM   12  C9  UNL     1      15.161  20.681  14.211  1.00  0.00     0.051 A 
HETATM   13  C10 UNL     1      15.130  19.917  15.389  1.00  0.00     0.009 A 
HETATM   14  C11 UNL     1      14.566  20.434  16.503  1.00  0.00    -0.046 A 
HETATM   15  C12 UNL     1      13.889  21.897  16.622  1.00  0.00     0.093 A 
HETATM   16  N1  UNL     1      13.147  22.709  17.629  1.00  0.00    -0.394 N 
HETATM   17  C13 UNL     1      12.002  22.800  18.588  1.00  0.00     0.138 C 
HETATM   18  C14 UNL     1      11.961  21.396  19.288  1.00  0.00     0.141 C 
HETATM   19  N2  UNL     1      12.845  20.525  18.602  1.00  0.00    -0.386 N 
HETATM   20  C28 UNL     1      14.155  20.327  18.787  1.00  0.00     0.092 C 
HETATM   21  C29 UNL     1      14.742  19.492  17.681  1.00  0.00     0.062 C 
HETATM   22  C30 UNL     1      13.565  24.095  18.019  1.00  0.00     0.134 C 
HETATM   23  C31 UNL     1      14.942  23.992  18.366  1.00  0.00     0.045 A 
HETATM   24  C32 UNL     1      15.950  24.531  17.455  1.00  0.00     0.193 C 
ENDROOT
BRANCH  19  25
HETATM   25  C15 UNL     1      12.119  19.418  18.141  1.00  0.00     0.058 C 
BRANCH  25  26
HETATM   26  C16 UNL     1      10.858  19.710  17.368  1.00  0.00     0.044 C 
BRANCH  26  27
HETATM   27  C17 UNL     1      11.001  19.715  15.894  1.00  0.00     0.005 C 
BRANCH  27  28
HETATM   28  C18 UNL     1      11.653  18.447  15.371  1.00  0.00     0.000 C 
BRANCH  28  29
HETATM   29  C19 UNL     1      10.788  17.231  15.588  1.00  0.00     0.000 C 
BRANCH  29  30
HETATM   30  C20 UNL     1      10.324  16.610  14.314  1.00  0.00     0.000 C 
BRANCH  30  31
HETATM   31  C21 UNL     1       8.829  16.354  14.307  1.00  0.00     0.000 C 
BRANCH  31  32
HETATM   32  C22 UNL     1       8.467  14.943  14.650  1.00  0.00     0.002 C 
BRANCH  32  33
HETATM   33  C23 UNL     1       7.517  14.928  15.807  1.00  0.00     0.028 C 
BRANCH  33  34
HETATM   34  C24 UNL     1       7.136  16.257  16.328  1.00  0.00     0.236 C 
BRANCH  34  35
HETATM   35  N3  UNL     1       7.154  16.474  17.734  1.00  0.00    -0.079 N 
HETATM   36  C25 UNL     1       7.872  15.350  18.401  1.00  0.00     0.271 C 
HETATM   37  C26 UNL     1       7.955  17.636  18.059  1.00  0.00     0.271 C 
HETATM   38  C27 UNL     1       5.886  16.624  18.378  1.00  0.00     0.271 C 
ENDBRANCH  34  35
ENDBRANCH  33  34
ENDBRANCH  32  33
ENDBRANCH  31  32
ENDBRANCH  30  31
ENDBRANCH  29  30
ENDBRANCH  28  29
ENDBRANCH  27  28
ENDBRANCH  26  27
ENDBRANCH  25  26
ENDBRANCH  19  25
BRANCH  24  39
HETATM   39  O5  UNL     1      15.819  25.943  17.574  1.00  0.00    -0.389 OA
ATOM     40  H5  UNL     1      15.261  26.081  18.330  1.00  0.00     0.210 HD
ENDBRANCH  24  39
BRANCH   2  41
HETATM   41  O1  UNL     1      18.139  23.691  16.953  1.00  0.00    -0.363 OA
ATOM     42  H1  UNL     1      17.762  23.886  16.102  1.00  0.00     0.213 HD
ENDBRANCH   2  41
TORSDOF 13
ENDMDL
MODEL 4
REMARK VINA RESULT: -8.316628793      0.964      2.696
REMARK  13 active torsions:
REMARK  status: ('A' for Active; 'I' for Inactive)
REMARK    1  A    between atoms: C2_2  and  O1_3 
REMARK    2  A    between atoms: N2_21  and  C15_22 
REMARK    3  A    between atoms: C15_22  and  C16_23 
REMARK    4  A    between atoms: C16_23  and  C17_24 
REMARK    5  A    between atoms: C17_24  and  C18_25 
REMARK    6  A    between atoms: C18_25  and  C19_26 
REMARK    7  A    between atoms: C19_26  and  C20_27 
REMARK    8  A    between atoms: C20_27  and  C21_28 
REMARK    9  A    between atoms: C21_28  and  C22_29 
REMARK   10  A    between atoms: C22_29  and  C23_30 
REMARK   11  A    between atoms: C23_30  and  C24_31 
REMARK   12  A    between atoms: C24_31  and  N3_32 
REMARK   13  A    between atoms: C32_40  and  O5_41 
ROOT
HETATM    1  C1  UNL     1      18.143  25.315  18.779  1.00  0.00     0.082 C 
HETATM    2  C2  UNL     1      17.470  24.163  18.124  1.00  0.00     0.186 C 
HETATM    3  O2  UNL     1      17.111  23.245  19.051  1.00  0.00    -0.341 OA
HETATM    4  C3  UNL     1      15.826  23.672  19.388  1.00  0.00     0.078 A 
HETATM    5  C4  UNL     1      15.766  24.623  20.524  1.00  0.00     0.047 C 
HETATM    6  C5  UNL     1      14.888  22.731  18.978  1.00  0.00     0.043 A 
HETATM    7  C6  UNL     1      15.040  21.539  18.405  1.00  0.00     0.023 C 
HETATM    8  O3  UNL     1      14.557  21.215  16.981  1.00  0.00     0.000 OA
HETATM    9  C7  UNL     1      14.397  21.878  15.763  1.00  0.00     0.109 A 
HETATM   10  C8  UNL     1      14.960  21.622  14.589  1.00  0.00     0.157 A 
HETATM   11  O4  UNL     1      14.897  22.595  13.777  1.00  0.00    -0.293 OA
HETATM   12  C9  UNL     1      15.512  20.434  14.433  1.00  0.00     0.051 A 
HETATM   13  C10 UNL     1      15.314  19.775  15.658  1.00  0.00     0.009 A 
HETATM   14  C11 UNL     1      14.667  20.413  16.659  1.00  0.00    -0.046 A 
HETATM   15  C12 UNL     1      14.068  21.912  16.586  1.00  0.00     0.093 A 
HETATM   16  N1  UNL     1      13.273  22.843  17.439  1.00  0.00    -0.394 N 
HETATM   17  C13 UNL     1      12.041  23.071  18.256  1.00  0.00     0.138 C 
HETATM   18  C14 UNL     1      11.845  21.736  19.058  1.00  0.00     0.141 C 
HETATM   19  N2  UNL     1      12.744  20.767  18.543  1.00  0.00    -0.386 N 
HETATM   20  C28 UNL     1      14.014  20.521  18.886  1.00  0.00     0.092 C 
HETATM   21  C29 UNL     1      14.664  19.567  17.920  1.00  0.00     0.062 C 
HETATM   22  C30 UNL     1      13.727  24.235  17.761  1.00  0.00     0.134 C 
HETATM   23  C31 UNL     1      15.052  24.094  18.263  1.00  0.00     0.045 A 
HETATM   24  C32 UNL     1      16.180  24.503  17.427  1.00  0.00     0.193 C 
ENDROOT
BRANCH  19  25
HETATM   25  C15 UNL     1      12.007  19.661  18.096  1.00  0.00     0.058 C 
BRANCH  25  26
HETATM   26  C16 UNL     1      10.705  19.385  18.805  1.00  0.00     0.044 C 
BRANCH  26  27
HETATM   27  C17 UNL     1      10.817  18.620  20.067  1.00  0.00     0.005 C 
BRANCH  27  28
HETATM   28  C18 UNL     1       9.667  18.900  21.018  1.00  0.00     0.000 C 
BRANCH  28  29
HETATM   29  C19 UNL     1       8.600  17.835  20.952  1.00  0.00     0.000 C 
BRANCH  29  30
HETATM   30  C20 UNL     1       7.380  18.277  20.219  1.00  0.00     0.000 C 
BRANCH  30  31
HETATM   31  C21 UNL     1       7.011  17.333  19.090  1.00  0.00     0.000 C 
BRANCH  31  32
HETATM   32  C22 UNL     1       7.816  16.070  19.086  1.00  0.00     0.002 C 
BRANCH  32  33
HETATM   33  C23 UNL     1       8.184  15.706  17.681  1.00  0.00     0.028 C 
BRANCH  33  34
HETATM   34  C24 UNL     1       9.267  16.514  17.083  1.00  0.00     0.236 C 
BRANCH  34  35
HETATM   35  N3  UNL     1       9.311  16.663  15.669  1.00  0.00    -0.079 N 
HETATM   36  C25 UNL     1       8.279  17.653  15.242  1.00  0.00     0.271 C 
HETATM   37  C26 UNL     1      10.560  17.270  15.260  1.00  0.00     0.271 C 
HETATM   38  C27 UNL     1       9.126  15.478  14.890  1.00  0.00     0.271 C 
ENDBRANCH  34  35
ENDBRANCH  33  34
ENDBRANCH  32  33
ENDBRANCH  31  32
ENDBRANCH  30  31
ENDBRANCH  29  30
ENDBRANCH  28  29
ENDBRANCH  27  28
ENDBRANCH  26  27
ENDBRANCH  25  26
ENDBRANCH  19  25
BRANCH  24  39
HETATM   39  O5  UNL     1      16.119  25.924  17.418  1.00  0.00    -0.389 OA
ATOM     40  H5  UNL     1      15.973  26.165  16.511  1.00  0.00     0.210 HD
ENDBRANCH  24  39
BRANCH   2  41
HETATM   41  O1  UNL     1      18.357  23.517  17.235  1.00  0.00    -0.363 OA
ATOM     42  H1  UNL     1      19.248  23.564  17.564  1.00  0.00     0.213 HD
ENDBRANCH   2  41
TORSDOF 13
ENDMDL
MODEL 5
REMARK VINA RESULT: -8.216796648      1.085      1.856
REMARK  13 active torsions:
REMARK  status: ('A' for Active; 'I' for Inactive)
REMARK    1  A    between atoms: C2_2  and  O1_3 
REMARK    2  A    between atoms: N2_21  and  C15_22 
REMARK    3  A    between atoms: C15_22  and  C16_23 
REMARK    4  A    between atoms: C16_23  and  C17_24 
REMARK    5  A    between atoms: C17_24  and  C18_25 
REMARK    6  A    between atoms: C18_25  and  C19_26 
REMARK    7  A    between atoms: C19_26  and  C20_27 
REMARK    8  A    between atoms: C20_27  and  C21_28 
REMARK    9  A    between atoms: C21_28  and  C22_29 
REMARK   10  A    between atoms: C22_29  and  C23_30 
REMARK   11  A    between atoms: C23_30  and  C24_31 
REMARK   12  A    between atoms: C24_31  and  N3_32 
REMARK   13  A    between atoms: C32_40  and  O5_41 
ROOT
HETATM    1  C1  UNL     1      17.807  25.474  19.151  1.00  0.00     0.082 C 
HETATM    2  C2  UNL     1      17.275  24.380  18.297  1.00  0.00     0.186 C 
HETATM    3  O2  UNL     1      16.984  23.298  19.055  1.00  0.00    -0.341 OA
HETATM    4  C3  UNL     1      15.653  23.542  19.394  1.00  0.00     0.078 A 
HETATM    5  C4  UNL     1      15.461  24.291  20.659  1.00  0.00     0.047 C 
HETATM    6  C5  UNL     1      14.828  22.591  18.803  1.00  0.00     0.043 A 
HETATM    7  C6  UNL     1      15.118  21.524  18.061  1.00  0.00     0.023 C 
HETATM    8  O3  UNL     1      14.714  21.383  16.583  1.00  0.00     0.000 OA
HETATM    9  C7  UNL     1      14.524  22.212  15.475  1.00  0.00     0.109 A 
HETATM   10  C8  UNL     1      15.144  22.199  14.303  1.00  0.00     0.157 A 
HETATM   11  O4  UNL     1      15.007  23.277  13.648  1.00  0.00    -0.293 OA
HETATM   12  C9  UNL     1      15.820  21.108  13.991  1.00  0.00     0.051 A 
HETATM   13  C10 UNL     1      15.653  20.249  15.091  1.00  0.00     0.009 A 
HETATM   14  C11 UNL     1      14.914  20.656  16.147  1.00  0.00    -0.046 A 
HETATM   15  C12 UNL     1      14.168  22.083  16.278  1.00  0.00     0.093 A 
HETATM   16  N1  UNL     1      13.257  22.788  17.227  1.00  0.00    -0.394 N 
HETATM   17  C13 UNL     1      11.984  22.765  18.013  1.00  0.00     0.138 C 
HETATM   18  C14 UNL     1      11.901  21.308  18.590  1.00  0.00     0.141 C 
HETATM   19  N2  UNL     1      12.909  20.523  17.974  1.00  0.00    -0.386 N 
HETATM   20  C28 UNL     1      14.187  20.349  18.332  1.00  0.00     0.092 C 
HETATM   21  C29 UNL     1      14.960  19.627  17.262  1.00  0.00     0.062 C 
HETATM   22  C30 UNL     1      13.557  24.149  17.779  1.00  0.00     0.134 C 
HETATM   23  C31 UNL     1      14.873  24.059  18.313  1.00  0.00     0.045 A 
HETATM   24  C32 UNL     1      15.978  24.701  17.603  1.00  0.00     0.193 C 
ENDROOT
BRANCH  19  25
HETATM   25  C15 UNL     1      12.303  19.436  17.329  1.00  0.00     0.058 C 
BRANCH  25  26
HETATM   26  C16 UNL     1      11.422  19.756  16.148  1.00  0.00     0.044 C 
BRANCH  26  27
HETATM   27  C17 UNL     1      10.372  18.756  15.848  1.00  0.00     0.005 C 
BRANCH  27  28
HETATM   28  C18 UNL     1      10.585  17.450  16.592  1.00  0.00     0.000 C 
BRANCH  28  29
HETATM   29  C19 UNL     1       9.472  17.162  17.568  1.00  0.00     0.000 C 
BRANCH  29  30
HETATM   30  C20 UNL     1       8.492  18.280  17.682  1.00  0.00     0.000 C 
BRANCH  30  31
HETATM   31  C21 UNL     1       8.701  19.104  18.938  1.00  0.00     0.000 C 
BRANCH  31  32
HETATM   32  C22 UNL     1       9.723  18.524  19.867  1.00  0.00     0.002 C 
BRANCH  32  33
HETATM   33  C23 UNL     1       9.070  18.114  21.150  1.00  0.00     0.028 C 
BRANCH  33  34
HETATM   34  C24 UNL     1       7.593  18.154  21.147  1.00  0.00     0.236 C 
BRANCH  34  35
HETATM   35  N3  UNL     1       6.874  16.928  21.213  1.00  0.00    -0.079 N 
HETATM   36  C25 UNL     1       6.009  16.923  22.429  1.00  0.00     0.271 C 
HETATM   37  C26 UNL     1       5.930  16.833  20.119  1.00  0.00     0.271 C 
HETATM   38  C27 UNL     1       7.649  15.726  21.226  1.00  0.00     0.271 C 
ENDBRANCH  34  35
ENDBRANCH  33  34
ENDBRANCH  32  33
ENDBRANCH  31  32
ENDBRANCH  30  31
ENDBRANCH  29  30
ENDBRANCH  28  29
ENDBRANCH  27  28
ENDBRANCH  26  27
ENDBRANCH  25  26
ENDBRANCH  19  25
BRANCH  24  39
HETATM   39  O5  UNL     1      15.773  26.093  17.810  1.00  0.00    -0.389 OA
ATOM     40  H5  UNL     1      16.498  26.376  18.355  1.00  0.00     0.210 HD
ENDBRANCH  24  39
BRANCH   2  41
HETATM   41  O1  UNL     1      18.249  23.971  17.361  1.00  0.00    -0.363 OA
ATOM     42  H1  UNL     1      17.890  23.988  16.481  1.00  0.00     0.213 HD
ENDBRANCH   2  41
TORSDOF 13
ENDMDL
