MODEL 1
REMARK VINA RESULT: -6.325479064      0.000      0.000
REMARK  9 active torsions:
REMARK  status: ('A' for Active; 'I' for Inactive)
REMARK    1  A    between atoms: C2_2  and  C3_3 
REMARK    2  A    between atoms: C3_3  and  N1_4 
REMARK    3  A    between atoms: C7_8  and  C21_29 
REMARK    4  A    between atoms: C14_18  and  C15_19 
REMARK    5  A    between atoms: N3_21  and  C17_22 
REMARK    6  A    between atoms: C17_22  and  C18_23 
REMARK    7  A    between atoms: C18_23  and  C19_24 
REMARK    8  A    between atoms: C19_24  and  O2_25 
REMARK    9  A    between atoms: C21_29  and  O4_30 
ROOT
HETATM    1  N1  UNL     1       2.299  17.890  49.744  1.00  0.00     0.168 N 
HETATM    2  C4  UNL     1       2.973  16.543  49.430  1.00  0.00     0.321 A 
HETATM    3  C5  UNL     1       3.966  16.273  48.532  1.00  0.00     0.095 C 
HETATM    4  C6  UNL     1       4.089  14.835  48.114  1.00  0.00     0.030 C 
HETATM    5  C7  UNL     1       4.093  15.359  46.736  1.00  0.00     0.031 C 
HETATM    6  C8  UNL     1       4.523  16.652  47.294  1.00  0.00     0.046 C 
HETATM    7  C9  UNL     1       3.945  17.831  46.632  1.00  0.00     0.179 C 
HETATM    8  O1  UNL     1       4.219  17.790  45.283  1.00  0.00    -0.295 OA
HETATM    9  N2  UNL     1       3.456  17.198  44.439  1.00  0.00    -0.193 NA
HETATM   10  C10 UNL     1       2.025  17.261  44.640  1.00  0.00     0.130 C 
HETATM   11  C11 UNL     1       2.000  16.663  45.997  1.00  0.00     0.067 C 
HETATM   12  C12 UNL     1       2.518  17.808  46.954  1.00  0.00     0.091 C 
HETATM   13 CL1  UNL     1       2.048  19.397  46.103  1.00  0.00    -0.112 Cl
HETATM   14  C13 UNL     1       1.834  17.794  48.167  1.00  0.00     0.048 C 
HETATM   15  C14 UNL     1       2.404  17.519  49.594  1.00  0.00     0.355 A 
HETATM   16  N3  UNL     1       3.764  17.880  49.945  1.00  0.00     0.198 N 
HETATM   17  C20 UNL     1       4.853  16.967  49.423  1.00  0.00     0.365 C 
HETATM   18  O3  UNL     1       6.002  16.896  49.689  1.00  0.00    -0.262 OA
HETATM   19  C21 UNL     1       2.916  15.507  45.884  1.00  0.00     0.085 C 
HETATM   20  C23 UNL     1       3.526  15.722  44.472  1.00  0.00     0.159 C 
ENDROOT
BRANCH  16  21
HETATM   21  C17 UNL     1       4.534  18.820  50.694  1.00  0.00     0.289 C 
BRANCH  21  22
HETATM   22  C18 UNL     1       4.904  20.062  49.960  1.00  0.00     0.057 C 
BRANCH  22  23
HETATM   23  C19 UNL     1       6.322  20.458  49.802  1.00  0.00     0.165 C 
BRANCH  23  24
HETATM   24  O2  UNL     1       6.829  19.732  48.720  1.00  0.00    -0.401 OA
ATOM     25  H2  UNL     1       7.707  20.057  48.556  1.00  0.00     0.209 HD
ENDBRANCH  23  24
ENDBRANCH  22  23
ENDBRANCH  21  22
ENDBRANCH  16  21
BRANCH  15  26
HETATM   26  C15 UNL     1       1.444  16.434  50.270  1.00  0.00     0.074 C 
HETATM   27  C16 UNL     1       0.737  15.592  49.332  1.00  0.00     0.010 C 
ENDBRANCH  15  26
BRANCH   1  28
HETATM   28  C3  UNL     1       1.721  18.407  50.845  1.00  0.00     0.241 C 
BRANCH  28  29
HETATM   29  C2  UNL     1       1.203  19.792  50.765  1.00  0.00     0.017 C 
HETATM   30  C1  UNL     1       1.097  20.666  51.688  1.00  0.00     0.013 C 
ENDBRANCH  28  29
ENDBRANCH   1  28
BRANCH  19  31
HETATM   31  O4  UNL     1       2.325  14.256  45.945  1.00  0.00    -0.383 OA
HETATM   32  C22 UNL     1       2.292  13.492  44.843  1.00  0.00     0.202 C 
ENDBRANCH  19  31
TORSDOF 9
ENDMDL
MODEL 2
REMARK VINA RESULT: -6.315027443      4.358      6.719
REMARK  9 active torsions:
REMARK  status: ('A' for Active; 'I' for Inactive)
REMARK    1  A    between atoms: C2_2  and  C3_3 
REMARK    2  A    between atoms: C3_3  and  N1_4 
REMARK    3  A    between atoms: C7_8  and  C21_29 
REMARK    4  A    between atoms: C14_18  and  C15_19 
REMARK    5  A    between atoms: N3_21  and  C17_22 
REMARK    6  A    between atoms: C17_22  and  C18_23 
REMARK    7  A    between atoms: C18_23  and  C19_24 
REMARK    8  A    between atoms: C19_24  and  O2_25 
REMARK    9  A    between atoms: C21_29  and  O4_30 
ROOT
HETATM    1  N1  UNL     1       4.924  20.465  53.219  1.00  0.00     0.168 N 
HETATM    2  C4  UNL     1       5.607  21.163  52.030  1.00  0.00     0.321 A 
HETATM    3  C5  UNL     1       5.801  20.696  50.762  1.00  0.00     0.095 C 
HETATM    4  C6  UNL     1       6.884  21.382  49.977  1.00  0.00     0.030 C 
HETATM    5  C7  UNL     1       7.371  20.022  49.685  1.00  0.00     0.031 C 
HETATM    6  C8  UNL     1       6.014  19.536  49.989  1.00  0.00     0.046 C 
HETATM    7  C9  UNL     1       5.965  18.245  50.691  1.00  0.00     0.179 C 
HETATM    8  O1  UNL     1       6.649  17.295  49.968  1.00  0.00    -0.295 OA
HETATM    9  N2  UNL     1       7.908  17.090  50.109  1.00  0.00    -0.193 NA
HETATM   10  C10 UNL     1       8.479  17.193  51.434  1.00  0.00     0.130 C 
HETATM   11  C11 UNL     1       8.061  18.589  51.710  1.00  0.00     0.067 C 
HETATM   12  C12 UNL     1       6.516  18.495  52.023  1.00  0.00     0.091 C 
HETATM   13 CL1  UNL     1       6.267  16.785  52.717  1.00  0.00    -0.112 Cl
HETATM   14  C13 UNL     1       6.155  19.387  53.032  1.00  0.00     0.048 C 
HETATM   15  C14 UNL     1       5.191  20.610  52.939  1.00  0.00     0.355 A 
HETATM   16  N3  UNL     1       4.065  20.616  52.025  1.00  0.00     0.198 N 
HETATM   17  C20 UNL     1       4.389  20.865  50.568  1.00  0.00     0.365 C 
HETATM   18  O3  UNL     1       3.690  21.106  49.646  1.00  0.00    -0.262 OA
HETATM   19  C21 UNL     1       8.382  19.302  50.454  1.00  0.00     0.085 C 
HETATM   20  C23 UNL     1       8.773  18.129  49.514  1.00  0.00     0.159 C 
ENDROOT
BRANCH  16  21
HETATM   21  C17 UNL     1       2.643  20.513  51.973  1.00  0.00     0.289 C 
BRANCH  21  22
HETATM   22  C18 UNL     1       2.111  19.123  51.908  1.00  0.00     0.057 C 
BRANCH  22  23
HETATM   23  C19 UNL     1       1.682  18.532  50.620  1.00  0.00     0.165 C 
BRANCH  23  24
HETATM   24  O2  UNL     1       1.021  19.540  49.911  1.00  0.00    -0.401 OA
ATOM     25  H2  UNL     1       0.306  19.125  49.442  1.00  0.00     0.209 HD
ENDBRANCH  23  24
ENDBRANCH  22  23
ENDBRANCH  21  22
ENDBRANCH  16  21
BRANCH  15  26
HETATM   26  C15 UNL     1       5.958  21.849  53.600  1.00  0.00     0.074 C 
HETATM   27  C16 UNL     1       7.391  21.686  53.690  1.00  0.00     0.010 C 
ENDBRANCH  15  26
BRANCH   1  28
HETATM   28  C3  UNL     1       4.244  20.908  54.293  1.00  0.00     0.241 C 
BRANCH  28  29
HETATM   29  C2  UNL     1       4.267  20.074  55.516  1.00  0.00     0.017 C 
HETATM   30  C1  UNL     1       5.047  20.142  56.523  1.00  0.00     0.013 C 
ENDBRANCH  28  29
ENDBRANCH   1  28
BRANCH  19  31
HETATM   31  O4  UNL     1       9.429  20.206  50.520  1.00  0.00    -0.383 OA
HETATM   32  C22 UNL     1      10.121  20.492  49.408  1.00  0.00     0.202 C 
ENDBRANCH  19  31
TORSDOF 9
ENDMDL
MODEL 3
REMARK VINA RESULT: -6.290545996      4.790      6.281
REMARK  9 active torsions:
REMARK  status: ('A' for Active; 'I' for Inactive)
REMARK    1  A    between atoms: C2_2  and  C3_3 
REMARK    2  A    between atoms: C3_3  and  N1_4 
REMARK    3  A    between atoms: C7_8  and  C21_29 
REMARK    4  A    between atoms: C14_18  and  C15_19 
REMARK    5  A    between atoms: N3_21  and  C17_22 
REMARK    6  A    between atoms: C17_22  and  C18_23 
REMARK    7  A    between atoms: C18_23  and  C19_24 
REMARK    8  A    between atoms: C19_24  and  O2_25 
REMARK    9  A    between atoms: C21_29  and  O4_30 
ROOT
HETATM    1  N1  UNL     1       6.634  19.166  51.167  1.00  0.00     0.168 N 
HETATM    2  C4  UNL     1       8.015  18.770  51.716  1.00  0.00     0.321 A 
HETATM    3  C5  UNL     1       9.047  18.151  51.069  1.00  0.00     0.095 C 
HETATM    4  C6  UNL     1      10.061  17.484  51.955  1.00  0.00     0.030 C 
HETATM    5  C7  UNL     1       9.876  16.310  51.082  1.00  0.00     0.031 C 
HETATM    6  C8  UNL     1       9.373  17.233  50.051  1.00  0.00     0.046 C 
HETATM    7  C9  UNL     1       8.262  16.707  49.243  1.00  0.00     0.179 C 
HETATM    8  O1  UNL     1       8.632  15.515  48.662  1.00  0.00    -0.295 OA
HETATM    9  N2  UNL     1       8.473  14.382  49.244  1.00  0.00    -0.193 NA
HETATM   10  C10 UNL     1       7.290  14.181  50.050  1.00  0.00     0.130 C 
HETATM   11  C11 UNL     1       7.504  15.313  50.984  1.00  0.00     0.067 C 
HETATM   12  C12 UNL     1       7.122  16.601  50.154  1.00  0.00     0.091 C 
HETATM   13 CL1  UNL     1       5.866  16.018  48.909  1.00  0.00    -0.112 Cl
HETATM   14  C13 UNL     1       6.477  17.540  50.956  1.00  0.00     0.048 C 
HETATM   15  C14 UNL     1       6.956  18.974  51.340  1.00  0.00     0.355 A 
HETATM   16  N3  UNL     1       7.774  19.763  50.439  1.00  0.00     0.198 N 
HETATM   17  C20 UNL     1       9.237  19.384  50.358  1.00  0.00     0.365 C 
HETATM   18  O3  UNL     1      10.159  19.941  49.872  1.00  0.00    -0.262 OA
HETATM   19  C21 UNL     1       8.941  15.215  51.324  1.00  0.00     0.085 C 
HETATM   20  C23 UNL     1       9.425  14.113  50.342  1.00  0.00     0.159 C 
ENDROOT
BRANCH  16  21
HETATM   21  C17 UNL     1       7.735  20.884  49.556  1.00  0.00     0.289 C 
BRANCH  21  22
HETATM   22  C18 UNL     1       8.121  22.185  50.168  1.00  0.00     0.057 C 
BRANCH  22  23
HETATM   23  C19 UNL     1       8.852  23.208  49.385  1.00  0.00     0.165 C 
BRANCH  23  24
HETATM   24  O2  UNL     1      10.205  23.087  49.720  1.00  0.00    -0.401 OA
ATOM     25  H2  UNL     1      10.578  22.442  49.130  1.00  0.00     0.209 HD
ENDBRANCH  23  24
ENDBRANCH  22  23
ENDBRANCH  21  22
ENDBRANCH  16  21
BRANCH  15  26
HETATM   26  C15 UNL     1       6.798  19.101  52.927  1.00  0.00     0.074 C 
HETATM   27  C16 UNL     1       6.503  17.856  53.600  1.00  0.00     0.010 C 
ENDBRANCH  15  26
BRANCH   1  28
HETATM   28  C3  UNL     1       5.758  20.144  51.467  1.00  0.00     0.241 C 
BRANCH  28  29
HETATM   29  C2  UNL     1       4.455  20.141  50.765  1.00  0.00     0.017 C 
HETATM   30  C1  UNL     1       3.888  21.080  50.115  1.00  0.00     0.013 C 
ENDBRANCH  28  29
ENDBRANCH   1  28
BRANCH  19  31
HETATM   31  O4  UNL     1       9.232  14.834  52.623  1.00  0.00    -0.383 OA
HETATM   32  C22 UNL     1       8.227  14.595  53.478  1.00  0.00     0.202 C 
ENDBRANCH  19  31
TORSDOF 9
ENDMDL
MODEL 4
REMARK VINA RESULT: -6.257521810      4.147      7.070
REMARK  9 active torsions:
REMARK  status: ('A' for Active; 'I' for Inactive)
REMARK    1  A    between atoms: C2_2  and  C3_3 
REMARK    2  A    between atoms: C3_3  and  N1_4 
REMARK    3  A    between atoms: C7_8  and  C21_29 
REMARK    4  A    between atoms: C14_18  and  C15_19 
REMARK    5  A    between atoms: N3_21  and  C17_22 
REMARK    6  A    between atoms: C17_22  and  C18_23 
REMARK    7  A    between atoms: C18_23  and  C19_24 
REMARK    8  A    between atoms: C19_24  and  O2_25 
REMARK    9  A    between atoms: C21_29  and  O4_30 
ROOT
HETATM    1  N1  UNL     1       7.416  16.579  52.099  1.00  0.00     0.168 N 
HETATM    2  C4  UNL     1       6.074  17.329  52.055  1.00  0.00     0.321 A 
HETATM    3  C5  UNL     1       5.568  18.116  51.060  1.00  0.00     0.095 C 
HETATM    4  C6  UNL     1       4.486  19.072  51.477  1.00  0.00     0.030 C 
HETATM    5  C7  UNL     1       5.282  20.094  50.773  1.00  0.00     0.031 C 
HETATM    6  C8  UNL     1       5.906  18.998  50.014  1.00  0.00     0.046 C 
HETATM    7  C9  UNL     1       7.337  19.182  49.730  1.00  0.00     0.179 C 
HETATM    8  O1  UNL     1       7.533  20.376  49.072  1.00  0.00    -0.295 OA
HETATM    9  N2  UNL     1       7.723  21.484  49.690  1.00  0.00    -0.193 NA
HETATM   10  C10 UNL     1       8.504  21.469  50.908  1.00  0.00     0.130 C 
HETATM   11  C11 UNL     1       7.667  20.500  51.655  1.00  0.00     0.067 C 
HETATM   12  C12 UNL     1       8.014  19.094  51.024  1.00  0.00     0.091 C 
HETATM   13 CL1  UNL     1       9.761  19.263  50.400  1.00  0.00    -0.112 Cl
HETATM   14  C13 UNL     1       8.039  18.100  52.000  1.00  0.00     0.048 C 
HETATM   15  C14 UNL     1       7.109  16.854  52.132  1.00  0.00     0.355 A 
HETATM   16  N3  UNL     1       6.546  16.205  50.964  1.00  0.00     0.198 N 
HETATM   17  C20 UNL     1       5.375  16.907  50.310  1.00  0.00     0.365 C 
HETATM   18  O3  UNL     1       4.613  16.542  49.483  1.00  0.00    -0.262 OA
HETATM   19  C21 UNL     1       6.285  20.958  51.391  1.00  0.00     0.085 C 
HETATM   20  C23 UNL     1       6.514  22.057  50.318  1.00  0.00     0.159 C 
ENDROOT
BRANCH  16  21
HETATM   21  C17 UNL     1       6.652  15.038  50.149  1.00  0.00     0.289 C 
BRANCH  21  22
HETATM   22  C18 UNL     1       7.566  15.163  48.980  1.00  0.00     0.057 C 
BRANCH  22  23
HETATM   23  C19 UNL     1       7.112  14.801  47.618  1.00  0.00     0.165 C 
BRANCH  23  24
HETATM   24  O2  UNL     1       6.341  15.870  47.149  1.00  0.00    -0.401 OA
ATOM     25  H2  UNL     1       6.083  15.655  46.260  1.00  0.00     0.209 HD
ENDBRANCH  23  24
ENDBRANCH  22  23
ENDBRANCH  21  22
ENDBRANCH  16  21
BRANCH  15  26
HETATM   26  C15 UNL     1       6.594  16.824  53.646  1.00  0.00     0.074 C 
HETATM   27  C16 UNL     1       6.366  18.129  54.226  1.00  0.00     0.010 C 
ENDBRANCH  15  26
BRANCH   1  28
HETATM   28  C3  UNL     1       7.832  15.451  52.707  1.00  0.00     0.241 C 
BRANCH  28  29
HETATM   29  C2  UNL     1       9.281  15.147  52.678  1.00  0.00     0.017 C 
HETATM   30  C1  UNL     1       9.947  14.485  51.815  1.00  0.00     0.013 C 
ENDBRANCH  28  29
ENDBRANCH   1  28
BRANCH  19  31
HETATM   31  O4  UNL     1       5.610  21.502  52.470  1.00  0.00    -0.383 OA
HETATM   32  C22 UNL     1       6.226  21.580  53.659  1.00  0.00     0.202 C 
ENDBRANCH  19  31
TORSDOF 9
ENDMDL
MODEL 5
REMARK VINA RESULT: -6.180879555      1.379      1.594
REMARK  9 active torsions:
REMARK  status: ('A' for Active; 'I' for Inactive)
REMARK    1  A    between atoms: C2_2  and  C3_3 
REMARK    2  A    between atoms: C3_3  and  N1_4 
REMARK    3  A    between atoms: C7_8  and  C21_29 
REMARK    4  A    between atoms: C14_18  and  C15_19 
REMARK    5  A    between atoms: N3_21  and  C17_22 
REMARK    6  A    between atoms: C17_22  and  C18_23 
REMARK    7  A    between atoms: C18_23  and  C19_24 
REMARK    8  A    between atoms: C19_24  and  O2_25 
REMARK    9  A    between atoms: C21_29  and  O4_30 
ROOT
HETATM    1  N1  UNL     1       2.621  18.420  49.834  1.00  0.00     0.168 N 
HETATM    2  C4  UNL     1       3.779  17.650  49.176  1.00  0.00     0.321 A 
HETATM    3  C5  UNL     1       4.380  17.877  47.971  1.00  0.00     0.095 C 
HETATM    4  C6  UNL     1       5.137  16.713  47.395  1.00  0.00     0.030 C 
HETATM    5  C7  UNL     1       4.383  16.986  46.158  1.00  0.00     0.031 C 
HETATM    6  C8  UNL     1       4.173  18.355  46.661  1.00  0.00     0.046 C 
HETATM    7  C9  UNL     1       2.853  18.927  46.357  1.00  0.00     0.179 C 
HETATM    8  O1  UNL     1       2.630  18.890  44.999  1.00  0.00    -0.295 OA
HETATM    9  N2  UNL     1       2.098  17.880  44.412  1.00  0.00    -0.193 NA
HETATM   10  C10 UNL     1       1.047  17.160  45.095  1.00  0.00     0.130 C 
HETATM   11  C11 UNL     1       1.819  16.811  46.312  1.00  0.00     0.067 C 
HETATM   12  C12 UNL     1       1.893  18.152  47.143  1.00  0.00     0.091 C 
HETATM   13 CL1  UNL     1       0.362  19.100  46.667  1.00  0.00    -0.112 Cl
HETATM   14  C13 UNL     1       1.791  17.900  48.510  1.00  0.00     0.048 C 
HETATM   15  C14 UNL     1       2.857  18.156  49.621  1.00  0.00     0.355 A 
HETATM   16  N3  UNL     1       3.804  19.250  49.520  1.00  0.00     0.198 N 
HETATM   17  C20 UNL     1       4.964  19.043  48.569  1.00  0.00     0.365 C 
HETATM   18  O3  UNL     1       5.964  19.655  48.418  1.00  0.00    -0.262 OA
HETATM   19  C21 UNL     1       3.121  16.356  45.779  1.00  0.00     0.085 C 
HETATM   20  C23 UNL     1       2.988  16.709  44.272  1.00  0.00     0.159 C 
ENDROOT
BRANCH  16  21
HETATM   21  C17 UNL     1       4.114  20.538  50.050  1.00  0.00     0.289 C 
BRANCH  21  22
HETATM   22  C18 UNL     1       4.898  20.529  51.316  1.00  0.00     0.057 C 
BRANCH  22  23
HETATM   23  C19 UNL     1       6.122  21.349  51.459  1.00  0.00     0.165 C 
BRANCH  23  24
HETATM   24  O2  UNL     1       6.262  22.080  50.275  1.00  0.00    -0.401 OA
ATOM     25  H2  UNL     1       6.285  22.998  50.518  1.00  0.00     0.209 HD
ENDBRANCH  23  24
ENDBRANCH  22  23
ENDBRANCH  21  22
ENDBRANCH  16  21
BRANCH  15  26
HETATM   26  C15 UNL     1       2.964  16.807  50.473  1.00  0.00     0.074 C 
HETATM   27  C16 UNL     1       2.500  15.625  49.783  1.00  0.00     0.010 C 
ENDBRANCH  15  26
BRANCH   1  28
HETATM   28  C3  UNL     1       2.265  18.652  51.112  1.00  0.00     0.241 C 
BRANCH  28  29
HETATM   29  C2  UNL     1       1.241  19.692  51.364  1.00  0.00     0.017 C 
HETATM   30  C1  UNL     1       1.187  20.558  52.298  1.00  0.00     0.013 C 
ENDBRANCH  28  29
ENDBRANCH   1  28
BRANCH  19  31
HETATM   31  O4  UNL     1       3.393  15.005  45.913  1.00  0.00    -0.383 OA
HETATM   32  C22 UNL     1       3.751  14.297  44.831  1.00  0.00     0.202 C 
ENDBRANCH  19  31
TORSDOF 9
ENDMDL
