MODEL 1
REMARK VINA RESULT: -7.527849225      0.000      0.000
REMARK  2 active torsions:
REMARK  status: ('A' for Active; 'I' for Inactive)
REMARK    1  A    between atoms: C3_7  and  C5_9 
REMARK    2  A    between atoms: C24_31  and  C25_32 
ROOT
HETATM    1  C1  UNL     1      24.089   4.511  18.354  1.00  0.00     0.155 C 
HETATM    2  N1  UNL     1      23.711   3.166  18.746  1.00  0.00    -0.333 N 
HETATM    3  C2  UNL     1      23.357   2.218  17.745  1.00  0.00     0.319 C 
HETATM    4  O1  UNL     1      22.990   2.530  16.577  1.00  0.00    -0.247 OA
HETATM    5  N2  UNL     1      23.463   0.890  18.215  1.00  0.00    -0.329 N 
ATOM      6  H2  UNL     1      22.821   0.164  17.895  1.00  0.00     0.165 HD
HETATM    7  C3  UNL     1      24.527   0.588  19.178  1.00  0.00     0.067 C 
HETATM    8  C4  UNL     1      24.810  -0.851  19.328  1.00  0.00     0.044 C 
HETATM    9  C13 UNL     1      24.277   1.371  20.432  1.00  0.00     0.051 C 
HETATM   10  C14 UNL     1      23.615   2.673  20.085  1.00  0.00     0.096 C 
HETATM   11  C15 UNL     1      24.044   3.691  21.117  1.00  0.00     0.027 C 
HETATM   12  C16 UNL     1      23.931   3.090  22.448  1.00  0.00     0.013 C 
HETATM   13  C17 UNL     1      23.311   1.795  22.650  1.00  0.00    -0.015 C 
HETATM   14  C18 UNL     1      23.768   1.285  24.038  1.00  0.00     0.017 C 
HETATM   15  C19 UNL     1      23.503   0.751  21.543  1.00  0.00    -0.019 C 
HETATM   16  C20 UNL     1      23.986  -0.531  22.147  1.00  0.00     0.017 C 
HETATM   17  C21 UNL     1      21.989   0.746  21.458  1.00  0.00     0.039 A 
HETATM   18  C22 UNL     1      21.396  -0.442  22.198  1.00  0.00    -0.023 A 
HETATM   19  C23 UNL     1      21.290   0.373  23.217  1.00  0.00    -0.010 A 
HETATM   20  C24 UNL     1      21.854   1.607  22.579  1.00  0.00     0.091 A 
ENDROOT
BRANCH   7  21
HETATM   21  C5  UNL     1      25.802   1.139  18.602  1.00  0.00    -0.002 A 
HETATM   22  C6  UNL     1      26.544   2.219  19.007  1.00  0.00     0.099 A 
HETATM   23  N3  UNL     1      27.669   2.266  18.240  1.00  0.00    -0.365 N 
HETATM   24  C7  UNL     1      27.659   1.256  17.370  1.00  0.00     0.043 A 
ATOM     25  H3  UNL     1      28.406   2.966  18.320  1.00  0.00     0.165 HD
HETATM   26  C8  UNL     1      28.571   0.895  16.372  1.00  0.00     0.033 A 
HETATM   27  C12 UNL     1      26.518   0.533  17.558  1.00  0.00     0.004 A 
HETATM   28  C9  UNL     1      28.354  -0.191  15.550  1.00  0.00     0.044 A 
HETATM   29  C10 UNL     1      27.190  -0.891  15.773  1.00  0.00     0.117 A 
HETATM   30  F1  UNL     1      26.941  -1.962  14.986  1.00  0.00    -0.206 F 
HETATM   31  C11 UNL     1      26.276  -0.560  16.745  1.00  0.00     0.056 A 
ENDBRANCH   7  21
BRANCH  20  32
HETATM   32  C25 UNL     1      20.893   2.653  22.870  1.00  0.00     0.400 C 
HETATM   33  F2  UNL     1      20.918   3.593  21.833  1.00  0.00    -0.170 F 
HETATM   34  F3  UNL     1      20.872   3.313  24.028  1.00  0.00    -0.170 F 
HETATM   35  F4  UNL     1      19.613   2.071  22.729  1.00  0.00    -0.170 F 
ENDBRANCH  20  32
TORSDOF 2
ENDMDL
MODEL 2
REMARK VINA RESULT: -7.419035196      3.469      7.982
REMARK  2 active torsions:
REMARK  status: ('A' for Active; 'I' for Inactive)
REMARK    1  A    between atoms: C3_7  and  C5_9 
REMARK    2  A    between atoms: C24_31  and  C25_32 
ROOT
HETATM    1  C1  UNL     1      21.214  -0.720  22.426  1.00  0.00     0.155 C 
HETATM    2  N1  UNL     1      21.276   0.693  22.102  1.00  0.00    -0.333 N 
HETATM    3  C2  UNL     1      20.119   1.503  22.276  1.00  0.00     0.319 C 
HETATM    4  O1  UNL     1      18.943   1.047  22.341  1.00  0.00    -0.247 OA
HETATM    5  N2  UNL     1      20.443   2.875  22.365  1.00  0.00    -0.329 N 
ATOM      6  H2  UNL     1      19.820   3.590  21.989  1.00  0.00     0.165 HD
HETATM    7  C3  UNL     1      21.706   3.238  23.015  1.00  0.00     0.067 C 
HETATM    8  C4  UNL     1      21.796   4.659  23.401  1.00  0.00     0.044 C 
HETATM    9  C13 UNL     1      22.840   2.674  22.212  1.00  0.00     0.051 C 
HETATM   10  C14 UNL     1      22.408   1.388  21.571  1.00  0.00     0.096 C 
HETATM   11  C15 UNL     1      23.631   0.508  21.445  1.00  0.00     0.027 C 
HETATM   12  C16 UNL     1      24.736   1.309  20.915  1.00  0.00     0.013 C 
HETATM   13  C17 UNL     1      24.535   2.663  20.435  1.00  0.00    -0.015 C 
HETATM   14  C18 UNL     1      25.926   3.341  20.395  1.00  0.00     0.017 C 
HETATM   15  C19 UNL     1      23.483   3.511  21.162  1.00  0.00    -0.019 C 
HETATM   16  C20 UNL     1      24.083   4.829  21.540  1.00  0.00     0.017 C 
HETATM   17  C21 UNL     1      22.813   3.616  19.806  1.00  0.00     0.039 A 
HETATM   18  C22 UNL     1      23.125   4.943  19.134  1.00  0.00    -0.023 A 
HETATM   19  C23 UNL     1      24.105   4.301  18.548  1.00  0.00    -0.010 A 
HETATM   20  C24 UNL     1      23.879   2.947  19.149  1.00  0.00     0.091 A 
ENDROOT
BRANCH   7  21
HETATM   21  C5  UNL     1      21.740   2.513  24.332  1.00  0.00    -0.002 A 
HETATM   22  C6  UNL     1      22.598   1.534  24.764  1.00  0.00     0.099 A 
HETATM   23  N3  UNL     1      22.298   1.258  26.064  1.00  0.00    -0.365 N 
HETATM   24  C7  UNL     1      21.284   2.026  26.462  1.00  0.00     0.043 A 
ATOM     25  H3  UNL     1      22.776   0.569  26.644  1.00  0.00     0.165 HD
HETATM   26  C8  UNL     1      20.612   2.098  27.687  1.00  0.00     0.033 A 
HETATM   27  C12 UNL     1      20.906   2.819  25.419  1.00  0.00     0.004 A 
HETATM   28  C9  UNL     1      19.554   2.961  27.885  1.00  0.00     0.044 A 
HETATM   29  C10 UNL     1      19.205   3.741  26.805  1.00  0.00     0.117 A 
HETATM   30  F1  UNL     1      18.171   4.599  26.959  1.00  0.00    -0.206 F 
HETATM   31  C11 UNL     1      19.846   3.692  25.590  1.00  0.00     0.056 A 
ENDBRANCH   7  21
BRANCH  20  32
HETATM   32  C25 UNL     1      23.883   2.031  18.025  1.00  0.00     0.400 C 
HETATM   33  F2  UNL     1      25.134   1.406  17.953  1.00  0.00    -0.170 F 
HETATM   34  F3  UNL     1      23.531   2.398  16.793  1.00  0.00    -0.170 F 
HETATM   35  F4  UNL     1      23.024   0.964  18.374  1.00  0.00    -0.170 F 
ENDBRANCH  20  32
TORSDOF 2
ENDMDL
MODEL 3
REMARK VINA RESULT: -7.216753220      3.622      7.050
REMARK  2 active torsions:
REMARK  status: ('A' for Active; 'I' for Inactive)
REMARK    1  A    between atoms: C3_7  and  C5_9 
REMARK    2  A    between atoms: C24_31  and  C25_32 
ROOT
HETATM    1  C1  UNL     1      20.797  -0.744  22.501  1.00  0.00     0.155 C 
HETATM    2  N1  UNL     1      20.934   0.652  22.131  1.00  0.00    -0.333 N 
HETATM    3  C2  UNL     1      19.805   1.514  22.216  1.00  0.00     0.319 C 
HETATM    4  O1  UNL     1      18.609   1.108  22.236  1.00  0.00    -0.247 OA
HETATM    5  N2  UNL     1      20.181   2.875  22.273  1.00  0.00    -0.329 N 
ATOM      6  H2  UNL     1      19.608   3.599  21.840  1.00  0.00     0.165 HD
HETATM    7  C3  UNL     1      21.424   3.211  22.975  1.00  0.00     0.067 C 
HETATM    8  C4  UNL     1      21.554   4.640  23.314  1.00  0.00     0.044 C 
HETATM    9  C13 UNL     1      22.572   2.573  22.252  1.00  0.00     0.051 C 
HETATM   10  C14 UNL     1      22.120   1.282  21.635  1.00  0.00     0.096 C 
HETATM   11  C15 UNL     1      23.309   0.349  21.604  1.00  0.00     0.027 C 
HETATM   12  C16 UNL     1      24.472   1.085  21.104  1.00  0.00     0.013 C 
HETATM   13  C17 UNL     1      24.353   2.426  20.567  1.00  0.00    -0.015 C 
HETATM   14  C18 UNL     1      25.772   3.046  20.575  1.00  0.00     0.017 C 
HETATM   15  C19 UNL     1      23.302   3.343  21.208  1.00  0.00    -0.019 C 
HETATM   16  C20 UNL     1      23.937   4.649  21.570  1.00  0.00     0.017 C 
HETATM   17  C21 UNL     1      22.706   3.424  19.816  1.00  0.00     0.039 A 
HETATM   18  C22 UNL     1      23.108   4.711  19.115  1.00  0.00    -0.023 A 
HETATM   19  C23 UNL     1      24.088   4.009  18.603  1.00  0.00    -0.010 A 
HETATM   20  C24 UNL     1      23.775   2.688  19.240  1.00  0.00     0.091 A 
ENDROOT
BRANCH   7  21
HETATM   21  C5  UNL     1      21.361   2.535  24.317  1.00  0.00    -0.002 A 
HETATM   22  C6  UNL     1      20.287   2.355  25.150  1.00  0.00     0.099 A 
HETATM   23  N3  UNL     1      20.698   1.597  26.205  1.00  0.00    -0.365 N 
HETATM   24  C7  UNL     1      21.989   1.297  26.064  1.00  0.00     0.043 A 
ATOM     25  H3  UNL     1      20.109   1.304  26.984  1.00  0.00     0.165 HD
HETATM   26  C8  UNL     1      22.857   0.569  26.885  1.00  0.00     0.033 A 
HETATM   27  C12 UNL     1      22.441   1.860  24.907  1.00  0.00     0.004 A 
HETATM   28  C9  UNL     1      24.187   0.395  26.560  1.00  0.00     0.044 A 
HETATM   29  C10 UNL     1      24.601   0.981  25.385  1.00  0.00     0.117 A 
HETATM   30  F1  UNL     1      25.898   0.834  25.033  1.00  0.00    -0.206 F 
HETATM   31  C11 UNL     1      23.771   1.702  24.559  1.00  0.00     0.056 A 
ENDBRANCH   7  21
BRANCH  20  32
HETATM   32  C25 UNL     1      23.798   1.731  18.150  1.00  0.00     0.400 C 
HETATM   33  F2  UNL     1      23.407   2.376  16.971  1.00  0.00    -0.170 F 
HETATM   34  F3  UNL     1      23.171   0.556  18.209  1.00  0.00    -0.170 F 
HETATM   35  F4  UNL     1      25.158   1.436  17.905  1.00  0.00    -0.170 F 
ENDBRANCH  20  32
TORSDOF 2
ENDMDL
MODEL 4
REMARK VINA RESULT: -7.051197687      2.887      5.015
REMARK  2 active torsions:
REMARK  status: ('A' for Active; 'I' for Inactive)
REMARK    1  A    between atoms: C3_7  and  C5_9 
REMARK    2  A    between atoms: C24_31  and  C25_32 
ROOT
HETATM    1  C1  UNL     1      26.504   0.842  17.856  1.00  0.00     0.155 C 
HETATM    2  N1  UNL     1      25.963   1.627  18.950  1.00  0.00    -0.333 N 
HETATM    3  C2  UNL     1      26.637   2.811  19.363  1.00  0.00     0.319 C 
HETATM    4  O1  UNL     1      27.851   3.055  19.113  1.00  0.00    -0.247 OA
HETATM    5  N2  UNL     1      25.787   3.677  20.086  1.00  0.00    -0.329 N 
ATOM      6  H2  UNL     1      26.144   4.250  20.851  1.00  0.00     0.165 HD
HETATM    7  C3  UNL     1      24.373   3.725  19.701  1.00  0.00     0.067 C 
HETATM    8  C4  UNL     1      23.646   4.895  20.229  1.00  0.00     0.044 C 
HETATM    9  C13 UNL     1      23.763   2.377  19.941  1.00  0.00     0.051 C 
HETATM   10  C14 UNL     1      24.798   1.313  19.719  1.00  0.00     0.096 C 
HETATM   11  C15 UNL     1      24.083   0.077  19.222  1.00  0.00     0.027 C 
HETATM   12  C16 UNL     1      22.900  -0.150  20.054  1.00  0.00     0.013 C 
HETATM   13  C17 UNL     1      22.652   0.624  21.255  1.00  0.00    -0.015 C 
HETATM   14  C18 UNL     1      21.153   0.453  21.603  1.00  0.00     0.017 C 
HETATM   15  C19 UNL     1      23.093   2.093  21.240  1.00  0.00    -0.019 C 
HETATM   16  C20 UNL     1      21.954   2.958  21.682  1.00  0.00     0.017 C 
HETATM   17  C21 UNL     1      23.951   1.717  22.432  1.00  0.00     0.039 A 
HETATM   18  C22 UNL     1      23.299   2.136  23.740  1.00  0.00    -0.023 A 
HETATM   19  C23 UNL     1      22.810   0.922  23.768  1.00  0.00    -0.010 A 
HETATM   20  C24 UNL     1      23.412   0.406  22.496  1.00  0.00     0.091 A 
ENDROOT
BRANCH   7  21
HETATM   21  C5  UNL     1      24.335   3.930  18.212  1.00  0.00    -0.002 A 
HETATM   22  C6  UNL     1      24.118   3.015  17.214  1.00  0.00     0.099 A 
HETATM   23  N3  UNL     1      24.076   3.690  16.030  1.00  0.00    -0.365 N 
HETATM   24  C7  UNL     1      24.260   4.991  16.250  1.00  0.00     0.043 A 
ATOM     25  H3  UNL     1      23.927   3.263  15.116  1.00  0.00     0.165 HD
HETATM   26  C8  UNL     1      24.320   6.072  15.364  1.00  0.00     0.033 A 
HETATM   27  C12 UNL     1      24.426   5.185  17.590  1.00  0.00     0.004 A 
HETATM   28  C9  UNL     1      24.548   7.359  15.805  1.00  0.00     0.044 A 
HETATM   29  C10 UNL     1      24.712   7.509  17.165  1.00  0.00     0.117 A 
HETATM   30  F1  UNL     1      24.939   8.757  17.635  1.00  0.00    -0.206 F 
HETATM   31  C11 UNL     1      24.658   6.466  18.058  1.00  0.00     0.056 A 
ENDBRANCH   7  21
BRANCH  20  32
HETATM   32  C25 UNL     1      24.019  -0.861  22.854  1.00  0.00     0.400 C 
HETATM   33  F2  UNL     1      24.547  -0.763  24.147  1.00  0.00    -0.170 F 
HETATM   34  F3  UNL     1      24.919  -1.474  22.084  1.00  0.00    -0.170 F 
HETATM   35  F4  UNL     1      22.959  -1.781  23.021  1.00  0.00    -0.170 F 
ENDBRANCH  20  32
TORSDOF 2
ENDMDL
MODEL 5
REMARK VINA RESULT: -6.612661097      2.803      7.489
REMARK  2 active torsions:
REMARK  status: ('A' for Active; 'I' for Inactive)
REMARK    1  A    between atoms: C3_7  and  C5_9 
REMARK    2  A    between atoms: C24_31  and  C25_32 
ROOT
HETATM    1  C1  UNL     1      22.336  -1.909  22.708  1.00  0.00     0.155 C 
HETATM    2  N1  UNL     1      22.247  -0.668  21.963  1.00  0.00    -0.333 N 
HETATM    3  C2  UNL     1      21.062   0.117  22.046  1.00  0.00     0.319 C 
HETATM    4  O1  UNL     1      19.943  -0.335  22.418  1.00  0.00    -0.247 OA
HETATM    5  N2  UNL     1      21.288   1.458  21.663  1.00  0.00    -0.329 N 
ATOM      6  H2  UNL     1      20.569   1.998  21.182  1.00  0.00     0.165 HD
HETATM    7  C3  UNL     1      22.593   2.049  21.981  1.00  0.00     0.067 C 
HETATM    8  C4  UNL     1      22.621   3.521  21.897  1.00  0.00     0.044 C 
HETATM    9  C13 UNL     1      23.655   1.300  21.234  1.00  0.00     0.051 C 
HETATM   10  C14 UNL     1      23.245  -0.136  21.086  1.00  0.00     0.096 C 
HETATM   11  C15 UNL     1      24.506  -0.970  21.059  1.00  0.00     0.027 C 
HETATM   12  C16 UNL     1      25.469  -0.338  20.155  1.00  0.00     0.013 C 
HETATM   13  C17 UNL     1      25.106   0.789  19.319  1.00  0.00    -0.015 C 
HETATM   14  C18 UNL     1      26.424   1.466  18.872  1.00  0.00     0.017 C 
HETATM   15  C19 UNL     1      24.093   1.786  19.896  1.00  0.00    -0.019 C 
HETATM   16  C20 UNL     1      24.633   3.176  19.762  1.00  0.00     0.017 C 
HETATM   17  C21 UNL     1      23.249   1.439  18.685  1.00  0.00     0.039 A 
HETATM   18  C22 UNL     1      23.370   2.498  17.602  1.00  0.00    -0.023 A 
HETATM   19  C23 UNL     1      24.314   1.738  17.105  1.00  0.00    -0.010 A 
HETATM   20  C24 UNL     1      24.271   0.633  18.118  1.00  0.00     0.091 A 
ENDROOT
BRANCH   7  21
HETATM   21  C5  UNL     1      22.850   1.774  23.438  1.00  0.00    -0.002 A 
HETATM   22  C6  UNL     1      23.963   1.246  24.039  1.00  0.00     0.099 A 
HETATM   23  N3  UNL     1      23.767   1.284  25.387  1.00  0.00    -0.365 N 
HETATM   24  C7  UNL     1      22.574   1.814  25.652  1.00  0.00     0.043 A 
ATOM     25  H3  UNL     1      24.432   0.956  26.087  1.00  0.00     0.165 HD
HETATM   26  C8  UNL     1      21.919   2.042  26.867  1.00  0.00     0.033 A 
HETATM   27  C12 UNL     1      21.969   2.132  24.471  1.00  0.00     0.004 A 
HETATM   28  C9  UNL     1      20.653   2.589  26.918  1.00  0.00     0.044 A 
HETATM   29  C10 UNL     1      20.080   2.893  25.702  1.00  0.00     0.117 A 
HETATM   30  F1  UNL     1      18.839   3.429  25.711  1.00  0.00    -0.206 F 
HETATM   31  C11 UNL     1      20.699   2.680  24.494  1.00  0.00     0.056 A 
ENDBRANCH   7  21
BRANCH  20  32
HETATM   32  C25 UNL     1      24.203  -0.589  17.339  1.00  0.00     0.400 C 
HETATM   33  F2  UNL     1      25.407  -1.288  17.484  1.00  0.00    -0.170 F 
HETATM   34  F3  UNL     1      23.866  -0.605  16.049  1.00  0.00    -0.170 F 
HETATM   35  F4  UNL     1      23.276  -1.430  17.995  1.00  0.00    -0.170 F 
ENDBRANCH  20  32
TORSDOF 2
ENDMDL
