MODEL 1
REMARK VINA RESULT: -6.381756555      0.000      0.000
REMARK  2 active torsions:
REMARK  status: ('A' for Active; 'I' for Inactive)
REMARK    1  A    between atoms: C2_2  and  N1_3 
REMARK       I    between atoms: N1_3  and  C3_5 
REMARK    2  A    between atoms: C3_5  and  C4_7 
ROOT
HETATM    1  C4  UNL     1      11.756 -18.883   5.521  1.00  0.00     0.087 C 
HETATM    2  C5  UNL     1      12.925 -18.389   4.729  1.00  0.00     0.004 C 
HETATM    3  C6  UNL     1      12.833 -16.872   4.524  1.00  0.00     0.011 C 
HETATM    4  C7  UNL     1      11.568 -17.213   3.712  1.00  0.00    -0.004 A 
HETATM    5  C8  UNL     1      12.135 -18.516   3.508  1.00  0.00     0.000 A 
HETATM    6  C9  UNL     1      10.888 -18.368   4.362  1.00  0.00     0.008 A 
ENDROOT
BRANCH   1   7
HETATM    7  C3  UNL     1      11.664 -20.303   5.816  1.00  0.00     0.222 C 
HETATM    8  N1  UNL     1      12.758 -21.198   5.849  1.00  0.00    -0.361 N 
ATOM      9  H1  UNL     1      13.698 -20.850   5.654  1.00  0.00     0.162 HD
HETATM   10  O1  UNL     1      10.524 -20.773   6.062  1.00  0.00    -0.273 OA
BRANCH   8  11
HETATM   11  C2  UNL     1      12.570 -22.584   6.150  1.00  0.00     0.118 C 
HETATM   12  C1  UNL     1      13.350 -23.008   7.387  1.00  0.00     0.026 C 
ENDBRANCH   8  11
ENDBRANCH   1   7
TORSDOF 2
ENDMDL
MODEL 2
REMARK VINA RESULT: -5.931028981      1.286      1.460
REMARK  2 active torsions:
REMARK  status: ('A' for Active; 'I' for Inactive)
REMARK    1  A    between atoms: C2_2  and  N1_3 
REMARK       I    between atoms: N1_3  and  C3_5 
REMARK    2  A    between atoms: C3_5  and  C4_7 
ROOT
HETATM    1  C4  UNL     1      11.957 -18.975   5.304  1.00  0.00     0.087 C 
HETATM    2  C5  UNL     1      11.990 -18.348   3.946  1.00  0.00     0.004 C 
HETATM    3  C6  UNL     1      11.336 -16.962   3.977  1.00  0.00     0.011 C 
HETATM    4  C7  UNL     1      10.054 -17.743   4.325  1.00  0.00    -0.004 A 
HETATM    5  C8  UNL     1      10.655 -18.878   3.683  1.00  0.00     0.000 A 
HETATM    6  C9  UNL     1      10.427 -18.902   5.185  1.00  0.00     0.008 A 
ENDROOT
BRANCH   1   7
HETATM    7  C3  UNL     1      12.529 -20.300   5.474  1.00  0.00     0.222 C 
HETATM    8  N1  UNL     1      11.965 -21.335   6.256  1.00  0.00    -0.361 N 
ATOM      9  H1  UNL     1      11.089 -21.168   6.752  1.00  0.00     0.162 HD
HETATM   10  O1  UNL     1      13.610 -20.547   4.881  1.00  0.00    -0.273 OA
BRANCH   8  11
HETATM   11  C2  UNL     1      12.603 -22.610   6.364  1.00  0.00     0.118 C 
HETATM   12  C1  UNL     1      13.397 -22.742   7.656  1.00  0.00     0.026 C 
ENDBRANCH   8  11
ENDBRANCH   1   7
TORSDOF 2
ENDMDL
MODEL 3
REMARK VINA RESULT: -5.568695363      0.728      1.354
REMARK  2 active torsions:
REMARK  status: ('A' for Active; 'I' for Inactive)
REMARK    1  A    between atoms: C2_2  and  N1_3 
REMARK       I    between atoms: N1_3  and  C3_5 
REMARK    2  A    between atoms: C3_5  and  C4_7 
ROOT
HETATM    1  C4  UNL     1      11.636 -19.630   4.699  1.00  0.00     0.087 C 
HETATM    2  C5  UNL     1      11.114 -18.269   5.040  1.00  0.00     0.004 C 
HETATM    3  C6  UNL     1      11.337 -17.299   3.874  1.00  0.00     0.011 C 
HETATM    4  C7  UNL     1      12.832 -17.537   4.162  1.00  0.00    -0.004 A 
HETATM    5  C8  UNL     1      12.447 -17.888   5.500  1.00  0.00     0.000 A 
HETATM    6  C9  UNL     1      13.012 -18.956   4.579  1.00  0.00     0.008 A 
ENDROOT
BRANCH   1   7
HETATM    7  C3  UNL     1      11.518 -20.689   5.686  1.00  0.00     0.222 C 
HETATM    8  N1  UNL     1      12.527 -21.634   5.988  1.00  0.00    -0.361 N 
ATOM      9  H1  UNL     1      13.417 -21.594   5.491  1.00  0.00     0.162 HD
HETATM   10  O1  UNL     1      10.436 -20.774   6.321  1.00  0.00    -0.273 OA
BRANCH   8  11
HETATM   11  C2  UNL     1      12.319 -22.644   6.979  1.00  0.00     0.118 C 
HETATM   12  C1  UNL     1      13.634 -23.195   7.514  1.00  0.00     0.026 C 
ENDBRANCH   8  11
ENDBRANCH   1   7
TORSDOF 2
ENDMDL
MODEL 4
REMARK VINA RESULT: -5.526014733      1.912      2.838
REMARK  2 active torsions:
REMARK  status: ('A' for Active; 'I' for Inactive)
REMARK    1  A    between atoms: C2_2  and  N1_3 
REMARK       I    between atoms: N1_3  and  C3_5 
REMARK    2  A    between atoms: C3_5  and  C4_7 
ROOT
HETATM    1  C4  UNL     1      11.798 -21.343   5.588  1.00  0.00     0.087 C 
HETATM    2  C5  UNL     1      10.625 -20.560   6.088  1.00  0.00     0.004 C 
HETATM    3  C6  UNL     1       9.865 -19.925   4.918  1.00  0.00     0.011 C 
HETATM    4  C7  UNL     1      11.165 -19.124   4.708  1.00  0.00    -0.004 A 
HETATM    5  C8  UNL     1      11.449 -19.355   6.096  1.00  0.00     0.000 A 
HETATM    6  C9  UNL     1      12.320 -20.007   5.036  1.00  0.00     0.008 A 
ENDROOT
BRANCH   1   7
HETATM    7  C3  UNL     1      12.648 -22.018   6.554  1.00  0.00     0.222 C 
HETATM    8  N1  UNL     1      12.356 -23.261   7.164  1.00  0.00    -0.361 N 
ATOM      9  H1  UNL     1      11.489 -23.745   6.928  1.00  0.00     0.162 HD
HETATM   10  O1  UNL     1      13.726 -21.456   6.874  1.00  0.00    -0.273 OA
BRANCH   8  11
HETATM   11  C2  UNL     1      13.256 -23.851   8.107  1.00  0.00     0.118 C 
HETATM   12  C1  UNL     1      12.529 -24.727   9.117  1.00  0.00     0.026 C 
ENDBRANCH   8  11
ENDBRANCH   1   7
TORSDOF 2
ENDMDL
MODEL 5
REMARK VINA RESULT: -4.175516162      3.373      7.317
REMARK  2 active torsions:
REMARK  status: ('A' for Active; 'I' for Inactive)
REMARK    1  A    between atoms: C2_2  and  N1_3 
REMARK       I    between atoms: N1_3  and  C3_5 
REMARK    2  A    between atoms: C3_5  and  C4_7 
ROOT
HETATM    1  C4  UNL     1      12.703 -24.949   8.846  1.00  0.00     0.087 C 
HETATM    2  C5  UNL     1      12.964 -24.924  10.319  1.00  0.00     0.004 C 
HETATM    3  C6  UNL     1      12.614 -26.277  10.950  1.00  0.00     0.011 C 
HETATM    4  C7  UNL     1      11.175 -25.934  10.516  1.00  0.00    -0.004 A 
HETATM    5  C8  UNL     1      11.569 -24.554  10.545  1.00  0.00     0.000 A 
HETATM    6  C9  UNL     1      11.235 -25.208   9.216  1.00  0.00     0.008 A 
ENDROOT
BRANCH   1   7
HETATM    7  C3  UNL     1      12.972 -23.750   8.070  1.00  0.00     0.222 C 
HETATM    8  N1  UNL     1      12.151 -23.253   7.031  1.00  0.00    -0.361 N 
ATOM      9  H1  UNL     1      11.297 -23.753   6.784  1.00  0.00     0.162 HD
HETATM   10  O1  UNL     1      14.016 -23.103   8.343  1.00  0.00    -0.273 OA
BRANCH   8  11
HETATM   11  C2  UNL     1      12.499 -22.060   6.322  1.00  0.00     0.118 C 
HETATM   12  C1  UNL     1      11.285 -21.180   6.061  1.00  0.00     0.026 C 
ENDBRANCH   8  11
ENDBRANCH   1   7
TORSDOF 2
ENDMDL
