MODEL 1
REMARK VINA RESULT: -9.062536673      0.000      0.000
REMARK  13 active torsions:
REMARK  status: ('A' for Active; 'I' for Inactive)
REMARK    1  A    between atoms: C2_2  and  C3_3 
REMARK    2  A    between atoms: C3_3  and  C4_4 
REMARK    3  A    between atoms: C4_4  and  O1_5 
REMARK    4  A    between atoms: O1_5  and  C5_6 
REMARK    5  A    between atoms: C9_11  and  O2_12 
REMARK    6  A    between atoms: O2_12  and  C10_13 
REMARK    7  A    between atoms: C10_13  and  C11_14 
REMARK    8  A    between atoms: C11_14  and  O3_15 
REMARK    9  A    between atoms: O3_15  and  C12_16 
REMARK   10  A    between atoms: C12_16  and  N2_17 
REMARK   11  A    between atoms: C14_21  and  C15_22 
REMARK   12  A    between atoms: S1_38  and  O5_39 
REMARK   13  A    between atoms: S1_38  and  O6_41 
ROOT
HETATM    1  C5  UNL     1      16.019  21.972  17.906  1.00  0.00     0.147 A 
HETATM    2  C6  UNL     1      15.111  22.441  17.013  1.00  0.00     0.075 A 
HETATM    3  C7  UNL     1      15.553  23.238  15.938  1.00  0.00    -0.006 A 
HETATM    4  C8  UNL     1      16.885  23.494  15.853  1.00  0.00     0.024 A 
HETATM    5  N1  UNL     1      17.780  23.035  16.730  1.00  0.00    -0.328 N 
HETATM    6  C9  UNL     1      17.420  22.276  17.769  1.00  0.00     0.181 A 
HETATM    7  C17 UNL     1      18.975  23.657  16.100  1.00  0.00     0.137 A 
HETATM    8  C18 UNL     1      18.017  24.172  15.089  1.00  0.00     0.078 A 
HETATM    9  C19 UNL     1      14.601  23.800  14.973  1.00  0.00     0.044 C 
HETATM   10  C20 UNL     1      13.145  23.501  15.467  1.00  0.00     0.026 C 
HETATM   11  C21 UNL     1      12.733  22.312  15.089  1.00  0.00     0.059 A 
HETATM   12  C22 UNL     1      12.127  22.236  13.849  1.00  0.00    -0.007 A 
HETATM   13  C23 UNL     1      12.380  21.393  14.757  1.00  0.00     0.118 A 
HETATM   14  C24 UNL     1      13.070  21.417  16.150  1.00  0.00     0.089 A 
HETATM   15  C25 UNL     1      12.904  20.085  16.325  1.00  0.00     0.026 A 
HETATM   16  C26 UNL     1      12.536  20.713  15.271  1.00  0.00     0.141 A 
HETATM   17  N5  UNL     1      12.224  19.890  14.015  1.00  0.00    -0.320 N 
HETATM   18  C27 UNL     1      12.672  19.340  12.837  1.00  0.00     0.162 C 
HETATM   19  S1  UNL     1      11.086  19.950  14.578  1.00  0.00     0.013 SA
HETATM   20  N6  UNL     1      13.676  22.155  17.080  1.00  0.00    -0.371 N 
ATOM     21  H6  UNL     1      13.128  22.527  17.856  1.00  0.00     0.161 HD
ENDROOT
BRANCH   6  22
HETATM   22  O2  UNL     1      18.249  21.783  18.691  1.00  0.00    -0.331 OA
BRANCH  22  23
HETATM   23  C10 UNL     1      19.020  21.882  19.741  1.00  0.00     0.203 C 
BRANCH  23  24
HETATM   24  C11 UNL     1      18.870  23.060  20.684  1.00  0.00     0.196 C 
BRANCH  24  25
HETATM   25  O3  UNL     1      19.135  24.256  20.152  1.00  0.00    -0.370 OA
BRANCH  25  26
HETATM   26  C12 UNL     1      20.164  25.009  20.565  1.00  0.00     0.298 C 
BRANCH  26  27
HETATM   27  N2  UNL     1      20.691  25.908  19.543  1.00  0.00    -0.329 N 
HETATM   28  C13 UNL     1      21.600  26.887  19.766  1.00  0.00     0.185 A 
HETATM   29  N3  UNL     1      21.820  27.504  18.606  1.00  0.00    -0.347 N 
HETATM   30  C14 UNL     1      21.056  26.939  17.621  1.00  0.00     0.114 A 
ATOM     31  H3  UNL     1      22.463  28.285  18.471  1.00  0.00     0.167 HD
HETATM   32  C16 UNL     1      20.359  25.929  18.264  1.00  0.00     0.129 A 
BRANCH  30  33
HETATM   33  C15 UNL     1      20.999  27.328  16.236  1.00  0.00     0.282 C 
HETATM   34  N4  UNL     1      20.740  28.635  15.787  1.00  0.00    -0.056 NA
HETATM   35  O4  UNL     1      21.199  26.442  15.345  1.00  0.00    -0.269 OA
ENDBRANCH  30  33
ENDBRANCH  26  27
ENDBRANCH  25  26
ENDBRANCH  24  25
ENDBRANCH  23  24
ENDBRANCH  22  23
ENDBRANCH   6  22
BRANCH   1  36
HETATM   36  O1  UNL     1      15.751  21.193  18.983  1.00  0.00    -0.345 OA
BRANCH  36  37
HETATM   37  C4  UNL     1      15.300  20.033  19.380  1.00  0.00     0.176 C 
BRANCH  37  38
HETATM   38  C3  UNL     1      13.910  19.728  19.821  1.00  0.00     0.026 C 
BRANCH  38  39
HETATM   39  C2  UNL     1      13.533  18.299  19.941  1.00  0.00    -0.002 C 
HETATM   40  C1  UNL     1      12.395  18.111  20.943  1.00  0.00     0.005 C 
ENDBRANCH  38  39
ENDBRANCH  37  38
ENDBRANCH  36  37
ENDBRANCH   1  36
BRANCH  19  41
HETATM   41  O5  UNL     1       9.783  20.354  14.867  1.00  0.00    -0.319 OA
ATOM     42  H5  UNL     1       9.172  19.628  14.902  1.00  0.00     0.229 HD
ENDBRANCH  19  41
BRANCH  19  43
HETATM   43  O6  UNL     1      11.225  18.723  15.504  1.00  0.00    -0.319 OA
ATOM     44  H6  UNL     1      10.852  17.897  15.217  1.00  0.00     0.229 HD
ENDBRANCH  19  43
TORSDOF 13
ENDMDL
MODEL 2
REMARK VINA RESULT: -8.906628643      3.617     10.536
REMARK  13 active torsions:
REMARK  status: ('A' for Active; 'I' for Inactive)
REMARK    1  A    between atoms: C2_2  and  C3_3 
REMARK    2  A    between atoms: C3_3  and  C4_4 
REMARK    3  A    between atoms: C4_4  and  O1_5 
REMARK    4  A    between atoms: O1_5  and  C5_6 
REMARK    5  A    between atoms: C9_11  and  O2_12 
REMARK    6  A    between atoms: O2_12  and  C10_13 
REMARK    7  A    between atoms: C10_13  and  C11_14 
REMARK    8  A    between atoms: C11_14  and  O3_15 
REMARK    9  A    between atoms: O3_15  and  C12_16 
REMARK   10  A    between atoms: C12_16  and  N2_17 
REMARK   11  A    between atoms: C14_21  and  C15_22 
REMARK   12  A    between atoms: S1_38  and  O5_39 
REMARK   13  A    between atoms: S1_38  and  O6_41 
ROOT
HETATM    1  C5  UNL     1      19.350  25.471  17.721  1.00  0.00     0.147 A 
HETATM    2  C6  UNL     1      20.321  25.683  18.646  1.00  0.00     0.075 A 
HETATM    3  C7  UNL     1      20.567  24.697  19.622  1.00  0.00    -0.006 A 
HETATM    4  C8  UNL     1      19.809  23.571  19.581  1.00  0.00     0.024 A 
HETATM    5  N1  UNL     1      18.854  23.359  18.675  1.00  0.00    -0.328 N 
HETATM    6  C9  UNL     1      18.574  24.258  17.726  1.00  0.00     0.181 A 
HETATM    7  C17 UNL     1      18.430  22.024  19.176  1.00  0.00     0.137 A 
HETATM    8  C18 UNL     1      19.497  22.208  20.191  1.00  0.00     0.078 A 
HETATM    9  C19 UNL     1      21.580  24.903  20.665  1.00  0.00     0.044 C 
HETATM   10  C20 UNL     1      22.117  26.370  20.563  1.00  0.00     0.026 C 
HETATM   11  C21 UNL     1      23.089  26.478  19.686  1.00  0.00     0.059 A 
HETATM   12  C22 UNL     1      24.369  26.239  20.151  1.00  0.00    -0.007 A 
HETATM   13  C23 UNL     1      23.888  26.564  19.027  1.00  0.00     0.118 A 
HETATM   14  C24 UNL     1      22.470  26.824  18.446  1.00  0.00     0.089 A 
HETATM   15  C25 UNL     1      22.953  27.055  17.203  1.00  0.00     0.026 A 
HETATM   16  C26 UNL     1      23.689  26.736  18.202  1.00  0.00     0.141 A 
HETATM   17  N5  UNL     1      25.115  26.249  17.918  1.00  0.00    -0.320 N 
HETATM   18  C27 UNL     1      25.964  25.191  17.688  1.00  0.00     0.162 C 
HETATM   19  S1  UNL     1      25.289  27.501  18.053  1.00  0.00     0.013 SA
HETATM   20  N6  UNL     1      21.161  26.883  18.688  1.00  0.00    -0.371 N 
ATOM     21  H6  UNL     1      20.734  27.783  18.907  1.00  0.00     0.161 HD
ENDROOT
BRANCH   6  22
HETATM   22  O2  UNL     1      17.634  24.126  16.789  1.00  0.00    -0.331 OA
BRANCH  22  23
HETATM   23  C10 UNL     1      16.452  23.769  16.362  1.00  0.00     0.203 C 
BRANCH  23  24
HETATM   24  C11 UNL     1      16.322  22.719  15.276  1.00  0.00     0.196 C 
BRANCH  24  25
HETATM   25  O3  UNL     1      15.754  21.571  15.655  1.00  0.00    -0.370 OA
BRANCH  25  26
HETATM   26  C12 UNL     1      15.921  21.062  16.883  1.00  0.00     0.298 C 
BRANCH  26  27
HETATM   27  N2  UNL     1      14.678  20.657  17.533  1.00  0.00    -0.329 N 
HETATM   28  C13 UNL     1      13.436  20.974  17.093  1.00  0.00     0.185 A 
HETATM   29  N3  UNL     1      12.561  20.449  17.950  1.00  0.00    -0.347 N 
HETATM   30  C14 UNL     1      13.221  19.793  18.954  1.00  0.00     0.114 A 
ATOM     31  H3  UNL     1      11.546  20.526  17.870  1.00  0.00     0.167 HD
HETATM   32  C16 UNL     1      14.562  19.951  18.643  1.00  0.00     0.129 A 
BRANCH  30  33
HETATM   33  C15 UNL     1      12.633  19.106  20.074  1.00  0.00     0.282 C 
HETATM   34  N4  UNL     1      11.260  18.837  20.210  1.00  0.00    -0.056 NA
HETATM   35  O4  UNL     1      13.395  18.705  21.012  1.00  0.00    -0.269 OA
ENDBRANCH  30  33
ENDBRANCH  26  27
ENDBRANCH  25  26
ENDBRANCH  24  25
ENDBRANCH  23  24
ENDBRANCH  22  23
ENDBRANCH   6  22
BRANCH   1  36
HETATM   36  O1  UNL     1      19.001  26.317  16.722  1.00  0.00    -0.345 OA
BRANCH  36  37
HETATM   37  C4  UNL     1      19.428  26.972  15.675  1.00  0.00     0.176 C 
BRANCH  37  38
HETATM   38  C3  UNL     1      19.245  26.579  14.250  1.00  0.00     0.026 C 
BRANCH  38  39
HETATM   39  C2  UNL     1      19.631  25.199  13.870  1.00  0.00    -0.002 C 
HETATM   40  C1  UNL     1      21.017  24.847  14.405  1.00  0.00     0.005 C 
ENDBRANCH  38  39
ENDBRANCH  37  38
ENDBRANCH  36  37
ENDBRANCH   1  36
BRANCH  19  41
HETATM   41  O5  UNL     1      25.621  28.726  18.629  1.00  0.00    -0.319 OA
ATOM     42  H5  UNL     1      26.401  28.680  19.169  1.00  0.00     0.229 HD
ENDBRANCH  19  41
BRANCH  19  43
HETATM   43  O6  UNL     1      25.008  27.927  16.596  1.00  0.00    -0.319 OA
ATOM     44  H6  UNL     1      25.554  28.602  16.210  1.00  0.00     0.229 HD
ENDBRANCH  19  43
TORSDOF 13
ENDMDL
MODEL 3
REMARK VINA RESULT: -8.887215718      3.484     10.482
REMARK  13 active torsions:
REMARK  status: ('A' for Active; 'I' for Inactive)
REMARK    1  A    between atoms: C2_2  and  C3_3 
REMARK    2  A    between atoms: C3_3  and  C4_4 
REMARK    3  A    between atoms: C4_4  and  O1_5 
REMARK    4  A    between atoms: O1_5  and  C5_6 
REMARK    5  A    between atoms: C9_11  and  O2_12 
REMARK    6  A    between atoms: O2_12  and  C10_13 
REMARK    7  A    between atoms: C10_13  and  C11_14 
REMARK    8  A    between atoms: C11_14  and  O3_15 
REMARK    9  A    between atoms: O3_15  and  C12_16 
REMARK   10  A    between atoms: C12_16  and  N2_17 
REMARK   11  A    between atoms: C14_21  and  C15_22 
REMARK   12  A    between atoms: S1_38  and  O5_39 
REMARK   13  A    between atoms: S1_38  and  O6_41 
ROOT
HETATM    1  C5  UNL     1      19.070  25.008  17.571  1.00  0.00     0.147 A 
HETATM    2  C6  UNL     1      19.912  25.435  18.547  1.00  0.00     0.075 A 
HETATM    3  C7  UNL     1      20.036  24.677  19.728  1.00  0.00    -0.006 A 
HETATM    4  C8  UNL     1      19.296  23.542  19.825  1.00  0.00     0.024 A 
HETATM    5  N1  UNL     1      18.467  23.120  18.869  1.00  0.00    -0.328 N 
HETATM    6  C9  UNL     1      18.307  23.797  17.728  1.00  0.00     0.181 A 
HETATM    7  C17 UNL     1      17.990  21.902  19.577  1.00  0.00     0.137 A 
HETATM    8  C18 UNL     1      18.915  22.323  20.659  1.00  0.00     0.078 A 
HETATM    9  C19 UNL     1      20.904  25.123  20.824  1.00  0.00     0.044 C 
HETATM   10  C20 UNL     1      21.442  26.556  20.491  1.00  0.00     0.026 C 
HETATM   11  C21 UNL     1      22.518  26.513  19.739  1.00  0.00     0.059 A 
HETATM   12  C22 UNL     1      23.729  26.415  20.399  1.00  0.00    -0.007 A 
HETATM   13  C23 UNL     1      23.395  26.489  19.182  1.00  0.00     0.118 A 
HETATM   14  C24 UNL     1      22.062  26.580  18.386  1.00  0.00     0.089 A 
HETATM   15  C25 UNL     1      22.701  26.569  17.193  1.00  0.00     0.026 A 
HETATM   16  C26 UNL     1      23.303  26.484  18.320  1.00  0.00     0.141 A 
HETATM   17  N5  UNL     1      24.757  25.995  18.324  1.00  0.00    -0.320 N 
HETATM   18  C27 UNL     1      25.635  24.940  18.425  1.00  0.00     0.162 C 
HETATM   19  S1  UNL     1      24.904  27.253  18.219  1.00  0.00     0.013 SA
HETATM   20  N6  UNL     1      20.732  26.645  18.445  1.00  0.00    -0.371 N 
ATOM     21  H6  UNL     1      20.276  27.557  18.419  1.00  0.00     0.161 HD
ENDROOT
BRANCH   6  22
HETATM   22  O2  UNL     1      17.497  23.447  16.728  1.00  0.00    -0.331 OA
BRANCH  22  23
HETATM   23  C10 UNL     1      17.095  22.648  15.775  1.00  0.00     0.203 C 
BRANCH  23  24
HETATM   24  C11 UNL     1      15.666  22.726  15.273  1.00  0.00     0.196 C 
BRANCH  24  25
HETATM   25  O3  UNL     1      14.923  21.638  15.490  1.00  0.00    -0.370 OA
BRANCH  25  26
HETATM   26  C12 UNL     1      13.708  21.703  16.051  1.00  0.00     0.298 C 
BRANCH  26  27
HETATM   27  N2  UNL     1      13.651  21.172  17.409  1.00  0.00    -0.329 N 
HETATM   28  C13 UNL     1      14.348  21.664  18.462  1.00  0.00     0.185 A 
HETATM   29  N3  UNL     1      14.056  20.913  19.523  1.00  0.00    -0.347 N 
HETATM   30  C14 UNL     1      13.172  19.928  19.173  1.00  0.00     0.114 A 
ATOM     31  H3  UNL     1      14.435  21.052  20.461  1.00  0.00     0.167 HD
HETATM   32  C16 UNL     1      12.944  20.135  17.823  1.00  0.00     0.129 A 
BRANCH  30  33
HETATM   33  C15 UNL     1      12.623  18.910  20.031  1.00  0.00     0.282 C 
HETATM   34  N4  UNL     1      11.254  18.767  20.319  1.00  0.00    -0.056 NA
HETATM   35  O4  UNL     1      13.416  18.073  20.569  1.00  0.00    -0.269 OA
ENDBRANCH  30  33
ENDBRANCH  26  27
ENDBRANCH  25  26
ENDBRANCH  24  25
ENDBRANCH  23  24
ENDBRANCH  22  23
ENDBRANCH   6  22
BRANCH   1  36
HETATM   36  O1  UNL     1      18.849  25.622  16.383  1.00  0.00    -0.345 OA
BRANCH  36  37
HETATM   37  C4  UNL     1      19.319  25.833  15.183  1.00  0.00     0.176 C 
BRANCH  37  38
HETATM   38  C3  UNL     1      19.297  27.123  14.438  1.00  0.00     0.026 C 
BRANCH  38  39
HETATM   39  C2  UNL     1      20.250  28.175  14.870  1.00  0.00    -0.002 C 
HETATM   40  C1  UNL     1      21.558  28.088  14.087  1.00  0.00     0.005 C 
ENDBRANCH  38  39
ENDBRANCH  37  38
ENDBRANCH  36  37
ENDBRANCH   1  36
BRANCH  19  41
HETATM   41  O5  UNL     1      25.152  28.580  18.567  1.00  0.00    -0.319 OA
ATOM     42  H5  UNL     1      25.150  28.721  19.507  1.00  0.00     0.229 HD
ENDBRANCH  19  41
BRANCH  19  43
HETATM   43  O6  UNL     1      24.812  27.364  16.682  1.00  0.00    -0.319 OA
ATOM     44  H6  UNL     1      25.539  27.758  16.214  1.00  0.00     0.229 HD
ENDBRANCH  19  43
TORSDOF 13
ENDMDL
MODEL 4
REMARK VINA RESULT: -8.834170405      2.592      3.869
REMARK  13 active torsions:
REMARK  status: ('A' for Active; 'I' for Inactive)
REMARK    1  A    between atoms: C2_2  and  C3_3 
REMARK    2  A    between atoms: C3_3  and  C4_4 
REMARK    3  A    between atoms: C4_4  and  O1_5 
REMARK    4  A    between atoms: O1_5  and  C5_6 
REMARK    5  A    between atoms: C9_11  and  O2_12 
REMARK    6  A    between atoms: O2_12  and  C10_13 
REMARK    7  A    between atoms: C10_13  and  C11_14 
REMARK    8  A    between atoms: C11_14  and  O3_15 
REMARK    9  A    between atoms: O3_15  and  C12_16 
REMARK   10  A    between atoms: C12_16  and  N2_17 
REMARK   11  A    between atoms: C14_21  and  C15_22 
REMARK   12  A    between atoms: S1_38  and  O5_39 
REMARK   13  A    between atoms: S1_38  and  O6_41 
ROOT
HETATM    1  C5  UNL     1      12.990  20.571  17.294  1.00  0.00     0.147 A 
HETATM    2  C6  UNL     1      12.031  20.316  16.367  1.00  0.00     0.075 A 
HETATM    3  C7  UNL     1      12.263  20.666  15.023  1.00  0.00    -0.006 A 
HETATM    4  C8  UNL     1      13.455  21.246  14.723  1.00  0.00     0.024 A 
HETATM    5  N1  UNL     1      14.399  21.500  15.630  1.00  0.00    -0.328 N 
HETATM    6  C9  UNL     1      14.235  21.191  16.920  1.00  0.00     0.181 A 
HETATM    7  C17 UNL     1      15.378  22.117  14.695  1.00  0.00     0.137 A 
HETATM    8  C18 UNL     1      14.363  21.836  13.649  1.00  0.00     0.078 A 
HETATM    9  C19 UNL     1      11.237  20.446  13.997  1.00  0.00     0.044 C 
HETATM   10  C20 UNL     1       9.920  19.967  14.695  1.00  0.00     0.026 C 
HETATM   11  C21 UNL     1       9.913  18.668  14.893  1.00  0.00     0.059 A 
HETATM   12  C22 UNL     1       9.427  17.890  13.859  1.00  0.00    -0.007 A 
HETATM   13  C23 UNL     1       9.878  17.637  15.014  1.00  0.00     0.118 A 
HETATM   14  C24 UNL     1      10.452  18.462  16.200  1.00  0.00     0.089 A 
HETATM   15  C25 UNL     1      10.694  17.352  16.936  1.00  0.00     0.026 A 
HETATM   16  C26 UNL     1      10.208  17.325  15.751  1.00  0.00     0.141 A 
HETATM   17  N5  UNL     1      10.230  15.991  14.995  1.00  0.00    -0.320 N 
HETATM   18  C27 UNL     1      10.888  15.151  14.126  1.00  0.00     0.162 C 
HETATM   19  S1  UNL     1       9.100  15.944  15.575  1.00  0.00     0.013 SA
HETATM   20  N6  UNL     1      10.751  19.671  16.674  1.00  0.00    -0.371 N 
ATOM     21  H6  UNL     1      10.076  20.157  17.263  1.00  0.00     0.161 HD
ENDROOT
BRANCH   6  22
HETATM   22  O2  UNL     1      15.125  21.415  17.888  1.00  0.00    -0.331 OA
BRANCH  22  23
HETATM   23  C10 UNL     1      16.288  21.261  18.464  1.00  0.00     0.203 C 
BRANCH  23  24
HETATM   24  C11 UNL     1      17.190  22.459  18.684  1.00  0.00     0.196 C 
BRANCH  24  25
HETATM   25  O3  UNL     1      17.240  23.332  17.674  1.00  0.00    -0.370 OA
BRANCH  25  26
HETATM   26  C12 UNL     1      18.166  23.253  16.708  1.00  0.00     0.298 C 
BRANCH  26  27
HETATM   27  N2  UNL     1      18.555  24.546  16.153  1.00  0.00    -0.329 N 
HETATM   28  C13 UNL     1      18.170  25.016  14.942  1.00  0.00     0.185 A 
HETATM   29  N3  UNL     1      18.737  26.210  14.775  1.00  0.00    -0.347 N 
HETATM   30  C14 UNL     1      19.497  26.526  15.868  1.00  0.00     0.114 A 
ATOM     31  H3  UNL     1      18.622  26.802  13.952  1.00  0.00     0.167 HD
HETATM   32  C16 UNL     1      19.348  25.440  16.716  1.00  0.00     0.129 A 
BRANCH  30  33
HETATM   33  C15 UNL     1      20.275  27.720  16.068  1.00  0.00     0.282 C 
HETATM   34  N4  UNL     1      21.116  27.947  17.172  1.00  0.00    -0.056 NA
HETATM   35  O4  UNL     1      20.213  28.643  15.193  1.00  0.00    -0.269 OA
ENDBRANCH  30  33
ENDBRANCH  26  27
ENDBRANCH  25  26
ENDBRANCH  24  25
ENDBRANCH  23  24
ENDBRANCH  22  23
ENDBRANCH   6  22
BRANCH   1  36
HETATM   36  O1  UNL     1      12.917  20.289  18.617  1.00  0.00    -0.345 OA
BRANCH  36  37
HETATM   37  C4  UNL     1      12.453  19.456  19.511  1.00  0.00     0.176 C 
BRANCH  37  38
HETATM   38  C3  UNL     1      13.257  18.543  20.371  1.00  0.00     0.026 C 
BRANCH  38  39
HETATM   39  C2  UNL     1      14.665  18.302  19.976  1.00  0.00    -0.002 C 
HETATM   40  C1  UNL     1      14.747  17.616  18.614  1.00  0.00     0.005 C 
ENDBRANCH  38  39
ENDBRANCH  37  38
ENDBRANCH  36  37
ENDBRANCH   1  36
BRANCH  19  41
HETATM   41  O5  UNL     1       7.723  16.021  15.777  1.00  0.00    -0.319 OA
ATOM     42  H5  UNL     1       7.372  16.885  15.595  1.00  0.00     0.229 HD
ENDBRANCH  19  41
BRANCH  19  43
HETATM   43  O6  UNL     1       9.560  15.336  16.918  1.00  0.00    -0.319 OA
ATOM     44  H6  UNL     1       9.529  15.882  17.695  1.00  0.00     0.229 HD
ENDBRANCH  19  43
TORSDOF 13
ENDMDL
MODEL 5
REMARK VINA RESULT: -8.833514867      3.160      9.731
REMARK  13 active torsions:
REMARK  status: ('A' for Active; 'I' for Inactive)
REMARK    1  A    between atoms: C2_2  and  C3_3 
REMARK    2  A    between atoms: C3_3  and  C4_4 
REMARK    3  A    between atoms: C4_4  and  O1_5 
REMARK    4  A    between atoms: O1_5  and  C5_6 
REMARK    5  A    between atoms: C9_11  and  O2_12 
REMARK    6  A    between atoms: O2_12  and  C10_13 
REMARK    7  A    between atoms: C10_13  and  C11_14 
REMARK    8  A    between atoms: C11_14  and  O3_15 
REMARK    9  A    between atoms: O3_15  and  C12_16 
REMARK   10  A    between atoms: C12_16  and  N2_17 
REMARK   11  A    between atoms: C14_21  and  C15_22 
REMARK   12  A    between atoms: S1_38  and  O5_39 
REMARK   13  A    between atoms: S1_38  and  O6_41 
ROOT
HETATM    1  C5  UNL     1      16.907  23.486  16.480  1.00  0.00     0.147 A 
HETATM    2  C6  UNL     1      17.284  23.807  17.744  1.00  0.00     0.075 A 
HETATM    3  C7  UNL     1      17.021  22.901  18.791  1.00  0.00    -0.006 A 
HETATM    4  C8  UNL     1      16.397  21.738  18.471  1.00  0.00     0.024 A 
HETATM    5  N1  UNL     1      16.024  21.419  17.231  1.00  0.00    -0.328 N 
HETATM    6  C9  UNL     1      16.246  22.238  16.198  1.00  0.00     0.181 A 
HETATM    7  C17 UNL     1      15.422  20.100  17.563  1.00  0.00     0.137 A 
HETATM    8  C18 UNL     1      15.837  20.404  18.955  1.00  0.00     0.078 A 
HETATM    9  C19 UNL     1      17.375  23.226  20.178  1.00  0.00     0.044 C 
HETATM   10  C20 UNL     1      17.875  24.709  20.237  1.00  0.00     0.026 C 
HETATM   11  C21 UNL     1      19.154  24.808  19.953  1.00  0.00     0.059 A 
HETATM   12  C22 UNL     1      20.033  24.665  21.010  1.00  0.00    -0.007 A 
HETATM   13  C23 UNL     1      20.174  24.891  19.773  1.00  0.00     0.118 A 
HETATM   14  C24 UNL     1      19.233  25.040  18.545  1.00  0.00     0.089 A 
HETATM   15  C25 UNL     1      20.269  25.214  17.693  1.00  0.00     0.026 A 
HETATM   16  C26 UNL     1      20.412  24.999  18.948  1.00  0.00     0.141 A 
HETATM   17  N5  UNL     1      21.794  24.566  19.452  1.00  0.00    -0.320 N 
HETATM   18  C27 UNL     1      22.656  23.541  19.762  1.00  0.00     0.162 C 
HETATM   19  S1  UNL     1      21.863  25.832  19.551  1.00  0.00     0.013 SA
HETATM   20  N6  UNL     1      17.977  25.049  18.099  1.00  0.00    -0.371 N 
ATOM     21  H6  UNL     1      17.488  25.938  18.002  1.00  0.00     0.161 HD
ENDROOT
BRANCH   6  22
HETATM   22  O2  UNL     1      15.901  21.997  14.932  1.00  0.00    -0.331 OA
BRANCH  22  23
HETATM   23  C10 UNL     1      15.036  21.766  13.981  1.00  0.00     0.203 C 
BRANCH  23  24
HETATM   24  C11 UNL     1      13.628  22.317  14.086  1.00  0.00     0.196 C 
BRANCH  24  25
HETATM   25  O3  UNL     1      12.907  21.856  15.112  1.00  0.00    -0.370 OA
BRANCH  25  26
HETATM   26  C12 UNL     1      11.721  21.257  14.941  1.00  0.00     0.298 C 
BRANCH  26  27
HETATM   27  N2  UNL     1      11.364  20.328  16.008  1.00  0.00    -0.329 N 
HETATM   28  C13 UNL     1      10.182  19.673  16.101  1.00  0.00     0.185 A 
HETATM   29  N3  UNL     1      10.217  18.936  17.212  1.00  0.00    -0.347 N 
HETATM   30  C14 UNL     1      11.415  19.108  17.852  1.00  0.00     0.114 A 
ATOM     31  H3  UNL     1       9.462  18.333  17.537  1.00  0.00     0.167 HD
HETATM   32  C16 UNL     1      12.109  19.998  17.049  1.00  0.00     0.129 A 
BRANCH  30  33
HETATM   33  C15 UNL     1      11.834  18.497  19.086  1.00  0.00     0.282 C 
HETATM   34  N4  UNL     1      11.235  18.735  20.335  1.00  0.00    -0.056 NA
HETATM   35  O4  UNL     1      12.810  17.680  19.062  1.00  0.00    -0.269 OA
ENDBRANCH  30  33
ENDBRANCH  26  27
ENDBRANCH  25  26
ENDBRANCH  24  25
ENDBRANCH  23  24
ENDBRANCH  22  23
ENDBRANCH   6  22
BRANCH   1  36
HETATM   36  O1  UNL     1      17.095  24.246  15.374  1.00  0.00    -0.345 OA
BRANCH  36  37
HETATM   37  C4  UNL     1      17.982  24.837  14.618  1.00  0.00     0.176 C 
BRANCH  37  38
HETATM   38  C3  UNL     1      18.325  26.287  14.625  1.00  0.00     0.026 C 
BRANCH  38  39
HETATM   39  C2  UNL     1      19.725  26.656  14.306  1.00  0.00    -0.002 C 
HETATM   40  C1  UNL     1      20.066  28.043  14.846  1.00  0.00     0.005 C 
ENDBRANCH  38  39
ENDBRANCH  37  38
ENDBRANCH  36  37
ENDBRANCH   1  36
BRANCH  19  41
HETATM   41  O5  UNL     1      21.850  27.107  20.113  1.00  0.00    -0.319 OA
ATOM     42  H5  UNL     1      22.631  27.608  19.910  1.00  0.00     0.229 HD
ENDBRANCH  19  41
BRANCH  19  43
HETATM   43  O6  UNL     1      22.343  26.147  18.118  1.00  0.00    -0.319 OA
ATOM     44  H6  UNL     1      22.072  26.966  17.721  1.00  0.00     0.229 HD
ENDBRANCH  19  43
TORSDOF 13
ENDMDL
