MODEL 1
REMARK VINA RESULT: -8.645390452      0.000      0.000
REMARK  5 active torsions:
REMARK  status: ('A' for Active; 'I' for Inactive)
REMARK    1  A    between atoms: C6_6  and  C8_8 
REMARK    2  A    between atoms: C12_12  and  O1_13 
REMARK    3  A    between atoms: C18_20  and  O2_21 
REMARK    4  A    between atoms: O2_21  and  C19_22 
REMARK       I    between atoms: C19_22  and  N1_24 
REMARK    5  A    between atoms: C36_44  and  O5_45 
ROOT
HETATM    1  C8  UNL     1      38.563 106.602  54.000  1.00  0.00    -0.035 C 
HETATM    2  C9  UNL     1      37.644 106.709  52.794  1.00  0.00    -0.054 C 
HETATM    3  C10 UNL     1      38.453 106.982  51.479  1.00  0.00     0.041 C 
HETATM    4  C11 UNL     1      37.907 108.175  50.665  1.00  0.00     0.037 C 
HETATM    5  C12 UNL     1      37.705 109.428  51.462  1.00  0.00     0.127 C 
HETATM    6  C13 UNL     1      36.479 110.069  51.724  1.00  0.00    -0.006 A 
HETATM    7  C14 UNL     1      36.264 111.116  50.584  1.00  0.00     0.019 C 
HETATM    8  C15 UNL     1      35.334 110.004  52.525  1.00  0.00     0.006 A 
HETATM    9  C16 UNL     1      34.507 108.830  52.832  1.00  0.00     0.009 C 
HETATM   10  C17 UNL     1      34.563 107.628  51.909  1.00  0.00     0.037 C 
HETATM   11  C18 UNL     1      35.059 106.372  52.416  1.00  0.00     0.157 C 
HETATM   12  C26 UNL     1      36.491 105.933  52.450  1.00  0.00     0.013 C 
HETATM   13  C27 UNL     1      36.505 110.576  53.185  1.00  0.00    -0.029 A 
HETATM   14  C28 UNL     1      36.711 112.115  53.154  1.00  0.00     0.016 C 
HETATM   15  C29 UNL     1      37.385 109.936  54.163  1.00  0.00     0.013 C 
HETATM   16  C30 UNL     1      37.227 108.641  54.790  1.00  0.00     0.036 C 
HETATM   17  C31 UNL     1      38.498 107.734  54.991  1.00  0.00     0.052 C 
HETATM   18  C32 UNL     1      38.463 107.416  56.472  1.00  0.00     0.061 C 
HETATM   19  C33 UNL     1      39.491 108.111  57.324  1.00  0.00     0.170 C 
HETATM   20  O4  UNL     1      40.770 108.166  57.040  1.00  0.00    -0.389 OA
HETATM   21  C34 UNL     1      41.360 109.011  56.190  1.00  0.00     0.186 C 
HETATM   22  C35 UNL     1      40.757 108.845  54.772  1.00  0.00     0.141 C 
HETATM   23  N2  UNL     1      39.444 108.752  54.969  1.00  0.00    -0.407 N 
ATOM     24  H2  UNL     1      39.023 109.663  55.149  1.00  0.00     0.154 HD
ENDROOT
BRANCH   1  25
HETATM   25  C6  UNL     1      38.902 105.197  54.418  1.00  0.00     0.008 C 
HETATM   26  C5  UNL     1      39.761 105.048  55.635  1.00  0.00     0.017 C 
HETATM   27  C4  UNL     1      40.855 103.965  55.621  1.00  0.00     0.010 C 
HETATM   28  C2  UNL     1      41.877 104.160  54.565  1.00  0.00    -0.045 C 
HETATM   29  C1  UNL     1      42.549 102.886  54.130  1.00  0.00     0.015 C 
HETATM   30  C3  UNL     1      42.977 105.140  54.994  1.00  0.00     0.015 C 
HETATM   31  C37 UNL     1      41.159 104.802  53.402  1.00  0.00     0.041 C 
HETATM   32  C36 UNL     1      39.681 104.391  53.470  1.00  0.00     0.131 C 
HETATM   33  C7  UNL     1      37.651 104.369  54.781  1.00  0.00     0.023 C 
BRANCH  32  34
HETATM   34  O5  UNL     1      39.368 104.012  52.240  1.00  0.00    -0.394 OA
ATOM     35  H5  UNL     1      39.568 103.197  51.794  1.00  0.00     0.210 HD
ENDBRANCH  32  34
ENDBRANCH   1  25
BRANCH  11  36
HETATM   36  O2  UNL     1      34.430 106.173  53.703  1.00  0.00    -0.295 OA
BRANCH  36  37
HETATM   37  C19 UNL     1      33.373 105.374  53.977  1.00  0.00     0.363 C 
HETATM   38  O3  UNL     1      32.301 105.960  54.358  1.00  0.00    -0.238 OA
HETATM   39  N1  UNL     1      33.453 103.980  53.851  1.00  0.00    -0.322 N 
HETATM   40  C20 UNL     1      34.485 103.049  53.459  1.00  0.00     0.135 C 
HETATM   41  C25 UNL     1      32.548 102.876  54.054  1.00  0.00     0.095 C 
HETATM   42  C21 UNL     1      33.753 102.001  54.279  1.00  0.00     0.027 C 
HETATM   43  C22 UNL     1      33.440 100.727  53.564  1.00  0.00     0.008 C 
HETATM   44  C23 UNL     1      32.358 101.025  52.568  1.00  0.00     0.002 C 
HETATM   45  C24 UNL     1      31.876 102.420  52.801  1.00  0.00     0.026 C 
ENDBRANCH  36  37
ENDBRANCH  11  36
BRANCH   5  46
HETATM   46  O1  UNL     1      38.624 110.354  50.823  1.00  0.00    -0.395 OA
ATOM     47  H1  UNL     1      38.053 111.078  50.590  1.00  0.00     0.210 HD
ENDBRANCH   5  46
TORSDOF 5
ENDMDL
MODEL 2
REMARK VINA RESULT: -8.622898449      2.118      6.406
REMARK  5 active torsions:
REMARK  status: ('A' for Active; 'I' for Inactive)
REMARK    1  A    between atoms: C6_6  and  C8_8 
REMARK    2  A    between atoms: C12_12  and  O1_13 
REMARK    3  A    between atoms: C18_20  and  O2_21 
REMARK    4  A    between atoms: O2_21  and  C19_22 
REMARK       I    between atoms: C19_22  and  N1_24 
REMARK    5  A    between atoms: C36_44  and  O5_45 
ROOT
HETATM    1  C8  UNL     1      37.370 106.470  54.821  1.00  0.00    -0.035 C 
HETATM    2  C9  UNL     1      35.900 106.161  55.053  1.00  0.00    -0.054 C 
HETATM    3  C10 UNL     1      35.638 105.690  56.525  1.00  0.00     0.041 C 
HETATM    4  C11 UNL     1      34.831 104.376  56.609  1.00  0.00     0.037 C 
HETATM    5  C12 UNL     1      35.367 103.264  55.757  1.00  0.00     0.127 C 
HETATM    6  C13 UNL     1      34.723 102.661  54.661  1.00  0.00    -0.006 A 
HETATM    7  C14 UNL     1      33.921 101.443  55.222  1.00  0.00     0.019 C 
HETATM    8  C15 UNL     1      34.417 102.842  53.307  1.00  0.00     0.006 A 
HETATM    9  C16 UNL     1      33.882 104.040  52.650  1.00  0.00     0.009 C 
HETATM   10  C17 UNL     1      33.161 105.079  53.487  1.00  0.00     0.037 C 
HETATM   11  C18 UNL     1      33.718 106.406  53.598  1.00  0.00     0.157 C 
HETATM   12  C26 UNL     1      34.735 106.860  54.599  1.00  0.00     0.013 C 
HETATM   13  C27 UNL     1      35.784 102.396  53.566  1.00  0.00    -0.029 A 
HETATM   14  C28 UNL     1      36.094 100.873  53.561  1.00  0.00     0.016 C 
HETATM   15  C29 UNL     1      37.009 103.193  53.532  1.00  0.00     0.013 C 
HETATM   16  C30 UNL     1      37.164 104.570  53.114  1.00  0.00     0.036 C 
HETATM   17  C31 UNL     1      38.122 105.512  53.936  1.00  0.00     0.052 C 
HETATM   18  C32 UNL     1      39.055 106.062  52.877  1.00  0.00     0.061 C 
HETATM   19  C33 UNL     1      40.461 105.524  52.887  1.00  0.00     0.170 C 
HETATM   20  O4  UNL     1      41.211 105.438  53.960  1.00  0.00    -0.389 OA
HETATM   21  C34 UNL     1      41.169 104.473  54.883  1.00  0.00     0.186 C 
HETATM   22  C35 UNL     1      39.755 104.403  55.514  1.00  0.00     0.141 C 
HETATM   23  N2  UNL     1      38.917 104.513  54.486  1.00  0.00    -0.407 N 
ATOM     24  H2  UNL     1      38.837 103.638  53.968  1.00  0.00     0.154 HD
ENDROOT
BRANCH   1  25
HETATM   25  C6  UNL     1      37.734 107.927  54.905  1.00  0.00     0.008 C 
HETATM   26  C5  UNL     1      38.965 108.354  54.169  1.00  0.00     0.017 C 
HETATM   27  C4  UNL     1      39.896 109.377  54.846  1.00  0.00     0.010 C 
HETATM   28  C2  UNL     1      40.471 108.906  56.129  1.00  0.00    -0.045 C 
HETATM   29  C1  UNL     1      40.841 110.019  57.072  1.00  0.00     0.015 C 
HETATM   30  C3  UNL     1      41.720 108.041  55.922  1.00  0.00     0.015 C 
HETATM   31  C37 UNL     1      39.426 108.013  56.752  1.00  0.00     0.041 C 
HETATM   32  C36 UNL     1      38.050 108.458  56.237  1.00  0.00     0.131 C 
HETATM   33  C7  UNL     1      36.646 108.845  54.309  1.00  0.00     0.023 C 
BRANCH  32  34
HETATM   34  O5  UNL     1      37.280 108.528  57.313  1.00  0.00    -0.394 OA
ATOM     35  H5  UNL     1      37.403 108.124  58.165  1.00  0.00     0.210 HD
ENDBRANCH  32  34
ENDBRANCH   1  25
BRANCH  11  36
HETATM   36  O2  UNL     1      34.100 106.802  52.261  1.00  0.00    -0.295 OA
BRANCH  36  37
HETATM   37  C19 UNL     1      34.232 108.065  51.793  1.00  0.00     0.363 C 
HETATM   38  O3  UNL     1      33.241 108.850  51.990  1.00  0.00    -0.238 OA
HETATM   39  N1  UNL     1      35.392 108.485  51.127  1.00  0.00    -0.322 N 
HETATM   40  C20 UNL     1      36.641 107.859  50.760  1.00  0.00     0.135 C 
HETATM   41  C25 UNL     1      35.843 109.715  50.525  1.00  0.00     0.095 C 
HETATM   42  C21 UNL     1      36.749 108.890  49.650  1.00  0.00     0.027 C 
HETATM   43  C22 UNL     1      38.034 109.652  49.604  1.00  0.00     0.008 C 
HETATM   44  C23 UNL     1      38.045 110.587  50.777  1.00  0.00     0.002 C 
HETATM   45  C24 UNL     1      36.700 110.540  51.428  1.00  0.00     0.026 C 
ENDBRANCH  36  37
ENDBRANCH  11  36
BRANCH   5  46
HETATM   46  O1  UNL     1      35.716 102.258  56.744  1.00  0.00    -0.395 OA
ATOM     47  H1  UNL     1      36.205 101.628  56.227  1.00  0.00     0.210 HD
ENDBRANCH   5  46
TORSDOF 5
ENDMDL
MODEL 3
REMARK VINA RESULT: -8.534801603      2.018      6.797
REMARK  5 active torsions:
REMARK  status: ('A' for Active; 'I' for Inactive)
REMARK    1  A    between atoms: C6_6  and  C8_8 
REMARK    2  A    between atoms: C12_12  and  O1_13 
REMARK    3  A    between atoms: C18_20  and  O2_21 
REMARK    4  A    between atoms: O2_21  and  C19_22 
REMARK       I    between atoms: C19_22  and  N1_24 
REMARK    5  A    between atoms: C36_44  and  O5_45 
ROOT
HETATM    1  C8  UNL     1      38.593 107.536  54.442  1.00  0.00    -0.035 C 
HETATM    2  C9  UNL     1      37.143 107.978  54.332  1.00  0.00    -0.054 C 
HETATM    3  C10 UNL     1      36.410 107.895  55.715  1.00  0.00     0.041 C 
HETATM    4  C11 UNL     1      35.071 107.129  55.650  1.00  0.00     0.037 C 
HETATM    5  C12 UNL     1      35.156 105.788  54.985  1.00  0.00     0.127 C 
HETATM    6  C13 UNL     1      34.524 105.402  53.788  1.00  0.00    -0.006 A 
HETATM    7  C14 UNL     1      33.143 104.785  54.184  1.00  0.00     0.019 C 
HETATM    8  C15 UNL     1      34.609 105.509  52.395  1.00  0.00     0.006 A 
HETATM    9  C16 UNL     1      34.854 106.713  51.592  1.00  0.00     0.009 C 
HETATM   10  C17 UNL     1      34.579 108.074  52.201  1.00  0.00     0.037 C 
HETATM   11  C18 UNL     1      35.673 108.994  52.396  1.00  0.00     0.157 C 
HETATM   12  C26 UNL     1      36.570 109.063  53.593  1.00  0.00     0.013 C 
HETATM   13  C27 UNL     1      35.512 104.524  52.984  1.00  0.00    -0.029 A 
HETATM   14  C28 UNL     1      35.044 103.047  53.102  1.00  0.00     0.016 C 
HETATM   15  C29 UNL     1      36.951 104.651  53.213  1.00  0.00     0.013 C 
HETATM   16  C30 UNL     1      37.827 105.725  52.798  1.00  0.00     0.036 C 
HETATM   17  C31 UNL     1      38.943 106.224  53.791  1.00  0.00     0.052 C 
HETATM   18  C32 UNL     1      40.209 106.125  52.965  1.00  0.00     0.061 C 
HETATM   19  C33 UNL     1      41.149 105.006  53.324  1.00  0.00     0.170 C 
HETATM   20  O4  UNL     1      41.544 104.736  54.545  1.00  0.00    -0.389 OA
HETATM   21  C34 UNL     1      40.867 104.042  55.464  1.00  0.00     0.186 C 
HETATM   22  C35 UNL     1      39.503 104.723  55.746  1.00  0.00     0.141 C 
HETATM   23  N2  UNL     1      39.036 105.060  54.547  1.00  0.00    -0.407 N 
ATOM     24  H2  UNL     1      38.645 104.258  54.053  1.00  0.00     0.154 HD
ENDROOT
BRANCH   1  25
HETATM   25  C6  UNL     1      39.591 108.656  54.562  1.00  0.00     0.008 C 
HETATM   26  C5  UNL     1      41.022 108.261  54.752  1.00  0.00     0.017 C 
HETATM   27  C4  UNL     1      41.875 109.080  55.738  1.00  0.00     0.010 C 
HETATM   28  C2  UNL     1      41.375 109.047  57.133  1.00  0.00    -0.045 C 
HETATM   29  C1  UNL     1      41.766 110.252  57.945  1.00  0.00     0.015 C 
HETATM   30  C3  UNL     1      41.854 107.803  57.892  1.00  0.00     0.015 C 
HETATM   31  C37 UNL     1      39.872 108.941  57.036  1.00  0.00     0.041 C 
HETATM   32  C36 UNL     1      39.436 109.566  55.703  1.00  0.00     0.131 C 
HETATM   33  C7  UNL     1      39.647 109.537  53.296  1.00  0.00     0.023 C 
BRANCH  32  34
HETATM   34  O5  UNL     1      38.420 110.361  56.007  1.00  0.00    -0.394 OA
ATOM     35  H5  UNL     1      38.433 111.247  56.347  1.00  0.00     0.210 HD
ENDBRANCH  32  34
ENDBRANCH   1  25
BRANCH  11  36
HETATM   36  O2  UNL     1      36.447 108.974  51.175  1.00  0.00    -0.295 OA
BRANCH  36  37
HETATM   37  C19 UNL     1      37.109 110.013  50.614  1.00  0.00     0.363 C 
HETATM   38  O3  UNL     1      37.844 109.739  49.602  1.00  0.00    -0.238 OA
HETATM   39  N1  UNL     1      36.994 111.316  51.117  1.00  0.00    -0.322 N 
HETATM   40  C20 UNL     1      36.272 111.929  52.207  1.00  0.00     0.135 C 
HETATM   41  C25 UNL     1      37.542 112.604  50.769  1.00  0.00     0.095 C 
HETATM   42  C21 UNL     1      37.328 113.020  52.201  1.00  0.00     0.027 C 
HETATM   43  C22 UNL     1      36.807 114.419  52.119  1.00  0.00     0.008 C 
HETATM   44  C23 UNL     1      36.273 114.619  50.732  1.00  0.00     0.002 C 
HETATM   45  C24 UNL     1      36.635 113.423  49.911  1.00  0.00     0.026 C 
ENDBRANCH  36  37
ENDBRANCH  11  36
BRANCH   5  46
HETATM   46  O1  UNL     1      34.781 104.885  56.060  1.00  0.00    -0.395 OA
ATOM     47  H1  UNL     1      33.843 105.024  56.123  1.00  0.00     0.210 HD
ENDBRANCH   5  46
TORSDOF 5
ENDMDL
MODEL 4
REMARK VINA RESULT: -8.242451936      6.691     10.027
REMARK  5 active torsions:
REMARK  status: ('A' for Active; 'I' for Inactive)
REMARK    1  A    between atoms: C6_6  and  C8_8 
REMARK    2  A    between atoms: C12_12  and  O1_13 
REMARK    3  A    between atoms: C18_20  and  O2_21 
REMARK    4  A    between atoms: O2_21  and  C19_22 
REMARK       I    between atoms: C19_22  and  N1_24 
REMARK    5  A    between atoms: C36_44  and  O5_45 
ROOT
HETATM    1  C8  UNL     1      41.162 116.110  50.406  1.00  0.00    -0.035 C 
HETATM    2  C9  UNL     1      39.793 115.580  50.012  1.00  0.00    -0.054 C 
HETATM    3  C10 UNL     1      39.283 116.237  48.683  1.00  0.00     0.041 C 
HETATM    4  C11 UNL     1      37.853 116.807  48.796  1.00  0.00     0.037 C 
HETATM    5  C12 UNL     1      37.634 117.703  49.979  1.00  0.00     0.127 C 
HETATM    6  C13 UNL     1      36.772 117.465  51.065  1.00  0.00    -0.006 A 
HETATM    7  C14 UNL     1      35.396 118.109  50.700  1.00  0.00     0.019 C 
HETATM    8  C15 UNL     1      36.651 116.742  52.258  1.00  0.00     0.006 A 
HETATM    9  C16 UNL     1      36.941 115.323  52.490  1.00  0.00     0.009 C 
HETATM   10  C17 UNL     1      36.968 114.372  51.309  1.00  0.00     0.037 C 
HETATM   11  C18 UNL     1      38.202 113.709  50.965  1.00  0.00     0.157 C 
HETATM   12  C26 UNL     1      39.277 114.245  50.071  1.00  0.00     0.013 C 
HETATM   13  C27 UNL     1      37.482 117.940  52.355  1.00  0.00    -0.029 A 
HETATM   14  C28 UNL     1      36.827 119.278  52.796  1.00  0.00     0.016 C 
HETATM   15  C29 UNL     1      38.942 118.018  52.396  1.00  0.00     0.013 C 
HETATM   16  C30 UNL     1      39.890 116.927  52.475  1.00  0.00     0.036 C 
HETATM   17  C31 UNL     1      41.209 117.002  51.618  1.00  0.00     0.052 C 
HETATM   18  C32 UNL     1      42.300 116.791  52.647  1.00  0.00     0.061 C 
HETATM   19  C33 UNL     1      43.111 118.006  53.012  1.00  0.00     0.170 C 
HETATM   20  O4  UNL     1      43.649 118.824  52.140  1.00  0.00    -0.389 OA
HETATM   21  C34 UNL     1      43.031 119.817  51.495  1.00  0.00     0.186 C 
HETATM   22  C35 UNL     1      41.843 119.258  50.671  1.00  0.00     0.141 C 
HETATM   23  N2  UNL     1      41.248 118.385  51.480  1.00  0.00    -0.407 N 
ATOM     24  H2  UNL     1      40.671 118.851  52.180  1.00  0.00     0.154 HD
ENDROOT
BRANCH   1  25
HETATM   25  C6  UNL     1      42.319 115.229  50.021  1.00  0.00     0.008 C 
HETATM   26  C5  UNL     1      43.399 115.057  51.043  1.00  0.00     0.017 C 
HETATM   27  C4  UNL     1      44.861 115.047  50.558  1.00  0.00     0.010 C 
HETATM   28  C2  UNL     1      45.281 116.307  49.898  1.00  0.00    -0.045 C 
HETATM   29  C1  UNL     1      46.405 116.129  48.913  1.00  0.00     0.015 C 
HETATM   30  C3  UNL     1      45.718 117.374  50.909  1.00  0.00     0.015 C 
HETATM   31  C37 UNL     1      44.052 116.846  49.205  1.00  0.00     0.041 C 
HETATM   32  C36 UNL     1      43.132 115.661  48.877  1.00  0.00     0.131 C 
HETATM   33  C7  UNL     1      41.887 113.776  49.734  1.00  0.00     0.023 C 
BRANCH  32  34
HETATM   34  O5  UNL     1      42.772 115.839  47.615  1.00  0.00    -0.394 OA
ATOM     35  H5  UNL     1      43.278 116.187  46.890  1.00  0.00     0.210 HD
ENDBRANCH  32  34
ENDBRANCH   1  25
BRANCH  11  36
HETATM   36  O2  UNL     1      38.763 113.218  52.204  1.00  0.00    -0.295 OA
BRANCH  36  37
HETATM   37  C19 UNL     1      38.413 112.091  52.866  1.00  0.00     0.363 C 
HETATM   38  O3  UNL     1      38.420 112.157  54.144  1.00  0.00    -0.238 OA
HETATM   39  N1  UNL     1      38.064 110.917  52.185  1.00  0.00    -0.322 N 
HETATM   40  C20 UNL     1      37.963 110.535  50.796  1.00  0.00     0.135 C 
HETATM   41  C25 UNL     1      37.655 109.589  52.569  1.00  0.00     0.095 C 
HETATM   42  C21 UNL     1      38.186 109.102  51.246  1.00  0.00     0.027 C 
HETATM   43  C22 UNL     1      37.173 108.113  50.768  1.00  0.00     0.008 C 
HETATM   44  C23 UNL     1      35.896 108.383  51.509  1.00  0.00     0.002 C 
HETATM   45  C24 UNL     1      36.173 109.399  52.569  1.00  0.00     0.026 C 
ENDBRANCH  36  37
ENDBRANCH  11  36
BRANCH   5  46
HETATM   46  O1  UNL     1      37.305 118.971  49.350  1.00  0.00    -0.395 OA
ATOM     47  H1  UNL     1      36.518 118.757  48.863  1.00  0.00     0.210 HD
ENDBRANCH   5  46
TORSDOF 5
ENDMDL
MODEL 5
REMARK VINA RESULT: -8.220566276      2.299      6.757
REMARK  5 active torsions:
REMARK  status: ('A' for Active; 'I' for Inactive)
REMARK    1  A    between atoms: C6_6  and  C8_8 
REMARK    2  A    between atoms: C12_12  and  O1_13 
REMARK    3  A    between atoms: C18_20  and  O2_21 
REMARK    4  A    between atoms: O2_21  and  C19_22 
REMARK       I    between atoms: C19_22  and  N1_24 
REMARK    5  A    between atoms: C36_44  and  O5_45 
ROOT
HETATM    1  C8  UNL     1      36.837 105.563  55.567  1.00  0.00    -0.035 C 
HETATM    2  C9  UNL     1      35.318 105.527  55.526  1.00  0.00    -0.054 C 
HETATM    3  C10 UNL     1      34.718 105.028  56.885  1.00  0.00     0.041 C 
HETATM    4  C11 UNL     1      33.689 103.890  56.716  1.00  0.00     0.037 C 
HETATM    5  C12 UNL     1      34.162 102.749  55.865  1.00  0.00     0.127 C 
HETATM    6  C13 UNL     1      33.626 102.345  54.628  1.00  0.00    -0.006 A 
HETATM    7  C14 UNL     1      32.533 101.272  54.937  1.00  0.00     0.019 C 
HETATM    8  C15 UNL     1      33.604 102.660  53.265  1.00  0.00     0.006 A 
HETATM    9  C16 UNL     1      33.416 103.976  52.641  1.00  0.00     0.009 C 
HETATM   10  C17 UNL     1      32.754 105.082  53.439  1.00  0.00     0.037 C 
HETATM   11  C18 UNL     1      33.509 106.269  53.760  1.00  0.00     0.157 C 
HETATM   12  C26 UNL     1      34.396 106.461  54.952  1.00  0.00     0.013 C 
HETATM   13  C27 UNL     1      34.801 101.947  53.703  1.00  0.00    -0.029 A 
HETATM   14  C28 UNL     1      34.831 100.396  53.610  1.00  0.00     0.016 C 
HETATM   15  C29 UNL     1      36.135 102.496  53.943  1.00  0.00     0.013 C 
HETATM   16  C30 UNL     1      36.604 103.840  53.683  1.00  0.00     0.036 C 
HETATM   17  C31 UNL     1      37.552 104.532  54.734  1.00  0.00     0.052 C 
HETATM   18  C32 UNL     1      38.742 104.956  53.897  1.00  0.00     0.061 C 
HETATM   19  C33 UNL     1      40.005 104.159  54.089  1.00  0.00     0.170 C 
HETATM   20  O4  UNL     1      40.524 103.868  55.258  1.00  0.00    -0.389 OA
HETATM   21  C34 UNL     1      40.148 102.877  56.070  1.00  0.00     0.186 C 
HETATM   22  C35 UNL     1      38.654 103.041  56.451  1.00  0.00     0.141 C 
HETATM   23  N2  UNL     1      38.046 103.369  55.314  1.00  0.00    -0.407 N 
ATOM     24  H2  UNL     1      37.906 102.557  54.712  1.00  0.00     0.154 HD
ENDROOT
BRANCH   1  25
HETATM   25  C6  UNL     1      37.434 106.916  55.842  1.00  0.00     0.008 C 
HETATM   26  C5  UNL     1      38.926 106.984  55.936  1.00  0.00     0.017 C 
HETATM   27  C4  UNL     1      39.543 107.886  57.021  1.00  0.00     0.010 C 
HETATM   28  C2  UNL     1      39.181 107.491  58.404  1.00  0.00    -0.045 C 
HETATM   29  C1  UNL     1      39.226 108.628  59.389  1.00  0.00     0.015 C 
HETATM   30  C3  UNL     1      40.083 106.375  58.944  1.00  0.00     0.015 C 
HETATM   31  C37 UNL     1      37.787 106.918  58.323  1.00  0.00     0.041 C 
HETATM   32  C36 UNL     1      37.080 107.552  57.117  1.00  0.00     0.131 C 
HETATM   33  C7  UNL     1      37.115 107.940  54.732  1.00  0.00     0.023 C 
BRANCH  32  34
HETATM   34  O5  UNL     1      35.889 107.921  57.565  1.00  0.00    -0.394 OA
ATOM     35  H5  UNL     1      35.154 107.380  57.831  1.00  0.00     0.210 HD
ENDBRANCH  32  34
ENDBRANCH   1  25
BRANCH  11  36
HETATM   36  O2  UNL     1      34.188 106.663  52.546  1.00  0.00    -0.295 OA
BRANCH  36  37
HETATM   37  C19 UNL     1      34.205 107.895  51.986  1.00  0.00     0.363 C 
HETATM   38  O3  UNL     1      33.121 108.570  52.064  1.00  0.00    -0.238 OA
HETATM   39  N1  UNL     1      35.351 108.399  51.354  1.00  0.00    -0.322 N 
HETATM   40  C20 UNL     1      36.683 107.901  51.108  1.00  0.00     0.135 C 
HETATM   41  C25 UNL     1      35.696 109.627  50.682  1.00  0.00     0.095 C 
HETATM   42  C21 UNL     1      36.745 108.853  49.927  1.00  0.00     0.027 C 
HETATM   43  C22 UNL     1      37.936 109.757  49.892  1.00  0.00     0.008 C 
HETATM   44  C23 UNL     1      37.764 110.770  50.985  1.00  0.00     0.002 C 
HETATM   45  C24 UNL     1      36.394 110.611  51.562  1.00  0.00     0.026 C 
ENDBRANCH  36  37
ENDBRANCH  11  36
BRANCH   5  46
HETATM   46  O1  UNL     1      34.145 101.638  56.801  1.00  0.00    -0.395 OA
ATOM     47  H1  UNL     1      33.920 100.904  56.241  1.00  0.00     0.210 HD
ENDBRANCH   5  46
TORSDOF 5
ENDMDL
