MODEL 1
REMARK VINA RESULT: -7.827574078      0.000      0.000
REMARK  7 active torsions:
REMARK  status: ('A' for Active; 'I' for Inactive)
REMARK    1  A    between atoms: C3_3  and  C4_4 
REMARK    2  A    between atoms: C5_5  and  C6_6 
REMARK    3  A    between atoms: C7_7  and  C8_8 
REMARK    4  A    between atoms: C8_8  and  C9_9 
REMARK    5  A    between atoms: C14_16  and  C15_17 
REMARK    6  A    between atoms: C16_19  and  C17_20 
REMARK    7  A    between atoms: C19_24  and  C20_25 
ROOT
HETATM    1  C1  UNL     1      10.599  -0.471  17.880  1.00  0.00     0.113 C 
HETATM    2  C2  UNL     1       9.974   0.835  18.071  1.00  0.00    -0.097 C 
HETATM    3  C3  UNL     1       9.473   1.921  18.229  1.00  0.00    -0.015 C 
ENDROOT
BRANCH   3   4
HETATM    4  C4  UNL     1       8.890   3.202  18.437  1.00  0.00    -0.011 C 
HETATM    5  C5  UNL     1       8.394   4.292  18.635  1.00  0.00    -0.065 C 
BRANCH   5   6
HETATM    6  C6  UNL     1       7.813   5.573  18.892  1.00  0.00     0.062 C 
HETATM    7  C7  UNL     1       8.144   6.295  19.916  1.00  0.00     0.003 C 
BRANCH   7   8
HETATM    8  C8  UNL     1       7.578   7.630  20.233  1.00  0.00     0.072 A 
HETATM    9  C10 UNL     1       6.169   7.868  19.782  1.00  0.00     0.037 A 
HETATM   10  C11 UNL     1       5.691   7.790  21.149  1.00  0.00    -0.008 A 
HETATM   11  C12 UNL     1       7.078   7.620  21.645  1.00  0.00     0.020 A 
HETATM   12  C14 UNL     1       5.622   9.076  21.975  1.00  0.00     0.002 C 
HETATM   13  C19 UNL     1       4.590   7.027  21.635  1.00  0.00     0.040 C 
HETATM   14  C13 UNL     1       7.080   8.993  22.253  1.00  0.00     0.020 C 
HETATM   15  C16 UNL     1       4.700   8.749  23.091  1.00  0.00     0.104 C 
HETATM   16  C18 UNL     1       4.772   7.210  23.159  1.00  0.00     0.047 C 
HETATM   17  C24 UNL     1       3.313   8.852  22.502  1.00  0.00     0.070 C 
HETATM   18  C23 UNL     1       3.300   7.791  21.511  1.00  0.00     0.182 C 
HETATM   19  N1  UNL     1       2.429   9.703  22.856  1.00  0.00    -0.398 N 
HETATM   20  O5  UNL     1       2.348   7.589  20.711  1.00  0.00    -0.290 OA
ATOM     21  H12 UNL     1       2.437  10.449  23.552  1.00  0.00     0.156 HD
ATOM     22  H11 UNL     1       1.492   9.773  22.459  1.00  0.00     0.156 HD
BRANCH   8  23
HETATM   23  C9  UNL     1       8.580   8.661  19.888  1.00  0.00     0.186 C 
HETATM   24  O1  UNL     1       8.448   9.279  18.804  1.00  0.00    -0.647 OA
HETATM   25  O2  UNL     1       9.630   8.947  20.713  1.00  0.00    -0.647 OA
ENDBRANCH   8  23
BRANCH  12  26
HETATM   26  C15 UNL     1       5.198  10.256  21.120  1.00  0.00     0.097 C 
HETATM   27 BR1  UNL     1       6.606  11.598  21.068  1.00  0.00    -0.096 Br
ENDBRANCH  12  26
BRANCH  15  28
HETATM   28  C17 UNL     1       4.842   9.383  24.357  1.00  0.00     0.189 C 
HETATM   29  O3  UNL     1       5.974   9.769  24.798  1.00  0.00    -0.647 OA
HETATM   30  O4  UNL     1       3.759   9.617  25.174  1.00  0.00    -0.647 OA
ENDBRANCH  15  28
BRANCH  13  31
HETATM   31  C20 UNL     1       4.325   5.624  21.390  1.00  0.00    -0.006 C 
HETATM   32  C21 UNL     1       4.446   5.151  19.965  1.00  0.00     0.011 C 
HETATM   33  C22 UNL     1       4.996   4.622  22.301  1.00  0.00     0.011 C 
ENDBRANCH  13  31
ENDBRANCH   7   8
ENDBRANCH   5   6
ENDBRANCH   3   4
TORSDOF 7
ENDMDL
MODEL 2
REMARK VINA RESULT: -7.636661212      0.997      1.104
REMARK  7 active torsions:
REMARK  status: ('A' for Active; 'I' for Inactive)
REMARK    1  A    between atoms: C3_3  and  C4_4 
REMARK    2  A    between atoms: C5_5  and  C6_6 
REMARK    3  A    between atoms: C7_7  and  C8_8 
REMARK    4  A    between atoms: C8_8  and  C9_9 
REMARK    5  A    between atoms: C14_16  and  C15_17 
REMARK    6  A    between atoms: C16_19  and  C17_20 
REMARK    7  A    between atoms: C19_24  and  C20_25 
ROOT
HETATM    1  C1  UNL     1      11.118  -0.995  17.868  1.00  0.00     0.113 C 
HETATM    2  C2  UNL     1      10.418   0.276  18.032  1.00  0.00    -0.097 C 
HETATM    3  C3  UNL     1       9.847   1.329  18.182  1.00  0.00    -0.015 C 
ENDROOT
BRANCH   3   4
HETATM    4  C4  UNL     1       9.161   2.560  18.376  1.00  0.00    -0.011 C 
HETATM    5  C5  UNL     1       8.559   3.600  18.549  1.00  0.00    -0.065 C 
BRANCH   5   6
HETATM    6  C6  UNL     1       7.833   4.813  18.762  1.00  0.00     0.062 C 
HETATM    7  C7  UNL     1       8.126   5.641  19.715  1.00  0.00     0.003 C 
BRANCH   7   8
HETATM    8  C8  UNL     1       7.411   6.914  19.985  1.00  0.00     0.072 A 
HETATM    9  C10 UNL     1       6.008   6.999  19.467  1.00  0.00     0.037 A 
HETATM   10  C11 UNL     1       5.477   6.887  20.812  1.00  0.00    -0.008 A 
HETATM   11  C12 UNL     1       6.850   6.868  21.373  1.00  0.00     0.020 A 
HETATM   12  C14 UNL     1       5.239   8.169  21.614  1.00  0.00     0.002 C 
HETATM   13  C19 UNL     1       4.439   6.020  21.260  1.00  0.00     0.040 C 
HETATM   14  C13 UNL     1       6.683   8.240  21.959  1.00  0.00     0.020 C 
HETATM   15  C16 UNL     1       4.304   7.760  22.692  1.00  0.00     0.104 C 
HETATM   16  C18 UNL     1       4.530   6.238  22.788  1.00  0.00     0.047 C 
HETATM   17  C24 UNL     1       2.942   7.712  22.040  1.00  0.00     0.070 C 
HETATM   18  C23 UNL     1       3.085   6.645  21.066  1.00  0.00     0.182 C 
HETATM   19  N1  UNL     1       1.960   8.472  22.340  1.00  0.00    -0.398 N 
HETATM   20  O5  UNL     1       2.197   6.337  20.227  1.00  0.00    -0.290 OA
ATOM     21  H12 UNL     1       1.858   9.221  23.024  1.00  0.00     0.156 HD
ATOM     22  H11 UNL     1       1.040   8.440  21.900  1.00  0.00     0.156 HD
BRANCH   8  23
HETATM   23  C9  UNL     1       8.317   8.038  19.669  1.00  0.00     0.186 C 
HETATM   24  O1  UNL     1       7.995   8.820  18.742  1.00  0.00    -0.647 OA
HETATM   25  O2  UNL     1       9.480   8.240  20.357  1.00  0.00    -0.647 OA
ENDBRANCH   8  23
BRANCH  12  26
HETATM   26  C15 UNL     1       4.735   9.289  20.722  1.00  0.00     0.097 C 
HETATM   27 BR1  UNL     1       5.561  10.978  21.223  1.00  0.00    -0.096 Br
ENDBRANCH  12  26
BRANCH  15  28
HETATM   28  C17 UNL     1       4.320   8.420  23.953  1.00  0.00     0.189 C 
HETATM   29  O3  UNL     1       3.907   9.617  24.096  1.00  0.00    -0.647 OA
HETATM   30  O4  UNL     1       4.782   7.796  25.090  1.00  0.00    -0.647 OA
ENDBRANCH  15  28
BRANCH  13  31
HETATM   31  C20 UNL     1       4.332   4.594  21.025  1.00  0.00    -0.006 C 
HETATM   32  C21 UNL     1       4.322   4.144  19.589  1.00  0.00     0.011 C 
HETATM   33  C22 UNL     1       5.246   3.690  21.820  1.00  0.00     0.011 C 
ENDBRANCH  13  31
ENDBRANCH   7   8
ENDBRANCH   5   6
ENDBRANCH   3   4
TORSDOF 7
ENDMDL
MODEL 3
REMARK VINA RESULT: -7.549336442      5.468      8.852
REMARK  7 active torsions:
REMARK  status: ('A' for Active; 'I' for Inactive)
REMARK    1  A    between atoms: C3_3  and  C4_4 
REMARK    2  A    between atoms: C5_5  and  C6_6 
REMARK    3  A    between atoms: C7_7  and  C8_8 
REMARK    4  A    between atoms: C8_8  and  C9_9 
REMARK    5  A    between atoms: C14_16  and  C15_17 
REMARK    6  A    between atoms: C16_19  and  C17_20 
REMARK    7  A    between atoms: C19_24  and  C20_25 
ROOT
HETATM    1  C1  UNL     1       9.099   9.005  24.066  1.00  0.00     0.113 C 
HETATM    2  C2  UNL     1       8.634   8.102  23.017  1.00  0.00    -0.097 C 
HETATM    3  C3  UNL     1       8.263   7.360  22.141  1.00  0.00    -0.015 C 
ENDROOT
BRANCH   3   4
HETATM    4  C4  UNL     1       7.821   6.503  21.094  1.00  0.00    -0.011 C 
HETATM    5  C5  UNL     1       7.428   5.786  20.197  1.00  0.00    -0.065 C 
BRANCH   5   6
HETATM    6  C6  UNL     1       6.950   4.957  19.135  1.00  0.00     0.062 C 
HETATM    7  C7  UNL     1       7.335   5.109  17.906  1.00  0.00     0.003 C 
BRANCH   7   8
HETATM    8  C8  UNL     1       6.876   4.282  16.763  1.00  0.00     0.072 A 
HETATM    9  C10 UNL     1       7.812   3.199  16.320  1.00  0.00     0.037 A 
HETATM   10  C11 UNL     1       6.942   2.183  16.881  1.00  0.00    -0.008 A 
HETATM   11  C12 UNL     1       5.956   3.217  17.276  1.00  0.00     0.020 A 
HETATM   12  C14 UNL     1       5.854   1.579  15.990  1.00  0.00     0.002 C 
HETATM   13  C19 UNL     1       7.315   1.098  17.725  1.00  0.00     0.040 C 
HETATM   14  C13 UNL     1       4.983   2.760  16.227  1.00  0.00     0.020 C 
HETATM   15  C16 UNL     1       5.480   0.315  16.671  1.00  0.00     0.104 C 
HETATM   16  C18 UNL     1       5.922   0.561  18.127  1.00  0.00     0.047 C 
HETATM   17  C24 UNL     1       6.565  -0.671  16.303  1.00  0.00     0.070 C 
HETATM   18  C23 UNL     1       7.747  -0.097  16.920  1.00  0.00     0.182 C 
HETATM   19  N1  UNL     1       6.389  -1.729  15.610  1.00  0.00    -0.398 N 
HETATM   20  O5  UNL     1       8.910  -0.560  16.774  1.00  0.00    -0.290 OA
ATOM     21  H12 UNL     1       5.558  -2.132  15.176  1.00  0.00     0.156 HD
ATOM     22  H11 UNL     1       7.121  -2.394  15.362  1.00  0.00     0.156 HD
BRANCH   8  23
HETATM   23  C9  UNL     1       6.340   5.179  15.718  1.00  0.00     0.186 C 
HETATM   24  O1  UNL     1       5.533   6.077  16.060  1.00  0.00    -0.647 OA
HETATM   25  O2  UNL     1       6.702   5.052  14.406  1.00  0.00    -0.647 OA
ENDBRANCH   8  23
BRANCH  12  26
HETATM   26  C15 UNL     1       6.341   1.416  14.561  1.00  0.00     0.097 C 
HETATM   27 BR1  UNL     1       4.902   1.795  13.307  1.00  0.00    -0.096 Br
ENDBRANCH  12  26
BRANCH  15  28
HETATM   28  C17 UNL     1       4.160  -0.207  16.557  1.00  0.00     0.189 C 
HETATM   29  O3  UNL     1       3.732  -0.735  15.478  1.00  0.00    -0.647 OA
HETATM   30  O4  UNL     1       3.274  -0.172  17.610  1.00  0.00    -0.647 OA
ENDBRANCH  15  28
BRANCH  13  31
HETATM   31  C20 UNL     1       8.123   1.166  18.927  1.00  0.00    -0.006 C 
HETATM   32  C21 UNL     1       9.340   2.050  18.874  1.00  0.00     0.011 C 
HETATM   33  C22 UNL     1       7.401   1.397  20.235  1.00  0.00     0.011 C 
ENDBRANCH  13  31
ENDBRANCH   7   8
ENDBRANCH   5   6
ENDBRANCH   3   4
TORSDOF 7
ENDMDL
MODEL 4
REMARK VINA RESULT: -7.538053648      4.685      8.636
REMARK  7 active torsions:
REMARK  status: ('A' for Active; 'I' for Inactive)
REMARK    1  A    between atoms: C3_3  and  C4_4 
REMARK    2  A    between atoms: C5_5  and  C6_6 
REMARK    3  A    between atoms: C7_7  and  C8_8 
REMARK    4  A    between atoms: C8_8  and  C9_9 
REMARK    5  A    between atoms: C14_16  and  C15_17 
REMARK    6  A    between atoms: C16_19  and  C17_20 
REMARK    7  A    between atoms: C19_24  and  C20_25 
ROOT
HETATM    1  C1  UNL     1       3.339   9.984  25.846  1.00  0.00     0.113 C 
HETATM    2  C2  UNL     1       3.592   8.899  24.902  1.00  0.00    -0.097 C 
HETATM    3  C3  UNL     1       3.809   8.013  24.113  1.00  0.00    -0.015 C 
ENDROOT
BRANCH   3   4
HETATM    4  C4  UNL     1       4.051   6.979  23.165  1.00  0.00    -0.011 C 
HETATM    5  C5  UNL     1       4.268   6.110  22.346  1.00  0.00    -0.065 C 
BRANCH   5   6
HETATM    6  C6  UNL     1       4.539   5.100  21.371  1.00  0.00     0.062 C 
HETATM    7  C7  UNL     1       5.052   3.951  21.683  1.00  0.00     0.003 C 
BRANCH   7   8
HETATM    8  C8  UNL     1       5.354   2.865  20.717  1.00  0.00     0.072 A 
HETATM    9  C10 UNL     1       5.183   3.210  19.269  1.00  0.00     0.037 A 
HETATM   10  C11 UNL     1       6.620   3.229  19.077  1.00  0.00    -0.008 A 
HETATM   11  C12 UNL     1       6.833   2.821  20.487  1.00  0.00     0.020 A 
HETATM   12  C14 UNL     1       7.320   1.932  18.664  1.00  0.00     0.002 C 
HETATM   13  C19 UNL     1       7.391   4.239  18.431  1.00  0.00     0.040 C 
HETATM   14  C13 UNL     1       7.299   1.455  20.072  1.00  0.00     0.020 C 
HETATM   15  C16 UNL     1       8.627   2.376  18.120  1.00  0.00     0.104 C 
HETATM   16  C18 UNL     1       8.822   3.761  18.770  1.00  0.00     0.047 C 
HETATM   17  C24 UNL     1       8.330   2.860  16.720  1.00  0.00     0.070 C 
HETATM   18  C23 UNL     1       7.465   4.003  16.948  1.00  0.00     0.182 C 
HETATM   19  N1  UNL     1       8.778   2.326  15.650  1.00  0.00    -0.398 N 
HETATM   20  O5  UNL     1       6.900   4.651  16.026  1.00  0.00    -0.290 OA
ATOM     21  H12 UNL     1       9.386   1.523  15.489  1.00  0.00     0.156 HD
ATOM     22  H11 UNL     1       8.578   2.652  14.705  1.00  0.00     0.156 HD
BRANCH   8  23
HETATM   23  C9  UNL     1       4.717   1.620  21.194  1.00  0.00     0.186 C 
HETATM   24  O1  UNL     1       4.862   1.300  22.398  1.00  0.00    -0.647 OA
HETATM   25  O2  UNL     1       3.983   0.823  20.361  1.00  0.00    -0.647 OA
ENDBRANCH   8  23
BRANCH  12  26
HETATM   26  C15 UNL     1       6.466   1.128  17.701  1.00  0.00     0.097 C 
HETATM   27 BR1  UNL     1       7.408  -0.477  17.136  1.00  0.00    -0.096 Br
ENDBRANCH  12  26
BRANCH  15  28
HETATM   28  C17 UNL     1       9.773   1.537  18.212  1.00  0.00     0.189 C 
HETATM   29  O3  UNL     1      10.940   1.948  17.900  1.00  0.00    -0.647 OA
HETATM   30  O4  UNL     1       9.684   0.235  18.649  1.00  0.00    -0.647 OA
ENDBRANCH  15  28
BRANCH  13  31
HETATM   31  C20 UNL     1       7.336   5.666  18.674  1.00  0.00    -0.006 C 
HETATM   32  C21 UNL     1       6.028   6.353  18.380  1.00  0.00     0.011 C 
HETATM   33  C22 UNL     1       7.869   6.165  19.998  1.00  0.00     0.011 C 
ENDBRANCH  13  31
ENDBRANCH   7   8
ENDBRANCH   5   6
ENDBRANCH   3   4
TORSDOF 7
ENDMDL
MODEL 5
REMARK VINA RESULT: -7.229795260      2.318      3.443
REMARK  7 active torsions:
REMARK  status: ('A' for Active; 'I' for Inactive)
REMARK    1  A    between atoms: C3_3  and  C4_4 
REMARK    2  A    between atoms: C5_5  and  C6_6 
REMARK    3  A    between atoms: C7_7  and  C8_8 
REMARK    4  A    between atoms: C8_8  and  C9_9 
REMARK    5  A    between atoms: C14_16  and  C15_17 
REMARK    6  A    between atoms: C16_19  and  C17_20 
REMARK    7  A    between atoms: C19_24  and  C20_25 
ROOT
HETATM    1  C1  UNL     1      10.959  -0.904  17.906  1.00  0.00     0.113 C 
HETATM    2  C2  UNL     1      10.268   0.377  18.024  1.00  0.00    -0.097 C 
HETATM    3  C3  UNL     1       9.689   1.432  18.107  1.00  0.00    -0.015 C 
ENDROOT
BRANCH   3   4
HETATM    4  C4  UNL     1       9.020   2.686  18.187  1.00  0.00    -0.011 C 
HETATM    5  C5  UNL     1       8.444   3.753  18.236  1.00  0.00    -0.065 C 
BRANCH   5   6
HETATM    6  C6  UNL     1       7.754   5.005  18.273  1.00  0.00     0.062 C 
HETATM    7  C7  UNL     1       6.633   5.201  17.653  1.00  0.00     0.003 C 
BRANCH   7   8
HETATM    8  C8  UNL     1       5.872   6.475  17.654  1.00  0.00     0.072 A 
HETATM    9  C10 UNL     1       4.834   6.616  18.724  1.00  0.00     0.037 A 
HETATM   10  C11 UNL     1       5.657   7.578  19.433  1.00  0.00    -0.008 A 
HETATM   11  C12 UNL     1       6.680   7.519  18.361  1.00  0.00     0.020 A 
HETATM   12  C14 UNL     1       5.493   9.064  19.104  1.00  0.00     0.002 C 
HETATM   13  C19 UNL     1       5.980   7.581  20.820  1.00  0.00     0.040 C 
HETATM   14  C13 UNL     1       6.341   8.906  17.894  1.00  0.00     0.020 C 
HETATM   15  C16 UNL     1       6.094   9.766  20.266  1.00  0.00     0.104 C 
HETATM   16  C18 UNL     1       7.041   8.704  20.860  1.00  0.00     0.047 C 
HETATM   17  C24 UNL     1       5.042   9.715  21.349  1.00  0.00     0.070 C 
HETATM   18  C23 UNL     1       4.927   8.294  21.624  1.00  0.00     0.182 C 
HETATM   19  N1  UNL     1       4.449  10.733  21.842  1.00  0.00    -0.398 N 
HETATM   20  O5  UNL     1       4.076   7.797  22.409  1.00  0.00    -0.290 OA
ATOM     21  H12 UNL     1       4.529  11.731  21.650  1.00  0.00     0.156 HD
ATOM     22  H11 UNL     1       3.739  10.699  22.573  1.00  0.00     0.156 HD
BRANCH   8  23
HETATM   23  C9  UNL     1       5.458   6.777  16.268  1.00  0.00     0.186 C 
HETATM   24  O1  UNL     1       4.261   7.091  16.059  1.00  0.00    -0.647 OA
HETATM   25  O2  UNL     1       6.340   6.722  15.226  1.00  0.00    -0.647 OA
ENDBRANCH   8  23
BRANCH  12  26
HETATM   26  C15 UNL     1       4.040   9.409  18.830  1.00  0.00     0.097 C 
HETATM   27 BR1  UNL     1       3.904  10.602  17.300  1.00  0.00    -0.096 Br
ENDBRANCH  12  26
BRANCH  15  28
HETATM   28  C17 UNL     1       6.699  11.044  20.105  1.00  0.00     0.189 C 
HETATM   29  O3  UNL     1       6.048  12.052  19.673  1.00  0.00    -0.647 OA
HETATM   30  O4  UNL     1       8.023  11.262  20.413  1.00  0.00    -0.647 OA
ENDBRANCH  15  28
BRANCH  13  31
HETATM   31  C20 UNL     1       6.487   6.469  21.600  1.00  0.00    -0.006 C 
HETATM   32  C21 UNL     1       5.835   5.131  21.374  1.00  0.00     0.011 C 
HETATM   33  C22 UNL     1       7.987   6.286  21.650  1.00  0.00     0.011 C 
ENDBRANCH  13  31
ENDBRANCH   7   8
ENDBRANCH   5   6
ENDBRANCH   3   4
TORSDOF 7
ENDMDL
