MODEL 1
REMARK VINA RESULT: -7.910415702      0.000      0.000
REMARK  9 active torsions:
REMARK  status: ('A' for Active; 'I' for Inactive)
REMARK    1  A    between atoms: C3_3  and  O1_4 
REMARK    2  A    between atoms: C7_11  and  C8_12 
REMARK    3  A    between atoms: C11_16  and  O5_17 
REMARK    4  A    between atoms: C11_16  and  C12_19 
REMARK    5  A    between atoms: C15_22  and  O6_23 
REMARK    6  A    between atoms: C16_25  and  O7_26 
REMARK    7  A    between atoms: C17_28  and  C18_29 
REMARK    8  A    between atoms: C22_33  and  O8_34 
REMARK    9  A    between atoms: C23_36  and  O9_37 
ROOT
HETATM    1  C1  UNL     1      10.596  -7.431  21.850  1.00  0.00     0.020 C 
HETATM    2  C2  UNL     1      11.681  -7.267  22.572  1.00  0.00    -0.024 C 
HETATM    3  C3  UNL     1      12.765  -8.266  22.739  1.00  0.00     0.290 C 
HETATM    4  O2  UNL     1      13.096  -8.109  24.084  1.00  0.00    -0.327 OA
HETATM    5  C4  UNL     1      13.239  -6.697  24.149  1.00  0.00     0.275 C 
HETATM    6  O3  UNL     1      13.729  -6.190  25.244  1.00  0.00    -0.346 OA
HETATM    7  C5  UNL     1      13.130  -6.329  26.512  1.00  0.00     0.098 C 
HETATM    8  C6  UNL     1      13.522  -7.724  26.969  1.00  0.00     0.050 C 
HETATM    9  C7  UNL     1      13.749  -5.264  27.325  1.00  0.00     0.188 C 
HETATM   10  O4  UNL     1      13.104  -4.596  28.247  1.00  0.00    -0.339 OA
HETATM   11  C11 UNL     1      12.207  -3.588  28.055  1.00  0.00     0.200 C 
HETATM   12  C15 UNL     1      10.885  -4.143  27.777  1.00  0.00     0.151 C 
HETATM   13  C16 UNL     1      10.843  -5.470  28.498  1.00  0.00     0.169 C 
HETATM   14  C17 UNL     1      10.601  -6.116  27.151  1.00  0.00     0.014 C 
HETATM   15  C21 UNL     1      11.704  -6.349  26.265  1.00  0.00     0.073 C 
HETATM   16  C22 UNL     1      11.402  -5.113  25.467  1.00  0.00     0.103 C 
HETATM   17  C23 UNL     1      10.949  -5.524  24.125  1.00  0.00     0.167 C 
HETATM   18  C24 UNL     1      12.123  -6.098  23.390  1.00  0.00     0.106 C 
HETATM   19  C25 UNL     1      10.467  -4.805  26.567  1.00  0.00     0.040 C 
HETATM   20  C26 UNL     1       9.176  -4.314  25.990  1.00  0.00     0.023 C 
ENDROOT
BRANCH  11  21
HETATM   21  O5  UNL     1      12.633  -2.480  27.365  1.00  0.00    -0.363 OA
ATOM     22  H5  UNL     1      12.626  -1.647  27.821  1.00  0.00     0.213 HD
ENDBRANCH  11  21
BRANCH  11  23
HETATM   23  C12 UNL     1      12.168  -2.984  29.491  1.00  0.00     0.043 C 
HETATM   24  C13 UNL     1      11.656  -1.598  29.569  1.00  0.00     0.015 C 
HETATM   25  C14 UNL     1      13.664  -2.871  29.854  1.00  0.00     0.015 C 
ENDBRANCH  11  23
BRANCH  12  26
HETATM   26  O6  UNL     1       9.830  -3.325  28.257  1.00  0.00    -0.381 OA
ATOM     27  H6  UNL     1       8.970  -3.677  28.059  1.00  0.00     0.211 HD
ENDBRANCH  12  26
BRANCH   9  28
HETATM   28  C8  UNL     1      14.976  -5.876  27.999  1.00  0.00    -0.061 C 
HETATM   29  C9  UNL     1      14.945  -6.239  29.269  1.00  0.00     0.016 C 
HETATM   30  C10 UNL     1      16.256  -6.086  27.269  1.00  0.00     0.045 C 
ENDBRANCH   9  28
BRANCH  13  31
HETATM   31  O7  UNL     1       9.788  -5.562  29.411  1.00  0.00    -0.391 OA
ATOM     32  H7  UNL     1       9.197  -6.282  29.224  1.00  0.00     0.210 HD
ENDBRANCH  13  31
BRANCH  14  33
HETATM   33  C18 UNL     1       9.562  -7.138  27.381  1.00  0.00    -0.010 C 
HETATM   34  C19 UNL     1      10.086  -8.324  28.203  1.00  0.00     0.010 C 
HETATM   35  C20 UNL     1       8.799  -7.745  26.275  1.00  0.00     0.010 C 
ENDBRANCH  14  33
BRANCH  16  36
HETATM   36  O8  UNL     1      12.427  -4.237  25.195  1.00  0.00    -0.386 OA
ATOM     37  H8  UNL     1      12.771  -4.199  24.310  1.00  0.00     0.210 HD
ENDBRANCH  16  36
BRANCH  17  38
HETATM   38  O9  UNL     1      10.544  -4.311  23.491  1.00  0.00    -0.392 OA
ATOM     39  H9  UNL     1      11.204  -4.154  22.826  1.00  0.00     0.210 HD
ENDBRANCH  17  38
BRANCH   3  40
HETATM   40  O1  UNL     1      12.365  -9.559  22.433  1.00  0.00    -0.367 OA
ATOM     41  H1  UNL     1      12.936  -9.987  21.806  1.00  0.00     0.213 HD
ENDBRANCH   3  40
TORSDOF 9
ENDMDL
MODEL 2
REMARK VINA RESULT: -6.760146626      1.960      6.290
REMARK  9 active torsions:
REMARK  status: ('A' for Active; 'I' for Inactive)
REMARK    1  A    between atoms: C3_3  and  O1_4 
REMARK    2  A    between atoms: C7_11  and  C8_12 
REMARK    3  A    between atoms: C11_16  and  O5_17 
REMARK    4  A    between atoms: C11_16  and  C12_19 
REMARK    5  A    between atoms: C15_22  and  O6_23 
REMARK    6  A    between atoms: C16_25  and  O7_26 
REMARK    7  A    between atoms: C17_28  and  C18_29 
REMARK    8  A    between atoms: C22_33  and  O8_34 
REMARK    9  A    between atoms: C23_36  and  O9_37 
ROOT
HETATM    1  C1  UNL     1      12.126  -1.106  24.931  1.00  0.00     0.020 C 
HETATM    2  C2  UNL     1      11.456  -2.085  25.498  1.00  0.00    -0.024 C 
HETATM    3  C3  UNL     1      11.288  -2.281  26.958  1.00  0.00     0.290 C 
HETATM    4  O2  UNL     1      11.386  -3.667  27.075  1.00  0.00    -0.327 OA
HETATM    5  C4  UNL     1      10.474  -4.074  26.063  1.00  0.00     0.275 C 
HETATM    6  O3  UNL     1      10.169  -5.338  26.000  1.00  0.00    -0.346 OA
HETATM    7  C5  UNL     1      11.107  -6.364  25.765  1.00  0.00     0.098 C 
HETATM    8  C6  UNL     1      11.778  -6.582  27.110  1.00  0.00     0.050 C 
HETATM    9  C7  UNL     1      10.287  -7.515  25.340  1.00  0.00     0.188 C 
HETATM   10  O4  UNL     1      10.675  -8.380  24.437  1.00  0.00    -0.339 OA
HETATM   11  C11 UNL     1      10.691  -8.206  23.085  1.00  0.00     0.200 C 
HETATM   12  C15 UNL     1      11.909  -7.505  22.687  1.00  0.00     0.151 C 
HETATM   13  C16 UNL     1      12.950  -7.885  23.715  1.00  0.00     0.169 C 
HETATM   14  C17 UNL     1      13.071  -6.411  24.036  1.00  0.00     0.014 C 
HETATM   15  C21 UNL     1      12.099  -5.785  24.885  1.00  0.00     0.073 C 
HETATM   16  C22 UNL     1      11.343  -5.230  23.711  1.00  0.00     0.103 C 
HETATM   17  C23 UNL     1      11.485  -3.762  23.717  1.00  0.00     0.167 C 
HETATM   18  C24 UNL     1      10.710  -3.222  24.881  1.00  0.00     0.106 C 
HETATM   19  C25 UNL     1      12.215  -6.115  22.914  1.00  0.00     0.040 C 
HETATM   20  C26 UNL     1      12.701  -5.369  21.711  1.00  0.00     0.023 C 
ENDROOT
BRANCH  11  21
HETATM   21  O5  UNL     1       9.503  -7.899  22.469  1.00  0.00    -0.363 OA
ATOM     22  H5  UNL     1       9.294  -6.980  22.348  1.00  0.00     0.213 HD
ENDBRANCH  11  21
BRANCH  11  23
HETATM   23  C12 UNL     1      10.832  -9.688  22.625  1.00  0.00     0.043 C 
HETATM   24  C13 UNL     1      10.503  -9.931  21.203  1.00  0.00     0.015 C 
HETATM   25  C14 UNL     1       9.713 -10.399  23.414  1.00  0.00     0.015 C 
ENDBRANCH  11  23
BRANCH  12  26
HETATM   26  O6  UNL     1      12.372  -7.888  21.402  1.00  0.00    -0.381 OA
ATOM     27  H6  UNL     1      13.287  -7.675  21.260  1.00  0.00     0.211 HD
ENDBRANCH  12  26
BRANCH   9  28
HETATM   28  C8  UNL     1       9.950  -8.310  26.599  1.00  0.00    -0.061 C 
HETATM   29  C9  UNL     1      10.720  -9.305  27.003  1.00  0.00     0.016 C 
HETATM   30  C10 UNL     1       8.747  -8.013  27.424  1.00  0.00     0.045 C 
ENDBRANCH   9  28
BRANCH  13  31
HETATM   31  O7  UNL     1      14.084  -8.476  23.151  1.00  0.00    -0.391 OA
ATOM     32  H7  UNL     1      14.763  -7.847  22.937  1.00  0.00     0.210 HD
ENDBRANCH  13  31
BRANCH  14  33
HETATM   33  C18 UNL     1      14.516  -6.156  24.191  1.00  0.00    -0.010 C 
HETATM   34  C19 UNL     1      14.966  -6.240  25.656  1.00  0.00     0.010 C 
HETATM   35  C20 UNL     1      15.159  -4.939  23.661  1.00  0.00     0.010 C 
ENDBRANCH  14  33
BRANCH  16  36
HETATM   36  O8  UNL     1       9.980  -5.411  23.660  1.00  0.00    -0.386 OA
ATOM     37  H8  UNL     1       9.641  -6.294  23.575  1.00  0.00     0.210 HD
ENDBRANCH  16  36
BRANCH  17  38
HETATM   38  O9  UNL     1      10.873  -3.333  22.502  1.00  0.00    -0.392 OA
ATOM     39  H9  UNL     1      11.545  -2.828  22.059  1.00  0.00     0.210 HD
ENDBRANCH  17  38
BRANCH   3  40
HETATM   40  O1  UNL     1      12.242  -1.612  27.711  1.00  0.00    -0.367 OA
ATOM     41  H1  UNL     1      12.645  -0.889  27.245  1.00  0.00     0.213 HD
ENDBRANCH   3  40
TORSDOF 9
ENDMDL
MODEL 3
REMARK VINA RESULT: -6.695005392      2.118      5.683
REMARK  9 active torsions:
REMARK  status: ('A' for Active; 'I' for Inactive)
REMARK    1  A    between atoms: C3_3  and  O1_4 
REMARK    2  A    between atoms: C7_11  and  C8_12 
REMARK    3  A    between atoms: C11_16  and  O5_17 
REMARK    4  A    between atoms: C11_16  and  C12_19 
REMARK    5  A    between atoms: C15_22  and  O6_23 
REMARK    6  A    between atoms: C16_25  and  O7_26 
REMARK    7  A    between atoms: C17_28  and  C18_29 
REMARK    8  A    between atoms: C22_33  and  O8_34 
REMARK    9  A    between atoms: C23_36  and  O9_37 
ROOT
HETATM    1  C1  UNL     1       9.543  -8.409  29.284  1.00  0.00     0.020 C 
HETATM    2  C2  UNL     1       9.276  -8.572  28.008  1.00  0.00    -0.024 C 
HETATM    3  C3  UNL     1       9.077  -9.875  27.328  1.00  0.00     0.290 C 
HETATM    4  O2  UNL     1       9.710  -9.660  26.104  1.00  0.00    -0.327 OA
HETATM    5  C4  UNL     1       9.127  -8.419  25.728  1.00  0.00     0.275 C 
HETATM    6  O3  UNL     1       9.358  -7.985  24.523  1.00  0.00    -0.346 OA
HETATM    7  C5  UNL     1      10.644  -7.691  24.026  1.00  0.00     0.098 C 
HETATM    8  C6  UNL     1      11.230  -9.045  23.662  1.00  0.00     0.050 C 
HETATM    9  C7  UNL     1      10.391  -6.840  22.847  1.00  0.00     0.188 C 
HETATM   10  O4  UNL     1      11.168  -5.845  22.499  1.00  0.00    -0.339 OA
HETATM   11  C11 UNL     1      11.227  -4.610  23.071  1.00  0.00     0.200 C 
HETATM   12  C15 UNL     1      12.092  -4.646  24.248  1.00  0.00     0.151 C 
HETATM   13  C16 UNL     1      13.107  -5.731  23.971  1.00  0.00     0.169 C 
HETATM   14  C17 UNL     1      12.601  -6.426  25.216  1.00  0.00     0.014 C 
HETATM   15  C21 UNL     1      11.393  -7.196  25.161  1.00  0.00     0.073 C 
HETATM   16  C22 UNL     1      10.580  -6.072  25.739  1.00  0.00     0.103 C 
HETATM   17  C23 UNL     1      10.123  -6.471  27.083  1.00  0.00     0.167 C 
HETATM   18  C24 UNL     1       9.101  -7.557  26.926  1.00  0.00     0.106 C 
HETATM   19  C25 UNL     1      11.797  -5.268  25.514  1.00  0.00     0.040 C 
HETATM   20  C26 UNL     1      12.044  -4.407  26.714  1.00  0.00     0.023 C 
ENDROOT
BRANCH  11  21
HETATM   21  O5  UNL     1      10.071  -3.868  23.105  1.00  0.00    -0.363 OA
ATOM     22  H5  UNL     1      10.088  -3.049  23.585  1.00  0.00     0.213 HD
ENDBRANCH  11  21
BRANCH  11  23
HETATM   23  C12 UNL     1      11.987  -3.832  21.955  1.00  0.00     0.043 C 
HETATM   24  C13 UNL     1      11.328  -2.584  21.509  1.00  0.00     0.015 C 
HETATM   25  C14 UNL     1      11.884  -4.784  20.745  1.00  0.00     0.015 C 
ENDBRANCH  11  23
BRANCH  12  26
HETATM   26  O6  UNL     1      12.776  -3.423  24.469  1.00  0.00    -0.381 OA
ATOM     27  H6  UNL     1      13.385  -3.467  25.196  1.00  0.00     0.211 HD
ENDBRANCH  12  26
BRANCH   9  28
HETATM   28  C8  UNL     1      10.296  -7.770  21.640  1.00  0.00    -0.061 C 
HETATM   29  C9  UNL     1      11.321  -7.934  20.823  1.00  0.00     0.016 C 
HETATM   30  C10 UNL     1       9.054  -8.527  21.320  1.00  0.00     0.045 C 
ENDBRANCH   9  28
BRANCH  13  31
HETATM   31  O7  UNL     1      14.426  -5.271  24.027  1.00  0.00    -0.391 OA
ATOM     32  H7  UNL     1      14.995  -5.840  24.533  1.00  0.00     0.210 HD
ENDBRANCH  13  31
BRANCH  14  33
HETATM   33  C18 UNL     1      13.805  -6.921  25.911  1.00  0.00    -0.010 C 
HETATM   34  C19 UNL     1      14.556  -7.978  25.090  1.00  0.00     0.010 C 
HETATM   35  C20 UNL     1      13.753  -7.464  27.281  1.00  0.00     0.010 C 
ENDBRANCH  14  33
BRANCH  16  36
HETATM   36  O8  UNL     1       9.412  -5.711  25.107  1.00  0.00    -0.386 OA
ATOM     37  H8  UNL     1       8.862  -5.049  25.510  1.00  0.00     0.210 HD
ENDBRANCH  16  36
BRANCH  17  38
HETATM   38  O9  UNL     1       9.495  -5.305  27.614  1.00  0.00    -0.392 OA
ATOM     39  H9  UNL     1       9.945  -5.142  28.435  1.00  0.00     0.210 HD
ENDBRANCH  17  38
BRANCH   3  40
HETATM   40  O1  UNL     1       9.616 -10.943  28.030  1.00  0.00    -0.367 OA
ATOM     41  H1  UNL     1       9.004 -11.659  28.146  1.00  0.00     0.213 HD
ENDBRANCH   3  40
TORSDOF 9
ENDMDL
MODEL 4
REMARK VINA RESULT: -6.673243438     18.151     21.714
REMARK  9 active torsions:
REMARK  status: ('A' for Active; 'I' for Inactive)
REMARK    1  A    between atoms: C3_3  and  O1_4 
REMARK    2  A    between atoms: C7_11  and  C8_12 
REMARK    3  A    between atoms: C11_16  and  O5_17 
REMARK    4  A    between atoms: C11_16  and  C12_19 
REMARK    5  A    between atoms: C15_22  and  O6_23 
REMARK    6  A    between atoms: C16_25  and  O7_26 
REMARK    7  A    between atoms: C17_28  and  C18_29 
REMARK    8  A    between atoms: C22_33  and  O8_34 
REMARK    9  A    between atoms: C23_36  and  O9_37 
ROOT
HETATM    1  C1  UNL     1      25.850 -19.087  14.631  1.00  0.00     0.020 C 
HETATM    2  C2  UNL     1      25.096 -18.014  14.718  1.00  0.00    -0.024 C 
HETATM    3  C3  UNL     1      23.618 -17.987  14.606  1.00  0.00     0.290 C 
HETATM    4  O2  UNL     1      23.405 -16.813  13.885  1.00  0.00    -0.327 OA
HETATM    5  C4  UNL     1      24.206 -15.906  14.630  1.00  0.00     0.275 C 
HETATM    6  O3  UNL     1      24.111 -14.640  14.342  1.00  0.00    -0.346 OA
HETATM    7  C5  UNL     1      24.419 -14.094  13.080  1.00  0.00     0.098 C 
HETATM    8  C6  UNL     1      23.197 -14.392  12.228  1.00  0.00     0.050 C 
HETATM    9  C7  UNL     1      24.598 -12.653  13.341  1.00  0.00     0.188 C 
HETATM   10  O4  UNL     1      25.480 -11.914  12.717  1.00  0.00    -0.339 OA
HETATM   11  C11 UNL     1      26.824 -11.871  12.941  1.00  0.00     0.200 C 
HETATM   12  C15 UNL     1      27.484 -12.959  12.223  1.00  0.00     0.151 C 
HETATM   13  C16 UNL     1      26.624 -13.222  11.009  1.00  0.00     0.169 C 
HETATM   14  C17 UNL     1      26.452 -14.635  11.524  1.00  0.00     0.014 C 
HETATM   15  C21 UNL     1      25.503 -14.904  12.564  1.00  0.00     0.073 C 
HETATM   16  C22 UNL     1      26.569 -14.895  13.622  1.00  0.00     0.103 C 
HETATM   17  C23 UNL     1      26.710 -16.264  14.153  1.00  0.00     0.167 C 
HETATM   18  C24 UNL     1      25.478 -16.588  14.944  1.00  0.00     0.106 C 
HETATM   19  C25 UNL     1      27.429 -14.361  12.548  1.00  0.00     0.040 C 
HETATM   20  C26 UNL     1      28.757 -15.052  12.594  1.00  0.00     0.023 C 
ENDROOT
BRANCH  11  21
HETATM   21  O5  UNL     1      27.247 -11.540  14.205  1.00  0.00    -0.363 OA
ATOM     22  H5  UNL     1      27.420 -12.251  14.812  1.00  0.00     0.213 HD
ENDBRANCH  11  21
BRANCH  11  23
HETATM   23  C12 UNL     1      27.177 -10.543  12.207  1.00  0.00     0.043 C 
HETATM   24  C13 UNL     1      28.383  -9.853  12.716  1.00  0.00     0.015 C 
HETATM   25  C14 UNL     1      26.004  -9.617  12.592  1.00  0.00     0.015 C 
ENDBRANCH  11  23
BRANCH  12  26
HETATM   26  O6  UNL     1      28.794 -12.622  11.795  1.00  0.00    -0.381 OA
ATOM     27  H6  UNL     1      29.356 -12.346  12.509  1.00  0.00     0.211 HD
ENDBRANCH  12  26
BRANCH   9  28
HETATM   28  C8  UNL     1      23.238 -11.991  13.134  1.00  0.00    -0.061 C 
HETATM   29  C9  UNL     1      22.377 -11.878  14.129  1.00  0.00     0.016 C 
HETATM   30  C10 UNL     1      22.815 -11.451  11.813  1.00  0.00     0.045 C 
ENDBRANCH   9  28
BRANCH  13  31
HETATM   31  O7  UNL     1      27.326 -13.098   9.806  1.00  0.00    -0.391 OA
ATOM     32  H7  UNL     1      26.845 -12.614   9.145  1.00  0.00     0.210 HD
ENDBRANCH  13  31
BRANCH  14  33
HETATM   33  C18 UNL     1      26.572 -15.507  10.339  1.00  0.00    -0.010 C 
HETATM   34  C19 UNL     1      25.204 -15.969   9.819  1.00  0.00     0.010 C 
HETATM   35  C20 UNL     1      27.413 -16.718  10.338  1.00  0.00     0.010 C 
ENDBRANCH  14  33
BRANCH  16  36
HETATM   36  O8  UNL     1      26.368 -14.141  14.755  1.00  0.00    -0.386 OA
ATOM     37  H8  UNL     1      27.000 -14.203  15.462  1.00  0.00     0.210 HD
ENDBRANCH  16  36
BRANCH  17  38
HETATM   38  O9  UNL     1      27.832 -16.199  15.032  1.00  0.00    -0.392 OA
ATOM     39  H9  UNL     1      28.257 -17.044  14.943  1.00  0.00     0.210 HD
ENDBRANCH  17  38
BRANCH   3  40
HETATM   40  O1  UNL     1      23.100 -19.107  13.972  1.00  0.00    -0.367 OA
ATOM     41  H1  UNL     1      22.151 -19.142  13.992  1.00  0.00     0.213 HD
ENDBRANCH   3  40
TORSDOF 9
ENDMDL
MODEL 5
REMARK VINA RESULT: -6.623251195     17.266     20.891
REMARK  9 active torsions:
REMARK  status: ('A' for Active; 'I' for Inactive)
REMARK    1  A    between atoms: C3_3  and  O1_4 
REMARK    2  A    between atoms: C7_11  and  C8_12 
REMARK    3  A    between atoms: C11_16  and  O5_17 
REMARK    4  A    between atoms: C11_16  and  C12_19 
REMARK    5  A    between atoms: C15_22  and  O6_23 
REMARK    6  A    between atoms: C16_25  and  O7_26 
REMARK    7  A    between atoms: C17_28  and  C18_29 
REMARK    8  A    between atoms: C22_33  and  O8_34 
REMARK    9  A    between atoms: C23_36  and  O9_37 
ROOT
HETATM    1  C1  UNL     1      25.279 -17.736  10.731  1.00  0.00     0.020 C 
HETATM    2  C2  UNL     1      25.787 -16.559  10.445  1.00  0.00    -0.024 C 
HETATM    3  C3  UNL     1      27.137 -16.317   9.880  1.00  0.00     0.290 C 
HETATM    4  O2  UNL     1      27.534 -15.169  10.565  1.00  0.00    -0.327 OA
HETATM    5  C4  UNL     1      26.387 -14.350  10.380  1.00  0.00     0.275 C 
HETATM    6  O3  UNL     1      26.470 -13.104  10.746  1.00  0.00    -0.346 OA
HETATM    7  C5  UNL     1      26.727 -12.687  12.068  1.00  0.00     0.098 C 
HETATM    8  C6  UNL     1      28.229 -12.848  12.232  1.00  0.00     0.050 C 
HETATM    9  C7  UNL     1      26.295 -11.277  12.094  1.00  0.00     0.188 C 
HETATM   10  O4  UNL     1      25.732 -10.717  13.135  1.00  0.00    -0.339 OA
HETATM   11  C11 UNL     1      24.441 -10.864  13.548  1.00  0.00     0.200 C 
HETATM   12  C15 UNL     1      24.310 -12.079  14.348  1.00  0.00     0.151 C 
HETATM   13  C16 UNL     1      25.657 -12.283  15.001  1.00  0.00     0.169 C 
HETATM   14  C17 UNL     1      25.719 -13.620  14.295  1.00  0.00     0.014 C 
HETATM   15  C21 UNL     1      26.100 -13.680  12.913  1.00  0.00     0.073 C 
HETATM   16  C22 UNL     1      24.670 -13.769  12.461  1.00  0.00     0.103 C 
HETATM   17  C23 UNL     1      24.445 -15.109  11.888  1.00  0.00     0.167 C 
HETATM   18  C24 UNL     1      25.195 -15.196  10.593  1.00  0.00     0.106 C 
HETATM   19  C25 UNL     1      24.356 -13.436  13.865  1.00  0.00     0.040 C 
HETATM   20  C26 UNL     1      23.240 -14.315  14.339  1.00  0.00     0.023 C 
ENDROOT
BRANCH  11  21
HETATM   21  O5  UNL     1      23.447 -10.526  12.664  1.00  0.00    -0.363 OA
ATOM     22  H5  UNL     1      22.835  -9.849  12.927  1.00  0.00     0.213 HD
ENDBRANCH  11  21
BRANCH  11  23
HETATM   23  C12 UNL     1      24.331  -9.650  14.520  1.00  0.00     0.043 C 
HETATM   24  C13 UNL     1      23.006  -8.991  14.543  1.00  0.00     0.015 C 
HETATM   25  C14 UNL     1      25.274  -8.611  13.877  1.00  0.00     0.015 C 
ENDBRANCH  11  23
BRANCH  12  26
HETATM   26  O6  UNL     1      23.321 -11.970  15.360  1.00  0.00    -0.381 OA
ATOM     27  H6  UNL     1      22.831 -11.158  15.310  1.00  0.00     0.211 HD
ENDBRANCH  12  26
BRANCH   9  28
HETATM   28  C8  UNL     1      27.518 -10.431  11.744  1.00  0.00    -0.061 C 
HETATM   29  C9  UNL     1      28.369 -10.044  12.678  1.00  0.00     0.016 C 
HETATM   30  C10 UNL     1      27.807  -9.998  10.349  1.00  0.00     0.045 C 
ENDBRANCH   9  28
BRANCH  13  31
HETATM   31  O7  UNL     1      25.585 -12.338  16.396  1.00  0.00    -0.391 OA
ATOM     32  H7  UNL     1      26.367 -12.703  16.793  1.00  0.00     0.210 HD
ENDBRANCH  13  31
BRANCH  14  33
HETATM   33  C18 UNL     1      26.256 -14.569  15.289  1.00  0.00    -0.010 C 
HETATM   34  C19 UNL     1      27.790 -14.619  15.274  1.00  0.00     0.010 C 
HETATM   35  C20 UNL     1      25.827 -15.979  15.340  1.00  0.00     0.010 C 
ENDBRANCH  14  33
BRANCH  16  36
HETATM   36  O8  UNL     1      24.241 -12.926  11.462  1.00  0.00    -0.386 OA
ATOM     37  H8  UNL     1      23.546 -13.221  10.885  1.00  0.00     0.210 HD
ENDBRANCH  16  36
BRANCH  17  38
HETATM   38  O9  UNL     1      23.043 -15.161  11.626  1.00  0.00    -0.392 OA
ATOM     39  H9  UNL     1      22.845 -16.088  11.561  1.00  0.00     0.210 HD
ENDBRANCH  17  38
BRANCH   3  40
HETATM   40  O1  UNL     1      28.005 -17.382  10.070  1.00  0.00    -0.367 OA
ATOM     41  H1  UNL     1      28.462 -17.346  10.901  1.00  0.00     0.213 HD
ENDBRANCH   3  40
TORSDOF 9
ENDMDL
