MODEL 1
REMARK VINA RESULT: -8.317002097      0.000      0.000
REMARK  1 active torsions:
REMARK  status: ('A' for Active; 'I' for Inactive)
REMARK    1  A    between atoms: C4_6  and  O3_7 
ROOT
HETATM    1  C1  UNL     1     -13.890  33.031  -4.214  1.00  0.00     0.018 C 
HETATM    2  C2  UNL     1     -14.232  34.152  -5.151  1.00  0.00    -0.018 A 
HETATM    3  O1  UNL     1     -14.541  35.541  -4.767  1.00  0.00     0.000 OA
HETATM    4  C3  UNL     1     -15.295  36.447  -4.421  1.00  0.00     0.172 C 
HETATM    5  O2  UNL     1     -16.183  37.133  -5.137  1.00  0.00    -0.345 OA
HETATM    6  C4  UNL     1     -17.400  37.395  -4.661  1.00  0.00     0.171 C 
HETATM    7  C5  UNL     1     -18.259  37.318  -5.941  1.00  0.00     0.069 C 
HETATM    8  C6  UNL     1     -18.141  35.843  -6.231  1.00  0.00     0.011 C 
HETATM    9  C7  UNL     1     -17.890  35.137  -4.927  1.00  0.00     0.001 C 
HETATM   10  C8  UNL     1     -16.710  34.288  -4.880  1.00  0.00     0.012 C 
HETATM   11  C9  UNL     1     -15.625  34.501  -3.855  1.00  0.00     0.015 C 
HETATM   12  C10 UNL     1     -14.354  34.730  -4.727  1.00  0.00    -0.022 A 
HETATM   13  C11 UNL     1     -13.021  35.171  -4.073  1.00  0.00     0.017 C 
HETATM   14  O4  UNL     1     -14.651  35.213  -6.109  1.00  0.00     0.000 OA
HETATM   15  C12 UNL     1     -15.823  35.778  -3.174  1.00  0.00     0.058 A 
HETATM   16  C13 UNL     1     -15.496  36.420  -2.011  1.00  0.00     0.103 A 
HETATM   17  F1  UNL     1     -14.399  36.914  -1.294  1.00  0.00    -0.210 F 
HETATM   18  C14 UNL     1     -16.728  36.493  -1.641  1.00  0.00     0.023 A 
HETATM   19  C15 UNL     1     -17.195  35.818  -2.787  1.00  0.00     0.006 A 
HETATM   20  C16 UNL     1     -17.774  34.461  -2.280  1.00  0.00     0.022 C 
HETATM   21  C17 UNL     1     -17.995  36.264  -3.907  1.00  0.00     0.028 C 
HETATM   22  C18 UNL     1     -19.415  36.535  -3.575  1.00  0.00     0.022 C 
ENDROOT
BRANCH   6  23
HETATM   23  O3  UNL     1     -17.435  38.599  -4.054  1.00  0.00    -0.365 OA
ATOM     24  H3  UNL     1     -18.081  39.166  -4.456  1.00  0.00     0.213 HD
ENDBRANCH   6  23
TORSDOF 1
ENDMDL
MODEL 2
REMARK VINA RESULT: -8.304701892      2.239      4.037
REMARK  1 active torsions:
REMARK  status: ('A' for Active; 'I' for Inactive)
REMARK    1  A    between atoms: C4_6  and  O3_7 
ROOT
HETATM    1  C1  UNL     1     -17.592  34.004   0.536  1.00  0.00     0.018 C 
HETATM    2  C2  UNL     1     -16.458  34.915   0.170  1.00  0.00    -0.018 A 
HETATM    3  O1  UNL     1     -16.537  36.079  -0.731  1.00  0.00     0.000 OA
HETATM    4  C3  UNL     1     -16.495  36.628  -1.830  1.00  0.00     0.172 C 
HETATM    5  O2  UNL     1     -15.445  36.927  -2.591  1.00  0.00    -0.345 OA
HETATM    6  C4  UNL     1     -15.457  36.703  -3.904  1.00  0.00     0.171 C 
HETATM    7  C5  UNL     1     -13.988  36.312  -4.168  1.00  0.00     0.069 C 
HETATM    8  C6  UNL     1     -13.946  34.995  -3.435  1.00  0.00     0.011 C 
HETATM    9  C7  UNL     1     -15.340  34.431  -3.424  1.00  0.00     0.001 C 
HETATM   10  C8  UNL     1     -15.881  34.094  -2.117  1.00  0.00     0.012 C 
HETATM   11  C9  UNL     1     -17.169  34.699  -1.616  1.00  0.00     0.015 C 
HETATM   12  C10 UNL     1     -16.740  35.400  -0.293  1.00  0.00    -0.022 A 
HETATM   13  C11 UNL     1     -17.732  36.313   0.470  1.00  0.00     0.017 C 
HETATM   14  O4  UNL     1     -15.287  35.742  -0.235  1.00  0.00     0.000 OA
HETATM   15  C12 UNL     1     -17.576  35.801  -2.486  1.00  0.00     0.058 A 
HETATM   16  C13 UNL     1     -18.688  36.512  -2.844  1.00  0.00     0.103 A 
HETATM   17  F1  UNL     1     -19.655  37.383  -2.326  1.00  0.00    -0.210 F 
HETATM   18  C14 UNL     1     -18.621  36.108  -4.065  1.00  0.00     0.023 A 
HETATM   19  C15 UNL     1     -17.482  35.312  -3.823  1.00  0.00     0.006 A 
HETATM   20  C16 UNL     1     -17.942  33.835  -4.015  1.00  0.00     0.022 C 
HETATM   21  C17 UNL     1     -16.114  35.426  -4.279  1.00  0.00     0.028 C 
HETATM   22  C18 UNL     1     -15.923  35.133  -5.721  1.00  0.00     0.022 C 
ENDROOT
BRANCH   6  23
HETATM   23  O3  UNL     1     -15.858  37.799  -4.580  1.00  0.00    -0.365 OA
ATOM     24  H3  UNL     1     -15.342  37.923  -5.367  1.00  0.00     0.213 HD
ENDBRANCH   6  23
TORSDOF 1
ENDMDL
MODEL 3
REMARK VINA RESULT: -7.981230760      1.490      1.945
REMARK  1 active torsions:
REMARK  status: ('A' for Active; 'I' for Inactive)
REMARK    1  A    between atoms: C4_6  and  O3_7 
ROOT
HETATM    1  C1  UNL     1     -16.079  32.698  -5.843  1.00  0.00     0.018 C 
HETATM    2  C2  UNL     1     -16.596  34.031  -6.298  1.00  0.00    -0.018 A 
HETATM    3  O1  UNL     1     -16.068  35.348  -5.900  1.00  0.00     0.000 OA
HETATM    4  C3  UNL     1     -16.002  36.335  -5.171  1.00  0.00     0.172 C 
HETATM    5  O2  UNL     1     -16.845  37.358  -5.048  1.00  0.00    -0.345 OA
HETATM    6  C4  UNL     1     -17.185  37.833  -3.851  1.00  0.00     0.171 C 
HETATM    7  C5  UNL     1     -18.656  38.240  -4.083  1.00  0.00     0.069 C 
HETATM    8  C6  UNL     1     -19.264  36.873  -4.272  1.00  0.00     0.011 C 
HETATM    9  C7  UNL     1     -18.410  35.883  -3.527  1.00  0.00     0.001 C 
HETATM   10  C8  UNL     1     -17.913  34.761  -4.306  1.00  0.00     0.012 C 
HETATM   11  C9  UNL     1     -16.437  34.473  -4.421  1.00  0.00     0.015 C 
HETATM   12  C10 UNL     1     -16.185  34.525  -5.958  1.00  0.00    -0.022 A 
HETATM   13  C11 UNL     1     -14.743  34.461  -6.521  1.00  0.00     0.017 C 
HETATM   14  O4  UNL     1     -17.194  35.332  -6.707  1.00  0.00     0.000 OA
HETATM   15  C12 UNL     1     -15.664  35.597  -3.897  1.00  0.00     0.058 A 
HETATM   16  C13 UNL     1     -14.428  35.888  -3.390  1.00  0.00     0.103 A 
HETATM   17  F1  UNL     1     -13.072  35.923  -3.740  1.00  0.00    -0.210 F 
HETATM   18  C14 UNL     1     -14.913  36.210  -2.241  1.00  0.00     0.023 A 
HETATM   19  C15 UNL     1     -16.238  35.921  -2.631  1.00  0.00     0.006 A 
HETATM   20  C16 UNL     1     -16.679  34.693  -1.778  1.00  0.00     0.022 C 
HETATM   21  C17 UNL     1     -17.389  36.774  -2.832  1.00  0.00     0.028 C 
HETATM   22  C18 UNL     1     -17.956  37.340  -1.583  1.00  0.00     0.022 C 
ENDROOT
BRANCH   6  23
HETATM   23  O3  UNL     1     -16.387  38.859  -3.491  1.00  0.00    -0.365 OA
ATOM     24  H3  UNL     1     -16.348  38.946  -2.546  1.00  0.00     0.213 HD
ENDBRANCH   6  23
TORSDOF 1
ENDMDL
MODEL 4
REMARK VINA RESULT: -7.979273890      1.532      2.010
REMARK  1 active torsions:
REMARK  status: ('A' for Active; 'I' for Inactive)
REMARK    1  A    between atoms: C4_6  and  O3_7 
ROOT
HETATM    1  C1  UNL     1     -14.974  31.716  -5.644  1.00  0.00     0.018 C 
HETATM    2  C2  UNL     1     -15.603  32.888  -6.340  1.00  0.00    -0.018 A 
HETATM    3  O1  UNL     1     -15.210  34.300  -6.189  1.00  0.00     0.000 OA
HETATM    4  C3  UNL     1     -15.253  35.406  -5.654  1.00  0.00     0.172 C 
HETATM    5  O2  UNL     1     -16.190  36.348  -5.725  1.00  0.00    -0.345 OA
HETATM    6  C4  UNL     1     -16.599  36.999  -4.638  1.00  0.00     0.171 C 
HETATM    7  C5  UNL     1     -18.096  37.213  -4.946  1.00  0.00     0.069 C 
HETATM    8  C6  UNL     1     -18.570  35.783  -4.883  1.00  0.00     0.011 C 
HETATM    9  C7  UNL     1     -17.643  35.033  -3.965  1.00  0.00     0.001 C 
HETATM   10  C8  UNL     1     -17.026  33.839  -4.522  1.00  0.00     0.012 C 
HETATM   11  C9  UNL     1     -15.527  33.679  -4.576  1.00  0.00     0.015 C 
HETATM   12  C10 UNL     1     -15.248  33.473  -6.095  1.00  0.00    -0.022 A 
HETATM   13  C11 UNL     1     -13.795  33.446  -6.631  1.00  0.00     0.017 C 
HETATM   14  O4  UNL     1     -16.312  34.028  -6.984  1.00  0.00     0.000 OA
HETATM   15  C12 UNL     1     -14.875  34.949  -4.265  1.00  0.00     0.058 A 
HETATM   16  C13 UNL     1     -13.683  35.445  -3.815  1.00  0.00     0.103 A 
HETATM   17  F1  UNL     1     -12.329  35.546  -4.161  1.00  0.00    -0.210 F 
HETATM   18  C14 UNL     1     -14.221  35.924  -2.747  1.00  0.00     0.023 A 
HETATM   19  C15 UNL     1     -15.503  35.443  -3.083  1.00  0.00     0.006 A 
HETATM   20  C16 UNL     1     -15.846  34.355  -2.019  1.00  0.00     0.022 C 
HETATM   21  C17 UNL     1     -16.725  36.130  -3.442  1.00  0.00     0.028 C 
HETATM   22  C18 UNL     1     -17.369  36.858  -2.321  1.00  0.00     0.022 C 
ENDROOT
BRANCH   6  23
HETATM   23  O3  UNL     1     -15.909  38.146  -4.470  1.00  0.00    -0.365 OA
ATOM     24  H3  UNL     1     -15.805  38.350  -3.548  1.00  0.00     0.213 HD
ENDBRANCH   6  23
TORSDOF 1
ENDMDL
MODEL 5
REMARK VINA RESULT: -7.897175389      2.045      3.550
REMARK  1 active torsions:
REMARK  status: ('A' for Active; 'I' for Inactive)
REMARK    1  A    between atoms: C4_6  and  O3_7 
ROOT
HETATM    1  C1  UNL     1     -17.582  34.054   0.415  1.00  0.00     0.018 C 
HETATM    2  C2  UNL     1     -16.282  34.434  -0.230  1.00  0.00    -0.018 A 
HETATM    3  O1  UNL     1     -15.975  35.728  -0.867  1.00  0.00     0.000 OA
HETATM    4  C3  UNL     1     -15.943  36.511  -1.814  1.00  0.00     0.172 C 
HETATM    5  O2  UNL     1     -15.134  36.534  -2.870  1.00  0.00    -0.345 OA
HETATM    6  C4  UNL     1     -15.604  36.755  -4.096  1.00  0.00     0.171 C 
HETATM    7  C5  UNL     1     -14.683  35.858  -4.950  1.00  0.00     0.069 C 
HETATM    8  C6  UNL     1     -15.142  34.504  -4.473  1.00  0.00     0.011 C 
HETATM    9  C7  UNL     1     -16.567  34.640  -4.008  1.00  0.00     0.001 C 
HETATM   10  C8  UNL     1     -16.839  34.192  -2.652  1.00  0.00     0.012 C 
HETATM   11  C9  UNL     1     -17.440  35.116  -1.622  1.00  0.00     0.015 C 
HETATM   12  C10 UNL     1     -16.380  35.110  -0.480  1.00  0.00    -0.022 A 
HETATM   13  C11 UNL     1     -16.510  36.082   0.719  1.00  0.00     0.017 C 
HETATM   14  O4  UNL     1     -15.006  34.740  -0.935  1.00  0.00     0.000 OA
HETATM   15  C12 UNL     1     -17.424  36.492  -2.113  1.00  0.00     0.058 A 
HETATM   16  C13 UNL     1     -18.051  37.692  -1.921  1.00  0.00     0.103 A 
HETATM   17  F1  UNL     1     -18.248  38.694  -0.961  1.00  0.00    -0.210 F 
HETATM   18  C14 UNL     1     -18.526  37.699  -3.118  1.00  0.00     0.023 A 
HETATM   19  C15 UNL     1     -17.953  36.451  -3.438  1.00  0.00     0.006 A 
HETATM   20  C16 UNL     1     -19.146  35.468  -3.637  1.00  0.00     0.022 C 
HETATM   21  C17 UNL     1     -16.901  36.084  -4.361  1.00  0.00     0.028 C 
HETATM   22  C18 UNL     1     -17.276  36.197  -5.792  1.00  0.00     0.022 C 
ENDROOT
BRANCH   6  23
HETATM   23  O3  UNL     1     -15.536  38.064  -4.414  1.00  0.00    -0.365 OA
ATOM     24  H3  UNL     1     -16.264  38.319  -4.968  1.00  0.00     0.213 HD
ENDBRANCH   6  23
TORSDOF 1
ENDMDL
