MODEL 1
REMARK VINA RESULT: -5.683999245      0.000      0.000
REMARK  18 active torsions:
REMARK  status: ('A' for Active; 'I' for Inactive)
REMARK    1  A    between atoms: C2_2  and  C3_3 
REMARK    2  A    between atoms: C3_3  and  C4_4 
REMARK    3  A    between atoms: C4_4  and  C5_5 
REMARK    4  A    between atoms: C5_5  and  C6_6 
REMARK    5  A    between atoms: C6_6  and  C7_7 
REMARK    6  A    between atoms: C7_7  and  C8_8 
REMARK    7  A    between atoms: C10_10  and  O1_11 
REMARK    8  A    between atoms: C12_14  and  O2_15 
REMARK    9  A    between atoms: C16_21  and  C17_22 
REMARK   10  A    between atoms: C17_22  and  O4_23 
REMARK   11  A    between atoms: C17_22  and  C18_25 
REMARK   12  A    between atoms: C17_22  and  C19_28 
REMARK   13  A    between atoms: C18_25  and  O5_26 
REMARK   14  A    between atoms: C19_28  and  C20_29 
REMARK   15  A    between atoms: C20_29  and  O6_30 
REMARK   16  A    between atoms: C25_38  and  C26_39 
REMARK   17  A    between atoms: C26_39  and  O9_42 
REMARK   18  A    between atoms: C29_44  and  C30_45 
ROOT
HETATM    1  C30 UNL     1      25.562   6.927  20.665  1.00  0.00     0.143 C 
HETATM    2  C31 UNL     1      26.428   7.774  21.463  1.00  0.00     0.060 C 
HETATM    3  N1  UNL     1      27.110   8.453  22.132  1.00  0.00    -0.197 NA
ENDROOT
BRANCH   1   4
HETATM    4  C29 UNL     1      26.234   5.717  20.044  1.00  0.00     0.053 C 
HETATM    5  C22 UNL     1      27.039   6.141  18.928  1.00  0.00     0.101 C 
HETATM    6  C21 UNL     1      28.324   5.513  18.565  1.00  0.00     0.189 C 
HETATM    7  C23 UNL     1      27.308   7.601  18.617  1.00  0.00     0.050 C 
HETATM    8  O8  UNL     1      26.180   5.848  17.811  1.00  0.00    -0.370 OA
HETATM    9  C15 UNL     1      28.070   4.377  17.617  1.00  0.00     0.163 C 
HETATM   10  O7  UNL     1      29.124   6.265  17.658  1.00  0.00    -0.347 OA
HETATM   11  C14 UNL     1      26.957   3.560  18.027  1.00  0.00     0.051 C 
HETATM   12  O3  UNL     1      29.328   4.035  17.355  1.00  0.00    -0.350 OA
HETATM   13  C13 UNL     1      27.067   2.599  19.111  1.00  0.00     0.071 C 
HETATM   14  C24 UNL     1      25.786   4.515  18.081  1.00  0.00     0.137 C 
HETATM   15  C12 UNL     1      27.868   2.876  20.303  1.00  0.00     0.136 C 
HETATM   16  C11 UNL     1      27.523   1.695  21.236  1.00  0.00     0.092 C 
HETATM   17  N2  UNL     1      27.861   4.018  20.993  1.00  0.00    -0.359 N 
HETATM   18  C10 UNL     1      26.208   1.905  21.876  1.00  0.00     0.123 C 
HETATM   19  C9  UNL     1      25.981   3.075  22.709  1.00  0.00     0.042 C 
HETATM   20  C8  UNL     1      26.064   4.481  22.314  1.00  0.00     0.035 C 
HETATM   21  C32 UNL     1      26.913   4.969  21.209  1.00  0.00     0.004 C 
HETATM   22  C33 UNL     1      28.874   3.993  22.064  1.00  0.00     0.152 C 
HETATM   23  C25 UNL     1      25.181   4.828  19.413  1.00  0.00     0.067 C 
HETATM   24  C16 UNL     1      29.723   5.319  16.870  1.00  0.00     0.297 C 
BRANCH  15  25
HETATM   25  O2  UNL     1      29.224   2.585  19.954  1.00  0.00    -0.371 OA
ATOM     26  H2  UNL     1      29.615   2.431  20.806  1.00  0.00     0.212 HD
ENDBRANCH  15  25
BRANCH  18  27
HETATM   27  O1  UNL     1      26.036   0.781  22.740  1.00  0.00    -0.395 OA
ATOM     28  H1  UNL     1      25.803   0.056  22.171  1.00  0.00     0.210 HD
ENDBRANCH  18  27
BRANCH  20  29
HETATM   29  C7  UNL     1      26.405   5.164  23.683  1.00  0.00     0.014 C 
BRANCH  29  30
HETATM   30  C6  UNL     1      25.210   5.761  24.318  1.00  0.00     0.027 C 
BRANCH  30  31
HETATM   31  C5  UNL     1      25.001   5.515  25.749  1.00  0.00    -0.031 C 
BRANCH  31  32
HETATM   32  C4  UNL     1      25.989   4.860  26.596  1.00  0.00    -0.031 C 
BRANCH  32  33
HETATM   33  C3  UNL     1      26.697   5.561  27.675  1.00  0.00     0.026 C 
BRANCH  33  34
HETATM   34  C2  UNL     1      25.815   5.984  28.834  1.00  0.00    -0.001 C 
HETATM   35  C1  UNL     1      26.558   5.909  30.147  1.00  0.00     0.005 C 
ENDBRANCH  33  34
ENDBRANCH  32  33
ENDBRANCH  31  32
ENDBRANCH  30  31
ENDBRANCH  29  30
ENDBRANCH  20  29
BRANCH  23  36
HETATM   36  C26 UNL     1      23.836   5.358  19.035  1.00  0.00     0.058 C 
HETATM   37  C27 UNL     1      23.118   4.128  18.425  1.00  0.00     0.046 C 
HETATM   38  C28 UNL     1      22.909   5.874  20.043  1.00  0.00     0.046 C 
BRANCH  36  39
HETATM   39  O9  UNL     1      23.870   6.272  17.955  1.00  0.00    -0.390 OA
ATOM     40  H9  UNL     1      23.090   6.809  17.886  1.00  0.00     0.210 HD
ENDBRANCH  36  39
ENDBRANCH  23  36
BRANCH  24  41
HETATM   41  C17 UNL     1      31.130   5.433  16.504  1.00  0.00     0.130 C 
BRANCH  41  42
HETATM   42  O4  UNL     1      31.515   6.712  17.129  1.00  0.00    -0.383 OA
ATOM     43  H4  UNL     1      32.325   6.921  16.680  1.00  0.00     0.210 HD
ENDBRANCH  41  42
BRANCH  41  44
HETATM   44  C18 UNL     1      31.967   4.461  17.246  1.00  0.00     0.207 C 
BRANCH  44  45
HETATM   45  O5  UNL     1      31.758   4.462  18.588  1.00  0.00    -0.398 OA
ATOM     46  H5  UNL     1      32.334   3.880  19.069  1.00  0.00     0.209 HD
ENDBRANCH  44  45
ENDBRANCH  41  44
BRANCH  41  47
HETATM   47  C19 UNL     1      31.521   5.650  15.103  1.00  0.00     0.071 C 
BRANCH  47  48
HETATM   48  C20 UNL     1      30.651   6.439  14.199  1.00  0.00     0.167 C 
BRANCH  48  49
HETATM   49  O6  UNL     1      30.700   7.795  14.284  1.00  0.00    -0.401 OA
ATOM     50  H6  UNL     1      30.520   8.198  15.125  1.00  0.00     0.209 HD
ENDBRANCH  48  49
ENDBRANCH  47  48
ENDBRANCH  41  47
ENDBRANCH  24  41
ENDBRANCH   1   4
TORSDOF 18
ENDMDL
MODEL 2
REMARK VINA RESULT: -5.651434748      0.778      1.628
REMARK  18 active torsions:
REMARK  status: ('A' for Active; 'I' for Inactive)
REMARK    1  A    between atoms: C2_2  and  C3_3 
REMARK    2  A    between atoms: C3_3  and  C4_4 
REMARK    3  A    between atoms: C4_4  and  C5_5 
REMARK    4  A    between atoms: C5_5  and  C6_6 
REMARK    5  A    between atoms: C6_6  and  C7_7 
REMARK    6  A    between atoms: C7_7  and  C8_8 
REMARK    7  A    between atoms: C10_10  and  O1_11 
REMARK    8  A    between atoms: C12_14  and  O2_15 
REMARK    9  A    between atoms: C16_21  and  C17_22 
REMARK   10  A    between atoms: C17_22  and  O4_23 
REMARK   11  A    between atoms: C17_22  and  C18_25 
REMARK   12  A    between atoms: C17_22  and  C19_28 
REMARK   13  A    between atoms: C18_25  and  O5_26 
REMARK   14  A    between atoms: C19_28  and  C20_29 
REMARK   15  A    between atoms: C20_29  and  O6_30 
REMARK   16  A    between atoms: C25_38  and  C26_39 
REMARK   17  A    between atoms: C26_39  and  O9_42 
REMARK   18  A    between atoms: C29_44  and  C30_45 
ROOT
HETATM    1  C30 UNL     1      25.219   7.227  20.735  1.00  0.00     0.143 C 
HETATM    2  C31 UNL     1      26.147   8.155  21.353  1.00  0.00     0.060 C 
HETATM    3  N1  UNL     1      26.882   8.900  21.879  1.00  0.00    -0.197 NA
ENDROOT
BRANCH   1   4
HETATM    4  C29 UNL     1      25.855   6.005  20.097  1.00  0.00     0.053 C 
HETATM    5  C22 UNL     1      26.484   6.388  18.861  1.00  0.00     0.101 C 
HETATM    6  C21 UNL     1      27.736   5.785  18.362  1.00  0.00     0.189 C 
HETATM    7  C23 UNL     1      26.645   7.835  18.435  1.00  0.00     0.050 C 
HETATM    8  O8  UNL     1      25.497   5.997  17.888  1.00  0.00    -0.370 OA
HETATM    9  C15 UNL     1      27.407   4.585  17.523  1.00  0.00     0.163 C 
HETATM   10  O7  UNL     1      28.374   6.508  17.314  1.00  0.00    -0.347 OA
HETATM   11  C14 UNL     1      26.396   3.755  18.126  1.00  0.00     0.051 C 
HETATM   12  O3  UNL     1      28.633   4.273  17.112  1.00  0.00    -0.350 OA
HETATM   13  C13 UNL     1      26.691   2.867  19.237  1.00  0.00     0.071 C 
HETATM   14  C24 UNL     1      25.202   4.669  18.284  1.00  0.00     0.137 C 
HETATM   15  C12 UNL     1      27.632   3.246  20.291  1.00  0.00     0.136 C 
HETATM   16  C11 UNL     1      27.466   2.112  21.328  1.00  0.00     0.092 C 
HETATM   17  N2  UNL     1      27.666   4.427  20.911  1.00  0.00    -0.359 N 
HETATM   18  C10 UNL     1      26.240   2.315  22.127  1.00  0.00     0.123 C 
HETATM   19  C9  UNL     1      26.075   3.525  22.917  1.00  0.00     0.042 C 
HETATM   20  C8  UNL     1      26.044   4.906  22.435  1.00  0.00     0.035 C 
HETATM   21  C32 UNL     1      26.716   5.355  21.200  1.00  0.00     0.004 C 
HETATM   22  C33 UNL     1      28.813   4.504  21.835  1.00  0.00     0.152 C 
HETATM   23  C25 UNL     1      24.766   5.042  19.666  1.00  0.00     0.067 C 
HETATM   24  C16 UNL     1      28.903   5.537  16.507  1.00  0.00     0.297 C 
BRANCH  15  25
HETATM   25  O2  UNL     1      28.940   2.982  19.778  1.00  0.00    -0.371 OA
ATOM     26  H2  UNL     1      28.949   3.510  18.988  1.00  0.00     0.212 HD
ENDBRANCH  15  25
BRANCH  18  27
HETATM   27  O1  UNL     1      26.235   1.240  23.068  1.00  0.00    -0.395 OA
ATOM     28  H1  UNL     1      25.452   0.737  22.875  1.00  0.00     0.210 HD
ENDBRANCH  18  27
BRANCH  20  29
HETATM   29  C7  UNL     1      26.534   5.684  23.705  1.00  0.00     0.014 C 
BRANCH  29  30
HETATM   30  C6  UNL     1      25.410   6.282  24.458  1.00  0.00     0.027 C 
BRANCH  30  31
HETATM   31  C5  UNL     1      25.028   5.656  25.728  1.00  0.00    -0.031 C 
BRANCH  31  32
HETATM   32  C4  UNL     1      25.960   4.899  26.553  1.00  0.00    -0.031 C 
BRANCH  32  33
HETATM   33  C3  UNL     1      26.706   5.505  27.664  1.00  0.00     0.026 C 
BRANCH  33  34
HETATM   34  C2  UNL     1      25.845   5.961  28.826  1.00  0.00    -0.001 C 
HETATM   35  C1  UNL     1      26.590   5.862  30.137  1.00  0.00     0.005 C 
ENDBRANCH  33  34
ENDBRANCH  32  33
ENDBRANCH  31  32
ENDBRANCH  30  31
ENDBRANCH  29  30
ENDBRANCH  20  29
BRANCH  23  36
HETATM   36  C26 UNL     1      23.362   5.499  19.445  1.00  0.00     0.058 C 
HETATM   37  C27 UNL     1      22.550   4.180  19.407  1.00  0.00     0.046 C 
HETATM   38  C28 UNL     1      22.670   6.339  20.425  1.00  0.00     0.046 C 
BRANCH  36  39
HETATM   39  O9  UNL     1      23.139   6.045  18.158  1.00  0.00    -0.390 OA
ATOM     40  H9  UNL     1      22.641   6.853  18.169  1.00  0.00     0.210 HD
ENDBRANCH  36  39
ENDBRANCH  23  36
BRANCH  24  41
HETATM   41  C17 UNL     1      30.242   5.678  15.947  1.00  0.00     0.130 C 
BRANCH  41  42
HETATM   42  O4  UNL     1      30.533   4.310  15.479  1.00  0.00    -0.383 OA
ATOM     43  H4  UNL     1      31.474   4.252  15.596  1.00  0.00     0.210 HD
ENDBRANCH  41  42
BRANCH  41  44
HETATM   44  C18 UNL     1      30.226   6.443  14.678  1.00  0.00     0.207 C 
BRANCH  44  45
HETATM   45  O5  UNL     1      29.459   7.563  14.717  1.00  0.00    -0.398 OA
ATOM     46  H5  UNL     1      28.649   7.495  14.224  1.00  0.00     0.209 HD
ENDBRANCH  44  45
ENDBRANCH  41  44
BRANCH  41  47
HETATM   47  C19 UNL     1      31.392   5.950  16.823  1.00  0.00     0.071 C 
BRANCH  47  48
HETATM   48  C20 UNL     1      32.040   4.845  17.568  1.00  0.00     0.167 C 
BRANCH  48  49
HETATM   49  O6  UNL     1      31.281   4.129  18.441  1.00  0.00    -0.401 OA
ATOM     50  H6  UNL     1      30.948   4.571  19.212  1.00  0.00     0.209 HD
ENDBRANCH  48  49
ENDBRANCH  47  48
ENDBRANCH  41  47
ENDBRANCH  24  41
ENDBRANCH   1   4
TORSDOF 18
ENDMDL
MODEL 3
REMARK VINA RESULT: -5.518843224      1.506      2.331
REMARK  18 active torsions:
REMARK  status: ('A' for Active; 'I' for Inactive)
REMARK    1  A    between atoms: C2_2  and  C3_3 
REMARK    2  A    between atoms: C3_3  and  C4_4 
REMARK    3  A    between atoms: C4_4  and  C5_5 
REMARK    4  A    between atoms: C5_5  and  C6_6 
REMARK    5  A    between atoms: C6_6  and  C7_7 
REMARK    6  A    between atoms: C7_7  and  C8_8 
REMARK    7  A    between atoms: C10_10  and  O1_11 
REMARK    8  A    between atoms: C12_14  and  O2_15 
REMARK    9  A    between atoms: C16_21  and  C17_22 
REMARK   10  A    between atoms: C17_22  and  O4_23 
REMARK   11  A    between atoms: C17_22  and  C18_25 
REMARK   12  A    between atoms: C17_22  and  C19_28 
REMARK   13  A    between atoms: C18_25  and  O5_26 
REMARK   14  A    between atoms: C19_28  and  C20_29 
REMARK   15  A    between atoms: C20_29  and  O6_30 
REMARK   16  A    between atoms: C25_38  and  C26_39 
REMARK   17  A    between atoms: C26_39  and  O9_42 
REMARK   18  A    between atoms: C29_44  and  C30_45 
ROOT
HETATM    1  C30 UNL     1      25.655   6.921  20.159  1.00  0.00     0.143 C 
HETATM    2  C31 UNL     1      26.432   7.812  20.999  1.00  0.00     0.060 C 
HETATM    3  N1  UNL     1      27.041   8.527  21.700  1.00  0.00    -0.197 NA
ENDROOT
BRANCH   1   4
HETATM    4  C29 UNL     1      26.399   5.701  19.647  1.00  0.00     0.053 C 
HETATM    5  C22 UNL     1      27.272   6.094  18.573  1.00  0.00     0.101 C 
HETATM    6  C21 UNL     1      28.595   5.485  18.333  1.00  0.00     0.189 C 
HETATM    7  C23 UNL     1      27.529   7.545  18.211  1.00  0.00     0.050 C 
HETATM    8  O8  UNL     1      26.504   5.726  17.412  1.00  0.00    -0.370 OA
HETATM    9  C15 UNL     1      28.437   4.299  17.426  1.00  0.00     0.163 C 
HETATM   10  O7  UNL     1      29.441   6.215  17.450  1.00  0.00    -0.347 OA
HETATM   11  C14 UNL     1      27.317   3.473  17.795  1.00  0.00     0.051 C 
HETATM   12  O3  UNL     1      29.719   3.980  17.271  1.00  0.00    -0.350 OA
HETATM   13  C13 UNL     1      27.371   2.567  18.929  1.00  0.00     0.071 C 
HETATM   14  C24 UNL     1      26.124   4.397  17.718  1.00  0.00     0.137 C 
HETATM   15  C12 UNL     1      28.077   2.921  20.160  1.00  0.00     0.136 C 
HETATM   16  C11 UNL     1      27.693   1.775  21.123  1.00  0.00     0.092 C 
HETATM   17  N2  UNL     1      27.992   4.093  20.792  1.00  0.00    -0.359 N 
HETATM   18  C10 UNL     1      26.330   1.980  21.656  1.00  0.00     0.123 C 
HETATM   19  C9  UNL     1      26.015   3.181  22.413  1.00  0.00     0.042 C 
HETATM   20  C8  UNL     1      26.094   4.568  21.957  1.00  0.00     0.035 C 
HETATM   21  C32 UNL     1      27.009   5.027  20.893  1.00  0.00     0.004 C 
HETATM   22  C33 UNL     1      28.925   4.145  21.933  1.00  0.00     0.152 C 
HETATM   23  C25 UNL     1      25.415   4.755  18.986  1.00  0.00     0.067 C 
HETATM   24  C16 UNL     1      30.117   5.250  16.754  1.00  0.00     0.297 C 
BRANCH  15  25
HETATM   25  O2  UNL     1      29.461   2.650  19.923  1.00  0.00    -0.371 OA
ATOM     26  H2  UNL     1      29.794   3.514  19.711  1.00  0.00     0.212 HD
ENDBRANCH  15  25
BRANCH  18  27
HETATM   27  O1  UNL     1      26.123   0.893  22.559  1.00  0.00    -0.395 OA
ATOM     28  H1  UNL     1      25.536   0.296  22.109  1.00  0.00     0.210 HD
ENDBRANCH  18  27
BRANCH  20  29
HETATM   29  C7  UNL     1      26.318   5.324  23.312  1.00  0.00     0.014 C 
BRANCH  29  30
HETATM   30  C6  UNL     1      25.050   5.546  24.040  1.00  0.00     0.027 C 
BRANCH  30  31
HETATM   31  C5  UNL     1      24.275   6.747  23.713  1.00  0.00    -0.031 C 
BRANCH  31  32
HETATM   32  C4  UNL     1      23.089   6.722  22.867  1.00  0.00    -0.031 C 
BRANCH  32  33
HETATM   33  C3  UNL     1      22.576   7.919  22.188  1.00  0.00     0.026 C 
BRANCH  33  34
HETATM   34  C2  UNL     1      23.304   9.202  22.538  1.00  0.00    -0.001 C 
HETATM   35  C1  UNL     1      22.340  10.286  22.961  1.00  0.00     0.005 C 
ENDBRANCH  33  34
ENDBRANCH  32  33
ENDBRANCH  31  32
ENDBRANCH  30  31
ENDBRANCH  29  30
ENDBRANCH  20  29
BRANCH  23  36
HETATM   36  C26 UNL     1      24.090   5.230  18.488  1.00  0.00     0.058 C 
HETATM   37  C27 UNL     1      23.605   4.072  17.580  1.00  0.00     0.046 C 
HETATM   38  C28 UNL     1      22.976   5.483  19.404  1.00  0.00     0.046 C 
BRANCH  36  39
HETATM   39  O9  UNL     1      24.179   6.320  17.589  1.00  0.00    -0.390 OA
ATOM     40  H9  UNL     1      23.367   6.803  17.495  1.00  0.00     0.210 HD
ENDBRANCH  36  39
ENDBRANCH  23  36
BRANCH  24  41
HETATM   41  C17 UNL     1      31.544   5.384  16.484  1.00  0.00     0.130 C 
BRANCH  41  42
HETATM   42  O4  UNL     1      31.834   6.739  16.991  1.00  0.00    -0.383 OA
ATOM     43  H4  UNL     1      32.100   7.197  16.203  1.00  0.00     0.210 HD
ENDBRANCH  41  42
BRANCH  41  44
HETATM   44  C18 UNL     1      32.353   4.535  17.390  1.00  0.00     0.207 C 
BRANCH  44  45
HETATM   45  O5  UNL     1      31.927   4.540  18.679  1.00  0.00    -0.398 OA
ATOM     46  H5  UNL     1      32.545   4.926  19.290  1.00  0.00     0.209 HD
ENDBRANCH  44  45
ENDBRANCH  41  44
BRANCH  41  47
HETATM   47  C19 UNL     1      32.038   5.466  15.101  1.00  0.00     0.071 C 
BRANCH  47  48
HETATM   48  C20 UNL     1      32.103   6.775  14.409  1.00  0.00     0.167 C 
BRANCH  48  49
HETATM   49  O6  UNL     1      30.962   7.509  14.316  1.00  0.00    -0.401 OA
ATOM     50  H6  UNL     1      30.402   7.565  15.082  1.00  0.00     0.209 HD
ENDBRANCH  48  49
ENDBRANCH  47  48
ENDBRANCH  41  47
ENDBRANCH  24  41
ENDBRANCH   1   4
TORSDOF 18
ENDMDL
MODEL 4
REMARK VINA RESULT: -5.496602978      1.902      2.761
REMARK  18 active torsions:
REMARK  status: ('A' for Active; 'I' for Inactive)
REMARK    1  A    between atoms: C2_2  and  C3_3 
REMARK    2  A    between atoms: C3_3  and  C4_4 
REMARK    3  A    between atoms: C4_4  and  C5_5 
REMARK    4  A    between atoms: C5_5  and  C6_6 
REMARK    5  A    between atoms: C6_6  and  C7_7 
REMARK    6  A    between atoms: C7_7  and  C8_8 
REMARK    7  A    between atoms: C10_10  and  O1_11 
REMARK    8  A    between atoms: C12_14  and  O2_15 
REMARK    9  A    between atoms: C16_21  and  C17_22 
REMARK   10  A    between atoms: C17_22  and  O4_23 
REMARK   11  A    between atoms: C17_22  and  C18_25 
REMARK   12  A    between atoms: C17_22  and  C19_28 
REMARK   13  A    between atoms: C18_25  and  O5_26 
REMARK   14  A    between atoms: C19_28  and  C20_29 
REMARK   15  A    between atoms: C20_29  and  O6_30 
REMARK   16  A    between atoms: C25_38  and  C26_39 
REMARK   17  A    between atoms: C26_39  and  O9_42 
REMARK   18  A    between atoms: C29_44  and  C30_45 
ROOT
HETATM    1  C30 UNL     1      25.302   7.000  22.038  1.00  0.00     0.143 C 
HETATM    2  C31 UNL     1      26.611   7.482  22.436  1.00  0.00     0.060 C 
HETATM    3  N1  UNL     1      27.665   7.858  22.784  1.00  0.00    -0.197 NA
ENDROOT
BRANCH   1   4
HETATM    4  C29 UNL     1      25.289   6.086  20.826  1.00  0.00     0.053 C 
HETATM    5  C22 UNL     1      25.535   6.866  19.642  1.00  0.00     0.101 C 
HETATM    6  C21 UNL     1      26.301   6.369  18.483  1.00  0.00     0.189 C 
HETATM    7  C23 UNL     1      25.956   8.323  19.689  1.00  0.00     0.050 C 
HETATM    8  O8  UNL     1      24.205   7.055  19.125  1.00  0.00    -0.370 OA
HETATM    9  C15 UNL     1      25.366   5.687  17.526  1.00  0.00     0.163 C 
HETATM   10  O7  UNL     1      26.720   7.373  17.564  1.00  0.00    -0.347 OA
HETATM   11  C14 UNL     1      24.430   4.824  18.198  1.00  0.00     0.051 C 
HETATM   12  O3  UNL     1      26.225   5.417  16.547  1.00  0.00    -0.350 OA
HETATM   13  C13 UNL     1      24.817   3.520  18.711  1.00  0.00     0.071 C 
HETATM   14  C24 UNL     1      23.689   5.736  19.149  1.00  0.00     0.137 C 
HETATM   15  C12 UNL     1      26.130   3.293  19.312  1.00  0.00     0.136 C 
HETATM   16  C11 UNL     1      26.008   1.862  19.881  1.00  0.00     0.092 C 
HETATM   17  N2  UNL     1      26.722   4.088  20.205  1.00  0.00    -0.359 N 
HETATM   18  C10 UNL     1      25.251   1.870  21.150  1.00  0.00     0.123 C 
HETATM   19  C9  UNL     1      25.733   2.646  22.281  1.00  0.00     0.042 C 
HETATM   20  C8  UNL     1      25.943   4.093  22.345  1.00  0.00     0.035 C 
HETATM   21  C32 UNL     1      26.247   4.926  21.165  1.00  0.00     0.004 C 
HETATM   22  C33 UNL     1      28.086   3.617  20.508  1.00  0.00     0.152 C 
HETATM   23  C25 UNL     1      23.887   5.547  20.620  1.00  0.00     0.067 C 
HETATM   24  C16 UNL     1      26.628   6.771  16.338  1.00  0.00     0.297 C 
BRANCH  15  25
HETATM   25  O2  UNL     1      27.042   3.098  18.227  1.00  0.00    -0.371 OA
ATOM     26  H2  UNL     1      26.471   3.199  17.474  1.00  0.00     0.212 HD
ENDBRANCH  15  25
BRANCH  18  27
HETATM   27  O1  UNL     1      25.256   0.511  21.589  1.00  0.00    -0.395 OA
ATOM     28  H1  UNL     1      25.999   0.107  21.156  1.00  0.00     0.210 HD
ENDBRANCH  18  27
BRANCH  20  29
HETATM   29  C7  UNL     1      27.048   4.193  23.453  1.00  0.00     0.014 C 
BRANCH  29  30
HETATM   30  C6  UNL     1      26.913   3.126  24.468  1.00  0.00     0.027 C 
BRANCH  30  31
HETATM   31  C5  UNL     1      26.476   3.513  25.814  1.00  0.00    -0.031 C 
BRANCH  31  32
HETATM   32  C4  UNL     1      25.608   4.654  26.070  1.00  0.00    -0.031 C 
BRANCH  32  33
HETATM   33  C3  UNL     1      25.643   5.409  27.329  1.00  0.00     0.026 C 
BRANCH  33  34
HETATM   34  C2  UNL     1      27.035   5.644  27.883  1.00  0.00    -0.001 C 
HETATM   35  C1  UNL     1      26.992   5.999  29.351  1.00  0.00     0.005 C 
ENDBRANCH  33  34
ENDBRANCH  32  33
ENDBRANCH  31  32
ENDBRANCH  30  31
ENDBRANCH  29  30
ENDBRANCH  20  29
BRANCH  23  36
HETATM   36  C26 UNL     1      22.693   6.237  21.194  1.00  0.00     0.058 C 
HETATM   37  C27 UNL     1      21.502   5.382  20.693  1.00  0.00     0.046 C 
HETATM   38  C28 UNL     1      22.497   6.346  22.641  1.00  0.00     0.046 C 
BRANCH  36  39
HETATM   39  O9  UNL     1      22.438   7.504  20.616  1.00  0.00    -0.390 OA
ATOM     40  H9  UNL     1      21.733   7.497  19.979  1.00  0.00     0.210 HD
ENDBRANCH  36  39
ENDBRANCH  23  36
BRANCH  24  41
HETATM   41  C17 UNL     1      27.669   6.955  15.335  1.00  0.00     0.130 C 
BRANCH  41  42
HETATM   42  O4  UNL     1      27.154   6.168  14.199  1.00  0.00    -0.383 OA
ATOM     43  H4  UNL     1      27.883   6.188  13.591  1.00  0.00     0.210 HD
ENDBRANCH  41  42
BRANCH  41  44
HETATM   44  C18 UNL     1      27.662   8.331  14.786  1.00  0.00     0.207 C 
BRANCH  44  45
HETATM   45  O5  UNL     1      27.772   9.303  15.729  1.00  0.00    -0.398 OA
ATOM     46  H5  UNL     1      28.659   9.438  16.043  1.00  0.00     0.209 HD
ENDBRANCH  44  45
ENDBRANCH  41  44
BRANCH  41  47
HETATM   47  C19 UNL     1      29.004   6.370  15.528  1.00  0.00     0.071 C 
BRANCH  47  48
HETATM   48  C20 UNL     1      29.278   4.978  15.098  1.00  0.00     0.167 C 
BRANCH  48  49
HETATM   49  O6  UNL     1      28.588   3.973  15.701  1.00  0.00    -0.401 OA
ATOM     50  H6  UNL     1      28.003   3.448  15.167  1.00  0.00     0.209 HD
ENDBRANCH  48  49
ENDBRANCH  47  48
ENDBRANCH  41  47
ENDBRANCH  24  41
ENDBRANCH   1   4
TORSDOF 18
ENDMDL
MODEL 5
REMARK VINA RESULT: -5.472357231      2.907      5.355
REMARK  18 active torsions:
REMARK  status: ('A' for Active; 'I' for Inactive)
REMARK    1  A    between atoms: C2_2  and  C3_3 
REMARK    2  A    between atoms: C3_3  and  C4_4 
REMARK    3  A    between atoms: C4_4  and  C5_5 
REMARK    4  A    between atoms: C5_5  and  C6_6 
REMARK    5  A    between atoms: C6_6  and  C7_7 
REMARK    6  A    between atoms: C7_7  and  C8_8 
REMARK    7  A    between atoms: C10_10  and  O1_11 
REMARK    8  A    between atoms: C12_14  and  O2_15 
REMARK    9  A    between atoms: C16_21  and  C17_22 
REMARK   10  A    between atoms: C17_22  and  O4_23 
REMARK   11  A    between atoms: C17_22  and  C18_25 
REMARK   12  A    between atoms: C17_22  and  C19_28 
REMARK   13  A    between atoms: C18_25  and  O5_26 
REMARK   14  A    between atoms: C19_28  and  C20_29 
REMARK   15  A    between atoms: C20_29  and  O6_30 
REMARK   16  A    between atoms: C25_38  and  C26_39 
REMARK   17  A    between atoms: C26_39  and  O9_42 
REMARK   18  A    between atoms: C29_44  and  C30_45 
ROOT
HETATM    1  C30 UNL     1      27.209   2.672  23.348  1.00  0.00     0.143 C 
HETATM    2  C31 UNL     1      27.797   1.349  23.449  1.00  0.00     0.060 C 
HETATM    3  N1  UNL     1      28.245   0.271  23.540  1.00  0.00    -0.197 NA
ENDROOT
BRANCH   1   4
HETATM    4  C29 UNL     1      27.222   3.282  21.959  1.00  0.00     0.053 C 
HETATM    5  C22 UNL     1      28.554   3.729  21.649  1.00  0.00     0.101 C 
HETATM    6  C21 UNL     1      29.141   3.667  20.296  1.00  0.00     0.189 C 
HETATM    7  C23 UNL     1      29.753   3.407  22.521  1.00  0.00     0.050 C 
HETATM    8  O8  UNL     1      28.470   5.139  21.928  1.00  0.00    -0.370 OA
HETATM    9  C15 UNL     1      28.822   4.936  19.559  1.00  0.00     0.163 C 
HETATM   10  O7  UNL     1      30.553   3.837  20.246  1.00  0.00    -0.347 OA
HETATM   11  C14 UNL     1      27.451   5.341  19.735  1.00  0.00     0.051 C 
HETATM   12  O3  UNL     1      29.509   4.710  18.443  1.00  0.00    -0.350 OA
HETATM   13  C13 UNL     1      26.360   4.688  19.032  1.00  0.00     0.071 C 
HETATM   14  C24 UNL     1      27.295   5.509  21.229  1.00  0.00     0.137 C 
HETATM   15  C12 UNL     1      26.362   3.246  18.786  1.00  0.00     0.136 C 
HETATM   16  C11 UNL     1      24.949   2.990  18.216  1.00  0.00     0.092 C 
HETATM   17  N2  UNL     1      26.666   2.307  19.684  1.00  0.00    -0.359 N 
HETATM   18  C10 UNL     1      23.947   2.966  19.302  1.00  0.00     0.123 C 
HETATM   19  C9  UNL     1      24.061   1.994  20.377  1.00  0.00     0.042 C 
HETATM   20  C8  UNL     1      25.162   1.843  21.329  1.00  0.00     0.035 C 
HETATM   21  C32 UNL     1      26.553   2.241  21.037  1.00  0.00     0.004 C 
HETATM   22  C33 UNL     1      26.678   0.970  19.063  1.00  0.00     0.152 C 
HETATM   23  C25 UNL     1      26.404   4.558  21.965  1.00  0.00     0.067 C 
HETATM   24  C16 UNL     1      30.770   4.535  19.088  1.00  0.00     0.297 C 
BRANCH  15  25
HETATM   25  O2  UNL     1      27.183   3.035  17.635  1.00  0.00    -0.371 OA
ATOM     26  H2  UNL     1      27.949   3.555  17.845  1.00  0.00     0.212 HD
ENDBRANCH  15  25
BRANCH  18  27
HETATM   27  O1  UNL     1      22.709   2.673  18.651  1.00  0.00    -0.395 OA
ATOM     28  H1  UNL     1      22.946   2.314  17.804  1.00  0.00     0.210 HD
ENDBRANCH  18  27
BRANCH  20  29
HETATM   29  C7  UNL     1      25.035   0.326  21.704  1.00  0.00     0.014 C 
BRANCH  29  30
HETATM   30  C6  UNL     1      23.688  -0.208  21.408  1.00  0.00     0.027 C 
BRANCH  30  31
HETATM   31  C5  UNL     1      23.093  -1.135  22.376  1.00  0.00    -0.031 C 
BRANCH  31  32
HETATM   32  C4  UNL     1      21.728  -1.004  22.868  1.00  0.00    -0.031 C 
BRANCH  32  33
HETATM   33  C3  UNL     1      20.798   0.014  22.363  1.00  0.00     0.026 C 
BRANCH  33  34
HETATM   34  C2  UNL     1      19.661   0.351  23.306  1.00  0.00    -0.001 C 
HETATM   35  C1  UNL     1      18.319   0.024  22.692  1.00  0.00     0.005 C 
ENDBRANCH  33  34
ENDBRANCH  32  33
ENDBRANCH  31  32
ENDBRANCH  30  31
ENDBRANCH  29  30
ENDBRANCH  20  29
BRANCH  23  36
HETATM   36  C26 UNL     1      26.123   5.299  23.231  1.00  0.00     0.058 C 
HETATM   37  C27 UNL     1      24.709   5.890  23.001  1.00  0.00     0.046 C 
HETATM   38  C28 UNL     1      26.037   4.607  24.518  1.00  0.00     0.046 C 
BRANCH  36  39
HETATM   39  O9  UNL     1      26.923   6.454  23.402  1.00  0.00    -0.390 OA
ATOM     40  H9  UNL     1      27.707   6.301  23.916  1.00  0.00     0.210 HD
ENDBRANCH  36  39
ENDBRANCH  23  36
BRANCH  24  41
HETATM   41  C17 UNL     1      31.873   4.186  18.200  1.00  0.00     0.130 C 
BRANCH  41  42
HETATM   42  O4  UNL     1      31.268   3.152  17.340  1.00  0.00    -0.383 OA
ATOM     43  H4  UNL     1      31.672   3.328  16.498  1.00  0.00     0.210 HD
ENDBRANCH  41  42
BRANCH  41  44
HETATM   44  C18 UNL     1      32.156   5.270  17.230  1.00  0.00     0.207 C 
BRANCH  44  45
HETATM   45  O5  UNL     1      31.386   6.376  17.396  1.00  0.00    -0.398 OA
ATOM     46  H5  UNL     1      31.207   6.847  16.591  1.00  0.00     0.209 HD
ENDBRANCH  44  45
ENDBRANCH  41  44
BRANCH  41  47
HETATM   47  C19 UNL     1      33.060   3.492  18.721  1.00  0.00     0.071 C 
BRANCH  47  48
HETATM   48  C20 UNL     1      33.952   4.166  19.694  1.00  0.00     0.167 C 
BRANCH  48  49
HETATM   49  O6  UNL     1      33.582   4.178  21.003  1.00  0.00    -0.401 OA
ATOM     50  H6  UNL     1      34.243   4.384  21.653  1.00  0.00     0.209 HD
ENDBRANCH  48  49
ENDBRANCH  47  48
ENDBRANCH  41  47
ENDBRANCH  24  41
ENDBRANCH   1   4
TORSDOF 18
ENDMDL
