MODEL 1
REMARK VINA RESULT: -7.802232988      0.000      0.000
REMARK  7 active torsions:
REMARK  status: ('A' for Active; 'I' for Inactive)
REMARK    1  A    between atoms: O1_2  and  C2_3 
REMARK    2  A    between atoms: C2_3  and  C3_4 
REMARK    3  A    between atoms: C3_4  and  C4_5 
REMARK    4  A    between atoms: C9_12  and  C10_13 
REMARK    5  A    between atoms: C10_13  and  O4_14 
REMARK    6  A    between atoms: C12_17  and  C13_18 
REMARK    7  A    between atoms: C21_27  and  O5_28 
ROOT
HETATM    1  C10 UNL     1      13.521  22.517   7.722  1.00  0.00     0.094 A 
HETATM    2  C11 UNL     1      12.458  23.446   7.460  1.00  0.00     0.050 A 
HETATM    3  C12 UNL     1      11.247  23.722   6.739  1.00  0.00    -0.010 C 
HETATM    4  C14 UNL     1      11.565  25.139   6.116  1.00  0.00     0.019 C 
HETATM    5  C15 UNL     1      11.882  24.376   4.879  1.00  0.00     0.023 C 
HETATM    6  C16 UNL     1      10.392  23.919   4.785  1.00  0.00     0.024 C 
HETATM    7  C17 UNL     1      10.616  22.904   5.685  1.00  0.00     0.007 C 
HETATM    8  C18 UNL     1      10.419  21.718   6.404  1.00  0.00     0.017 C 
HETATM    9  C19 UNL     1      11.903  21.257   6.517  1.00  0.00     0.017 C 
HETATM   10  C20 UNL     1      12.871  22.471   6.441  1.00  0.00     0.034 A 
HETATM   11  C21 UNL     1      12.913  23.331   5.245  1.00  0.00     0.080 C 
HETATM   12  C23 UNL     1      12.673  22.307   4.110  1.00  0.00     0.092 C 
HETATM   13  C24 UNL     1      11.279  22.171   4.518  1.00  0.00    -0.008 C 
HETATM   14  N1  UNL     1      10.505  21.418   3.889  1.00  0.00    -0.405 N 
ATOM     15  H11 UNL     1      10.947  20.930   3.110  1.00  0.00     0.155 HD
ATOM     16  H12 UNL     1       9.530  21.324   4.174  1.00  0.00     0.155 HD
ENDROOT
BRANCH   1  17
HETATM   17  C9  UNL     1      14.968  22.605   7.724  1.00  0.00     0.047 C 
HETATM   18  C8  UNL     1      15.902  21.529   7.567  1.00  0.00     0.078 C 
HETATM   19  C4  UNL     1      16.039  20.619   6.445  1.00  0.00     0.183 C 
HETATM   20  O3  UNL     1      16.138  20.673   8.642  1.00  0.00    -0.317 OA
HETATM   21  O2  UNL     1      17.313  20.051   6.811  1.00  0.00    -0.344 OA
HETATM   22  C5  UNL     1      17.372  20.138   8.197  1.00  0.00     0.163 C 
HETATM   23  C6  UNL     1      18.533  21.071   8.574  1.00  0.00     0.079 C 
HETATM   24  C7  UNL     1      17.679  18.844   8.894  1.00  0.00     0.079 C 
BRANCH  19  25
HETATM   25  C3  UNL     1      15.219  19.395   6.326  1.00  0.00     0.065 C 
BRANCH  25  26
HETATM   26  C2  UNL     1      14.624  19.340   4.918  1.00  0.00     0.170 C 
BRANCH  26  27
HETATM   27  O1  UNL     1      14.001  18.175   4.603  1.00  0.00    -0.396 OA
HETATM   28  C1  UNL     1      14.878  17.225   4.137  1.00  0.00     0.201 C 
ENDBRANCH  26  27
ENDBRANCH  25  26
ENDBRANCH  19  25
ENDBRANCH   1  17
BRANCH   1  29
HETATM   29  O4  UNL     1      13.061  21.810   8.877  1.00  0.00    -0.384 OA
ATOM     30  H4  UNL     1      12.638  20.998   8.623  1.00  0.00     0.211 HD
ENDBRANCH   1  29
BRANCH   3  31
HETATM   31  C13 UNL     1      10.120  24.068   7.709  1.00  0.00     0.096 C 
HETATM   32 BR1  UNL     1      10.672  25.650   8.733  1.00  0.00    -0.096 Br
ENDBRANCH   3  31
BRANCH  11  33
HETATM   33  O5  UNL     1      14.106  23.954   5.115  1.00  0.00    -0.383 OA
HETATM   34  C22 UNL     1      15.129  23.375   4.461  1.00  0.00     0.202 C 
ENDBRANCH  11  33
TORSDOF 7
ENDMDL
MODEL 2
REMARK VINA RESULT: -7.357710511      3.282      7.139
REMARK  7 active torsions:
REMARK  status: ('A' for Active; 'I' for Inactive)
REMARK    1  A    between atoms: O1_2  and  C2_3 
REMARK    2  A    between atoms: C2_3  and  C3_4 
REMARK    3  A    between atoms: C3_4  and  C4_5 
REMARK    4  A    between atoms: C9_12  and  C10_13 
REMARK    5  A    between atoms: C10_13  and  O4_14 
REMARK    6  A    between atoms: C12_17  and  C13_18 
REMARK    7  A    between atoms: C21_27  and  O5_28 
ROOT
HETATM    1  C10 UNL     1      11.306  22.059   3.667  1.00  0.00     0.094 A 
HETATM    2  C11 UNL     1      12.562  21.365   3.700  1.00  0.00     0.050 A 
HETATM    3  C12 UNL     1      13.570  20.732   4.503  1.00  0.00    -0.010 C 
HETATM    4  C14 UNL     1      14.883  21.439   3.981  1.00  0.00     0.019 C 
HETATM    5  C15 UNL     1      14.747  22.291   5.193  1.00  0.00     0.023 C 
HETATM    6  C16 UNL     1      14.972  21.036   6.093  1.00  0.00     0.024 C 
HETATM    7  C17 UNL     1      13.650  20.678   5.976  1.00  0.00     0.007 C 
HETATM    8  C18 UNL     1      12.433  20.041   6.247  1.00  0.00     0.017 C 
HETATM    9  C19 UNL     1      11.466  21.208   5.883  1.00  0.00     0.017 C 
HETATM   10  C20 UNL     1      12.118  22.168   4.848  1.00  0.00     0.034 A 
HETATM   11  C21 UNL     1      13.360  22.893   5.167  1.00  0.00     0.080 C 
HETATM   12  C23 UNL     1      13.171  23.198   6.672  1.00  0.00     0.092 C 
HETATM   13  C24 UNL     1      13.379  21.789   6.990  1.00  0.00    -0.008 C 
HETATM   14  N1  UNL     1      13.361  21.398   8.177  1.00  0.00    -0.405 N 
ATOM     15  H11 UNL     1      13.180  22.139   8.853  1.00  0.00     0.155 HD
ATOM     16  H12 UNL     1      13.506  20.413   8.399  1.00  0.00     0.155 HD
ENDROOT
BRANCH   1  17
HETATM   17  C9  UNL     1      10.845  23.295   3.067  1.00  0.00     0.047 C 
HETATM   18  C8  UNL     1       9.728  24.095   3.478  1.00  0.00     0.078 C 
HETATM   19  C4  UNL     1       9.505  24.729   4.764  1.00  0.00     0.183 C 
HETATM   20  O3  UNL     1       8.438  23.674   3.155  1.00  0.00    -0.317 OA
HETATM   21  O2  UNL     1       8.411  25.582   4.372  1.00  0.00    -0.344 OA
HETATM   22  C5  UNL     1       7.780  24.918   3.326  1.00  0.00     0.163 C 
HETATM   23  C6  UNL     1       7.911  25.777   2.059  1.00  0.00     0.079 C 
HETATM   24  C7  UNL     1       6.302  24.723   3.508  1.00  0.00     0.079 C 
BRANCH  19  25
HETATM   25  C3  UNL     1       8.894  24.005   5.898  1.00  0.00     0.065 C 
BRANCH  25  26
HETATM   26  C2  UNL     1       9.762  24.220   7.140  1.00  0.00     0.170 C 
BRANCH  26  27
HETATM   27  O1  UNL     1      10.238  25.483   7.296  1.00  0.00    -0.396 OA
HETATM   28  C1  UNL     1      10.710  25.708   8.566  1.00  0.00     0.201 C 
ENDBRANCH  26  27
ENDBRANCH  25  26
ENDBRANCH  19  25
ENDBRANCH   1  17
BRANCH   1  29
HETATM   29  O4  UNL     1      10.358  21.011   3.443  1.00  0.00    -0.384 OA
ATOM     30  H4  UNL     1      10.268  20.473   4.221  1.00  0.00     0.211 HD
ENDBRANCH   1  29
BRANCH   3  31
HETATM   31  C13 UNL     1      13.797  19.296   4.035  1.00  0.00     0.096 C 
HETATM   32 BR1  UNL     1      14.846  19.364   2.375  1.00  0.00    -0.096 Br
ENDBRANCH   3  31
BRANCH  11  33
HETATM   33  O5  UNL     1      13.483  24.026   4.438  1.00  0.00    -0.383 OA
HETATM   34  C22 UNL     1      12.972  25.193   4.869  1.00  0.00     0.202 C 
ENDBRANCH  11  33
TORSDOF 7
ENDMDL
MODEL 3
REMARK VINA RESULT: -6.724655635      2.811      6.420
REMARK  7 active torsions:
REMARK  status: ('A' for Active; 'I' for Inactive)
REMARK    1  A    between atoms: O1_2  and  C2_3 
REMARK    2  A    between atoms: C2_3  and  C3_4 
REMARK    3  A    between atoms: C3_4  and  C4_5 
REMARK    4  A    between atoms: C9_12  and  C10_13 
REMARK    5  A    between atoms: C10_13  and  O4_14 
REMARK    6  A    between atoms: C12_17  and  C13_18 
REMARK    7  A    between atoms: C21_27  and  O5_28 
ROOT
HETATM    1  C10 UNL     1      12.467  23.873   7.278  1.00  0.00     0.094 A 
HETATM    2  C11 UNL     1      13.632  23.042   7.395  1.00  0.00     0.050 A 
HETATM    3  C12 UNL     1      14.668  22.314   6.718  1.00  0.00    -0.010 C 
HETATM    4  C14 UNL     1      14.569  20.899   7.414  1.00  0.00     0.019 C 
HETATM    5  C15 UNL     1      13.791  20.507   6.208  1.00  0.00     0.023 C 
HETATM    6  C16 UNL     1      15.058  20.735   5.325  1.00  0.00     0.024 C 
HETATM    7  C17 UNL     1      14.811  22.086   5.266  1.00  0.00     0.007 C 
HETATM    8  C18 UNL     1      14.876  23.416   4.832  1.00  0.00     0.017 C 
HETATM    9  C19 UNL     1      13.395  23.824   5.088  1.00  0.00     0.017 C 
HETATM   10  C20 UNL     1      12.764  22.955   6.213  1.00  0.00     0.034 A 
HETATM   11  C21 UNL     1      12.653  21.493   6.066  1.00  0.00     0.080 C 
HETATM   12  C23 UNL     1      12.359  21.348   4.554  1.00  0.00     0.092 C 
HETATM   13  C24 UNL     1      13.733  21.728   4.244  1.00  0.00    -0.008 C 
HETATM   14  N1  UNL     1      14.127  21.767   3.058  1.00  0.00    -0.405 N 
ATOM     15  H11 UNL     1      13.408  21.528   2.376  1.00  0.00     0.155 HD
ATOM     16  H12 UNL     1      15.088  22.033   2.842  1.00  0.00     0.155 HD
ENDROOT
BRANCH   1  17
HETATM   17  C9  UNL     1      11.129  23.828   7.833  1.00  0.00     0.047 C 
HETATM   18  C8  UNL     1       9.960  24.491   7.334  1.00  0.00     0.078 C 
HETATM   19  C4  UNL     1       9.338  24.348   6.030  1.00  0.00     0.183 C 
HETATM   20  O3  UNL     1       9.807  25.858   7.559  1.00  0.00    -0.317 OA
HETATM   21  O2  UNL     1       8.100  25.022   6.332  1.00  0.00    -0.344 OA
HETATM   22  C5  UNL     1       8.411  25.938   7.331  1.00  0.00     0.163 C 
HETATM   23  C6  UNL     1       7.633  25.554   8.599  1.00  0.00     0.079 C 
HETATM   24  C7  UNL     1       7.994  27.351   7.038  1.00  0.00     0.079 C 
BRANCH  19  25
HETATM   25  C3  UNL     1       9.792  25.124   4.857  1.00  0.00     0.065 C 
BRANCH  25  26
HETATM   26  C2  UNL     1       9.800  24.203   3.635  1.00  0.00     0.170 C 
BRANCH  26  27
HETATM   27  O1  UNL     1       9.166  23.014   3.809  1.00  0.00    -0.396 OA
HETATM   28  C1  UNL     1       9.208  22.232   2.680  1.00  0.00     0.201 C 
ENDBRANCH  26  27
ENDBRANCH  25  26
ENDBRANCH  19  25
ENDBRANCH   1  17
BRANCH   1  29
HETATM   29  O4  UNL     1      12.999  25.198   7.363  1.00  0.00    -0.384 OA
ATOM     30  H4  UNL     1      13.624  25.350   6.663  1.00  0.00     0.211 HD
ENDBRANCH   1  29
BRANCH   3  31
HETATM   31  C13 UNL     1      16.042  22.784   7.189  1.00  0.00     0.096 C 
HETATM   32 BR1  UNL     1      16.835  21.342   8.262  1.00  0.00    -0.096 Br
ENDBRANCH   3  31
BRANCH  11  33
HETATM   33  O5  UNL     1      11.653  20.986   6.822  1.00  0.00    -0.383 OA
HETATM   34  C22 UNL     1      10.416  20.814   6.321  1.00  0.00     0.202 C 
ENDBRANCH  11  33
TORSDOF 7
ENDMDL
MODEL 4
REMARK VINA RESULT: -6.528471486      2.739      4.443
REMARK  7 active torsions:
REMARK  status: ('A' for Active; 'I' for Inactive)
REMARK    1  A    between atoms: O1_2  and  C2_3 
REMARK    2  A    between atoms: C2_3  and  C3_4 
REMARK    3  A    between atoms: C3_4  and  C4_5 
REMARK    4  A    between atoms: C9_12  and  C10_13 
REMARK    5  A    between atoms: C10_13  and  O4_14 
REMARK    6  A    between atoms: C12_17  and  C13_18 
REMARK    7  A    between atoms: C21_27  and  O5_28 
ROOT
HETATM    1  C10 UNL     1      16.027  20.574   6.175  1.00  0.00     0.094 A 
HETATM    2  C11 UNL     1      14.930  19.860   5.584  1.00  0.00     0.050 A 
HETATM    3  C12 UNL     1      13.772  19.914   4.736  1.00  0.00    -0.010 C 
HETATM    4  C14 UNL     1      12.675  19.240   5.653  1.00  0.00     0.019 C 
HETATM    5  C15 UNL     1      12.262  20.637   5.956  1.00  0.00     0.023 C 
HETATM    6  C16 UNL     1      11.859  20.835   4.461  1.00  0.00     0.024 C 
HETATM    7  C17 UNL     1      13.161  21.105   4.114  1.00  0.00     0.007 C 
HETATM    8  C18 UNL     1      14.255  21.557   3.365  1.00  0.00     0.017 C 
HETATM    9  C19 UNL     1      15.154  22.060   4.534  1.00  0.00     0.017 C 
HETATM   10  C20 UNL     1      14.830  21.302   5.853  1.00  0.00     0.034 A 
HETATM   11  C21 UNL     1      13.486  21.372   6.454  1.00  0.00     0.080 C 
HETATM   12  C23 UNL     1      13.073  22.829   6.135  1.00  0.00     0.092 C 
HETATM   13  C24 UNL     1      12.918  22.484   4.727  1.00  0.00    -0.008 C 
HETATM   14  N1  UNL     1      12.539  23.344   3.902  1.00  0.00    -0.405 N 
ATOM     15  H11 UNL     1      12.376  24.264   4.310  1.00  0.00     0.155 HD
ATOM     16  H12 UNL     1      12.430  23.103   2.917  1.00  0.00     0.155 HD
ENDROOT
BRANCH   1  17
HETATM   17  C9  UNL     1      16.538  20.713   7.524  1.00  0.00     0.047 C 
HETATM   18  C8  UNL     1      17.169  19.701   8.320  1.00  0.00     0.078 C 
HETATM   19  C4  UNL     1      18.377  18.953   8.024  1.00  0.00     0.183 C 
HETATM   20  O3  UNL     1      16.380  18.719   8.918  1.00  0.00    -0.317 OA
HETATM   21  O2  UNL     1      18.580  18.387   9.335  1.00  0.00    -0.344 OA
HETATM   22  C5  UNL     1      17.312  18.292   9.897  1.00  0.00     0.163 C 
HETATM   23  C6  UNL     1      17.259  19.208  11.129  1.00  0.00     0.079 C 
HETATM   24  C7  UNL     1      16.957  16.928  10.417  1.00  0.00     0.079 C 
BRANCH  19  25
HETATM   25  C3  UNL     1      18.355  17.727   7.199  1.00  0.00     0.065 C 
BRANCH  25  26
HETATM   26  C2  UNL     1      19.464  16.791   7.685  1.00  0.00     0.170 C 
BRANCH  26  27
HETATM   27  O1  UNL     1      19.682  15.704   6.899  1.00  0.00    -0.396 OA
HETATM   28  C1  UNL     1      18.735  15.578   5.911  1.00  0.00     0.201 C 
ENDBRANCH  26  27
ENDBRANCH  25  26
ENDBRANCH  19  25
ENDBRANCH   1  17
BRANCH   1  29
HETATM   29  O4  UNL     1      17.098  20.350   5.254  1.00  0.00    -0.384 OA
ATOM     30  H4  UNL     1      16.759  20.223   4.375  1.00  0.00     0.211 HD
ENDBRANCH   1  29
BRANCH   3  31
HETATM   31  C13 UNL     1      13.891  18.889   3.611  1.00  0.00     0.096 C 
HETATM   32 BR1  UNL     1      15.006  17.408   4.262  1.00  0.00    -0.096 Br
ENDBRANCH   3  31
BRANCH  11  33
HETATM   33  O5  UNL     1      13.518  21.139   7.786  1.00  0.00    -0.383 OA
HETATM   34  C22 UNL     1      13.256  22.116   8.672  1.00  0.00     0.202 C 
ENDBRANCH  11  33
TORSDOF 7
ENDMDL
MODEL 5
REMARK VINA RESULT: -6.517593031      2.635      4.645
REMARK  7 active torsions:
REMARK  status: ('A' for Active; 'I' for Inactive)
REMARK    1  A    between atoms: O1_2  and  C2_3 
REMARK    2  A    between atoms: C2_3  and  C3_4 
REMARK    3  A    between atoms: C3_4  and  C4_5 
REMARK    4  A    between atoms: C9_12  and  C10_13 
REMARK    5  A    between atoms: C10_13  and  O4_14 
REMARK    6  A    between atoms: C12_17  and  C13_18 
REMARK    7  A    between atoms: C21_27  and  O5_28 
ROOT
HETATM    1  C10 UNL     1      15.686  20.533   6.702  1.00  0.00     0.094 A 
HETATM    2  C11 UNL     1      14.636  20.075   5.835  1.00  0.00     0.050 A 
HETATM    3  C12 UNL     1      13.677  20.411   4.820  1.00  0.00    -0.010 C 
HETATM    4  C14 UNL     1      12.347  19.813   5.429  1.00  0.00     0.019 C 
HETATM    5  C15 UNL     1      12.073  21.211   5.857  1.00  0.00     0.023 C 
HETATM    6  C16 UNL     1      11.990  21.647   4.360  1.00  0.00     0.024 C 
HETATM    7  C17 UNL     1      13.359  21.748   4.283  1.00  0.00     0.007 C 
HETATM    8  C18 UNL     1      14.625  22.109   3.805  1.00  0.00     0.017 C 
HETATM    9  C19 UNL     1      15.345  22.322   5.171  1.00  0.00     0.017 C 
HETATM   10  C20 UNL     1      14.679  21.473   6.290  1.00  0.00     0.034 A 
HETATM   11  C21 UNL     1      13.267  21.680   6.657  1.00  0.00     0.080 C 
HETATM   12  C23 UNL     1      13.118  23.211   6.489  1.00  0.00     0.092 C 
HETATM   13  C24 UNL     1      13.188  23.066   5.040  1.00  0.00    -0.008 C 
HETATM   14  N1  UNL     1      13.090  24.066   4.297  1.00  0.00    -0.405 N 
ATOM     15  H11 UNL     1      12.976  24.945   4.801  1.00  0.00     0.155 HD
ATOM     16  H12 UNL     1      13.139  23.964   3.283  1.00  0.00     0.155 HD
ENDROOT
BRANCH   1  17
HETATM   17  C9  UNL     1      15.946  20.428   8.123  1.00  0.00     0.047 C 
HETATM   18  C8  UNL     1      17.192  20.105   8.755  1.00  0.00     0.078 C 
HETATM   19  C4  UNL     1      18.455  20.813   8.658  1.00  0.00     0.183 C 
HETATM   20  O3  UNL     1      17.623  18.779   8.766  1.00  0.00    -0.317 OA
HETATM   21  O2  UNL     1      19.131  20.153   9.746  1.00  0.00    -0.344 OA
HETATM   22  C5  UNL     1      18.559  18.888   9.825  1.00  0.00     0.163 C 
HETATM   23  C6  UNL     1      17.853  18.761  11.184  1.00  0.00     0.079 C 
HETATM   24  C7  UNL     1      19.540  17.753   9.794  1.00  0.00     0.079 C 
BRANCH  19  25
HETATM   25  C3  UNL     1      19.407  20.566   7.555  1.00  0.00     0.065 C 
BRANCH  25  26
HETATM   26  C2  UNL     1      20.254  21.824   7.349  1.00  0.00     0.170 C 
BRANCH  26  27
HETATM   27  O1  UNL     1      20.917  21.881   6.165  1.00  0.00    -0.396 OA
HETATM   28  C1  UNL     1      21.255  23.167   5.819  1.00  0.00     0.201 C 
ENDBRANCH  26  27
ENDBRANCH  25  26
ENDBRANCH  19  25
ENDBRANCH   1  17
BRANCH   1  29
HETATM   29  O4  UNL     1      16.873  20.255   5.953  1.00  0.00    -0.384 OA
ATOM     30  H4  UNL     1      16.655  19.830   5.132  1.00  0.00     0.211 HD
ENDBRANCH   1  29
BRANCH   3  31
HETATM   31  C13 UNL     1      13.871  19.521   3.594  1.00  0.00     0.096 C 
HETATM   32 BR1  UNL     1      14.720  17.853   4.190  1.00  0.00    -0.096 Br
ENDBRANCH   3  31
BRANCH  11  33
HETATM   33  O5  UNL     1      13.015  21.288   7.927  1.00  0.00    -0.383 OA
HETATM   34  C22 UNL     1      13.202  22.122   8.966  1.00  0.00     0.202 C 
ENDBRANCH  11  33
TORSDOF 7
ENDMDL
