MODEL 1
REMARK VINA RESULT: -6.217142315      0.000      0.000
REMARK  3 active torsions:
REMARK  status: ('A' for Active; 'I' for Inactive)
REMARK    1  A    between atoms: C2_2  and  O2_4 
REMARK    2  A    between atoms: O2_4  and  C3_5 
REMARK    3  A    between atoms: C13_17  and  C15_19 
ROOT
HETATM    1  C3  UNL     1      29.354  16.028  -1.743  1.00  0.00     0.141 C 
HETATM    2  C4  UNL     1      30.769  16.183  -1.370  1.00  0.00     0.034 C 
HETATM    3  C5  UNL     1      31.694  15.052  -1.704  1.00  0.00     0.020 C 
HETATM    4  C6  UNL     1      31.430  14.200  -2.912  1.00  0.00     0.040 A 
HETATM    5  C7  UNL     1      30.674  12.989  -2.587  1.00  0.00     0.024 C 
HETATM    6  C8  UNL     1      30.751  15.248  -3.583  1.00  0.00     0.053 A 
HETATM    7  C9  UNL     1      31.989  14.900  -3.816  1.00  0.00     0.121 A 
HETATM    8  C10 UNL     1      33.125  13.964  -3.457  1.00  0.00     0.213 C 
HETATM    9  O3  UNL     1      33.362  14.033  -4.655  1.00  0.00    -0.354 OA
HETATM   10  C11 UNL     1      32.040  14.274  -4.307  1.00  0.00     0.154 A 
HETATM   11  C12 UNL     1      31.244  13.667  -5.378  1.00  0.00     0.077 C 
HETATM   12  O4  UNL     1      32.414  15.597  -4.666  1.00  0.00    -0.340 OA
HETATM   13  C13 UNL     1      29.473  15.446  -3.171  1.00  0.00     0.003 C 
HETATM   14  C14 UNL     1      28.372  14.441  -3.226  1.00  0.00     0.019 C 
ENDROOT
BRANCH   1  15
HETATM   15  O2  UNL     1      28.689  15.216  -0.902  1.00  0.00    -0.316 OA
BRANCH  15  16
HETATM   16  C2  UNL     1      27.934  15.456   0.199  1.00  0.00     0.255 C 
HETATM   17  C1  UNL     1      26.491  15.230   0.138  1.00  0.00     0.126 C 
HETATM   18  O1  UNL     1      28.575  15.863   1.191  1.00  0.00    -0.266 OA
ENDBRANCH  15  16
ENDBRANCH   1  15
BRANCH  13  19
HETATM   19  C15 UNL     1      28.792  16.591  -4.028  1.00  0.00     0.126 C 
HETATM   20 CL1  UNL     1      27.264  17.079  -3.323  1.00  0.00    -0.130 Cl
ENDBRANCH  13  19
TORSDOF 3
ENDMDL
MODEL 2
REMARK VINA RESULT: -5.882404941      2.515      3.628
REMARK  3 active torsions:
REMARK  status: ('A' for Active; 'I' for Inactive)
REMARK    1  A    between atoms: C2_2  and  O2_4 
REMARK    2  A    between atoms: O2_4  and  C3_5 
REMARK    3  A    between atoms: C13_17  and  C15_19 
ROOT
HETATM    1  C3  UNL     1      28.924  15.952  -1.354  1.00  0.00     0.141 C 
HETATM    2  C4  UNL     1      29.129  17.095  -0.451  1.00  0.00     0.034 C 
HETATM    3  C5  UNL     1      30.217  16.975   0.572  1.00  0.00     0.020 C 
HETATM    4  C6  UNL     1      31.440  16.158   0.273  1.00  0.00     0.040 A 
HETATM    5  C7  UNL     1      31.333  14.786   0.775  1.00  0.00     0.024 C 
HETATM    6  C8  UNL     1      31.317  16.366  -1.124  1.00  0.00     0.053 A 
HETATM    7  C9  UNL     1      32.145  17.015  -0.351  1.00  0.00     0.121 A 
HETATM    8  C10 UNL     1      32.670  17.204   1.058  1.00  0.00     0.213 C 
HETATM    9  O3  UNL     1      33.732  17.384   0.478  1.00  0.00    -0.354 OA
HETATM   10  C11 UNL     1      32.815  16.605  -0.213  1.00  0.00     0.154 A 
HETATM   11  C12 UNL     1      33.614  15.575  -0.883  1.00  0.00     0.077 C 
HETATM   12  O4  UNL     1      32.753  17.775  -1.016  1.00  0.00    -0.340 OA
HETATM   13  C13 UNL     1      30.380  15.590  -1.729  1.00  0.00     0.003 C 
HETATM   14  C14 UNL     1      30.368  14.099  -1.758  1.00  0.00     0.019 C 
ENDROOT
BRANCH   1  15
HETATM   15  O2  UNL     1      28.271  14.938  -0.758  1.00  0.00    -0.316 OA
BRANCH  15  16
HETATM   16  C2  UNL     1      26.958  14.718  -0.501  1.00  0.00     0.255 C 
HETATM   17  C1  UNL     1      26.439  14.984   0.840  1.00  0.00     0.126 C 
HETATM   18  O1  UNL     1      26.301  14.294  -1.475  1.00  0.00    -0.266 OA
ENDBRANCH  15  16
ENDBRANCH   1  15
BRANCH  13  19
HETATM   19  C15 UNL     1      30.372  15.858  -3.290  1.00  0.00     0.126 C 
HETATM   20 CL1  UNL     1      31.910  15.427  -4.010  1.00  0.00    -0.130 Cl
ENDBRANCH  13  19
TORSDOF 3
ENDMDL
MODEL 3
REMARK VINA RESULT: -5.882264375      2.328      3.331
REMARK  3 active torsions:
REMARK  status: ('A' for Active; 'I' for Inactive)
REMARK    1  A    between atoms: C2_2  and  O2_4 
REMARK    2  A    between atoms: O2_4  and  C3_5 
REMARK    3  A    between atoms: C13_17  and  C15_19 
ROOT
HETATM    1  C3  UNL     1      28.741  16.100  -0.830  1.00  0.00     0.141 C 
HETATM    2  C4  UNL     1      29.181  17.143   0.110  1.00  0.00     0.034 C 
HETATM    3  C5  UNL     1      30.430  16.877   0.894  1.00  0.00     0.020 C 
HETATM    4  C6  UNL     1      31.522  16.035   0.300  1.00  0.00     0.040 A 
HETATM    5  C7  UNL     1      31.422  14.629   0.697  1.00  0.00     0.024 C 
HETATM    6  C8  UNL     1      31.155  16.379  -1.026  1.00  0.00     0.053 A 
HETATM    7  C9  UNL     1      32.152  16.913  -0.372  1.00  0.00     0.121 A 
HETATM    8  C10 UNL     1      32.940  16.944   0.922  1.00  0.00     0.213 C 
HETATM    9  O3  UNL     1      33.885  17.128   0.168  1.00  0.00    -0.354 OA
HETATM   10  C11 UNL     1      32.808  16.461  -0.399  1.00  0.00     0.154 A 
HETATM   11  C12 UNL     1      33.403  15.463  -1.293  1.00  0.00     0.077 C 
HETATM   12  O4  UNL     1      32.673  17.703  -1.075  1.00  0.00    -0.340 OA
HETATM   13  C13 UNL     1      30.076  15.708  -1.504  1.00  0.00     0.003 C 
HETATM   14  C14 UNL     1      29.964  14.228  -1.655  1.00  0.00     0.019 C 
ENDROOT
BRANCH   1  15
HETATM   15  O2  UNL     1      28.146  15.067  -0.207  1.00  0.00    -0.316 OA
BRANCH  15  16
HETATM   16  C2  UNL     1      26.857  14.816   0.127  1.00  0.00     0.255 C 
HETATM   17  C1  UNL     1      26.412  15.066   1.496  1.00  0.00     0.126 C 
HETATM   18  O1  UNL     1      26.152  14.379  -0.808  1.00  0.00    -0.266 OA
ENDBRANCH  15  16
ENDBRANCH   1  15
BRANCH  13  19
HETATM   19  C15 UNL     1      29.796  16.121  -3.007  1.00  0.00     0.126 C 
HETATM   20 CL1  UNL     1      28.118  16.573  -3.232  1.00  0.00    -0.130 Cl
ENDBRANCH  13  19
TORSDOF 3
ENDMDL
MODEL 4
REMARK VINA RESULT: -5.721451502      2.574      3.426
REMARK  3 active torsions:
REMARK  status: ('A' for Active; 'I' for Inactive)
REMARK    1  A    between atoms: C2_2  and  O2_4 
REMARK    2  A    between atoms: O2_4  and  C3_5 
REMARK    3  A    between atoms: C13_17  and  C15_19 
ROOT
HETATM    1  C3  UNL     1      28.957  15.699  -4.628  1.00  0.00     0.141 C 
HETATM    2  C4  UNL     1      28.895  16.393  -3.332  1.00  0.00     0.034 C 
HETATM    3  C5  UNL     1      29.522  15.709  -2.156  1.00  0.00     0.020 C 
HETATM    4  C6  UNL     1      30.711  14.814  -2.357  1.00  0.00     0.040 A 
HETATM    5  C7  UNL     1      30.333  13.406  -2.498  1.00  0.00     0.024 C 
HETATM    6  C8  UNL     1      31.122  15.512  -3.521  1.00  0.00     0.053 A 
HETATM    7  C9  UNL     1      31.652  15.671  -2.338  1.00  0.00     0.121 A 
HETATM    8  C10 UNL     1      31.636  15.251  -0.882  1.00  0.00     0.213 C 
HETATM    9  O3  UNL     1      32.847  15.400  -0.981  1.00  0.00    -0.354 OA
HETATM   10  C11 UNL     1      32.195  15.111  -2.172  1.00  0.00     0.154 A 
HETATM   11  C12 UNL     1      33.112  14.236  -2.908  1.00  0.00     0.077 C 
HETATM   12  O4  UNL     1      32.512  16.473  -2.423  1.00  0.00    -0.340 OA
HETATM   13  C13 UNL     1      30.421  15.200  -4.642  1.00  0.00     0.003 C 
HETATM   14  C14 UNL     1      30.318  13.846  -5.259  1.00  0.00     0.019 C 
ENDROOT
BRANCH   1  15
HETATM   15  O2  UNL     1      28.063  14.698  -4.716  1.00  0.00    -0.316 OA
BRANCH  15  16
HETATM   16  C2  UNL     1      26.732  14.633  -4.470  1.00  0.00     0.255 C 
HETATM   17  C1  UNL     1      26.257  13.919  -3.286  1.00  0.00     0.126 C 
HETATM   18  O1  UNL     1      26.017  15.213  -5.316  1.00  0.00    -0.266 OA
ENDBRANCH  15  16
ENDBRANCH   1  15
BRANCH  13  19
HETATM   19  C15 UNL     1      31.003  15.986  -5.888  1.00  0.00     0.126 C 
HETATM   20 CL1  UNL     1      32.691  15.594  -6.145  1.00  0.00    -0.130 Cl
ENDBRANCH  13  19
TORSDOF 3
ENDMDL
MODEL 5
REMARK VINA RESULT: -5.597572757      2.890      4.001
REMARK  3 active torsions:
REMARK  status: ('A' for Active; 'I' for Inactive)
REMARK    1  A    between atoms: C2_2  and  O2_4 
REMARK    2  A    between atoms: O2_4  and  C3_5 
REMARK    3  A    between atoms: C13_17  and  C15_19 
ROOT
HETATM    1  C3  UNL     1      30.767  18.216   0.817  1.00  0.00     0.141 C 
HETATM    2  C4  UNL     1      31.939  18.538  -0.013  1.00  0.00     0.034 C 
HETATM    3  C5  UNL     1      32.898  17.425  -0.307  1.00  0.00     0.020 C 
HETATM    4  C6  UNL     1      32.399  16.013  -0.410  1.00  0.00     0.040 A 
HETATM    5  C7  UNL     1      32.524  15.283   0.853  1.00  0.00     0.024 C 
HETATM    6  C8  UNL     1      31.104  16.431  -0.810  1.00  0.00     0.053 A 
HETATM    7  C9  UNL     1      32.023  15.987  -1.626  1.00  0.00     0.121 A 
HETATM    8  C10 UNL     1      33.434  15.452  -1.765  1.00  0.00     0.213 C 
HETATM    9  O3  UNL     1      32.925  14.757  -2.633  1.00  0.00    -0.354 OA
HETATM   10  C11 UNL     1      32.051  15.191  -1.646  1.00  0.00     0.154 A 
HETATM   11  C12 UNL     1      31.137  14.067  -1.421  1.00  0.00     0.077 C 
HETATM   12  O4  UNL     1      31.582  15.995  -2.719  1.00  0.00    -0.340 OA
HETATM   13  C13 UNL     1      30.315  16.870   0.204  1.00  0.00     0.003 C 
HETATM   14  C14 UNL     1      29.897  16.073   1.393  1.00  0.00     0.019 C 
ENDROOT
BRANCH   1  15
HETATM   15  O2  UNL     1      31.076  18.117   2.122  1.00  0.00    -0.316 OA
BRANCH  15  16
HETATM   16  C2  UNL     1      31.346  19.045   3.073  1.00  0.00     0.255 C 
HETATM   17  C1  UNL     1      32.682  19.636   3.136  1.00  0.00     0.126 C 
HETATM   18  O1  UNL     1      30.388  19.310   3.830  1.00  0.00    -0.266 OA
ENDBRANCH  15  16
ENDBRANCH   1  15
BRANCH  13  19
HETATM   19  C15 UNL     1      28.878  17.249  -0.345  1.00  0.00     0.126 C 
HETATM   20 CL1  UNL     1      28.356  16.116  -1.575  1.00  0.00    -0.130 Cl
ENDBRANCH  13  19
TORSDOF 3
ENDMDL
