MODEL 1
REMARK VINA RESULT: -6.958377038      0.000      0.000
REMARK  3 active torsions:
REMARK  status: ('A' for Active; 'I' for Inactive)
REMARK       I    between atoms: C2_2  and  N1_4 
REMARK    1  A    between atoms: N1_4  and  C4_6 
REMARK    2  A    between atoms: C4_6  and  O2_7 
REMARK    3  A    between atoms: C4_6  and  C5_9 
ROOT
HETATM    1  C5  UNL     1       5.759  16.844  38.691  1.00  0.00     0.200 A 
HETATM    2  N2  UNL     1       6.276  16.784  37.356  1.00  0.00    -0.053 N 
ATOM      3  H21 UNL     1       5.650  16.736  36.552  1.00  0.00     0.279 HD
ATOM      4  H22 UNL     1       6.748  15.948  37.013  1.00  0.00     0.279 HD
HETATM    5  C6  UNL     1       7.021  17.991  37.648  1.00  0.00     0.195 C 
HETATM    6  C7  UNL     1       6.128  19.189  38.012  1.00  0.00     0.041 C 
HETATM    7  C8  UNL     1       5.667  18.278  39.135  1.00  0.00     0.041 A 
HETATM    8  C9  UNL     1       6.934  17.615  39.072  1.00  0.00     0.068 A 
ENDROOT
BRANCH   1   9
HETATM    9  C4  UNL     1       5.129  15.816  39.458  1.00  0.00     0.158 C 
BRANCH   9  10
HETATM   10  N1  UNL     1       3.873  15.285  39.545  1.00  0.00    -0.305 N 
HETATM   11  C2  UNL     1       2.656  15.889  39.231  1.00  0.00     0.221 C 
HETATM   12  C1  UNL     1       1.341  15.155  39.384  1.00  0.00     0.117 C 
HETATM   13  O1  UNL     1       2.548  17.044  38.811  1.00  0.00    -0.273 OA
HETATM   14  C3  UNL     1       3.728  13.880  40.032  1.00  0.00     0.161 C 
ENDBRANCH   9  10
BRANCH   9  15
HETATM   15  O2  UNL     1       5.982  15.238  40.293  1.00  0.00    -0.347 OA
ATOM     16  H2  UNL     1       5.993  15.654  41.147  1.00  0.00     0.219 HD
ENDBRANCH   9  15
ENDBRANCH   1   9
TORSDOF 3
ENDMDL
MODEL 2
REMARK VINA RESULT: -6.914427465      1.416      1.966
REMARK  3 active torsions:
REMARK  status: ('A' for Active; 'I' for Inactive)
REMARK       I    between atoms: C2_2  and  N1_4 
REMARK    1  A    between atoms: N1_4  and  C4_6 
REMARK    2  A    between atoms: C4_6  and  O2_7 
REMARK    3  A    between atoms: C4_6  and  C5_9 
ROOT
HETATM    1  C5  UNL     1       5.498  17.311  38.427  1.00  0.00     0.200 A 
HETATM    2  N2  UNL     1       6.496  17.445  37.408  1.00  0.00    -0.053 N 
ATOM      3  H21 UNL     1       6.415  16.941  36.525  1.00  0.00     0.279 HD
ATOM      4  H22 UNL     1       7.426  17.044  37.528  1.00  0.00     0.279 HD
HETATM    5  C6  UNL     1       6.290  18.876  37.469  1.00  0.00     0.195 C 
HETATM    6  C7  UNL     1       4.854  19.304  37.119  1.00  0.00     0.041 C 
HETATM    7  C8  UNL     1       4.493  18.423  38.301  1.00  0.00     0.041 A 
HETATM    8  C9  UNL     1       5.793  18.674  38.843  1.00  0.00     0.068 A 
ENDROOT
BRANCH   1   9
HETATM    9  C4  UNL     1       5.230  16.198  39.283  1.00  0.00     0.158 C 
BRANCH   9  10
HETATM   10  N1  UNL     1       4.161  15.381  39.525  1.00  0.00    -0.305 N 
HETATM   11  C2  UNL     1       4.168  14.024  39.848  1.00  0.00     0.221 C 
HETATM   12  C1  UNL     1       2.885  13.258  40.089  1.00  0.00     0.117 C 
HETATM   13  O1  UNL     1       5.194  13.348  39.963  1.00  0.00    -0.273 OA
HETATM   14  C3  UNL     1       2.789  15.964  39.450  1.00  0.00     0.161 C 
ENDBRANCH   9  10
BRANCH   9  15
HETATM   15  O2  UNL     1       6.284  15.888  40.024  1.00  0.00    -0.347 OA
ATOM     16  H2  UNL     1       7.072  15.775  39.505  1.00  0.00     0.219 HD
ENDBRANCH   9  15
ENDBRANCH   1   9
TORSDOF 3
ENDMDL
MODEL 3
REMARK VINA RESULT: -6.407418445      1.498      1.758
REMARK  3 active torsions:
REMARK  status: ('A' for Active; 'I' for Inactive)
REMARK       I    between atoms: C2_2  and  N1_4 
REMARK    1  A    between atoms: N1_4  and  C4_6 
REMARK    2  A    between atoms: C4_6  and  O2_7 
REMARK    3  A    between atoms: C4_6  and  C5_9 
ROOT
HETATM    1  C5  UNL     1       4.888  17.428  38.508  1.00  0.00     0.200 A 
HETATM    2  N2  UNL     1       6.056  16.791  37.977  1.00  0.00    -0.053 N 
ATOM      3  H21 UNL     1       6.042  16.355  37.054  1.00  0.00     0.279 HD
ATOM      4  H22 UNL     1       6.396  15.911  38.364  1.00  0.00     0.279 HD
HETATM    5  C6  UNL     1       6.770  18.030  38.204  1.00  0.00     0.195 C 
HETATM    6  C7  UNL     1       6.192  19.222  37.423  1.00  0.00     0.041 C 
HETATM    7  C8  UNL     1       4.935  18.901  38.211  1.00  0.00     0.041 A 
HETATM    8  C9  UNL     1       5.761  18.338  39.235  1.00  0.00     0.068 A 
ENDROOT
BRANCH   1   9
HETATM    9  C4  UNL     1       3.682  16.835  38.994  1.00  0.00     0.158 C 
BRANCH   9  10
HETATM   10  N1  UNL     1       3.345  15.670  39.626  1.00  0.00    -0.305 N 
HETATM   11  C2  UNL     1       2.124  14.999  39.606  1.00  0.00     0.221 C 
HETATM   12  C1  UNL     1       1.913  13.707  40.366  1.00  0.00     0.117 C 
HETATM   13  O1  UNL     1       1.133  15.389  38.982  1.00  0.00    -0.273 OA
HETATM   14  C3  UNL     1       4.383  14.987  40.455  1.00  0.00     0.161 C 
ENDBRANCH   9  10
BRANCH   9  15
HETATM   15  O2  UNL     1       2.632  17.613  38.773  1.00  0.00    -0.347 OA
ATOM     16  H2  UNL     1       2.787  18.514  39.035  1.00  0.00     0.219 HD
ENDBRANCH   9  15
ENDBRANCH   1   9
TORSDOF 3
ENDMDL
MODEL 4
REMARK VINA RESULT: -6.245571948      0.902      2.238
REMARK  3 active torsions:
REMARK  status: ('A' for Active; 'I' for Inactive)
REMARK       I    between atoms: C2_2  and  N1_4 
REMARK    1  A    between atoms: N1_4  and  C4_6 
REMARK    2  A    between atoms: C4_6  and  O2_7 
REMARK    3  A    between atoms: C4_6  and  C5_9 
ROOT
HETATM    1  C5  UNL     1       4.831  17.464  38.487  1.00  0.00     0.200 A 
HETATM    2  N2  UNL     1       6.074  16.838  38.146  1.00  0.00    -0.053 N 
ATOM      3  H21 UNL     1       6.178  16.321  37.272  1.00  0.00     0.279 HD
ATOM      4  H22 UNL     1       6.401  16.014  38.649  1.00  0.00     0.279 HD
HETATM    5  C6  UNL     1       6.712  18.124  38.331  1.00  0.00     0.195 C 
HETATM    6  C7  UNL     1       6.180  19.213  37.384  1.00  0.00     0.041 C 
HETATM    7  C8  UNL     1       4.856  18.906  38.060  1.00  0.00     0.041 A 
HETATM    8  C9  UNL     1       5.584  18.476  39.215  1.00  0.00     0.068 A 
ENDROOT
BRANCH   1   9
HETATM    9  C4  UNL     1       3.602  16.861  38.895  1.00  0.00     0.158 C 
BRANCH   9  10
HETATM   10  N1  UNL     1       3.217  15.638  39.370  1.00  0.00    -0.305 N 
HETATM   11  C2  UNL     1       4.022  14.610  39.860  1.00  0.00     0.221 C 
HETATM   12  C1  UNL     1       3.433  13.306  40.354  1.00  0.00     0.117 C 
HETATM   13  O1  UNL     1       5.252  14.673  39.934  1.00  0.00    -0.273 OA
HETATM   14  C3  UNL     1       1.761  15.311  39.390  1.00  0.00     0.161 C 
ENDBRANCH   9  10
BRANCH   9  15
HETATM   15  O2  UNL     1       2.584  17.703  38.781  1.00  0.00    -0.347 OA
ATOM     16  H2  UNL     1       2.115  17.597  37.961  1.00  0.00     0.219 HD
ENDBRANCH   9  15
ENDBRANCH   1   9
TORSDOF 3
ENDMDL
MODEL 5
REMARK VINA RESULT: -6.178380035      1.805      4.793
REMARK  3 active torsions:
REMARK  status: ('A' for Active; 'I' for Inactive)
REMARK       I    between atoms: C2_2  and  N1_4 
REMARK    1  A    between atoms: N1_4  and  C4_6 
REMARK    2  A    between atoms: C4_6  and  O2_7 
REMARK    3  A    between atoms: C4_6  and  C5_9 
ROOT
HETATM    1  C5  UNL     1       2.641  15.751  39.411  1.00  0.00     0.200 A 
HETATM    2  N2  UNL     1       1.294  15.336  39.152  1.00  0.00    -0.053 N 
ATOM      3  H21 UNL     1       1.008  15.037  38.219  1.00  0.00     0.279 HD
ATOM      4  H22 UNL     1       0.529  16.010  39.149  1.00  0.00     0.279 HD
HETATM    5  C6  UNL     1       1.439  14.379  40.228  1.00  0.00     0.195 C 
HETATM    6  C7  UNL     1       2.558  13.352  39.989  1.00  0.00     0.041 C 
HETATM    7  C8  UNL     1       3.438  14.588  39.934  1.00  0.00     0.041 A 
HETATM    8  C9  UNL     1       2.491  15.258  40.773  1.00  0.00     0.068 A 
ENDROOT
BRANCH   1   9
HETATM    9  C4  UNL     1       3.306  16.950  39.008  1.00  0.00     0.158 C 
BRANCH   9  10
HETATM   10  N1  UNL     1       4.595  17.312  38.729  1.00  0.00    -0.305 N 
HETATM   11  C2  UNL     1       5.043  18.319  37.874  1.00  0.00     0.221 C 
HETATM   12  C1  UNL     1       6.518  18.595  37.676  1.00  0.00     0.117 C 
HETATM   13  O1  UNL     1       4.295  19.054  37.224  1.00  0.00    -0.273 OA
HETATM   14  C3  UNL     1       5.702  16.568  39.399  1.00  0.00     0.161 C 
ENDBRANCH   9  10
BRANCH   9  15
HETATM   15  O2  UNL     1       2.456  17.958  38.874  1.00  0.00    -0.347 OA
ATOM     16  H2  UNL     1       2.082  18.004  38.002  1.00  0.00     0.219 HD
ENDBRANCH   9  15
ENDBRANCH   1   9
TORSDOF 3
ENDMDL
