MODEL 1
REMARK VINA RESULT: -7.648034869      0.000      0.000
REMARK  3 active torsions:
REMARK  status: ('A' for Active; 'I' for Inactive)
REMARK    1  A    between atoms: C2_2  and  C3_3 
REMARK    2  A    between atoms: C3_3  and  C4_4 
REMARK    3  A    between atoms: C4_4  and  C5_5 
ROOT
HETATM    1  C5  UNL     1      19.827  84.349   5.295  1.00  0.00    -0.013 C 
HETATM    2  C6  UNL     1      19.484  84.036   6.662  1.00  0.00    -0.004 C 
HETATM    3  C7  UNL     1      18.027  83.959   7.049  1.00  0.00     0.041 C 
HETATM    4  C8  UNL     1      17.983  84.072   8.560  1.00  0.00     0.010 C 
HETATM    5  C9  UNL     1      19.415  83.673   8.931  1.00  0.00     0.080 C 
HETATM    6  C10 UNL     1      20.092  84.626   7.906  1.00  0.00     0.254 C 
HETATM    7  O1  UNL     1      20.026  85.796   8.451  1.00  0.00    -0.190 OA
HETATM    8  O2  UNL     1      20.829  86.806   8.416  1.00  0.00    -0.198 OA
HETATM    9  C11 UNL     1      21.474  87.247   7.315  1.00  0.00     0.368 C 
HETATM   10  O3  UNL     1      20.998  87.668   6.079  1.00  0.00    -0.339 OA
HETATM   11  C12 UNL     1      21.265  86.548   5.208  1.00  0.00     0.240 C 
HETATM   12  C13 UNL     1      20.064  85.720   4.711  1.00  0.00     0.151 C 
HETATM   13  C14 UNL     1      19.976  85.930   3.283  1.00  0.00     0.058 C 
HETATM   14  O4  UNL     1      19.100  86.501   5.337  1.00  0.00    -0.219 OA
HETATM   15  O5  UNL     1      19.660  86.488   6.424  1.00  0.00    -0.188 OA
HETATM   16  C15 UNL     1      20.992  86.032   6.483  1.00  0.00     0.309 C 
HETATM   17  O6  UNL     1      21.736  85.125   6.905  1.00  0.00    -0.186 OA
HETATM   18  O7  UNL     1      21.472  84.276   7.834  1.00  0.00    -0.189 OA
ENDROOT
BRANCH   1  19
HETATM   19  C4  UNL     1      19.029  83.591   4.311  1.00  0.00    -0.006 C 
BRANCH  19  20
HETATM   20  C3  UNL     1      19.355  82.646   3.267  1.00  0.00    -0.022 C 
HETATM   21  C16 UNL     1      18.373  82.739   2.053  1.00  0.00     0.013 C 
HETATM   22  C17 UNL     1      18.156  81.266   2.160  1.00  0.00     0.002 C 
HETATM   23  C18 UNL     1      18.577  81.298   3.568  1.00  0.00     0.013 C 
BRANCH  20  24
HETATM   24  C2  UNL     1      20.643  82.210   2.708  1.00  0.00     0.009 C 
HETATM   25  C1  UNL     1      21.384  82.982   1.692  1.00  0.00     0.006 C 
ENDBRANCH  20  24
ENDBRANCH  19  20
ENDBRANCH   1  19
TORSDOF 3
ENDMDL
MODEL 2
REMARK VINA RESULT: -7.583307806      1.257      3.245
REMARK  3 active torsions:
REMARK  status: ('A' for Active; 'I' for Inactive)
REMARK    1  A    between atoms: C2_2  and  C3_3 
REMARK    2  A    between atoms: C3_3  and  C4_4 
REMARK    3  A    between atoms: C4_4  and  C5_5 
ROOT
HETATM    1  C5  UNL     1      18.978  84.216   5.505  1.00  0.00    -0.013 C 
HETATM    2  C6  UNL     1      19.939  85.290   5.412  1.00  0.00    -0.004 C 
HETATM    3  C7  UNL     1      21.356  84.966   5.006  1.00  0.00     0.041 C 
HETATM    4  C8  UNL     1      22.200  86.153   5.428  1.00  0.00     0.010 C 
HETATM    5  C9  UNL     1      21.135  87.248   5.550  1.00  0.00     0.080 C 
HETATM    6  C10 UNL     1      20.159  86.397   6.409  1.00  0.00     0.254 C 
HETATM    7  O1  UNL     1      20.660  86.424   7.600  1.00  0.00    -0.190 OA
HETATM    8  O2  UNL     1      20.105  86.425   8.765  1.00  0.00    -0.198 OA
HETATM    9  C11 UNL     1      19.047  85.667   9.122  1.00  0.00     0.368 C 
HETATM   10  O3  UNL     1      18.858  84.290   9.108  1.00  0.00    -0.339 OA
HETATM   11  C12 UNL     1      18.024  84.069   7.950  1.00  0.00     0.240 C 
HETATM   12  C13 UNL     1      18.661  83.386   6.724  1.00  0.00     0.151 C 
HETATM   13  C14 UNL     1      18.016  82.100   6.583  1.00  0.00     0.058 C 
HETATM   14  O4  UNL     1      19.906  83.199   7.312  1.00  0.00    -0.219 OA
HETATM   15  O5  UNL     1      20.002  84.356   7.698  1.00  0.00    -0.188 OA
HETATM   16  C15 UNL     1      18.851  85.167   7.669  1.00  0.00     0.309 C 
HETATM   17  O6  UNL     1      18.321  86.158   7.129  1.00  0.00    -0.186 OA
HETATM   18  O7  UNL     1      18.913  87.086   6.464  1.00  0.00    -0.189 OA
ENDROOT
BRANCH   1  19
HETATM   19  C4  UNL     1      19.030  83.294   4.354  1.00  0.00    -0.006 C 
BRANCH  19  20
HETATM   20  C3  UNL     1      19.335  83.454   2.950  1.00  0.00    -0.022 C 
HETATM   21  C16 UNL     1      18.488  84.589   2.284  1.00  0.00     0.013 C 
HETATM   22  C17 UNL     1      18.085  83.618   1.224  1.00  0.00     0.002 C 
HETATM   23  C18 UNL     1      18.373  82.497   2.129  1.00  0.00     0.013 C 
BRANCH  20  24
HETATM   24  C2  UNL     1      20.606  83.417   2.214  1.00  0.00     0.009 C 
HETATM   25  C1  UNL     1      21.346  82.169   1.944  1.00  0.00     0.006 C 
ENDBRANCH  20  24
ENDBRANCH  19  20
ENDBRANCH   1  19
TORSDOF 3
ENDMDL
MODEL 3
REMARK VINA RESULT: -7.425476236      1.629      2.377
REMARK  3 active torsions:
REMARK  status: ('A' for Active; 'I' for Inactive)
REMARK    1  A    between atoms: C2_2  and  C3_3 
REMARK    2  A    between atoms: C3_3  and  C4_4 
REMARK    3  A    between atoms: C4_4  and  C5_5 
ROOT
HETATM    1  C5  UNL     1      20.755  85.152   5.241  1.00  0.00    -0.013 C 
HETATM    2  C6  UNL     1      19.957  85.561   6.371  1.00  0.00    -0.004 C 
HETATM    3  C7  UNL     1      18.969  86.690   6.196  1.00  0.00     0.041 C 
HETATM    4  C8  UNL     1      18.635  87.182   7.590  1.00  0.00     0.010 C 
HETATM    5  C9  UNL     1      19.037  85.970   8.438  1.00  0.00     0.080 C 
HETATM    6  C10 UNL     1      20.434  85.799   7.780  1.00  0.00     0.254 C 
HETATM    7  O1  UNL     1      21.167  86.716   8.319  1.00  0.00    -0.190 OA
HETATM    8  O2  UNL     1      22.419  86.743   8.629  1.00  0.00    -0.198 OA
HETATM    9  C11 UNL     1      23.419  86.257   7.863  1.00  0.00     0.368 C 
HETATM   10  O3  UNL     1      23.804  86.553   6.561  1.00  0.00    -0.339 OA
HETATM   11  C12 UNL     1      23.310  85.435   5.793  1.00  0.00     0.240 C 
HETATM   12  C13 UNL     1      22.114  85.679   4.852  1.00  0.00     0.151 C 
HETATM   13  C14 UNL     1      22.604  85.507   3.503  1.00  0.00     0.058 C 
HETATM   14  O4  UNL     1      22.014  87.039   5.121  1.00  0.00    -0.219 OA
HETATM   15  O5  UNL     1      22.034  86.896   6.335  1.00  0.00    -0.188 OA
HETATM   16  C15 UNL     1      22.417  85.644   6.854  1.00  0.00     0.309 C 
HETATM   17  O6  UNL     1      22.018  84.637   7.473  1.00  0.00    -0.186 OA
HETATM   18  O7  UNL     1      20.961  84.543   8.198  1.00  0.00    -0.189 OA
ENDROOT
BRANCH   1  19
HETATM   19  C4  UNL     1      19.971  85.016   3.998  1.00  0.00    -0.006 C 
BRANCH  19  20
HETATM   20  C3  UNL     1      19.345  83.903   3.321  1.00  0.00    -0.022 C 
HETATM   21  C16 UNL     1      20.271  83.275   2.227  1.00  0.00     0.013 C 
HETATM   22  C17 UNL     1      19.152  83.413   1.250  1.00  0.00     0.002 C 
HETATM   23  C18 UNL     1      18.553  84.474   2.072  1.00  0.00     0.013 C 
BRANCH  20  24
HETATM   24  C2  UNL     1      18.505  82.802   3.816  1.00  0.00     0.009 C 
HETATM   25  C1  UNL     1      18.353  82.486   5.249  1.00  0.00     0.006 C 
ENDBRANCH  20  24
ENDBRANCH  19  20
ENDBRANCH   1  19
TORSDOF 3
ENDMDL
MODEL 4
REMARK VINA RESULT: -6.973786077      5.156      7.712
REMARK  3 active torsions:
REMARK  status: ('A' for Active; 'I' for Inactive)
REMARK    1  A    between atoms: C2_2  and  C3_3 
REMARK    2  A    between atoms: C3_3  and  C4_4 
REMARK    3  A    between atoms: C4_4  and  C5_5 
ROOT
HETATM    1  C5  UNL     1      22.297  83.338   0.845  1.00  0.00    -0.013 C 
HETATM    2  C6  UNL     1      20.923  83.035   1.167  1.00  0.00    -0.004 C 
HETATM    3  C7  UNL     1      20.629  82.172   2.370  1.00  0.00     0.041 C 
HETATM    4  C8  UNL     1      19.210  81.666   2.192  1.00  0.00     0.010 C 
HETATM    5  C9  UNL     1      18.650  82.692   1.201  1.00  0.00     0.080 C 
HETATM    6  C10 UNL     1      19.845  82.594   0.212  1.00  0.00     0.254 C 
HETATM    7  O1  UNL     1      19.642  81.500  -0.443  1.00  0.00    -0.190 OA
HETATM    8  O2  UNL     1      19.893  81.172  -1.666  1.00  0.00    -0.198 OA
HETATM    9  C11 UNL     1      21.026  81.476  -2.334  1.00  0.00     0.368 C 
HETATM   10  O3  UNL     1      22.359  81.198  -2.056  1.00  0.00    -0.339 OA
HETATM   11  C12 UNL     1      22.876  82.451  -1.561  1.00  0.00     0.240 C 
HETATM   12  C13 UNL     1      23.212  82.550  -0.060  1.00  0.00     0.151 C 
HETATM   13  C14 UNL     1      24.646  82.706   0.037  1.00  0.00     0.058 C 
HETATM   14  O4  UNL     1      22.885  81.230   0.232  1.00  0.00    -0.219 OA
HETATM   15  O5  UNL     1      21.800  81.276  -0.329  1.00  0.00    -0.188 OA
HETATM   16  C15 UNL     1      21.530  82.370  -1.174  1.00  0.00     0.309 C 
HETATM   17  O6  UNL     1      20.831  83.392  -1.320  1.00  0.00    -0.186 OA
HETATM   18  O7  UNL     1      19.728  83.667  -0.719  1.00  0.00    -0.189 OA
ENDROOT
BRANCH   1  19
HETATM   19  C4  UNL     1      23.092  83.736   2.024  1.00  0.00    -0.006 C 
BRANCH  19  20
HETATM   20  C3  UNL     1      23.345  84.995   2.687  1.00  0.00    -0.022 C 
HETATM   21  C16 UNL     1      24.598  85.732   2.107  1.00  0.00     0.013 C 
HETATM   22  C17 UNL     1      25.126  85.853   3.497  1.00  0.00     0.002 C 
HETATM   23  C18 UNL     1      24.300  84.714   3.921  1.00  0.00     0.013 C 
BRANCH  20  24
HETATM   24  C2  UNL     1      22.440  86.053   3.157  1.00  0.00     0.009 C 
HETATM   25  C1  UNL     1      21.071  85.787   3.643  1.00  0.00     0.006 C 
ENDBRANCH  20  24
ENDBRANCH  19  20
ENDBRANCH   1  19
TORSDOF 3
ENDMDL
MODEL 5
REMARK VINA RESULT: -6.947157869      4.644      7.302
REMARK  3 active torsions:
REMARK  status: ('A' for Active; 'I' for Inactive)
REMARK    1  A    between atoms: C2_2  and  C3_3 
REMARK    2  A    between atoms: C3_3  and  C4_4 
REMARK    3  A    between atoms: C4_4  and  C5_5 
ROOT
HETATM    1  C5  UNL     1      20.842  83.335   1.341  1.00  0.00    -0.013 C 
HETATM    2  C6  UNL     1      19.597  82.689   1.000  1.00  0.00    -0.004 C 
HETATM    3  C7  UNL     1      19.046  81.633   1.927  1.00  0.00     0.041 C 
HETATM    4  C8  UNL     1      18.033  80.846   1.119  1.00  0.00     0.010 C 
HETATM    5  C9  UNL     1      17.714  81.837  -0.005  1.00  0.00     0.080 C 
HETATM    6  C10 UNL     1      19.199  82.143  -0.345  1.00  0.00     0.254 C 
HETATM    7  O1  UNL     1      19.595  81.126  -1.036  1.00  0.00    -0.190 OA
HETATM    8  O2  UNL     1      20.429  81.025  -2.016  1.00  0.00    -0.198 OA
HETATM    9  C11 UNL     1      21.616  81.663  -2.094  1.00  0.00     0.368 C 
HETATM   10  O3  UNL     1      22.716  81.661  -1.244  1.00  0.00    -0.339 OA
HETATM   11  C12 UNL     1      22.619  82.924  -0.552  1.00  0.00     0.240 C 
HETATM   12  C13 UNL     1      22.230  82.900   0.939  1.00  0.00     0.151 C 
HETATM   13  C14 UNL     1      23.382  83.364   1.678  1.00  0.00     0.058 C 
HETATM   14  O4  UNL     1      22.166  81.515   1.034  1.00  0.00    -0.219 OA
HETATM   15  O5  UNL     1      21.463  81.385   0.042  1.00  0.00    -0.188 OA
HETATM   16  C15 UNL     1      21.313  82.490  -0.819  1.00  0.00     0.309 C 
HETATM   17  O6  UNL     1      20.506  83.336  -1.252  1.00  0.00    -0.186 OA
HETATM   18  O7  UNL     1      19.222  83.273  -1.214  1.00  0.00    -0.189 OA
ENDROOT
BRANCH   1  19
HETATM   19  C4  UNL     1      20.911  83.747   2.757  1.00  0.00    -0.006 C 
BRANCH  19  20
HETATM   20  C3  UNL     1      20.729  85.003   3.449  1.00  0.00    -0.022 C 
HETATM   21  C16 UNL     1      20.342  84.804   4.952  1.00  0.00     0.013 C 
HETATM   22  C17 UNL     1      19.181  85.717   4.737  1.00  0.00     0.002 C 
HETATM   23  C18 UNL     1      19.210  85.430   3.296  1.00  0.00     0.013 C 
BRANCH  20  24
HETATM   24  C2  UNL     1      21.474  86.269   3.391  1.00  0.00     0.009 C 
HETATM   25  C1  UNL     1      22.871  86.405   3.848  1.00  0.00     0.006 C 
ENDBRANCH  20  24
ENDBRANCH  19  20
ENDBRANCH   1  19
TORSDOF 3
ENDMDL
