MODEL 1
REMARK VINA RESULT: -6.884710998      0.000      0.000
REMARK  4 active torsions:
REMARK  status: ('A' for Active; 'I' for Inactive)
REMARK    1  A    between atoms: C16_20  and  N2_21 
REMARK       I    between atoms: N2_21  and  C17_23 
REMARK       I    between atoms: C17_23  and  N3_25 
REMARK    2  A    between atoms: N3_25  and  C18_27 
REMARK    3  A    between atoms: C18_27  and  C19_28 
REMARK    4  A    between atoms: C19_28  and  O2_29 
ROOT
HETATM    1  C1  UNL     1      15.561   7.101   4.888  1.00  0.00     0.015 C 
HETATM    2  C2  UNL     1      16.200   8.402   5.388  1.00  0.00    -0.037 C 
HETATM    3  C3  UNL     1      15.838   9.377   4.234  1.00  0.00     0.015 C 
HETATM    4  C4  UNL     1      15.457   8.814   6.546  1.00  0.00     0.021 C 
HETATM    5  C5  UNL     1      15.139   7.808   7.623  1.00  0.00     0.238 C 
HETATM    6  N1  UNL     1      15.874   8.188   8.805  1.00  0.00    -0.070 N 
ATOM      7  H11 UNL     1      16.510   7.455   9.119  1.00  0.00     0.277 HD
ATOM      8  H12 UNL     1      15.282   8.227   9.635  1.00  0.00     0.277 HD
HETATM    9  C6  UNL     1      16.555   9.436   8.559  1.00  0.00     0.190 C 
HETATM   10  C7  UNL     1      15.889   9.982   7.360  1.00  0.00     0.040 C 
HETATM   11  C8  UNL     1      18.048   9.219   8.510  1.00  0.00     0.020 C 
HETATM   12  C9  UNL     1      18.801  10.194   7.679  1.00  0.00     0.013 C 
HETATM   13  C10 UNL     1      19.373   9.732   6.411  1.00  0.00     0.012 C 
HETATM   14  C11 UNL     1      20.232   8.507   6.721  1.00  0.00     0.050 C 
HETATM   15  C12 UNL     1      19.244   7.460   7.119  1.00  0.00     0.104 C 
HETATM   16  F1  UNL     1      20.014   6.313   7.388  1.00  0.00    -0.243 F 
HETATM   17  C13 UNL     1      18.468   7.788   8.353  1.00  0.00     0.050 C 
HETATM   18  C14 UNL     1      18.277   7.101   6.031  1.00  0.00     0.051 C 
HETATM   19  C15 UNL     1      17.662   8.230   5.287  1.00  0.00     0.020 C 
HETATM   20  C16 UNL     1      18.506   9.482   5.230  1.00  0.00     0.095 C 
ENDROOT
BRANCH  20  21
HETATM   21  N2  UNL     1      19.438   9.438   4.098  1.00  0.00    -0.338 N 
HETATM   22  C17 UNL     1      19.482  10.423   3.084  1.00  0.00     0.316 C 
HETATM   23  O1  UNL     1      18.670  11.376   3.181  1.00  0.00    -0.247 OA
HETATM   24  N3  UNL     1      20.367  10.390   1.999  1.00  0.00    -0.341 N 
ATOM     25  H3  UNL     1      21.011   9.601   1.950  1.00  0.00     0.164 HD
ATOM     26  H2  UNL     1      20.090   8.655   4.039  1.00  0.00     0.164 HD
BRANCH  24  27
HETATM   27  C18 UNL     1      20.453  11.370   0.944  1.00  0.00     0.150 C 
BRANCH  27  28
HETATM   28  C19 UNL     1      21.161  10.872  -0.272  1.00  0.00     0.183 C 
BRANCH  28  29
HETATM   29  O2  UNL     1      22.250  10.054   0.041  1.00  0.00    -0.399 OA
ATOM     30  H2  UNL     1      22.096   9.143  -0.180  1.00  0.00     0.209 HD
ENDBRANCH  28  29
ENDBRANCH  27  28
ENDBRANCH  24  27
ENDBRANCH  20  21
TORSDOF 4
ENDMDL
MODEL 2
REMARK VINA RESULT: -6.377262267      2.534      4.155
REMARK  4 active torsions:
REMARK  status: ('A' for Active; 'I' for Inactive)
REMARK    1  A    between atoms: C16_20  and  N2_21 
REMARK       I    between atoms: N2_21  and  C17_23 
REMARK       I    between atoms: C17_23  and  N3_25 
REMARK    2  A    between atoms: N3_25  and  C18_27 
REMARK    3  A    between atoms: C18_27  and  C19_28 
REMARK    4  A    between atoms: C19_28  and  O2_29 
ROOT
HETATM    1  C1  UNL     1      19.629  11.425   7.171  1.00  0.00     0.015 C 
HETATM    2  C2  UNL     1      19.427  10.112   6.404  1.00  0.00    -0.037 C 
HETATM    3  C3  UNL     1      20.112  10.447   5.051  1.00  0.00     0.015 C 
HETATM    4  C4  UNL     1      20.232   9.119   7.057  1.00  0.00     0.021 C 
HETATM    5  C5  UNL     1      20.182   8.991   8.560  1.00  0.00     0.238 C 
HETATM    6  N1  UNL     1      19.576   7.718   8.868  1.00  0.00    -0.070 N 
ATOM      7  H11 UNL     1      18.731   7.817   9.430  1.00  0.00     0.277 HD
ATOM      8  H12 UNL     1      20.128   7.177   9.534  1.00  0.00     0.277 HD
HETATM    9  C6  UNL     1      19.338   6.997   7.641  1.00  0.00     0.190 C 
HETATM   10  C7  UNL     1      20.175   7.691   6.644  1.00  0.00     0.040 C 
HETATM   11  C8  UNL     1      17.856   6.886   7.377  1.00  0.00     0.020 C 
HETATM   12  C9  UNL     1      17.476   6.764   5.946  1.00  0.00     0.013 C 
HETATM   13  C10 UNL     1      16.821   7.905   5.300  1.00  0.00     0.012 C 
HETATM   14  C11 UNL     1      15.607   8.272   6.153  1.00  0.00     0.050 C 
HETATM   15  C12 UNL     1      16.197   8.811   7.415  1.00  0.00     0.104 C 
HETATM   16  F1  UNL     1      15.093   9.176   8.208  1.00  0.00    -0.243 F 
HETATM   17  C13 UNL     1      17.004   7.819   8.186  1.00  0.00     0.050 C 
HETATM   18  C14 UNL     1      17.026  10.043   7.212  1.00  0.00     0.051 C 
HETATM   19  C15 UNL     1      17.990  10.019   6.082  1.00  0.00     0.020 C 
HETATM   20  C16 UNL     1      17.593   9.121   4.934  1.00  0.00     0.095 C 
ENDROOT
BRANCH  20  21
HETATM   21  N2  UNL     1      16.726   9.829   3.985  1.00  0.00    -0.338 N 
HETATM   22  C17 UNL     1      17.150  10.250   2.704  1.00  0.00     0.316 C 
HETATM   23  O1  UNL     1      18.337   9.991   2.383  1.00  0.00    -0.247 OA
HETATM   24  N3  UNL     1      16.332  10.928   1.792  1.00  0.00    -0.341 N 
ATOM     25  H3  UNL     1      15.375  11.124   2.085  1.00  0.00     0.164 HD
ATOM     26  H2  UNL     1      15.766  10.029   4.265  1.00  0.00     0.164 HD
BRANCH  24  27
HETATM   27  C18 UNL     1      16.716  11.373   0.475  1.00  0.00     0.150 C 
BRANCH  27  28
HETATM   28  C19 UNL     1      15.701  12.255  -0.173  1.00  0.00     0.183 C 
BRANCH  28  29
HETATM   29  O2  UNL     1      15.661  13.532   0.396  1.00  0.00    -0.399 OA
ATOM     30  H2  UNL     1      15.725  14.221  -0.254  1.00  0.00     0.209 HD
ENDBRANCH  28  29
ENDBRANCH  27  28
ENDBRANCH  24  27
ENDBRANCH  20  21
TORSDOF 4
ENDMDL
MODEL 3
REMARK VINA RESULT: -5.913436504      8.483     10.501
REMARK  4 active torsions:
REMARK  status: ('A' for Active; 'I' for Inactive)
REMARK    1  A    between atoms: C16_20  and  N2_21 
REMARK       I    between atoms: N2_21  and  C17_23 
REMARK       I    between atoms: C17_23  and  N3_25 
REMARK    2  A    between atoms: N3_25  and  C18_27 
REMARK    3  A    between atoms: C18_27  and  C19_28 
REMARK    4  A    between atoms: C19_28  and  O2_29 
ROOT
HETATM    1  C1  UNL     1      15.427  10.999  -2.600  1.00  0.00     0.015 C 
HETATM    2  C2  UNL     1      13.897  10.945  -2.690  1.00  0.00    -0.037 C 
HETATM    3  C3  UNL     1      13.610  12.139  -3.641  1.00  0.00     0.015 C 
HETATM    4  C4  UNL     1      13.563   9.743  -3.400  1.00  0.00     0.021 C 
HETATM    5  C5  UNL     1      14.222   8.442  -3.013  1.00  0.00     0.238 C 
HETATM    6  N1  UNL     1      13.202   7.585  -2.458  1.00  0.00    -0.070 N 
ATOM      7  H11 UNL     1      13.411   7.304  -1.499  1.00  0.00     0.277 HD
ATOM      8  H12 UNL     1      13.203   6.657  -2.881  1.00  0.00     0.277 HD
HETATM    9  C6  UNL     1      11.921   8.239  -2.571  1.00  0.00     0.190 C 
HETATM   10  C7  UNL     1      12.147   9.312  -3.557  1.00  0.00     0.040 C 
HETATM   11  C8  UNL     1      11.404   8.620  -1.205  1.00  0.00     0.020 C 
HETATM   12  C9  UNL     1      10.490   9.791  -1.180  1.00  0.00     0.013 C 
HETATM   13  C10 UNL     1      10.980  11.046  -0.602  1.00  0.00     0.012 C 
HETATM   14  C11 UNL     1      11.490  10.727   0.803  1.00  0.00     0.050 C 
HETATM   15  C12 UNL     1      12.707   9.891   0.569  1.00  0.00     0.104 C 
HETATM   16  F1  UNL     1      13.206   9.605   1.853  1.00  0.00    -0.243 F 
HETATM   17  C13 UNL     1      12.434   8.592  -0.115  1.00  0.00     0.050 C 
HETATM   18  C14 UNL     1      13.790  10.606  -0.181  1.00  0.00     0.051 C 
HETATM   19  C15 UNL     1      13.374  11.378  -1.380  1.00  0.00     0.020 C 
HETATM   20  C16 UNL     1      11.955  11.894  -1.336  1.00  0.00     0.095 C 
ENDROOT
BRANCH  20  21
HETATM   21  N2  UNL     1      11.887  13.194  -0.658  1.00  0.00    -0.338 N 
HETATM   22  C17 UNL     1      11.336  14.354  -1.248  1.00  0.00     0.316 C 
HETATM   23  O1  UNL     1      10.885  14.240  -2.416  1.00  0.00    -0.247 OA
HETATM   24  N3  UNL     1      11.267  15.599  -0.612  1.00  0.00    -0.341 N 
ATOM     25  H3  UNL     1      11.644  15.657   0.334  1.00  0.00     0.164 HD
ATOM     26  H2  UNL     1      12.258  13.264   0.290  1.00  0.00     0.164 HD
BRANCH  24  27
HETATM   27  C18 UNL     1      10.712  16.808  -1.168  1.00  0.00     0.150 C 
BRANCH  27  28
HETATM   28  C19 UNL     1      11.673  17.563  -2.025  1.00  0.00     0.183 C 
BRANCH  28  29
HETATM   29  O2  UNL     1      11.610  17.179  -3.367  1.00  0.00    -0.399 OA
ATOM     30  H2  UNL     1      10.785  17.417  -3.774  1.00  0.00     0.209 HD
ENDBRANCH  28  29
ENDBRANCH  27  28
ENDBRANCH  24  27
ENDBRANCH  20  21
TORSDOF 4
ENDMDL
MODEL 4
REMARK VINA RESULT: -5.759177131      3.155      7.262
REMARK  4 active torsions:
REMARK  status: ('A' for Active; 'I' for Inactive)
REMARK    1  A    between atoms: C16_20  and  N2_21 
REMARK       I    between atoms: N2_21  and  C17_23 
REMARK       I    between atoms: C17_23  and  N3_25 
REMARK    2  A    between atoms: N3_25  and  C18_27 
REMARK    3  A    between atoms: C18_27  and  C19_28 
REMARK    4  A    between atoms: C19_28  and  O2_29 
ROOT
HETATM    1  C1  UNL     1      16.289  13.147   0.240  1.00  0.00     0.015 C 
HETATM    2  C2  UNL     1      17.167  11.893   0.323  1.00  0.00    -0.037 C 
HETATM    3  C3  UNL     1      16.091  10.773   0.339  1.00  0.00     0.015 C 
HETATM    4  C4  UNL     1      17.870  11.793  -0.926  1.00  0.00     0.021 C 
HETATM    5  C5  UNL     1      18.554  13.011  -1.495  1.00  0.00     0.238 C 
HETATM    6  N1  UNL     1      19.977  12.769  -1.458  1.00  0.00    -0.070 N 
ATOM      7  H11 UNL     1      20.474  13.466  -0.904  1.00  0.00     0.277 HD
ATOM      8  H12 UNL     1      20.424  12.954  -2.355  1.00  0.00     0.277 HD
HETATM    9  C6  UNL     1      20.216  11.424  -0.993  1.00  0.00     0.190 C 
HETATM   10  C7  UNL     1      18.911  10.751  -1.139  1.00  0.00     0.040 C 
HETATM   11  C8  UNL     1      20.859  11.448   0.373  1.00  0.00     0.020 C 
HETATM   12  C9  UNL     1      20.594  10.254   1.217  1.00  0.00     0.013 C 
HETATM   13  C10 UNL     1      19.707  10.403   2.375  1.00  0.00     0.012 C 
HETATM   14  C11 UNL     1      20.256  11.553   3.220  1.00  0.00     0.050 C 
HETATM   15  C12 UNL     1      20.024  12.766   2.379  1.00  0.00     0.104 C 
HETATM   16  F1  UNL     1      20.502  13.842   3.150  1.00  0.00    -0.243 F 
HETATM   17  C13 UNL     1      20.768  12.766   1.085  1.00  0.00     0.050 C 
HETATM   18  C14 UNL     1      18.576  13.032   2.095  1.00  0.00     0.051 C 
HETATM   19  C15 UNL     1      17.754  11.867   1.676  1.00  0.00     0.020 C 
HETATM   20  C16 UNL     1      18.238  10.535   2.198  1.00  0.00     0.095 C 
ENDROOT
BRANCH  20  21
HETATM   21  N2  UNL     1      17.686  10.257   3.529  1.00  0.00    -0.338 N 
HETATM   22  C17 UNL     1      17.915   9.053   4.234  1.00  0.00     0.316 C 
HETATM   23  O1  UNL     1      18.633   8.191   3.670  1.00  0.00    -0.247 OA
HETATM   24  N3  UNL     1      17.392   8.778   5.504  1.00  0.00    -0.341 N 
ATOM     25  H3  UNL     1      16.811   9.499   5.931  1.00  0.00     0.164 HD
ATOM     26  H2  UNL     1      17.105  10.971   3.969  1.00  0.00     0.164 HD
BRANCH  24  27
HETATM   27  C18 UNL     1      17.600   7.570   6.263  1.00  0.00     0.150 C 
BRANCH  27  28
HETATM   28  C19 UNL     1      18.761   7.648   7.198  1.00  0.00     0.183 C 
BRANCH  28  29
HETATM   29  O2  UNL     1      19.971   7.861   6.530  1.00  0.00    -0.399 OA
ATOM     30  H2  UNL     1      20.025   8.728   6.146  1.00  0.00     0.209 HD
ENDBRANCH  28  29
ENDBRANCH  27  28
ENDBRANCH  24  27
ENDBRANCH  20  21
TORSDOF 4
ENDMDL
MODEL 5
REMARK VINA RESULT: -5.647455867      6.325      8.691
REMARK  4 active torsions:
REMARK  status: ('A' for Active; 'I' for Inactive)
REMARK    1  A    between atoms: C16_20  and  N2_21 
REMARK       I    between atoms: N2_21  and  C17_23 
REMARK       I    between atoms: C17_23  and  N3_25 
REMARK    2  A    between atoms: N3_25  and  C18_27 
REMARK    3  A    between atoms: C18_27  and  C19_28 
REMARK    4  A    between atoms: C19_28  and  O2_29 
ROOT
HETATM    1  C1  UNL     1      14.570  12.094  -3.211  1.00  0.00     0.015 C 
HETATM    2  C2  UNL     1      13.947  12.279  -1.822  1.00  0.00    -0.037 C 
HETATM    3  C3  UNL     1      14.885  13.356  -1.213  1.00  0.00     0.015 C 
HETATM    4  C4  UNL     1      12.663  12.891  -2.018  1.00  0.00     0.021 C 
HETATM    5  C5  UNL     1      11.728  12.339  -3.066  1.00  0.00     0.238 C 
HETATM    6  N1  UNL     1      10.591  11.773  -2.380  1.00  0.00    -0.070 N 
ATOM      7  H11 UNL     1      10.470  10.781  -2.584  1.00  0.00     0.277 HD
ATOM      8  H12 UNL     1       9.704  12.106  -2.759  1.00  0.00     0.277 HD
HETATM    9  C6  UNL     1      10.714  12.032  -0.966  1.00  0.00     0.190 C 
HETATM   10  C7  UNL     1      11.729  13.100  -0.879  1.00  0.00     0.040 C 
HETATM   11  C8  UNL     1      10.963  10.746  -0.216  1.00  0.00     0.020 C 
HETATM   12  C9  UNL     1      11.710  10.893   1.059  1.00  0.00     0.013 C 
HETATM   13  C10 UNL     1      13.092  10.405   1.118  1.00  0.00     0.012 C 
HETATM   14  C11 UNL     1      13.076   8.946   0.664  1.00  0.00     0.050 C 
HETATM   15  C12 UNL     1      12.738   9.019  -0.789  1.00  0.00     0.104 C 
HETATM   16  F1  UNL     1      12.741   7.684  -1.233  1.00  0.00    -0.243 F 
HETATM   17  C13 UNL     1      11.390   9.593  -1.076  1.00  0.00     0.050 C 
HETATM   18  C14 UNL     1      13.754   9.761  -1.605  1.00  0.00     0.051 C 
HETATM   19  C15 UNL     1      14.237  11.053  -1.053  1.00  0.00     0.020 C 
HETATM   20  C16 UNL     1      14.192  11.151   0.453  1.00  0.00     0.095 C 
ENDROOT
BRANCH  20  21
HETATM   21  N2  UNL     1      15.414  10.607   1.055  1.00  0.00    -0.338 N 
HETATM   22  C17 UNL     1      16.421  11.409   1.641  1.00  0.00     0.316 C 
HETATM   23  O1  UNL     1      16.234  12.651   1.635  1.00  0.00    -0.247 OA
HETATM   24  N3  UNL     1      17.591  10.900   2.217  1.00  0.00    -0.341 N 
ATOM     25  H3  UNL     1      17.712   9.887   2.202  1.00  0.00     0.164 HD
ATOM     26  H2  UNL     1      15.546   9.595   1.050  1.00  0.00     0.164 HD
BRANCH  24  27
HETATM   27  C18 UNL     1      18.643  11.674   2.829  1.00  0.00     0.150 C 
BRANCH  27  28
HETATM   28  C19 UNL     1      19.658  12.171   1.855  1.00  0.00     0.183 C 
BRANCH  28  29
HETATM   29  O2  UNL     1      19.300  13.398   1.288  1.00  0.00    -0.399 OA
ATOM     30  H2  UNL     1      19.269  13.364   0.339  1.00  0.00     0.209 HD
ENDBRANCH  28  29
ENDBRANCH  27  28
ENDBRANCH  24  27
ENDBRANCH  20  21
TORSDOF 4
ENDMDL
