MODEL 1
REMARK VINA RESULT: -7.579372905      0.000      0.000
REMARK  4 active torsions:
REMARK  status: ('A' for Active; 'I' for Inactive)
REMARK    1  A    between atoms: C2_2  and  C4_4 
REMARK    2  A    between atoms: C4_4  and  C5_6 
REMARK    3  A    between atoms: C5_6  and  C6_7 
REMARK    4  A    between atoms: C6_7  and  C7_8 
ROOT
HETATM    1  C7  UNL     1      20.248  84.083   3.711  1.00  0.00     0.273 C 
HETATM    2  O2  UNL     1      21.603  83.752   3.635  1.00  0.00    -0.289 OA
HETATM    3  C8  UNL     1      22.733  84.490   3.762  1.00  0.00     0.269 C 
HETATM    4  O3  UNL     1      23.509  84.583   2.755  1.00  0.00    -0.264 OA
HETATM    5  C9  UNL     1      23.171  85.213   4.968  1.00  0.00     0.050 C 
HETATM    6  C10 UNL     1      24.579  85.808   4.856  1.00  0.00     0.026 C 
HETATM    7  C11 UNL     1      22.130  86.179   5.511  1.00  0.00     0.062 C 
HETATM    8  C12 UNL     1      21.837  85.283   6.589  1.00  0.00     0.116 C 
HETATM    9  C13 UNL     1      22.982  84.424   6.264  1.00  0.00     0.062 C 
HETATM   10  O4  UNL     1      21.880  86.024   7.816  1.00  0.00    -0.225 OA
HETATM   11  O5  UNL     1      20.767  86.744   7.580  1.00  0.00    -0.199 OA
HETATM   12  C14 UNL     1      19.769  85.878   7.211  1.00  0.00     0.211 C 
HETATM   13  C15 UNL     1      18.562  85.783   8.035  1.00  0.00     0.083 C 
HETATM   14  O6  UNL     1      19.424  85.868   5.829  1.00  0.00    -0.321 OA
HETATM   15  C16 UNL     1      19.492  84.509   5.902  1.00  0.00     0.283 C 
HETATM   16  O7  UNL     1      19.790  83.666   4.935  1.00  0.00    -0.330 OA
HETATM   17  C17 UNL     1      20.566  84.636   6.875  1.00  0.00     0.099 C 
HETATM   18  C18 UNL     1      20.613  83.556   7.878  1.00  0.00     0.029 C 
ENDROOT
BRANCH   1  19
HETATM   19  C6  UNL     1      19.436  83.287   2.679  1.00  0.00     0.069 C 
BRANCH  19  20
HETATM   20  C5  UNL     1      19.751  81.843   2.639  1.00  0.00     0.083 C 
BRANCH  20  21
HETATM   21  C4  UNL     1      18.617  80.916   2.733  1.00  0.00     0.130 C 
HETATM   22  O1  UNL     1      17.985  80.754   3.738  1.00  0.00    -0.298 OA
BRANCH  21  23
HETATM   23  C2  UNL     1      18.246  80.147   1.504  1.00  0.00     0.047 C 
HETATM   24  C1  UNL     1      17.727  81.076   0.423  1.00  0.00     0.017 C 
HETATM   25  C3  UNL     1      17.125  79.203   1.880  1.00  0.00     0.017 C 
ENDBRANCH  21  23
ENDBRANCH  20  21
ENDBRANCH  19  20
ENDBRANCH   1  19
TORSDOF 4
ENDMDL
MODEL 2
REMARK VINA RESULT: -7.561109334      3.190      7.470
REMARK  4 active torsions:
REMARK  status: ('A' for Active; 'I' for Inactive)
REMARK    1  A    between atoms: C2_2  and  C4_4 
REMARK    2  A    between atoms: C4_4  and  C5_6 
REMARK    3  A    between atoms: C5_6  and  C6_7 
REMARK    4  A    between atoms: C6_7  and  C7_8 
ROOT
HETATM    1  C7  UNL     1      19.170  81.022   2.104  1.00  0.00     0.273 C 
HETATM    2  O2  UNL     1      20.132  82.019   1.921  1.00  0.00    -0.289 OA
HETATM    3  C8  UNL     1      21.273  82.066   1.191  1.00  0.00     0.269 C 
HETATM    4  O3  UNL     1      22.379  82.214   1.807  1.00  0.00    -0.264 OA
HETATM    5  C9  UNL     1      21.374  81.961  -0.275  1.00  0.00     0.050 C 
HETATM    6  C10 UNL     1      22.782  82.228  -0.819  1.00  0.00     0.026 C 
HETATM    7  C11 UNL     1      20.715  80.715  -0.844  1.00  0.00     0.062 C 
HETATM    8  C12 UNL     1      19.620  81.497  -1.334  1.00  0.00     0.116 C 
HETATM    9  C13 UNL     1      20.308  82.758  -1.027  1.00  0.00     0.062 C 
HETATM   10  O4  UNL     1      19.409  81.165  -2.713  1.00  0.00    -0.225 OA
HETATM   11  O5  UNL     1      18.943  79.922  -2.484  1.00  0.00    -0.199 OA
HETATM   12  C14 UNL     1      17.962  80.004  -1.529  1.00  0.00     0.211 C 
HETATM   13  C15 UNL     1      16.599  79.584  -1.865  1.00  0.00     0.083 C 
HETATM   14  O6  UNL     1      18.312  79.546  -0.227  1.00  0.00    -0.321 OA
HETATM   15  C16 UNL     1      17.762  80.700   0.242  1.00  0.00     0.283 C 
HETATM   16  O7  UNL     1      18.080  81.354   1.340  1.00  0.00    -0.330 OA
HETATM   17  C17 UNL     1      18.219  81.382  -0.960  1.00  0.00     0.099 C 
HETATM   18  C18 UNL     1      17.348  82.485  -1.405  1.00  0.00     0.029 C 
ENDROOT
BRANCH   1  19
HETATM   19  C6  UNL     1      18.665  81.016   3.554  1.00  0.00     0.069 C 
BRANCH  19  20
HETATM   20  C5  UNL     1      18.723  82.332   4.225  1.00  0.00     0.083 C 
BRANCH  20  21
HETATM   21  C4  UNL     1      18.552  82.339   5.683  1.00  0.00     0.130 C 
HETATM   22  O1  UNL     1      17.860  81.554   6.265  1.00  0.00    -0.298 OA
BRANCH  21  23
HETATM   23  C2  UNL     1      19.288  83.384   6.462  1.00  0.00     0.047 C 
HETATM   24  C1  UNL     1      18.585  83.672   7.775  1.00  0.00     0.017 C 
HETATM   25  C3  UNL     1      19.274  84.655   5.642  1.00  0.00     0.017 C 
ENDBRANCH  21  23
ENDBRANCH  20  21
ENDBRANCH  19  20
ENDBRANCH   1  19
TORSDOF 4
ENDMDL
MODEL 3
REMARK VINA RESULT: -7.046080917      3.289      7.580
REMARK  4 active torsions:
REMARK  status: ('A' for Active; 'I' for Inactive)
REMARK    1  A    between atoms: C2_2  and  C4_4 
REMARK    2  A    between atoms: C4_4  and  C5_6 
REMARK    3  A    between atoms: C5_6  and  C6_7 
REMARK    4  A    between atoms: C6_7  and  C7_8 
ROOT
HETATM    1  C7  UNL     1      19.827  81.253   1.684  1.00  0.00     0.273 C 
HETATM    2  O2  UNL     1      20.793  82.197   1.325  1.00  0.00    -0.289 OA
HETATM    3  C8  UNL     1      21.820  82.164   0.440  1.00  0.00     0.269 C 
HETATM    4  O3  UNL     1      23.007  82.283   0.889  1.00  0.00    -0.264 OA
HETATM    5  C9  UNL     1      21.708  82.001  -1.019  1.00  0.00     0.050 C 
HETATM    6  C10 UNL     1      23.034  82.183  -1.766  1.00  0.00     0.026 C 
HETATM    7  C11 UNL     1      20.924  80.767  -1.437  1.00  0.00     0.062 C 
HETATM    8  C12 UNL     1      19.804  81.580  -1.801  1.00  0.00     0.116 C 
HETATM    9  C13 UNL     1      20.578  82.818  -1.647  1.00  0.00     0.062 C 
HETATM   10  O4  UNL     1      19.386  81.208  -3.121  1.00  0.00    -0.225 OA
HETATM   11  O5  UNL     1      18.907  79.997  -2.777  1.00  0.00    -0.199 OA
HETATM   12  C14 UNL     1      18.076  80.159  -1.698  1.00  0.00     0.211 C 
HETATM   13  C15 UNL     1      16.663  79.791  -1.821  1.00  0.00     0.083 C 
HETATM   14  O6  UNL     1      18.588  79.734  -0.439  1.00  0.00    -0.321 OA
HETATM   15  C16 UNL     1      18.158  80.928   0.053  1.00  0.00     0.283 C 
HETATM   16  O7  UNL     1      18.655  81.606   1.067  1.00  0.00    -0.330 OA
HETATM   17  C17 UNL     1      18.467  81.544  -1.229  1.00  0.00     0.099 C 
HETATM   18  C18 UNL     1      17.587  82.669  -1.595  1.00  0.00     0.029 C 
ENDROOT
BRANCH   1  19
HETATM   19  C6  UNL     1      19.533  81.323   3.189  1.00  0.00     0.069 C 
BRANCH  19  20
HETATM   20  C5  UNL     1      18.671  82.456   3.589  1.00  0.00     0.083 C 
BRANCH  20  21
HETATM   21  C4  UNL     1      19.343  83.625   4.168  1.00  0.00     0.130 C 
HETATM   22  O1  UNL     1      19.749  84.540   3.511  1.00  0.00    -0.298 OA
BRANCH  21  23
HETATM   23  C2  UNL     1      19.518  83.659   5.654  1.00  0.00     0.047 C 
HETATM   24  C1  UNL     1      18.513  82.750   6.337  1.00  0.00     0.017 C 
HETATM   25  C3  UNL     1      19.247  85.075   6.111  1.00  0.00     0.017 C 
ENDBRANCH  21  23
ENDBRANCH  20  21
ENDBRANCH  19  20
ENDBRANCH   1  19
TORSDOF 4
ENDMDL
MODEL 4
REMARK VINA RESULT: -7.042043735      2.330      4.850
REMARK  4 active torsions:
REMARK  status: ('A' for Active; 'I' for Inactive)
REMARK    1  A    between atoms: C2_2  and  C4_4 
REMARK    2  A    between atoms: C4_4  and  C5_6 
REMARK    3  A    between atoms: C5_6  and  C6_7 
REMARK    4  A    between atoms: C6_7  and  C7_8 
ROOT
HETATM    1  C7  UNL     1      22.720  84.716   4.411  1.00  0.00     0.273 C 
HETATM    2  O2  UNL     1      21.586  84.595   3.604  1.00  0.00    -0.289 OA
HETATM    3  C8  UNL     1      20.558  83.711   3.599  1.00  0.00     0.269 C 
HETATM    4  O3  UNL     1      20.400  82.976   2.570  1.00  0.00    -0.264 OA
HETATM    5  C9  UNL     1      19.580  83.505   4.681  1.00  0.00     0.050 C 
HETATM    6  C10 UNL     1      18.431  82.562   4.306  1.00  0.00     0.026 C 
HETATM    7  C11 UNL     1      20.216  83.203   6.028  1.00  0.00     0.062 C 
HETATM    8  C12 UNL     1      19.910  84.524   6.488  1.00  0.00     0.116 C 
HETATM    9  C13 UNL     1      19.075  84.802   5.313  1.00  0.00     0.062 C 
HETATM   10  O4  UNL     1      19.262  84.419   7.763  1.00  0.00    -0.225 OA
HETATM   11  O5  UNL     1      20.352  84.003   8.436  1.00  0.00    -0.199 OA
HETATM   12  C14 UNL     1      21.386  84.854   8.140  1.00  0.00     0.211 C 
HETATM   13  C15 UNL     1      22.008  85.628   9.217  1.00  0.00     0.083 C 
HETATM   14  O6  UNL     1      22.384  84.348   7.258  1.00  0.00    -0.321 OA
HETATM   15  C16 UNL     1      22.268  85.523   6.578  1.00  0.00     0.283 C 
HETATM   16  O7  UNL     1      22.490  85.736   5.298  1.00  0.00    -0.330 OA
HETATM   17  C17 UNL     1      20.851  85.550   6.907  1.00  0.00     0.099 C 
HETATM   18  C18 UNL     1      20.287  86.903   7.071  1.00  0.00     0.029 C 
ENDROOT
BRANCH   1  19
HETATM   19  C6  UNL     1      23.931  85.164   3.580  1.00  0.00     0.069 C 
BRANCH  19  20
HETATM   20  C5  UNL     1      24.714  84.052   2.997  1.00  0.00     0.083 C 
BRANCH  20  21
HETATM   21  C4  UNL     1      24.439  83.715   1.596  1.00  0.00     0.130 C 
HETATM   22  O1  UNL     1      23.624  82.903   1.265  1.00  0.00    -0.298 OA
BRANCH  21  23
HETATM   23  C2  UNL     1      25.226  84.432   0.543  1.00  0.00     0.047 C 
HETATM   24  C1  UNL     1      24.713  84.087  -0.842  1.00  0.00     0.017 C 
HETATM   25  C3  UNL     1      26.657  83.952   0.640  1.00  0.00     0.017 C 
ENDBRANCH  21  23
ENDBRANCH  20  21
ENDBRANCH  19  20
ENDBRANCH   1  19
TORSDOF 4
ENDMDL
MODEL 5
REMARK VINA RESULT: -6.921074185      4.091      8.064
REMARK  4 active torsions:
REMARK  status: ('A' for Active; 'I' for Inactive)
REMARK    1  A    between atoms: C2_2  and  C4_4 
REMARK    2  A    between atoms: C4_4  and  C5_6 
REMARK    3  A    between atoms: C5_6  and  C6_7 
REMARK    4  A    between atoms: C6_7  and  C7_8 
ROOT
HETATM    1  C7  UNL     1      24.414  84.162   2.218  1.00  0.00     0.273 C 
HETATM    2  O2  UNL     1      23.634  83.004   2.276  1.00  0.00    -0.289 OA
HETATM    3  C8  UNL     1      22.724  82.470   1.424  1.00  0.00     0.269 C 
HETATM    4  O3  UNL     1      21.519  82.353   1.823  1.00  0.00    -0.264 OA
HETATM    5  C9  UNL     1      22.986  82.000   0.053  1.00  0.00     0.050 C 
HETATM    6  C10 UNL     1      21.795  81.285  -0.595  1.00  0.00     0.026 C 
HETATM    7  C11 UNL     1      23.640  83.046  -0.836  1.00  0.00     0.062 C 
HETATM    8  C12 UNL     1      24.895  82.364  -0.746  1.00  0.00     0.116 C 
HETATM    9  C13 UNL     1      24.282  81.201  -0.090  1.00  0.00     0.062 C 
HETATM   10  O4  UNL     1      25.412  82.192  -2.072  1.00  0.00    -0.225 OA
HETATM   11  O5  UNL     1      25.679  83.495  -2.284  1.00  0.00    -0.199 OA
HETATM   12  C14 UNL     1      26.391  83.965  -1.210  1.00  0.00     0.211 C 
HETATM   13  C15 UNL     1      27.745  84.482  -1.419  1.00  0.00     0.083 C 
HETATM   14  O6  UNL     1      25.680  84.798  -0.300  1.00  0.00    -0.321 OA
HETATM   15  C16 UNL     1      26.206  84.030   0.694  1.00  0.00     0.283 C 
HETATM   16  O7  UNL     1      25.688  83.785   1.880  1.00  0.00    -0.330 OA
HETATM   17  C17 UNL     1      26.137  82.876  -0.189  1.00  0.00     0.099 C 
HETATM   18  C18 UNL     1      27.198  81.876   0.028  1.00  0.00     0.029 C 
ENDROOT
BRANCH   1  19
HETATM   19  C6  UNL     1      24.533  84.804   3.608  1.00  0.00     0.069 C 
BRANCH  19  20
HETATM   20  C5  UNL     1      23.238  85.140   4.237  1.00  0.00     0.083 C 
BRANCH  20  21
HETATM   21  C4  UNL     1      23.229  85.277   5.698  1.00  0.00     0.130 C 
HETATM   22  O1  UNL     1      24.223  85.256   6.364  1.00  0.00    -0.298 OA
BRANCH  21  23
HETATM   23  C2  UNL     1      21.903  85.451   6.370  1.00  0.00     0.047 C 
HETATM   24  C1  UNL     1      21.768  84.509   7.551  1.00  0.00     0.017 C 
HETATM   25  C3  UNL     1      20.833  85.088   5.364  1.00  0.00     0.017 C 
ENDBRANCH  21  23
ENDBRANCH  20  21
ENDBRANCH  19  20
ENDBRANCH   1  19
TORSDOF 4
ENDMDL
