MODEL 1
REMARK VINA RESULT: -6.975145224      0.000      0.000
REMARK  9 active torsions:
REMARK  status: ('A' for Active; 'I' for Inactive)
REMARK    1  A    between atoms: C2_2  and  C3_3 
REMARK    2  A    between atoms: C3_3  and  C4_4 
REMARK    3  A    between atoms: C6_6  and  C7_7 
REMARK    4  A    between atoms: C7_7  and  C8_8 
REMARK    5  A    between atoms: C15_16  and  O2_17 
REMARK    6  A    between atoms: C16_19  and  O3_20 
REMARK    7  A    between atoms: C20_26  and  O5_27 
REMARK    8  A    between atoms: C22_31  and  O7_32 
REMARK    9  A    between atoms: C24_34  and  O8_35 
ROOT
HETATM    1  C7  UNL     1       2.876   3.627   8.722  1.00  0.00     0.080 C 
HETATM    2  C10 UNL     1       1.909   2.633   8.093  1.00  0.00     0.074 C 
HETATM    3  C11 UNL     1       0.870   3.133   7.113  1.00  0.00     0.140 C 
HETATM    4  O1  UNL     1       0.987   2.778   5.834  1.00  0.00    -0.372 OA
HETATM    5  C12 UNL     1       0.727   1.577   5.338  1.00  0.00     0.082 C 
HETATM    6  C13 UNL     1       2.000   1.122   4.591  1.00  0.00     0.048 C 
HETATM    7  C14 UNL     1      -0.281   1.785   4.186  1.00  0.00     0.048 C 
HETATM    8  C15 UNL     1       0.310   0.475   6.226  1.00  0.00     0.181 C 
HETATM    9  C16 UNL     1      -0.148   0.857   7.596  1.00  0.00     0.159 C 
HETATM   10  C17 UNL     1      -0.104   2.278   7.957  1.00  0.00     0.084 C 
HETATM   11  C18 UNL     1       0.773   2.715   9.028  1.00  0.00     0.104 C 
HETATM   12  C19 UNL     1       0.854   2.354  10.401  1.00  0.00     0.213 C 
HETATM   13  O4  UNL     1       1.807   3.293  10.858  1.00  0.00    -0.329 OA
HETATM   14  C20 UNL     1       1.998   4.206   9.802  1.00  0.00     0.294 C 
HETATM   15  O6  UNL     1       0.752   4.147   9.169  1.00  0.00    -0.317 OA
ENDROOT
BRANCH   1  16
HETATM   16  C6  UNL     1       4.005   2.867   9.291  1.00  0.00    -0.038 A 
HETATM   17  C5  UNL     1       4.184   1.525   9.014  1.00  0.00     0.018 A 
HETATM   18  C4  UNL     1       5.238   0.786   9.508  1.00  0.00    -0.018 A 
HETATM   19  C24 UNL     1       6.180   1.383  10.321  1.00  0.00     0.108 A 
HETATM   20  C22 UNL     1       6.042   2.722  10.623  1.00  0.00     0.102 A 
HETATM   21  C21 UNL     1       4.950   3.436  10.097  1.00  0.00     0.048 A 
BRANCH  18  22
HETATM   22  C3  UNL     1       5.453  -0.656   9.233  1.00  0.00     0.068 C 
BRANCH  22  23
HETATM   23  C2  UNL     1       4.805  -1.177   8.040  1.00  0.00    -0.032 C 
HETATM   24  C1  UNL     1       3.868  -2.113   8.108  1.00  0.00     0.007 C 
ENDBRANCH  22  23
ENDBRANCH  18  22
BRANCH  19  25
HETATM   25  O8  UNL     1       7.251   0.655  10.830  1.00  0.00    -0.353 OA
HETATM   26  C25 UNL     1       7.172   0.176  12.148  1.00  0.00     0.210 C 
ENDBRANCH  19  25
BRANCH  20  27
HETATM   27  O7  UNL     1       6.996   3.310  11.440  1.00  0.00    -0.353 OA
HETATM   28  C23 UNL     1       8.125   3.896  10.835  1.00  0.00     0.210 C 
ENDBRANCH  20  27
ENDBRANCH   1  16
BRANCH   1  29
HETATM   29  C8  UNL     1       3.174   4.559   7.644  1.00  0.00     0.019 C 
HETATM   30  C9  UNL     1       4.087   4.247   6.535  1.00  0.00     0.006 C 
ENDBRANCH   1  29
BRANCH  14  31
HETATM   31  O5  UNL     1       2.326   5.453  10.236  1.00  0.00    -0.342 OA
ATOM     32  H5  UNL     1       2.898   5.494  10.994  1.00  0.00     0.215 HD
ENDBRANCH  14  31
BRANCH   9  33
HETATM   33  O3  UNL     1       0.558   0.035   8.511  1.00  0.00    -0.392 OA
ATOM     34  H3  UNL     1      -0.001  -0.073   9.272  1.00  0.00     0.210 HD
ENDBRANCH   9  33
BRANCH   8  35
HETATM   35  O2  UNL     1       1.284  -0.553   6.258  1.00  0.00    -0.390 OA
ATOM     36  H2  UNL     1       1.427  -0.863   7.145  1.00  0.00     0.210 HD
ENDBRANCH   8  35
TORSDOF 9
ENDMDL
MODEL 2
REMARK VINA RESULT: -6.881437447      0.622      2.620
REMARK  9 active torsions:
REMARK  status: ('A' for Active; 'I' for Inactive)
REMARK    1  A    between atoms: C2_2  and  C3_3 
REMARK    2  A    between atoms: C3_3  and  C4_4 
REMARK    3  A    between atoms: C6_6  and  C7_7 
REMARK    4  A    between atoms: C7_7  and  C8_8 
REMARK    5  A    between atoms: C15_16  and  O2_17 
REMARK    6  A    between atoms: C16_19  and  O3_20 
REMARK    7  A    between atoms: C20_26  and  O5_27 
REMARK    8  A    between atoms: C22_31  and  O7_32 
REMARK    9  A    between atoms: C24_34  and  O8_35 
ROOT
HETATM    1  C7  UNL     1       2.904   3.453   8.613  1.00  0.00     0.080 C 
HETATM    2  C10 UNL     1       1.930   2.455   8.002  1.00  0.00     0.074 C 
HETATM    3  C11 UNL     1       0.878   2.948   7.034  1.00  0.00     0.140 C 
HETATM    4  O1  UNL     1       0.977   2.587   5.755  1.00  0.00    -0.372 OA
HETATM    5  C12 UNL     1       0.712   1.384   5.269  1.00  0.00     0.082 C 
HETATM    6  C13 UNL     1       1.975   0.926   4.507  1.00  0.00     0.048 C 
HETATM    7  C14 UNL     1      -0.312   1.585   4.130  1.00  0.00     0.048 C 
HETATM    8  C15 UNL     1       0.309   0.286   6.168  1.00  0.00     0.181 C 
HETATM    9  C16 UNL     1      -0.131   0.674   7.542  1.00  0.00     0.159 C 
HETATM   10  C17 UNL     1      -0.084   2.097   7.895  1.00  0.00     0.084 C 
HETATM   11  C18 UNL     1       0.807   2.540   8.952  1.00  0.00     0.104 C 
HETATM   12  C19 UNL     1       0.907   2.186  10.326  1.00  0.00     0.213 C 
HETATM   13  O4  UNL     1       1.865   3.129  10.765  1.00  0.00    -0.329 OA
HETATM   14  C20 UNL     1       2.041   4.036   9.702  1.00  0.00     0.294 C 
HETATM   15  O6  UNL     1       0.787   3.972   9.086  1.00  0.00    -0.317 OA
ENDROOT
BRANCH   1  16
HETATM   16  C6  UNL     1       4.042   2.696   9.170  1.00  0.00    -0.038 A 
HETATM   17  C5  UNL     1       4.981   3.300   9.985  1.00  0.00     0.018 A 
HETATM   18  C4  UNL     1       6.045   2.622  10.542  1.00  0.00    -0.018 A 
HETATM   19  C24 UNL     1       6.211   1.274  10.296  1.00  0.00     0.108 A 
HETATM   20  C22 UNL     1       5.296   0.630   9.489  1.00  0.00     0.102 A 
HETATM   21  C21 UNL     1       4.227   1.362   8.942  1.00  0.00     0.048 A 
BRANCH  18  22
HETATM   22  C3  UNL     1       7.070   3.243  11.415  1.00  0.00     0.068 C 
BRANCH  22  23
HETATM   23  C2  UNL     1       8.171   3.903  10.729  1.00  0.00    -0.032 C 
HETATM   24  C1  UNL     1       9.365   3.334  10.621  1.00  0.00     0.007 C 
ENDBRANCH  22  23
ENDBRANCH  18  22
BRANCH  19  25
HETATM   25  O8  UNL     1       7.277   0.571  10.848  1.00  0.00    -0.353 OA
HETATM   26  C25 UNL     1       7.125   0.021  12.132  1.00  0.00     0.210 C 
ENDBRANCH  19  25
BRANCH  20  27
HETATM   27  O7  UNL     1       5.474  -0.725   9.250  1.00  0.00    -0.353 OA
HETATM   28  C23 UNL     1       4.471  -1.416   8.543  1.00  0.00     0.210 C 
ENDBRANCH  20  27
ENDBRANCH   1  16
BRANCH   1  29
HETATM   29  C8  UNL     1       3.187   4.379   7.526  1.00  0.00     0.019 C 
HETATM   30  C9  UNL     1       4.087   4.064   6.408  1.00  0.00     0.006 C 
ENDBRANCH   1  29
BRANCH  14  31
HETATM   31  O5  UNL     1       2.374   5.286  10.125  1.00  0.00    -0.342 OA
ATOM     32  H5  UNL     1       2.342   5.431  11.064  1.00  0.00     0.215 HD
ENDBRANCH  14  31
BRANCH   9  33
HETATM   33  O3  UNL     1       0.588  -0.142   8.451  1.00  0.00    -0.392 OA
ATOM     34  H3  UNL     1       0.091  -0.946   8.553  1.00  0.00     0.210 HD
ENDBRANCH   9  33
BRANCH   8  35
HETATM   35  O2  UNL     1       1.284  -0.741   6.192  1.00  0.00    -0.390 OA
ATOM     36  H2  UNL     1       0.962  -1.509   6.650  1.00  0.00     0.210 HD
ENDBRANCH   8  35
TORSDOF 9
ENDMDL
MODEL 3
REMARK VINA RESULT: -6.686194730      1.860      3.225
REMARK  9 active torsions:
REMARK  status: ('A' for Active; 'I' for Inactive)
REMARK    1  A    between atoms: C2_2  and  C3_3 
REMARK    2  A    between atoms: C3_3  and  C4_4 
REMARK    3  A    between atoms: C6_6  and  C7_7 
REMARK    4  A    between atoms: C7_7  and  C8_8 
REMARK    5  A    between atoms: C15_16  and  O2_17 
REMARK    6  A    between atoms: C16_19  and  O3_20 
REMARK    7  A    between atoms: C20_26  and  O5_27 
REMARK    8  A    between atoms: C22_31  and  O7_32 
REMARK    9  A    between atoms: C24_34  and  O8_35 
ROOT
HETATM    1  C7  UNL     1       2.040   2.056   8.448  1.00  0.00     0.080 C 
HETATM    2  C10 UNL     1       2.508   0.980   7.477  1.00  0.00     0.074 C 
HETATM    3  C11 UNL     1       1.686   0.694   6.240  1.00  0.00     0.140 C 
HETATM    4  O1  UNL     1       2.198   1.017   5.053  1.00  0.00    -0.372 OA
HETATM    5  C12 UNL     1       3.172   0.370   4.429  1.00  0.00     0.082 C 
HETATM    6  C13 UNL     1       4.268   1.413   4.120  1.00  0.00     0.048 C 
HETATM    7  C14 UNL     1       2.638   0.019   3.023  1.00  0.00     0.048 C 
HETATM    8  C15 UNL     1       3.824  -0.792   5.063  1.00  0.00     0.181 C 
HETATM    9  C16 UNL     1       3.113  -1.406   6.224  1.00  0.00     0.159 C 
HETATM   10  C17 UNL     1       1.859  -0.784   6.662  1.00  0.00     0.084 C 
HETATM   11  C18 UNL     1       1.780  -0.195   7.987  1.00  0.00     0.104 C 
HETATM   12  C19 UNL     1       1.974  -0.741   9.286  1.00  0.00     0.213 C 
HETATM   13  O4  UNL     1       1.566   0.351  10.087  1.00  0.00    -0.329 OA
HETATM   14  C20 UNL     1       0.989   1.289   9.208  1.00  0.00     0.294 C 
HETATM   15  O6  UNL     1       0.511   0.450   8.197  1.00  0.00    -0.317 OA
ENDROOT
BRANCH   1  16
HETATM   16  C6  UNL     1       3.180   2.417   9.312  1.00  0.00    -0.038 A 
HETATM   17  C5  UNL     1       4.373   1.722   9.261  1.00  0.00     0.018 A 
HETATM   18  C4  UNL     1       5.467   2.042  10.037  1.00  0.00    -0.018 A 
HETATM   19  C24 UNL     1       5.404   3.103  10.917  1.00  0.00     0.108 A 
HETATM   20  C22 UNL     1       4.233   3.826  11.000  1.00  0.00     0.102 A 
HETATM   21  C21 UNL     1       3.141   3.463  10.190  1.00  0.00     0.048 A 
BRANCH  18  22
HETATM   22  C3  UNL     1       6.758   1.312  10.008  1.00  0.00     0.068 C 
BRANCH  22  23
HETATM   23  C2  UNL     1       6.819   0.101  10.811  1.00  0.00    -0.032 C 
HETATM   24  C1  UNL     1       7.208   0.126  12.080  1.00  0.00     0.007 C 
ENDBRANCH  22  23
ENDBRANCH  18  22
BRANCH  19  25
HETATM   25  O8  UNL     1       6.497   3.443  11.708  1.00  0.00    -0.353 OA
HETATM   26  C25 UNL     1       7.475   4.297  11.170  1.00  0.00     0.210 C 
ENDBRANCH  19  25
BRANCH  20  27
HETATM   27  O7  UNL     1       4.183   4.890  11.888  1.00  0.00    -0.353 OA
HETATM   28  C23 UNL     1       2.939   5.229  12.457  1.00  0.00     0.210 C 
ENDBRANCH  20  27
ENDBRANCH   1  16
BRANCH   1  29
HETATM   29  C8  UNL     1       1.500   3.097   7.586  1.00  0.00     0.019 C 
HETATM   30  C9  UNL     1       2.337   4.086   6.890  1.00  0.00     0.006 C 
ENDBRANCH   1  29
BRANCH  14  31
HETATM   31  O5  UNL     1       0.014   2.034   9.799  1.00  0.00    -0.342 OA
ATOM     32  H5  UNL     1      -0.879   1.818   9.560  1.00  0.00     0.215 HD
ENDBRANCH  14  31
BRANCH   9  33
HETATM   33  O3  UNL     1       4.061  -1.529   7.271  1.00  0.00    -0.392 OA
ATOM     34  H3  UNL     1       4.364  -2.429   7.266  1.00  0.00     0.210 HD
ENDBRANCH   9  33
BRANCH   8  35
HETATM   35  O2  UNL     1       5.183  -0.519   5.355  1.00  0.00    -0.390 OA
ATOM     36  H2  UNL     1       5.362  -0.624   6.282  1.00  0.00     0.210 HD
ENDBRANCH   8  35
TORSDOF 9
ENDMDL
MODEL 4
REMARK VINA RESULT: -6.662109747      2.136      4.769
REMARK  9 active torsions:
REMARK  status: ('A' for Active; 'I' for Inactive)
REMARK    1  A    between atoms: C2_2  and  C3_3 
REMARK    2  A    between atoms: C3_3  and  C4_4 
REMARK    3  A    between atoms: C6_6  and  C7_7 
REMARK    4  A    between atoms: C7_7  and  C8_8 
REMARK    5  A    between atoms: C15_16  and  O2_17 
REMARK    6  A    between atoms: C16_19  and  O3_20 
REMARK    7  A    between atoms: C20_26  and  O5_27 
REMARK    8  A    between atoms: C22_31  and  O7_32 
REMARK    9  A    between atoms: C24_34  and  O8_35 
ROOT
HETATM    1  C7  UNL     1       2.866  -0.032   6.912  1.00  0.00     0.080 C 
HETATM    2  C10 UNL     1       2.939   0.475   5.478  1.00  0.00     0.074 C 
HETATM    3  C11 UNL     1       1.896   0.021   4.481  1.00  0.00     0.140 C 
HETATM    4  O1  UNL     1       1.025   0.919   4.025  1.00  0.00    -0.372 OA
HETATM    5  C12 UNL     1       1.290   1.881   3.154  1.00  0.00     0.082 C 
HETATM    6  C13 UNL     1       0.862   3.209   3.816  1.00  0.00     0.048 C 
HETATM    7  C14 UNL     1       0.265   1.733   2.008  1.00  0.00     0.048 C 
HETATM    8  C15 UNL     1       2.658   2.061   2.631  1.00  0.00     0.181 C 
HETATM    9  C16 UNL     1       3.606   0.924   2.835  1.00  0.00     0.159 C 
HETATM   10  C17 UNL     1       3.116  -0.247   3.569  1.00  0.00     0.084 C 
HETATM   11  C18 UNL     1       3.724  -0.597   4.840  1.00  0.00     0.104 C 
HETATM   12  C19 UNL     1       5.061  -0.918   5.202  1.00  0.00     0.213 C 
HETATM   13  O4  UNL     1       4.877  -1.314   6.547  1.00  0.00    -0.329 OA
HETATM   14  C20 UNL     1       3.484  -1.396   6.744  1.00  0.00     0.294 C 
HETATM   15  O6  UNL     1       3.049  -1.710   5.453  1.00  0.00    -0.317 OA
ENDROOT
BRANCH   1  16
HETATM   16  C6  UNL     1       3.708   0.845   7.748  1.00  0.00    -0.038 A 
HETATM   17  C5  UNL     1       4.745   0.340   8.509  1.00  0.00     0.018 A 
HETATM   18  C4  UNL     1       5.566   1.129   9.286  1.00  0.00    -0.018 A 
HETATM   19  C24 UNL     1       5.374   2.495   9.328  1.00  0.00     0.108 A 
HETATM   20  C22 UNL     1       4.352   3.044   8.582  1.00  0.00     0.102 A 
HETATM   21  C21 UNL     1       3.538   2.200   7.806  1.00  0.00     0.048 A 
BRANCH  18  22
HETATM   22  C3  UNL     1       6.682   0.615  10.117  1.00  0.00     0.068 C 
BRANCH  22  23
HETATM   23  C2  UNL     1       6.298  -0.057  11.348  1.00  0.00    -0.032 C 
HETATM   24  C1  UNL     1       7.097  -0.081  12.407  1.00  0.00     0.007 C 
ENDBRANCH  22  23
ENDBRANCH  18  22
BRANCH  19  25
HETATM   25  O8  UNL     1       6.192   3.310  10.104  1.00  0.00    -0.353 OA
HETATM   26  C25 UNL     1       5.753   3.674  11.388  1.00  0.00     0.210 C 
ENDBRANCH  19  25
BRANCH  20  27
HETATM   27  O7  UNL     1       4.170   4.418   8.633  1.00  0.00    -0.353 OA
HETATM   28  C23 UNL     1       2.879   4.912   8.906  1.00  0.00     0.210 C 
ENDBRANCH  20  27
ENDBRANCH   1  16
BRANCH   1  29
HETATM   29  C8  UNL     1       1.441  -0.063   7.203  1.00  0.00     0.019 C 
HETATM   30  C9  UNL     1       0.869   0.345   8.494  1.00  0.00     0.006 C 
ENDBRANCH   1  29
BRANCH  14  31
HETATM   31  O5  UNL     1       3.138  -2.328   7.674  1.00  0.00    -0.342 OA
ATOM     32  H5  UNL     1       3.725  -3.071   7.759  1.00  0.00     0.215 HD
ENDBRANCH  14  31
BRANCH   9  33
HETATM   33  O3  UNL     1       4.789   1.469   3.395  1.00  0.00    -0.392 OA
ATOM     34  H3  UNL     1       5.440   0.777   3.392  1.00  0.00     0.210 HD
ENDBRANCH   9  33
BRANCH   8  35
HETATM   35  O2  UNL     1       3.209   3.295   3.054  1.00  0.00    -0.390 OA
ATOM     36  H2  UNL     1       3.712   3.191   3.853  1.00  0.00     0.210 HD
ENDBRANCH   8  35
TORSDOF 9
ENDMDL
MODEL 5
REMARK VINA RESULT: -6.483737586      1.719      4.386
REMARK  9 active torsions:
REMARK  status: ('A' for Active; 'I' for Inactive)
REMARK    1  A    between atoms: C2_2  and  C3_3 
REMARK    2  A    between atoms: C3_3  and  C4_4 
REMARK    3  A    between atoms: C6_6  and  C7_7 
REMARK    4  A    between atoms: C7_7  and  C8_8 
REMARK    5  A    between atoms: C15_16  and  O2_17 
REMARK    6  A    between atoms: C16_19  and  O3_20 
REMARK    7  A    between atoms: C20_26  and  O5_27 
REMARK    8  A    between atoms: C22_31  and  O7_32 
REMARK    9  A    between atoms: C24_34  and  O8_35 
ROOT
HETATM    1  C7  UNL     1       3.199  -0.170   8.125  1.00  0.00     0.080 C 
HETATM    2  C10 UNL     1       2.176   0.504   7.221  1.00  0.00     0.074 C 
HETATM    3  C11 UNL     1       0.942  -0.264   6.801  1.00  0.00     0.140 C 
HETATM    4  O1  UNL     1      -0.239   0.130   7.275  1.00  0.00    -0.372 OA
HETATM    5  C12 UNL     1      -0.906   1.208   6.890  1.00  0.00     0.082 C 
HETATM    6  C13 UNL     1      -1.191   2.031   8.165  1.00  0.00     0.048 C 
HETATM    7  C14 UNL     1      -2.316   0.730   6.478  1.00  0.00     0.048 C 
HETATM    8  C15 UNL     1      -0.332   2.122   5.884  1.00  0.00     0.181 C 
HETATM    9  C16 UNL     1       0.814   1.599   5.081  1.00  0.00     0.159 C 
HETATM   10  C17 UNL     1       1.299   0.249   5.386  1.00  0.00     0.084 C 
HETATM   11  C18 UNL     1       2.649   0.075   5.893  1.00  0.00     0.104 C 
HETATM   12  C19 UNL     1       3.920   0.420   5.358  1.00  0.00     0.213 C 
HETATM   13  O4  UNL     1       4.773  -0.202   6.298  1.00  0.00    -0.329 OA
HETATM   14  C20 UNL     1       3.945  -1.000   7.112  1.00  0.00     0.294 C 
HETATM   15  O6  UNL     1       2.907  -1.301   6.225  1.00  0.00    -0.317 OA
ENDROOT
BRANCH   1  16
HETATM   16  C6  UNL     1       4.058   0.882   8.704  1.00  0.00    -0.038 A 
HETATM   17  C5  UNL     1       5.281   0.583   9.272  1.00  0.00     0.018 A 
HETATM   18  C4  UNL     1       6.121   1.540   9.802  1.00  0.00    -0.018 A 
HETATM   19  C24 UNL     1       5.755   2.870   9.780  1.00  0.00     0.108 A 
HETATM   20  C22 UNL     1       4.542   3.215   9.221  1.00  0.00     0.102 A 
HETATM   21  C21 UNL     1       3.717   2.205   8.693  1.00  0.00     0.048 A 
BRANCH  18  22
HETATM   22  C3  UNL     1       7.436   1.249  10.423  1.00  0.00     0.068 C 
BRANCH  22  23
HETATM   23  C2  UNL     1       7.414   0.959  11.848  1.00  0.00    -0.032 C 
HETATM   24  C1  UNL     1       7.029  -0.222  12.313  1.00  0.00     0.007 C 
ENDBRANCH  22  23
ENDBRANCH  18  22
BRANCH  19  25
HETATM   25  O8  UNL     1       6.588   3.851  10.310  1.00  0.00    -0.353 OA
HETATM   26  C25 UNL     1       6.250   4.422  11.548  1.00  0.00     0.210 C 
ENDBRANCH  19  25
BRANCH  20  27
HETATM   27  O7  UNL     1       4.186   4.555   9.205  1.00  0.00    -0.353 OA
HETATM   28  C23 UNL     1       3.038   4.933   8.481  1.00  0.00     0.210 C 
ENDBRANCH  20  27
ENDBRANCH   1  16
BRANCH   1  29
HETATM   29  C8  UNL     1       2.391  -0.953   9.048  1.00  0.00     0.019 C 
HETATM   30  C9  UNL     1       2.624  -0.988  10.499  1.00  0.00     0.006 C 
ENDBRANCH   1  29
BRANCH  14  31
HETATM   31  O5  UNL     1       4.583  -2.101   7.595  1.00  0.00    -0.342 OA
ATOM     32  H5  UNL     1       4.296  -2.411   8.445  1.00  0.00     0.215 HD
ENDBRANCH  14  31
BRANCH   9  33
HETATM   33  O3  UNL     1       1.838   2.578   5.139  1.00  0.00    -0.392 OA
ATOM     34  H3  UNL     1       2.666   2.111   5.161  1.00  0.00     0.210 HD
ENDBRANCH   9  33
BRANCH   8  35
HETATM   35  O2  UNL     1      -0.053   3.392   6.446  1.00  0.00    -0.390 OA
ATOM     36  H2  UNL     1      -0.191   3.388   7.387  1.00  0.00     0.210 HD
ENDBRANCH   8  35
TORSDOF 9
ENDMDL
