MODEL 1
REMARK VINA RESULT: -6.090799776      0.000      0.000
REMARK  5 active torsions:
REMARK  status: ('A' for Active; 'I' for Inactive)
REMARK    1  A    between atoms: O1_2  and  C2_3 
REMARK    2  A    between atoms: C2_3  and  O2_4 
REMARK    3  A    between atoms: C2_3  and  C3_6 
REMARK    4  A    between atoms: N7_22  and  C7_23 
REMARK    5  A    between atoms: C7_23  and  C8_24 
ROOT
HETATM    1  C3  UNL     1      28.965  31.793  37.550  1.00  0.00     0.151 A 
HETATM    2  N1  UNL     1      29.897  31.286  36.616  1.00  0.00    -0.300 N 
ATOM      3  H1  UNL     1      30.213  31.836  35.818  1.00  0.00     0.171 HD
HETATM    4  C4  UNL     1      30.336  30.052  36.841  1.00  0.00     0.279 A 
HETATM    5  N2  UNL     1      29.809  29.712  37.793  1.00  0.00    -0.333 NA
HETATM    6  C5  UNL     1      29.069  29.715  38.806  1.00  0.00     0.284 A 
HETATM    7  N3  UNL     1      29.144  28.622  39.436  1.00  0.00    -0.147 N 
ATOM      8  H3  UNL     1      28.623  28.417  40.288  1.00  0.00     0.188 HD
HETATM    9  C6  UNL     1      30.142  27.613  38.746  1.00  0.00     0.694 A 
HETATM   10  N4  UNL     1      30.178  26.542  39.428  1.00  0.00    -0.233 N 
ATOM     11  H41 UNL     1      30.823  25.889  38.983  1.00  0.00     0.174 HD
ATOM     12  H42 UNL     1      29.608  26.464  40.270  1.00  0.00     0.174 HD
HETATM   13  N5  UNL     1      30.939  27.723  37.570  1.00  0.00    -0.129 N 
ATOM     14  H5  UNL     1      31.493  26.894  37.354  1.00  0.00     0.205 HD
HETATM   15  N6  UNL     1      31.098  28.841  36.605  1.00  0.00    -0.245 N 
ATOM     16  H6  UNL     1      31.722  28.759  35.803  1.00  0.00     0.191 HD
HETATM   17  N7  UNL     1      28.516  31.003  38.695  1.00  0.00    -0.263 N 
ENDROOT
BRANCH  17  18
HETATM   18  C7  UNL     1      27.577  31.229  39.702  1.00  0.00     0.151 C 
BRANCH  18  19
HETATM   19  C8  UNL     1      27.995  32.077  40.837  1.00  0.00     0.129 A 
HETATM   20  N8  UNL     1      28.066  33.423  40.752  1.00  0.00    -0.293 N 
HETATM   21  C9  UNL     1      28.435  34.190  41.788  1.00  0.00     0.329 A 
ATOM     22  H8  UNL     1      27.830  33.873  39.867  1.00  0.00     0.172 HD
HETATM   23  O3  UNL     1      28.502  35.459  41.705  1.00  0.00    -0.246 OA
HETATM   24  N9  UNL     1      28.746  33.586  42.959  1.00  0.00    -0.260 N 
HETATM   25  C10 UNL     1      28.688  32.255  43.088  1.00  0.00     0.329 A 
ATOM     26  H9  UNL     1      29.028  34.156  43.757  1.00  0.00     0.175 HD
HETATM   27  O4  UNL     1      28.981  31.710  44.184  1.00  0.00    -0.246 OA
HETATM   28  N10 UNL     1      28.310  31.528  42.012  1.00  0.00    -0.293 N 
ATOM     29  H10 UNL     1      28.264  30.513  42.103  1.00  0.00     0.172 HD
ENDBRANCH  18  19
ENDBRANCH  17  18
BRANCH   1  30
HETATM   30  C2  UNL     1      28.487  33.110  37.332  1.00  0.00     0.326 C 
BRANCH  30  31
HETATM   31  O1  UNL     1      29.341  34.014  37.948  1.00  0.00    -0.359 OA
HETATM   32  C1  UNL     1      30.215  34.666  37.140  1.00  0.00     0.205 C 
ENDBRANCH  30  31
BRANCH  30  33
HETATM   33  O2  UNL     1      28.658  33.439  35.934  1.00  0.00    -0.365 OA
ATOM     34  H2  UNL     1      28.151  32.758  35.507  1.00  0.00     0.213 HD
ENDBRANCH  30  33
ENDBRANCH   1  30
TORSDOF 5
ENDMDL
MODEL 2
REMARK VINA RESULT: -6.043183234      0.037      1.612
REMARK  5 active torsions:
REMARK  status: ('A' for Active; 'I' for Inactive)
REMARK    1  A    between atoms: O1_2  and  C2_3 
REMARK    2  A    between atoms: C2_3  and  O2_4 
REMARK    3  A    between atoms: C2_3  and  C3_6 
REMARK    4  A    between atoms: N7_22  and  C7_23 
REMARK    5  A    between atoms: C7_23  and  C8_24 
ROOT
HETATM    1  C3  UNL     1      28.984  31.816  37.540  1.00  0.00     0.151 A 
HETATM    2  N1  UNL     1      29.933  31.312  36.623  1.00  0.00    -0.300 N 
ATOM      3  H1  UNL     1      30.262  31.863  35.831  1.00  0.00     0.171 HD
HETATM    4  C4  UNL     1      30.371  30.078  36.854  1.00  0.00     0.279 A 
HETATM    5  N2  UNL     1      29.827  29.736  37.796  1.00  0.00    -0.333 NA
HETATM    6  C5  UNL     1      29.069  29.737  38.796  1.00  0.00     0.284 A 
HETATM    7  N3  UNL     1      29.135  28.643  39.426  1.00  0.00    -0.147 N 
ATOM      8  H3  UNL     1      28.599  28.436  40.268  1.00  0.00     0.188 HD
HETATM    9  C6  UNL     1      30.146  27.637  38.753  1.00  0.00     0.694 A 
HETATM   10  N4  UNL     1      30.171  26.565  39.434  1.00  0.00    -0.233 N 
ATOM     11  H41 UNL     1      30.825  25.914  38.999  1.00  0.00     0.174 HD
ATOM     12  H42 UNL     1      29.587  26.485  40.265  1.00  0.00     0.174 HD
HETATM   13  N5  UNL     1      30.964  27.749  37.590  1.00  0.00    -0.129 N 
ATOM     14  H5  UNL     1      31.523  26.921  37.384  1.00  0.00     0.205 HD
HETATM   15  N6  UNL     1      31.138  28.868  36.630  1.00  0.00    -0.245 N 
ATOM     16  H6  UNL     1      31.776  28.789  35.839  1.00  0.00     0.191 HD
HETATM   17  N7  UNL     1      28.516  31.024  38.677  1.00  0.00    -0.263 N 
ENDROOT
BRANCH  17  18
HETATM   18  C7  UNL     1      27.559  31.248  39.667  1.00  0.00     0.151 C 
BRANCH  18  19
HETATM   19  C8  UNL     1      27.969  32.057  40.832  1.00  0.00     0.129 A 
HETATM   20  N8  UNL     1      28.293  31.507  42.022  1.00  0.00    -0.293 N 
HETATM   21  C9  UNL     1      28.675  32.245  43.074  1.00  0.00     0.329 A 
ATOM     22  H8  UNL     1      28.244  30.493  42.125  1.00  0.00     0.172 HD
HETATM   23  O3  UNL     1      28.979  31.723  44.196  1.00  0.00    -0.246 OA
HETATM   24  N9  UNL     1      28.739  33.589  42.931  1.00  0.00    -0.260 N 
HETATM   25  C10 UNL     1      28.428  34.177  41.769  1.00  0.00     0.329 A 
ATOM     26  H9  UNL     1      29.029  34.164  43.722  1.00  0.00     0.175 HD
HETATM   27  O4  UNL     1      28.492  35.428  41.653  1.00  0.00    -0.246 OA
HETATM   28  N10 UNL     1      28.047  33.386  40.739  1.00  0.00    -0.293 N 
ATOM     29  H10 UNL     1      27.809  33.827  39.851  1.00  0.00     0.172 HD
ENDBRANCH  18  19
ENDBRANCH  17  18
BRANCH   1  30
HETATM   30  C2  UNL     1      28.508  33.133  37.315  1.00  0.00     0.326 C 
BRANCH  30  31
HETATM   31  O1  UNL     1      29.367  34.039  37.921  1.00  0.00    -0.359 OA
HETATM   32  C1  UNL     1      30.221  34.702  37.101  1.00  0.00     0.205 C 
ENDBRANCH  30  31
BRANCH  30  33
HETATM   33  O2  UNL     1      28.673  33.452  35.914  1.00  0.00    -0.365 OA
ATOM     34  H2  UNL     1      29.574  33.197  35.757  1.00  0.00     0.213 HD
ENDBRANCH  30  33
ENDBRANCH   1  30
TORSDOF 5
ENDMDL
MODEL 3
REMARK VINA RESULT: -6.030842249      3.194      6.173
REMARK  5 active torsions:
REMARK  status: ('A' for Active; 'I' for Inactive)
REMARK    1  A    between atoms: O1_2  and  C2_3 
REMARK    2  A    between atoms: C2_3  and  O2_4 
REMARK    3  A    between atoms: C2_3  and  C3_6 
REMARK    4  A    between atoms: N7_22  and  C7_23 
REMARK    5  A    between atoms: C7_23  and  C8_24 
ROOT
HETATM    1  C3  UNL     1      28.196  31.222  40.333  1.00  0.00     0.151 A 
HETATM    2  N1  UNL     1      28.164  30.999  41.728  1.00  0.00    -0.300 N 
ATOM      3  H1  UNL     1      27.800  30.134  42.127  1.00  0.00     0.171 HD
HETATM    4  C4  UNL     1      28.638  31.981  42.488  1.00  0.00     0.279 A 
HETATM    5  N2  UNL     1      28.967  32.794  41.760  1.00  0.00    -0.333 NA
HETATM    6  C5  UNL     1      29.192  33.410  40.690  1.00  0.00     0.284 A 
HETATM    7  N3  UNL     1      29.708  34.543  40.909  1.00  0.00    -0.147 N 
ATOM      8  H3  UNL     1      29.967  35.204  40.177  1.00  0.00     0.188 HD
HETATM    9  C6  UNL     1      29.901  34.813  42.451  1.00  0.00     0.694 A 
HETATM   10  N4  UNL     1      30.427  35.959  42.603  1.00  0.00    -0.233 N 
ATOM     11  H41 UNL     1      30.552  36.134  43.601  1.00  0.00     0.174 HD
ATOM     12  H42 UNL     1      30.645  36.524  41.783  1.00  0.00     0.174 HD
HETATM   13  N5  UNL     1      29.596  34.023  43.598  1.00  0.00    -0.129 N 
ATOM     14  H5  UNL     1      29.827  34.462  44.489  1.00  0.00     0.205 HD
HETATM   15  N6  UNL     1      28.999  32.668  43.713  1.00  0.00    -0.245 N 
ATOM     16  H6  UNL     1      28.848  32.235  44.624  1.00  0.00     0.191 HD
HETATM   17  N7  UNL     1      28.722  32.462  39.764  1.00  0.00    -0.263 N 
ENDROOT
BRANCH  17  18
HETATM   18  C7  UNL     1      28.804  32.956  38.462  1.00  0.00     0.151 C 
BRANCH  18  19
HETATM   19  C8  UNL     1      27.649  33.729  37.960  1.00  0.00     0.129 A 
HETATM   20  N8  UNL     1      26.481  33.812  38.634  1.00  0.00    -0.293 N 
HETATM   21  C9  UNL     1      25.440  34.524  38.181  1.00  0.00     0.329 A 
ATOM     22  H8  UNL     1      26.389  33.315  39.521  1.00  0.00     0.172 HD
HETATM   23  O3  UNL     1      24.340  34.600  38.818  1.00  0.00    -0.246 OA
HETATM   24  N9  UNL     1      25.570  35.181  37.005  1.00  0.00    -0.260 N 
HETATM   25  C10 UNL     1      26.710  35.127  36.304  1.00  0.00     0.329 A 
ATOM     26  H9  UNL     1      24.787  35.727  36.647  1.00  0.00     0.175 HD
HETATM   27  O4  UNL     1      26.813  35.744  35.213  1.00  0.00    -0.246 OA
HETATM   28  N10 UNL     1      27.730  34.394  36.806  1.00  0.00    -0.293 N 
ATOM     29  H10 UNL     1      28.601  34.348  36.278  1.00  0.00     0.172 HD
ENDBRANCH  18  19
ENDBRANCH  17  18
BRANCH   1  30
HETATM   30  C2  UNL     1      27.701  30.184  39.504  1.00  0.00     0.326 C 
BRANCH  30  31
HETATM   31  O1  UNL     1      28.715  29.270  39.261  1.00  0.00    -0.359 OA
HETATM   32  C1  UNL     1      28.347  28.099  38.681  1.00  0.00     0.205 C 
ENDBRANCH  30  31
BRANCH  30  33
HETATM   33  O2  UNL     1      26.758  29.394  40.264  1.00  0.00    -0.365 OA
ATOM     34  H2  UNL     1      27.175  29.355  41.117  1.00  0.00     0.213 HD
ENDBRANCH  30  33
ENDBRANCH   1  30
TORSDOF 5
ENDMDL
MODEL 4
REMARK VINA RESULT: -5.952382610      1.344      2.212
REMARK  5 active torsions:
REMARK  status: ('A' for Active; 'I' for Inactive)
REMARK    1  A    between atoms: O1_2  and  C2_3 
REMARK    2  A    between atoms: C2_3  and  O2_4 
REMARK    3  A    between atoms: C2_3  and  C3_6 
REMARK    4  A    between atoms: N7_22  and  C7_23 
REMARK    5  A    between atoms: C7_23  and  C8_24 
ROOT
HETATM    1  C3  UNL     1      29.664  32.045  37.623  1.00  0.00     0.151 A 
HETATM    2  N1  UNL     1      28.997  31.273  36.647  1.00  0.00    -0.300 N 
ATOM      3  H1  UNL     1      28.561  31.697  35.828  1.00  0.00     0.171 HD
HETATM    4  C4  UNL     1      28.970  29.960  36.858  1.00  0.00     0.279 A 
HETATM    5  N2  UNL     1      29.534  29.801  37.836  1.00  0.00    -0.333 NA
HETATM    6  C5  UNL     1      30.183  30.034  38.884  1.00  0.00     0.284 A 
HETATM    7  N3  UNL     1      30.436  28.969  39.517  1.00  0.00    -0.147 N 
ATOM      8  H3  UNL     1      30.954  28.936  40.395  1.00  0.00     0.188 HD
HETATM    9  C6  UNL     1      29.855  27.698  38.786  1.00  0.00     0.694 A 
HETATM   10  N4  UNL     1      30.147  26.665  39.465  1.00  0.00    -0.233 N 
ATOM     11  H41 UNL     1      29.771  25.843  38.993  1.00  0.00     0.174 HD
ATOM     12  H42 UNL     1      30.678  26.768  40.330  1.00  0.00     0.174 HD
HETATM   13  N5  UNL     1      29.113  27.555  37.577  1.00  0.00    -0.129 N 
ATOM     14  H5  UNL     1      28.858  26.595  37.347  1.00  0.00     0.205 HD
HETATM   15  N6  UNL     1      28.650  28.570  36.597  1.00  0.00    -0.245 N 
ATOM     16  H6  UNL     1      28.124  28.299  35.766  1.00  0.00     0.191 HD
HETATM   17  N7  UNL     1      30.289  31.433  38.794  1.00  0.00    -0.263 N 
ENDROOT
BRANCH  17  18
HETATM   18  C7  UNL     1      30.934  31.956  39.916  1.00  0.00     0.151 C 
BRANCH  18  19
HETATM   19  C8  UNL     1      30.080  32.485  40.999  1.00  0.00     0.129 A 
HETATM   20  N8  UNL     1      29.879  31.819  42.157  1.00  0.00    -0.293 N 
HETATM   21  C9  UNL     1      29.112  32.308  43.142  1.00  0.00     0.329 A 
ATOM     22  H8  UNL     1      30.326  30.911  42.287  1.00  0.00     0.172 HD
HETATM   23  O3  UNL     1      28.923  31.677  44.233  1.00  0.00    -0.246 OA
HETATM   24  N9  UNL     1      28.522  33.512  42.964  1.00  0.00    -0.260 N 
HETATM   25  C10 UNL     1      28.695  34.207  41.833  1.00  0.00     0.329 A 
ATOM     26  H9  UNL     1      27.936  33.898  43.704  1.00  0.00     0.175 HD
HETATM   27  O4  UNL     1      28.139  35.326  41.684  1.00  0.00    -0.246 OA
HETATM   28  N10 UNL     1      29.478  33.669  40.870  1.00  0.00    -0.293 N 
ATOM     29  H10 UNL     1      29.614  34.192  40.005  1.00  0.00     0.172 HD
ENDBRANCH  18  19
ENDBRANCH  17  18
BRANCH   1  30
HETATM   30  C2  UNL     1      29.709  33.447  37.414  1.00  0.00     0.326 C 
BRANCH  30  31
HETATM   31  O1  UNL     1      29.355  33.724  36.101  1.00  0.00    -0.359 OA
HETATM   32  C1  UNL     1      28.641  34.860  35.896  1.00  0.00     0.205 C 
ENDBRANCH  30  31
BRANCH  30  33
HETATM   33  O2  UNL     1      28.629  34.061  38.154  1.00  0.00    -0.365 OA
ATOM     34  H2  UNL     1      29.096  34.659  38.726  1.00  0.00     0.213 HD
ENDBRANCH  30  33
ENDBRANCH   1  30
TORSDOF 5
ENDMDL
MODEL 5
REMARK VINA RESULT: -5.939887464      1.342      1.515
REMARK  5 active torsions:
REMARK  status: ('A' for Active; 'I' for Inactive)
REMARK    1  A    between atoms: O1_2  and  C2_3 
REMARK    2  A    between atoms: C2_3  and  O2_4 
REMARK    3  A    between atoms: C2_3  and  C3_6 
REMARK    4  A    between atoms: N7_22  and  C7_23 
REMARK    5  A    between atoms: C7_23  and  C8_24 
ROOT
HETATM    1  C3  UNL     1      29.659  32.019  37.656  1.00  0.00     0.151 A 
HETATM    2  N1  UNL     1      28.990  31.249  36.678  1.00  0.00    -0.300 N 
ATOM      3  H1  UNL     1      28.552  31.677  35.862  1.00  0.00     0.171 HD
HETATM    4  C4  UNL     1      28.964  29.936  36.885  1.00  0.00     0.279 A 
HETATM    5  N2  UNL     1      29.530  29.773  37.860  1.00  0.00    -0.333 NA
HETATM    6  C5  UNL     1      30.182  30.002  38.908  1.00  0.00     0.284 A 
HETATM    7  N3  UNL     1      30.437  28.936  39.536  1.00  0.00    -0.147 N 
ATOM      8  H3  UNL     1      30.956  28.899  40.413  1.00  0.00     0.188 HD
HETATM    9  C6  UNL     1      29.854  27.667  38.802  1.00  0.00     0.694 A 
HETATM   10  N4  UNL     1      30.148  26.632  39.477  1.00  0.00    -0.233 N 
ATOM     11  H41 UNL     1      29.771  25.811  39.002  1.00  0.00     0.174 HD
ATOM     12  H42 UNL     1      30.681  26.731  40.340  1.00  0.00     0.174 HD
HETATM   13  N5  UNL     1      29.109  27.529  37.594  1.00  0.00    -0.129 N 
ATOM     14  H5  UNL     1      28.853  26.569  37.361  1.00  0.00     0.205 HD
HETATM   15  N6  UNL     1      28.644  28.547  36.619  1.00  0.00    -0.245 N 
ATOM     16  H6  UNL     1      28.116  28.279  35.788  1.00  0.00     0.191 HD
HETATM   17  N7  UNL     1      30.287  31.402  38.823  1.00  0.00    -0.263 N 
ENDROOT
BRANCH  17  18
HETATM   18  C7  UNL     1      30.934  31.921  39.945  1.00  0.00     0.151 C 
BRANCH  18  19
HETATM   19  C8  UNL     1      30.086  32.504  41.003  1.00  0.00     0.129 A 
HETATM   20  N8  UNL     1      29.479  33.704  40.871  1.00  0.00    -0.293 N 
HETATM   21  C9  UNL     1      28.701  34.225  41.831  1.00  0.00     0.329 A 
ATOM     22  H8  UNL     1      29.619  34.233  40.010  1.00  0.00     0.172 HD
HETATM   23  O3  UNL     1      28.131  35.357  41.703  1.00  0.00    -0.246 OA
HETATM   24  N9  UNL     1      28.519  33.517  42.969  1.00  0.00    -0.260 N 
HETATM   25  C10 UNL     1      29.100  32.323  43.142  1.00  0.00     0.329 A 
ATOM     26  H9  UNL     1      27.929  33.899  43.708  1.00  0.00     0.175 HD
HETATM   27  O4  UNL     1      28.920  31.678  44.208  1.00  0.00    -0.246 OA
HETATM   28  N10 UNL     1      29.876  31.843  42.144  1.00  0.00    -0.293 N 
ATOM     29  H10 UNL     1      30.321  30.934  42.269  1.00  0.00     0.172 HD
ENDBRANCH  18  19
ENDBRANCH  17  18
BRANCH   1  30
HETATM   30  C2  UNL     1      29.703  33.421  37.451  1.00  0.00     0.326 C 
BRANCH  30  31
HETATM   31  O1  UNL     1      29.387  33.700  36.129  1.00  0.00    -0.359 OA
HETATM   32  C1  UNL     1      28.698  34.847  35.903  1.00  0.00     0.205 C 
ENDBRANCH  30  31
BRANCH  30  33
HETATM   33  O2  UNL     1      28.599  34.028  38.160  1.00  0.00    -0.365 OA
ATOM     34  H2  UNL     1      28.810  34.953  38.101  1.00  0.00     0.213 HD
ENDBRANCH  30  33
ENDBRANCH   1  30
TORSDOF 5
ENDMDL
