MODEL 1
REMARK VINA RESULT: -7.063047793      0.000      0.000
REMARK  8 active torsions:
REMARK  status: ('A' for Active; 'I' for Inactive)
REMARK    1  A    between atoms: O1_2  and  C2_3 
REMARK    2  A    between atoms: C2_3  and  O2_4 
REMARK    3  A    between atoms: C2_3  and  C3_6 
REMARK    4  A    between atoms: C6_9  and  O3_10 
REMARK    5  A    between atoms: C9_14  and  O4_15 
REMARK    6  A    between atoms: C10_17  and  O5_18 
REMARK    7  A    between atoms: C21_30  and  O7_31 
REMARK    8  A    between atoms: O7_31  and  C22_32 
ROOT
HETATM    1  C3  UNL     1      20.801  11.613  25.022  1.00  0.00     0.053 C 
HETATM    2  C4  UNL     1      21.197  10.203  24.592  1.00  0.00     0.013 C 
HETATM    3  C5  UNL     1      22.535  10.078  23.996  1.00  0.00     0.033 C 
HETATM    4  C6  UNL     1      22.990  11.435  23.559  1.00  0.00     0.130 C 
HETATM    5  C7  UNL     1      21.867  12.281  22.973  1.00  0.00     0.021 C 
HETATM    6  C8  UNL     1      21.527  11.369  21.765  1.00  0.00     0.021 C 
HETATM    7  C9  UNL     1      22.475  13.388  22.178  1.00  0.00     0.159 C 
HETATM    8  C10 UNL     1      23.265  14.429  22.838  1.00  0.00     0.159 C 
HETATM    9  C12 UNL     1      22.260  15.530  22.871  1.00  0.00     0.070 C 
HETATM   10  C13 UNL     1      22.545  16.772  23.623  1.00  0.00     0.178 C 
HETATM   11  O6  UNL     1      21.596  16.198  24.425  1.00  0.00    -0.384 OA
HETATM   12  C14 UNL     1      21.081  15.147  23.586  1.00  0.00     0.135 C 
HETATM   13  C15 UNL     1      20.722  14.026  24.426  1.00  0.00     0.035 C 
HETATM   14  C16 UNL     1      19.452  14.473  25.075  1.00  0.00    -0.041 C 
HETATM   15  C17 UNL     1      19.169  14.087  26.490  1.00  0.00     0.015 C 
HETATM   16  C18 UNL     1      19.284  15.993  25.197  1.00  0.00     0.015 C 
HETATM   17  C19 UNL     1      18.230  14.223  24.201  1.00  0.00     0.012 C 
HETATM   18  C20 UNL     1      18.174  12.802  23.963  1.00  0.00     0.034 C 
HETATM   19  C21 UNL     1      19.436  12.410  23.147  1.00  0.00     0.142 C 
HETATM   20  C24 UNL     1      20.729  12.592  23.868  1.00  0.00     0.013 C 
ENDROOT
BRANCH   1  21
HETATM   21  C2  UNL     1      21.521  11.806  26.226  1.00  0.00     0.261 C 
BRANCH  21  22
HETATM   22  O1  UNL     1      22.485  12.550  26.799  1.00  0.00    -0.366 OA
HETATM   23  C1  UNL     1      22.509  13.310  27.942  1.00  0.00     0.204 C 
ENDBRANCH  21  22
BRANCH  21  24
HETATM   24  O2  UNL     1      21.131  10.968  27.162  1.00  0.00    -0.371 OA
ATOM     25  H2  UNL     1      20.988  10.144  26.712  1.00  0.00     0.212 HD
ENDBRANCH  21  24
ENDBRANCH   1  21
BRANCH  19  26
HETATM   26  O7  UNL     1      18.961  11.137  22.846  1.00  0.00    -0.315 OA
BRANCH  26  27
HETATM   27  C22 UNL     1      17.944  10.869  22.004  1.00  0.00     0.255 C 
HETATM   28  C23 UNL     1      17.972  11.323  20.601  1.00  0.00     0.126 C 
HETATM   29  O8  UNL     1      16.952  10.227  22.398  1.00  0.00    -0.266 OA
ENDBRANCH  26  27
ENDBRANCH  19  26
BRANCH   4  30
HETATM   30  O3  UNL     1      23.930  11.131  22.530  1.00  0.00    -0.395 OA
ATOM     31  H3  UNL     1      24.016  11.961  22.076  1.00  0.00     0.210 HD
ENDBRANCH   4  30
BRANCH   7  32
HETATM   32  O4  UNL     1      23.316  12.922  21.133  1.00  0.00    -0.392 OA
ATOM     33  H4  UNL     1      24.135  13.400  21.076  1.00  0.00     0.210 HD
ENDBRANCH   7  32
BRANCH   8  34
HETATM   34  O5  UNL     1      23.811  14.263  24.043  1.00  0.00    -0.388 OA
HETATM   35  C11 UNL     1      25.226  14.248  24.073  1.00  0.00     0.202 C 
ENDBRANCH   8  34
TORSDOF 8
ENDMDL
MODEL 2
REMARK VINA RESULT: -6.945106301      1.709      3.154
REMARK  8 active torsions:
REMARK  status: ('A' for Active; 'I' for Inactive)
REMARK    1  A    between atoms: O1_2  and  C2_3 
REMARK    2  A    between atoms: C2_3  and  O2_4 
REMARK    3  A    between atoms: C2_3  and  C3_6 
REMARK    4  A    between atoms: C6_9  and  O3_10 
REMARK    5  A    between atoms: C9_14  and  O4_15 
REMARK    6  A    between atoms: C10_17  and  O5_18 
REMARK    7  A    between atoms: C21_30  and  O7_31 
REMARK    8  A    between atoms: O7_31  and  C22_32 
ROOT
HETATM    1  C3  UNL     1      20.920  11.508  24.559  1.00  0.00     0.053 C 
HETATM    2  C4  UNL     1      22.401  11.266  24.279  1.00  0.00     0.013 C 
HETATM    3  C5  UNL     1      23.298  12.378  24.626  1.00  0.00     0.033 C 
HETATM    4  C6  UNL     1      22.481  13.626  24.754  1.00  0.00     0.130 C 
HETATM    5  C7  UNL     1      21.365  13.717  23.723  1.00  0.00     0.021 C 
HETATM    6  C8  UNL     1      22.256  13.738  22.452  1.00  0.00     0.021 C 
HETATM    7  C9  UNL     1      20.919  15.139  23.634  1.00  0.00     0.159 C 
HETATM    8  C10 UNL     1      20.269  15.785  24.776  1.00  0.00     0.159 C 
HETATM    9  C12 UNL     1      18.847  15.721  24.331  1.00  0.00     0.070 C 
HETATM   10  C13 UNL     1      17.761  16.105  25.259  1.00  0.00     0.178 C 
HETATM   11  O6  UNL     1      17.592  14.748  25.215  1.00  0.00    -0.384 OA
HETATM   12  C14 UNL     1      18.427  14.372  24.104  1.00  0.00     0.135 C 
HETATM   13  C15 UNL     1      18.995  13.071  24.379  1.00  0.00     0.035 C 
HETATM   14  C16 UNL     1      17.847  12.138  24.158  1.00  0.00    -0.041 C 
HETATM   15  C17 UNL     1      17.697  10.932  25.025  1.00  0.00     0.015 C 
HETATM   16  C18 UNL     1      16.458  12.758  24.356  1.00  0.00     0.015 C 
HETATM   17  C19 UNL     1      17.673  11.764  22.692  1.00  0.00     0.012 C 
HETATM   18  C20 UNL     1      18.898  11.125  22.278  1.00  0.00     0.034 C 
HETATM   19  C21 UNL     1      20.036  12.179  22.373  1.00  0.00     0.142 C 
HETATM   20  C24 UNL     1      20.338  12.651  23.755  1.00  0.00     0.013 C 
ENDROOT
BRANCH   1  21
HETATM   21  C2  UNL     1      20.819  11.348  25.962  1.00  0.00     0.261 C 
BRANCH  21  22
HETATM   22  O1  UNL     1      20.635  12.020  27.114  1.00  0.00    -0.366 OA
HETATM   23  C1  UNL     1      21.492  12.366  28.130  1.00  0.00     0.204 C 
ENDBRANCH  21  22
BRANCH  21  24
HETATM   24  O2  UNL     1      20.944  10.087  26.317  1.00  0.00    -0.371 OA
ATOM     25  H2  UNL     1      20.965   9.602  25.500  1.00  0.00     0.212 HD
ENDBRANCH  21  24
ENDBRANCH   1  21
BRANCH  19  26
HETATM   26  O7  UNL     1      20.947  11.395  21.672  1.00  0.00    -0.315 OA
BRANCH  26  27
HETATM   27  C22 UNL     1      21.012  11.295  20.331  1.00  0.00     0.255 C 
HETATM   28  C23 UNL     1      22.305  11.319  19.622  1.00  0.00     0.126 C 
HETATM   29  O8  UNL     1      19.971  11.178  19.657  1.00  0.00    -0.266 OA
ENDBRANCH  26  27
ENDBRANCH  19  26
BRANCH   4  30
HETATM   30  O3  UNL     1      23.439  14.651  24.497  1.00  0.00    -0.395 OA
ATOM     31  H3  UNL     1      24.096  14.196  23.984  1.00  0.00     0.210 HD
ENDBRANCH   4  30
BRANCH   7  32
HETATM   32  O4  UNL     1      21.968  16.028  23.281  1.00  0.00    -0.392 OA
ATOM     33  H4  UNL     1      21.914  16.863  23.732  1.00  0.00     0.210 HD
ENDBRANCH   7  32
BRANCH   8  34
HETATM   34  O5  UNL     1      20.386  15.330  26.024  1.00  0.00    -0.388 OA
HETATM   35  C11 UNL     1      21.019  16.209  26.935  1.00  0.00     0.202 C 
ENDBRANCH   8  34
TORSDOF 8
ENDMDL
MODEL 3
REMARK VINA RESULT: -6.930666939      5.106      8.524
REMARK  8 active torsions:
REMARK  status: ('A' for Active; 'I' for Inactive)
REMARK    1  A    between atoms: O1_2  and  C2_3 
REMARK    2  A    between atoms: C2_3  and  O2_4 
REMARK    3  A    between atoms: C2_3  and  C3_6 
REMARK    4  A    between atoms: C6_9  and  O3_10 
REMARK    5  A    between atoms: C9_14  and  O4_15 
REMARK    6  A    between atoms: C10_17  and  O5_18 
REMARK    7  A    between atoms: C21_30  and  O7_31 
REMARK    8  A    between atoms: O7_31  and  C22_32 
ROOT
HETATM    1  C3  UNL     1      28.334  13.257  19.360  1.00  0.00     0.053 C 
HETATM    2  C4  UNL     1      29.671  13.984  19.477  1.00  0.00     0.013 C 
HETATM    3  C5  UNL     1      29.949  14.582  20.790  1.00  0.00     0.033 C 
HETATM    4  C6  UNL     1      28.660  14.705  21.541  1.00  0.00     0.130 C 
HETATM    5  C7  UNL     1      27.487  15.098  20.652  1.00  0.00     0.021 C 
HETATM    6  C8  UNL     1      28.025  16.481  20.197  1.00  0.00     0.021 C 
HETATM    7  C9  UNL     1      26.393  15.625  21.520  1.00  0.00     0.159 C 
HETATM    8  C10 UNL     1      25.712  14.744  22.472  1.00  0.00     0.159 C 
HETATM    9  C12 UNL     1      24.454  14.477  21.718  1.00  0.00     0.070 C 
HETATM   10  C13 UNL     1      23.493  13.466  22.212  1.00  0.00     0.178 C 
HETATM   11  O6  UNL     1      24.008  12.819  21.122  1.00  0.00    -0.384 OA
HETATM   12  C14 UNL     1      24.719  13.874  20.447  1.00  0.00     0.135 C 
HETATM   13  C15 UNL     1      25.889  13.305  19.817  1.00  0.00     0.035 C 
HETATM   14  C16 UNL     1      25.330  12.583  18.634  1.00  0.00    -0.041 C 
HETATM   15  C17 UNL     1      25.940  11.291  18.199  1.00  0.00     0.015 C 
HETATM   16  C18 UNL     1      23.871  12.130  18.779  1.00  0.00     0.015 C 
HETATM   17  C19 UNL     1      25.118  13.501  17.437  1.00  0.00     0.012 C 
HETATM   18  C20 UNL     1      26.409  14.048  17.100  1.00  0.00     0.034 C 
HETATM   19  C21 UNL     1      26.879  14.920  18.296  1.00  0.00     0.142 C 
HETATM   20  C24 UNL     1      27.138  14.166  19.556  1.00  0.00     0.013 C 
ENDROOT
BRANCH   1  21
HETATM   21  C2  UNL     1      28.562  12.034  20.036  1.00  0.00     0.261 C 
BRANCH  21  22
HETATM   22  O1  UNL     1      28.315  11.372  21.182  1.00  0.00    -0.366 OA
HETATM   23  C1  UNL     1      29.139  10.745  22.083  1.00  0.00     0.204 C 
ENDBRANCH  21  22
BRANCH  21  24
HETATM   24  O2  UNL     1      29.276  11.204  19.307  1.00  0.00    -0.371 OA
ATOM     25  H2  UNL     1      29.790  11.759  18.733  1.00  0.00     0.212 HD
ENDBRANCH  21  24
ENDBRANCH   1  21
BRANCH  19  26
HETATM   26  O7  UNL     1      27.926  15.498  17.583  1.00  0.00    -0.315 OA
BRANCH  26  27
HETATM   27  C22 UNL     1      27.805  16.544  16.743  1.00  0.00     0.255 C 
HETATM   28  C23 UNL     1      28.813  16.806  15.697  1.00  0.00     0.126 C 
HETATM   29  O8  UNL     1      26.832  17.315  16.832  1.00  0.00    -0.266 OA
ENDBRANCH  26  27
ENDBRANCH  19  26
BRANCH   4  30
HETATM   30  O3  UNL     1      28.931  15.768  22.452  1.00  0.00    -0.395 OA
ATOM     31  H3  UNL     1      29.670  15.433  22.947  1.00  0.00     0.210 HD
ENDBRANCH   4  30
BRANCH   7  32
HETATM   32  O4  UNL     1      26.793  16.740  22.303  1.00  0.00    -0.392 OA
ATOM     33  H4  UNL     1      26.312  16.812  23.118  1.00  0.00     0.210 HD
ENDBRANCH   7  32
BRANCH   8  34
HETATM   34  O5  UNL     1      26.245  13.601  22.904  1.00  0.00    -0.388 OA
HETATM   35  C11 UNL     1      26.638  13.589  24.264  1.00  0.00     0.202 C 
ENDBRANCH   8  34
TORSDOF 8
ENDMDL
MODEL 4
REMARK VINA RESULT: -6.829004223      1.951      5.241
REMARK  8 active torsions:
REMARK  status: ('A' for Active; 'I' for Inactive)
REMARK    1  A    between atoms: O1_2  and  C2_3 
REMARK    2  A    between atoms: C2_3  and  O2_4 
REMARK    3  A    between atoms: C2_3  and  C3_6 
REMARK    4  A    between atoms: C6_9  and  O3_10 
REMARK    5  A    between atoms: C9_14  and  O4_15 
REMARK    6  A    between atoms: C10_17  and  O5_18 
REMARK    7  A    between atoms: C21_30  and  O7_31 
REMARK    8  A    between atoms: O7_31  and  C22_32 
ROOT
HETATM    1  C3  UNL     1      21.261  12.611  26.335  1.00  0.00     0.053 C 
HETATM    2  C4  UNL     1      22.343  13.011  27.335  1.00  0.00     0.013 C 
HETATM    3  C5  UNL     1      21.981  14.097  28.256  1.00  0.00     0.033 C 
HETATM    4  C6  UNL     1      20.806  14.830  27.689  1.00  0.00     0.130 C 
HETATM    5  C7  UNL     1      20.869  14.978  26.175  1.00  0.00     0.021 C 
HETATM    6  C8  UNL     1      22.168  15.824  26.102  1.00  0.00     0.021 C 
HETATM    7  C9  UNL     1      19.937  16.071  25.768  1.00  0.00     0.159 C 
HETATM    8  C10 UNL     1      18.492  15.922  25.953  1.00  0.00     0.159 C 
HETATM    9  C12 UNL     1      18.088  15.590  24.556  1.00  0.00     0.070 C 
HETATM   10  C13 UNL     1      16.701  15.167  24.266  1.00  0.00     0.178 C 
HETATM   11  O6  UNL     1      17.368  13.984  24.105  1.00  0.00    -0.384 OA
HETATM   12  C14 UNL     1      18.744  14.408  24.085  1.00  0.00     0.135 C 
HETATM   13  C15 UNL     1      19.549  13.379  24.702  1.00  0.00     0.035 C 
HETATM   14  C16 UNL     1      19.602  12.308  23.659  1.00  0.00    -0.041 C 
HETATM   15  C17 UNL     1      19.589  10.873  24.072  1.00  0.00     0.015 C 
HETATM   16  C18 UNL     1      18.419  12.294  22.682  1.00  0.00     0.015 C 
HETATM   17  C19 UNL     1      20.692  12.555  22.625  1.00  0.00     0.012 C 
HETATM   18  C20 UNL     1      21.943  12.591  23.340  1.00  0.00     0.034 C 
HETATM   19  C21 UNL     1      21.905  13.814  24.297  1.00  0.00     0.142 C 
HETATM   20  C24 UNL     1      20.886  13.728  25.382  1.00  0.00     0.013 C 
ENDROOT
BRANCH   1  21
HETATM   21  C2  UNL     1      20.356  11.851  27.114  1.00  0.00     0.261 C 
BRANCH  21  22
HETATM   22  O1  UNL     1      19.167  11.900  27.744  1.00  0.00    -0.366 OA
HETATM   23  C1  UNL     1      18.813  12.249  29.023  1.00  0.00     0.204 C 
ENDBRANCH  21  22
BRANCH  21  24
HETATM   24  O2  UNL     1      20.804  10.631  27.323  1.00  0.00    -0.371 OA
ATOM     25  H2  UNL     1      20.160  10.059  26.921  1.00  0.00     0.212 HD
ENDBRANCH  21  24
ENDBRANCH   1  21
BRANCH  19  26
HETATM   26  O7  UNL     1      23.264  13.745  24.589  1.00  0.00    -0.315 OA
BRANCH  26  27
HETATM   27  C22 UNL     1      24.253  14.164  23.776  1.00  0.00     0.255 C 
HETATM   28  C23 UNL     1      24.111  15.389  22.966  1.00  0.00     0.126 C 
HETATM   29  O8  UNL     1      25.315  13.520  23.692  1.00  0.00    -0.266 OA
ENDBRANCH  26  27
ENDBRANCH  19  26
BRANCH   4  30
HETATM   30  O3  UNL     1      20.925  16.118  28.289  1.00  0.00    -0.395 OA
ATOM     31  H3  UNL     1      20.905  16.699  27.537  1.00  0.00     0.210 HD
ENDBRANCH   4  30
BRANCH   7  32
HETATM   32  O4  UNL     1      20.241  17.315  26.381  1.00  0.00    -0.392 OA
ATOM     33  H4  UNL     1      19.709  18.030  26.052  1.00  0.00     0.210 HD
ENDBRANCH   7  32
BRANCH   8  34
HETATM   34  O5  UNL     1      17.962  15.048  26.809  1.00  0.00    -0.388 OA
HETATM   35  C11 UNL     1      17.222  15.613  27.875  1.00  0.00     0.202 C 
ENDBRANCH   8  34
TORSDOF 8
ENDMDL
MODEL 5
REMARK VINA RESULT: -6.737936870      1.097      1.184
REMARK  8 active torsions:
REMARK  status: ('A' for Active; 'I' for Inactive)
REMARK    1  A    between atoms: O1_2  and  C2_3 
REMARK    2  A    between atoms: C2_3  and  O2_4 
REMARK    3  A    between atoms: C2_3  and  C3_6 
REMARK    4  A    between atoms: C6_9  and  O3_10 
REMARK    5  A    between atoms: C9_14  and  O4_15 
REMARK    6  A    between atoms: C10_17  and  O5_18 
REMARK    7  A    between atoms: C21_30  and  O7_31 
REMARK    8  A    between atoms: O7_31  and  C22_32 
ROOT
HETATM    1  C3  UNL     1      20.587  11.044  24.682  1.00  0.00     0.053 C 
HETATM    2  C4  UNL     1      21.383   9.838  24.190  1.00  0.00     0.013 C 
HETATM    3  C5  UNL     1      22.788  10.105  23.854  1.00  0.00     0.033 C 
HETATM    4  C6  UNL     1      22.959  11.579  23.660  1.00  0.00     0.130 C 
HETATM    5  C7  UNL     1      21.773  12.231  22.961  1.00  0.00     0.021 C 
HETATM    6  C8  UNL     1      21.870  11.457  21.620  1.00  0.00     0.021 C 
HETATM    7  C9  UNL     1      22.211  13.552  22.421  1.00  0.00     0.159 C 
HETATM    8  C10 UNL     1      22.601  14.632  23.329  1.00  0.00     0.159 C 
HETATM    9  C12 UNL     1      21.364  15.464  23.283  1.00  0.00     0.070 C 
HETATM   10  C13 UNL     1      21.207  16.611  24.204  1.00  0.00     0.178 C 
HETATM   11  O6  UNL     1      20.312  15.727  24.742  1.00  0.00    -0.384 OA
HETATM   12  C14 UNL     1      20.216  14.725  23.712  1.00  0.00     0.135 C 
HETATM   13  C15 UNL     1      20.013  13.440  24.342  1.00  0.00     0.035 C 
HETATM   14  C16 UNL     1      18.583  13.490  24.778  1.00  0.00    -0.041 C 
HETATM   15  C17 UNL     1      18.178  12.843  26.062  1.00  0.00     0.015 C 
HETATM   16  C18 UNL     1      18.028  14.898  25.026  1.00  0.00     0.015 C 
HETATM   17  C19 UNL     1      17.620  13.107  23.662  1.00  0.00     0.012 C 
HETATM   18  C20 UNL     1      17.956  11.761  23.268  1.00  0.00     0.034 C 
HETATM   19  C21 UNL     1      19.391  11.786  22.674  1.00  0.00     0.142 C 
HETATM   20  C24 UNL     1      20.464  12.143  23.647  1.00  0.00     0.013 C 
ENDROOT
BRANCH   1  21
HETATM   21  C2  UNL     1      21.031  11.211  26.017  1.00  0.00     0.261 C 
BRANCH  21  22
HETATM   22  O1  UNL     1      21.638  12.074  26.852  1.00  0.00    -0.366 OA
HETATM   23  C1  UNL     1      21.517  12.295  28.201  1.00  0.00     0.204 C 
ENDBRANCH  21  22
BRANCH  21  24
HETATM   24  O2  UNL     1      20.769  10.151  26.750  1.00  0.00    -0.371 OA
ATOM     25  H2  UNL     1      21.328   9.465  26.402  1.00  0.00     0.212 HD
ENDBRANCH  21  24
ENDBRANCH   1  21
BRANCH  19  26
HETATM   26  O7  UNL     1      19.299  10.499  22.154  1.00  0.00    -0.315 OA
BRANCH  26  27
HETATM   27  C22 UNL     1      19.019  10.201  20.871  1.00  0.00     0.255 C 
HETATM   28  C23 UNL     1      18.160  11.077  20.051  1.00  0.00     0.126 C 
HETATM   29  O8  UNL     1      19.483   9.171  20.347  1.00  0.00    -0.266 OA
ENDBRANCH  26  27
ENDBRANCH  19  26
BRANCH   4  30
HETATM   30  O3  UNL     1      24.099  11.650  22.806  1.00  0.00    -0.395 OA
ATOM     31  H3  UNL     1      24.631  10.924  23.110  1.00  0.00     0.210 HD
ENDBRANCH   4  30
BRANCH   7  32
HETATM   32  O4  UNL     1      23.299  13.447  21.515  1.00  0.00    -0.392 OA
ATOM     33  H4  UNL     1      24.033  14.001  21.752  1.00  0.00     0.210 HD
ENDBRANCH   7  32
BRANCH   8  34
HETATM   34  O5  UNL     1      22.968  14.415  24.592  1.00  0.00    -0.388 OA
HETATM   35  C11 UNL     1      24.311  14.740  24.900  1.00  0.00     0.202 C 
ENDBRANCH   8  34
TORSDOF 8
ENDMDL
