MODEL 1
REMARK VINA RESULT: -4.556395384      0.000      0.000
REMARK  1 active torsions:
REMARK  status: ('A' for Active; 'I' for Inactive)
REMARK    1  A    between atoms: O1_1  and  C1_3 
ROOT
HETATM    1  C1  UNL     1       3.491   9.461   2.206  1.00  0.00     0.130 C 
HETATM    2  C2  UNL     1       2.368   9.425   1.154  1.00  0.00     0.022 C 
HETATM    3  C3  UNL     1       1.851   8.008   1.166  1.00  0.00     0.008 C 
HETATM    4  C4  UNL     1       3.147   7.231   0.883  1.00  0.00     0.006 C 
HETATM    5  C5  UNL     1       4.076   8.205   0.246  1.00  0.00     0.002 C 
HETATM    6  C6  UNL     1       4.652   9.150   1.303  1.00  0.00     0.053 C 
HETATM    7  C7  UNL     1       4.467  10.233   0.239  1.00  0.00     0.181 C 
HETATM    8  F1  UNL     1       5.390  10.166  -0.752  1.00  0.00    -0.248 F 
HETATM    9  C8  UNL     1       3.214   9.434  -0.085  1.00  0.00     0.031 C 
ENDROOT
BRANCH   1  10
HETATM   10  O1  UNL     1       3.558  10.767   2.655  1.00  0.00    -0.395 OA
ATOM     11  H1  UNL     1       3.811  11.292   1.904  1.00  0.00     0.210 HD
ENDBRANCH   1  10
TORSDOF 1
ENDMDL
MODEL 2
REMARK VINA RESULT: -4.157015021      2.568      3.434
REMARK  1 active torsions:
REMARK  status: ('A' for Active; 'I' for Inactive)
REMARK    1  A    between atoms: O1_1  and  C1_3 
ROOT
HETATM    1  C1  UNL     1       3.662   7.468   1.280  1.00  0.00     0.130 C 
HETATM    2  C2  UNL     1       3.404   8.505   0.172  1.00  0.00     0.022 C 
HETATM    3  C3  UNL     1       4.434   9.587   0.386  1.00  0.00     0.008 C 
HETATM    4  C4  UNL     1       4.135   9.979   1.842  1.00  0.00     0.006 C 
HETATM    5  C5  UNL     1       2.743   9.524   2.110  1.00  0.00     0.002 C 
HETATM    6  C6  UNL     1       2.716   8.008   2.315  1.00  0.00     0.053 C 
HETATM    7  C7  UNL     1       1.421   8.057   1.501  1.00  0.00     0.181 C 
HETATM    8  F1  UNL     1       0.372   8.554   2.202  1.00  0.00    -0.248 F 
HETATM    9  C8  UNL     1       2.168   9.141   0.737  1.00  0.00     0.031 C 
ENDROOT
BRANCH   1  10
HETATM   10  O1  UNL     1       3.211   6.258   0.788  1.00  0.00    -0.395 OA
ATOM     11  H1  UNL     1       2.275   6.359   0.654  1.00  0.00     0.210 HD
ENDBRANCH   1  10
TORSDOF 1
ENDMDL
MODEL 3
REMARK VINA RESULT: -4.076487611      1.161      1.333
REMARK  1 active torsions:
REMARK  status: ('A' for Active; 'I' for Inactive)
REMARK    1  A    between atoms: O1_1  and  C1_3 
ROOT
HETATM    1  C1  UNL     1       3.535   9.255   2.076  1.00  0.00     0.130 C 
HETATM    2  C2  UNL     1       2.238   9.413   1.262  1.00  0.00     0.022 C 
HETATM    3  C3  UNL     1       1.228   8.518   1.936  1.00  0.00     0.008 C 
HETATM    4  C4  UNL     1       1.965   7.171   1.886  1.00  0.00     0.006 C 
HETATM    5  C5  UNL     1       2.977   7.298   0.802  1.00  0.00     0.002 C 
HETATM    6  C6  UNL     1       4.160   8.140   1.284  1.00  0.00     0.053 C 
HETATM    7  C7  UNL     1       4.123   8.750  -0.119  1.00  0.00     0.181 C 
HETATM    8  F1  UNL     1       4.613   7.918  -1.071  1.00  0.00    -0.248 F 
HETATM    9  C8  UNL     1       2.620   8.597   0.062  1.00  0.00     0.031 C 
ENDROOT
BRANCH   1  10
HETATM   10  O1  UNL     1       4.242  10.430   1.908  1.00  0.00    -0.395 OA
ATOM     11  H1  UNL     1       4.895  10.447   2.598  1.00  0.00     0.210 HD
ENDBRANCH   1  10
TORSDOF 1
ENDMDL
MODEL 4
REMARK VINA RESULT: -3.533972164      2.241      2.978
REMARK  1 active torsions:
REMARK  status: ('A' for Active; 'I' for Inactive)
REMARK    1  A    between atoms: O1_1  and  C1_3 
ROOT
HETATM    1  C1  UNL     1       4.061   8.039   1.323  1.00  0.00     0.130 C 
HETATM    2  C2  UNL     1       3.853   9.510   0.918  1.00  0.00     0.022 C 
HETATM    3  C3  UNL     1       3.539  10.240   2.201  1.00  0.00     0.008 C 
HETATM    4  C4  UNL     1       2.326   9.436   2.695  1.00  0.00     0.006 C 
HETATM    5  C5  UNL     1       1.775   8.749   1.494  1.00  0.00     0.002 C 
HETATM    6  C6  UNL     1       2.652   7.553   1.124  1.00  0.00     0.053 C 
HETATM    7  C7  UNL     1       2.413   7.996  -0.320  1.00  0.00     0.181 C 
HETATM    8  F1  UNL     1       1.166   7.704  -0.765  1.00  0.00    -0.248 F 
HETATM    9  C8  UNL     1       2.494   9.386   0.295  1.00  0.00     0.031 C 
ENDROOT
BRANCH   1  10
HETATM   10  O1  UNL     1       4.905   7.494   0.375  1.00  0.00    -0.395 OA
ATOM     11  H1  UNL     1       5.783   7.568   0.728  1.00  0.00     0.210 HD
ENDBRANCH   1  10
TORSDOF 1
ENDMDL
MODEL 5
REMARK VINA RESULT: -3.435225585      1.893      2.862
REMARK  1 active torsions:
REMARK  status: ('A' for Active; 'I' for Inactive)
REMARK    1  A    between atoms: O1_1  and  C1_3 
ROOT
HETATM    1  C1  UNL     1       2.432   9.528   1.128  1.00  0.00     0.130 C 
HETATM    2  C2  UNL     1       3.774   9.469   1.879  1.00  0.00     0.022 C 
HETATM    3  C3  UNL     1       4.704  10.378   1.114  1.00  0.00     0.008 C 
HETATM    4  C4  UNL     1       4.620   9.755  -0.288  1.00  0.00     0.006 C 
HETATM    5  C5  UNL     1       4.141   8.360  -0.087  1.00  0.00     0.002 C 
HETATM    6  C6  UNL     1       2.640   8.357   0.209  1.00  0.00     0.053 C 
HETATM    7  C7  UNL     1       2.980   7.268   1.228  1.00  0.00     0.181 C 
HETATM    8  F1  UNL     1       3.256   6.071   0.654  1.00  0.00    -0.248 F 
HETATM    9  C8  UNL     1       4.230   8.113   1.427  1.00  0.00     0.031 C 
ENDROOT
BRANCH   1  10
HETATM   10  O1  UNL     1       1.454   9.248   2.063  1.00  0.00    -0.395 OA
ATOM     11  H1  UNL     1       1.140   8.373   1.864  1.00  0.00     0.210 HD
ENDBRANCH   1  10
TORSDOF 1
ENDMDL
