MODEL 1
REMARK VINA RESULT: -7.627076355      0.000      0.000
REMARK  14 active torsions:
REMARK  status: ('A' for Active; 'I' for Inactive)
REMARK    1  A    between atoms: O1_2  and  C2_3 
REMARK    2  A    between atoms: C8_9  and  C9_10 
REMARK    3  A    between atoms: C10_11  and  C11_12 
REMARK    4  A    between atoms: C11_12  and  C12_13 
REMARK    5  A    between atoms: C12_13  and  C13_14 
REMARK    6  A    between atoms: C13_14  and  C14_15 
REMARK    7  A    between atoms: C14_15  and  C15_16 
REMARK    8  A    between atoms: C15_16  and  C16_17 
REMARK    9  A    between atoms: C19_22  and  O4_23 
REMARK   10  A    between atoms: C24_29  and  O5_30 
REMARK   11  A    between atoms: O5_30  and  C25_31 
REMARK   12  A    between atoms: C25_31  and  C26_33 
REMARK   13  A    between atoms: C26_33  and  N1_34 
REMARK   14  A    between atoms: C31_40  and  O8_41 
ROOT
HETATM    1  C2  UNL     1      18.674  31.071  13.662  1.00  0.00     0.092 C 
HETATM    2  C3  UNL     1      18.308  30.781  12.286  1.00  0.00     0.041 C 
HETATM    3  C4  UNL     1      17.474  29.542  12.157  1.00  0.00     0.015 C 
HETATM    4  C5  UNL     1      18.118  28.468  12.975  1.00  0.00    -0.013 C 
HETATM    5  C6  UNL     1      17.124  27.304  13.018  1.00  0.00     0.018 C 
HETATM    6  C7  UNL     1      19.378  28.115  12.216  1.00  0.00     0.046 C 
HETATM    7  C8  UNL     1      20.627  28.494  12.867  1.00  0.00    -0.067 C 
HETATM    8  C17 UNL     1      20.597  29.587  13.884  1.00  0.00     0.026 C 
HETATM    9  C18 UNL     1      21.570  29.126  14.945  1.00  0.00     0.024 C 
HETATM   10  C19 UNL     1      20.973  30.951  13.273  1.00  0.00     0.146 C 
HETATM   11  C20 UNL     1      20.033  31.866  13.826  1.00  0.00     0.059 C 
HETATM   12  C21 UNL     1      19.675  33.240  13.639  1.00  0.00     0.026 C 
HETATM   13  C22 UNL     1      19.647  33.405  15.127  1.00  0.00     0.027 C 
HETATM   14  C23 UNL     1      18.587  34.006  15.909  1.00  0.00     0.014 C 
HETATM   15  C24 UNL     1      20.221  32.063  15.291  1.00  0.00     0.148 C 
HETATM   16  C29 UNL     1      19.403  30.832  15.672  1.00  0.00     0.178 C 
HETATM   17  O7  UNL     1      18.952  30.620  16.760  1.00  0.00    -0.293 OA
HETATM   18  C30 UNL     1      19.264  29.945  14.474  1.00  0.00     0.096 C 
HETATM   19  C31 UNL     1      18.370  28.833  14.437  1.00  0.00     0.146 C 
ENDROOT
BRANCH   7  20
HETATM   20  C9  UNL     1      21.824  28.606  12.001  1.00  0.00    -0.000 C 
HETATM   21  C10 UNL     1      22.936  27.961  12.091  1.00  0.00    -0.026 C 
BRANCH  21  22
HETATM   22  C11 UNL     1      24.135  28.066  11.237  1.00  0.00     0.027 C 
BRANCH  22  23
HETATM   23  C12 UNL     1      24.855  26.829  10.898  1.00  0.00     0.004 C 
BRANCH  23  24
HETATM   24  C13 UNL     1      24.450  26.186   9.576  1.00  0.00     0.001 C 
BRANCH  24  25
HETATM   25  C14 UNL     1      23.597  24.980   9.843  1.00  0.00     0.010 C 
BRANCH  25  26
HETATM   26  C15 UNL     1      22.150  25.154   9.517  1.00  0.00     0.113 C 
BRANCH  26  27
HETATM   27  C16 UNL     1      21.265  24.999  10.681  1.00  0.00     0.172 C 
HETATM   28  O2  UNL     1      21.721  24.798  11.824  1.00  0.00    -0.648 OA
HETATM   29  O3  UNL     1      19.875  25.078  10.507  1.00  0.00    -0.648 OA
ENDBRANCH  26  27
ENDBRANCH  25  26
ENDBRANCH  24  25
ENDBRANCH  23  24
ENDBRANCH  22  23
ENDBRANCH  21  22
ENDBRANCH   7  20
BRANCH  10  30
HETATM   30  O4  UNL     1      22.335  31.092  13.506  1.00  0.00    -0.393 OA
ATOM     31  H4  UNL     1      22.732  30.308  13.146  1.00  0.00     0.210 HD
ENDBRANCH  10  30
BRANCH  19  32
HETATM   32  O8  UNL     1      19.050  27.693  14.959  1.00  0.00    -0.393 OA
ATOM     33  H8  UNL     1      18.354  27.171  15.343  1.00  0.00     0.210 HD
ENDBRANCH  19  32
BRANCH   1  34
HETATM   34  O1  UNL     1      17.685  31.625  14.320  1.00  0.00    -0.383 OA
HETATM   35  C1  UNL     1      16.405  31.764  14.152  1.00  0.00     0.202 C 
ENDBRANCH   1  34
BRANCH  15  36
HETATM   36  O5  UNL     1      21.251  32.036  16.098  1.00  0.00    -0.296 OA
BRANCH  36  37
HETATM   37  C25 UNL     1      22.290  32.709  16.515  1.00  0.00     0.299 C 
HETATM   38  O6  UNL     1      23.205  32.584  15.660  1.00  0.00    -0.259 OA
BRANCH  37  39
HETATM   39  C26 UNL     1      22.557  33.530  17.720  1.00  0.00     0.167 C 
BRANCH  39  40
HETATM   40  N1  UNL     1      21.767  34.674  17.845  1.00  0.00    -0.394 N 
HETATM   41  C27 UNL     1      21.811  35.690  16.874  1.00  0.00     0.148 C 
HETATM   42  C28 UNL     1      21.475  35.100  19.180  1.00  0.00     0.148 C 
ENDBRANCH  39  40
ENDBRANCH  37  39
ENDBRANCH  36  37
ENDBRANCH  15  36
TORSDOF 14
ENDMDL
MODEL 2
REMARK VINA RESULT: -7.548936012      2.250      4.885
REMARK  14 active torsions:
REMARK  status: ('A' for Active; 'I' for Inactive)
REMARK    1  A    between atoms: O1_2  and  C2_3 
REMARK    2  A    between atoms: C8_9  and  C9_10 
REMARK    3  A    between atoms: C10_11  and  C11_12 
REMARK    4  A    between atoms: C11_12  and  C12_13 
REMARK    5  A    between atoms: C12_13  and  C13_14 
REMARK    6  A    between atoms: C13_14  and  C14_15 
REMARK    7  A    between atoms: C14_15  and  C15_16 
REMARK    8  A    between atoms: C15_16  and  C16_17 
REMARK    9  A    between atoms: C19_22  and  O4_23 
REMARK   10  A    between atoms: C24_29  and  O5_30 
REMARK   11  A    between atoms: O5_30  and  C25_31 
REMARK   12  A    between atoms: C25_31  and  C26_33 
REMARK   13  A    between atoms: C26_33  and  N1_34 
REMARK   14  A    between atoms: C31_40  and  O8_41 
ROOT
HETATM    1  C2  UNL     1      19.775  32.628  14.599  1.00  0.00     0.092 C 
HETATM    2  C3  UNL     1      18.853  33.505  13.896  1.00  0.00     0.041 C 
HETATM    3  C4  UNL     1      17.600  33.771  14.675  1.00  0.00     0.015 C 
HETATM    4  C5  UNL     1      17.097  32.463  15.196  1.00  0.00    -0.013 C 
HETATM    5  C6  UNL     1      15.969  32.794  16.177  1.00  0.00     0.018 C 
HETATM    6  C7  UNL     1      16.592  31.733  13.971  1.00  0.00     0.046 C 
HETATM    7  C8  UNL     1      17.370  30.565  13.574  1.00  0.00    -0.067 C 
HETATM    8  C17 UNL     1      18.793  30.472  14.020  1.00  0.00     0.026 C 
HETATM    9  C18 UNL     1      18.980  29.006  14.339  1.00  0.00     0.024 C 
HETATM   10  C19 UNL     1      19.767  30.984  12.941  1.00  0.00     0.146 C 
HETATM   11  C20 UNL     1      20.714  31.772  13.655  1.00  0.00     0.059 C 
HETATM   12  C21 UNL     1      21.801  32.647  13.334  1.00  0.00     0.026 C 
HETATM   13  C22 UNL     1      22.617  31.976  14.396  1.00  0.00     0.027 C 
HETATM   14  C23 UNL     1      23.375  32.628  15.442  1.00  0.00     0.014 C 
HETATM   15  C24 UNL     1      21.572  30.955  14.558  1.00  0.00     0.148 C 
HETATM   16  C29 UNL     1      20.558  30.954  15.699  1.00  0.00     0.178 C 
HETATM   17  O7  UNL     1      20.809  30.679  16.837  1.00  0.00    -0.293 OA
HETATM   18  C30 UNL     1      19.216  31.346  15.164  1.00  0.00     0.096 C 
HETATM   19  C31 UNL     1      18.110  31.659  16.009  1.00  0.00     0.146 C 
ENDROOT
BRANCH   7  20
HETATM   20  C9  UNL     1      17.220  30.109  12.173  1.00  0.00    -0.000 C 
HETATM   21  C10 UNL     1      16.984  28.916  11.745  1.00  0.00    -0.026 C 
BRANCH  21  22
HETATM   22  C11 UNL     1      16.836  28.449  10.352  1.00  0.00     0.027 C 
BRANCH  22  23
HETATM   23  C12 UNL     1      18.001  27.829   9.702  1.00  0.00     0.004 C 
BRANCH  23  24
HETATM   24  C13 UNL     1      17.909  26.318   9.513  1.00  0.00     0.001 C 
BRANCH  24  25
HETATM   25  C14 UNL     1      18.462  25.624  10.724  1.00  0.00     0.010 C 
BRANCH  25  26
HETATM   26  C15 UNL     1      19.780  26.148  11.194  1.00  0.00     0.113 C 
BRANCH  26  27
HETATM   27  C16 UNL     1      20.913  25.275  10.852  1.00  0.00     0.172 C 
HETATM   28  O2  UNL     1      21.711  24.874  11.722  1.00  0.00    -0.648 OA
HETATM   29  O3  UNL     1      21.104  24.880   9.520  1.00  0.00    -0.648 OA
ENDBRANCH  26  27
ENDBRANCH  25  26
ENDBRANCH  24  25
ENDBRANCH  23  24
ENDBRANCH  22  23
ENDBRANCH  21  22
ENDBRANCH   7  20
BRANCH  10  30
HETATM   30  O4  UNL     1      20.160  29.852  12.238  1.00  0.00    -0.393 OA
ATOM     31  H4  UNL     1      21.095  29.956  12.100  1.00  0.00     0.210 HD
ENDBRANCH  10  30
BRANCH  19  32
HETATM   32  O8  UNL     1      17.419  30.448  16.311  1.00  0.00    -0.393 OA
ATOM     33  H8  UNL     1      18.037  29.769  16.069  1.00  0.00     0.210 HD
ENDBRANCH  19  32
BRANCH   1  34
HETATM   34  O1  UNL     1      20.444  33.271  15.525  1.00  0.00    -0.383 OA
HETATM   35  C1  UNL     1      20.403  34.449  16.068  1.00  0.00     0.202 C 
ENDBRANCH   1  34
BRANCH  15  36
HETATM   36  O5  UNL     1      22.036  29.732  14.529  1.00  0.00    -0.296 OA
BRANCH  36  37
HETATM   37  C25 UNL     1      22.506  28.794  13.751  1.00  0.00     0.299 C 
HETATM   38  O6  UNL     1      21.637  27.889  13.660  1.00  0.00    -0.259 OA
BRANCH  37  39
HETATM   39  C26 UNL     1      23.782  28.624  13.015  1.00  0.00     0.167 C 
BRANCH  39  40
HETATM   40  N1  UNL     1      23.749  27.689  11.980  1.00  0.00    -0.394 N 
HETATM   41  C27 UNL     1      24.716  26.671  11.896  1.00  0.00     0.148 C 
HETATM   42  C28 UNL     1      23.211  28.142  10.733  1.00  0.00     0.148 C 
ENDBRANCH  39  40
ENDBRANCH  37  39
ENDBRANCH  36  37
ENDBRANCH  15  36
TORSDOF 14
ENDMDL
MODEL 3
REMARK VINA RESULT: -7.481287854      3.044      7.518
REMARK  14 active torsions:
REMARK  status: ('A' for Active; 'I' for Inactive)
REMARK    1  A    between atoms: O1_2  and  C2_3 
REMARK    2  A    between atoms: C8_9  and  C9_10 
REMARK    3  A    between atoms: C10_11  and  C11_12 
REMARK    4  A    between atoms: C11_12  and  C12_13 
REMARK    5  A    between atoms: C12_13  and  C13_14 
REMARK    6  A    between atoms: C13_14  and  C14_15 
REMARK    7  A    between atoms: C14_15  and  C15_16 
REMARK    8  A    between atoms: C15_16  and  C16_17 
REMARK    9  A    between atoms: C19_22  and  O4_23 
REMARK   10  A    between atoms: C24_29  and  O5_30 
REMARK   11  A    between atoms: O5_30  and  C25_31 
REMARK   12  A    between atoms: C25_31  and  C26_33 
REMARK   13  A    between atoms: C26_33  and  N1_34 
REMARK   14  A    between atoms: C31_40  and  O8_41 
ROOT
HETATM    1  C2  UNL     1      20.803  30.852  15.232  1.00  0.00     0.092 C 
HETATM    2  C3  UNL     1      20.068  29.642  15.562  1.00  0.00     0.041 C 
HETATM    3  C4  UNL     1      19.614  28.892  14.346  1.00  0.00     0.015 C 
HETATM    4  C5  UNL     1      19.000  29.876  13.401  1.00  0.00    -0.013 C 
HETATM    5  C6  UNL     1      18.771  29.126  12.086  1.00  0.00     0.018 C 
HETATM    6  C7  UNL     1      17.700  30.279  14.063  1.00  0.00     0.046 C 
HETATM    7  C8  UNL     1      17.645  31.654  14.547  1.00  0.00    -0.067 C 
HETATM    8  C17 UNL     1      18.930  32.360  14.831  1.00  0.00     0.026 C 
HETATM    9  C18 UNL     1      18.681  33.775  14.360  1.00  0.00     0.024 C 
HETATM   10  C19 UNL     1      19.312  32.279  16.322  1.00  0.00     0.146 C 
HETATM   11  C20 UNL     1      20.708  31.995  16.321  1.00  0.00     0.059 C 
HETATM   12  C21 UNL     1      21.707  31.659  17.290  1.00  0.00     0.026 C 
HETATM   13  C22 UNL     1      22.626  32.649  16.642  1.00  0.00     0.027 C 
HETATM   14  C23 UNL     1      23.997  32.418  16.240  1.00  0.00     0.014 C 
HETATM   15  C24 UNL     1      21.521  33.130  15.801  1.00  0.00     0.148 C 
HETATM   16  C29 UNL     1      21.336  32.735  14.339  1.00  0.00     0.178 C 
HETATM   17  O7  UNL     1      22.012  33.128  13.433  1.00  0.00    -0.293 OA
HETATM   18  C30 UNL     1      20.181  31.789  14.228  1.00  0.00     0.096 C 
HETATM   19  C31 UNL     1      19.891  31.061  13.036  1.00  0.00     0.146 C 
ENDROOT
BRANCH   7  20
HETATM   20  C9  UNL     1      16.631  31.956  15.582  1.00  0.00    -0.000 C 
HETATM   21  C10 UNL     1      15.650  32.789  15.517  1.00  0.00    -0.026 C 
BRANCH  21  22
HETATM   22  C11 UNL     1      14.635  33.102  16.543  1.00  0.00     0.027 C 
BRANCH  22  23
HETATM   23  C12 UNL     1      14.997  34.044  17.611  1.00  0.00     0.004 C 
BRANCH  23  24
HETATM   24  C13 UNL     1      14.180  35.332  17.645  1.00  0.00     0.001 C 
BRANCH  24  25
HETATM   25  C14 UNL     1      15.072  36.486  17.995  1.00  0.00     0.010 C 
BRANCH  25  26
HETATM   26  C15 UNL     1      16.417  36.454  17.346  1.00  0.00     0.113 C 
BRANCH  26  27
HETATM   27  C16 UNL     1      17.532  36.507  18.303  1.00  0.00     0.172 C 
HETATM   28  O2  UNL     1      18.139  37.570  18.538  1.00  0.00    -0.648 OA
HETATM   29  O3  UNL     1      17.926  35.337  18.970  1.00  0.00    -0.648 OA
ENDBRANCH  26  27
ENDBRANCH  25  26
ENDBRANCH  24  25
ENDBRANCH  23  24
ENDBRANCH  22  23
ENDBRANCH  21  22
ENDBRANCH   7  20
BRANCH  10  30
HETATM   30  O4  UNL     1      18.817  33.447  16.889  1.00  0.00    -0.393 OA
ATOM     31  H4  UNL     1      19.468  34.112  16.699  1.00  0.00     0.210 HD
ENDBRANCH  10  30
BRANCH  19  32
HETATM   32  O8  UNL     1      19.056  31.870  12.207  1.00  0.00    -0.393 OA
ATOM     33  H8  UNL     1      18.340  31.290  11.976  1.00  0.00     0.210 HD
ENDBRANCH  19  32
BRANCH   1  34
HETATM   34  O1  UNL     1      22.041  30.588  14.888  1.00  0.00    -0.383 OA
HETATM   35  C1  UNL     1      22.658  29.637  14.256  1.00  0.00     0.202 C 
ENDBRANCH   1  34
BRANCH  15  36
HETATM   36  O5  UNL     1      21.395  34.432  15.809  1.00  0.00    -0.296 OA
BRANCH  36  37
HETATM   37  C25 UNL     1      21.394  35.493  16.570  1.00  0.00     0.299 C 
HETATM   38  O6  UNL     1      20.236  35.984  16.556  1.00  0.00    -0.259 OA
BRANCH  37  39
HETATM   39  C26 UNL     1      22.436  36.165  17.384  1.00  0.00     0.167 C 
BRANCH  39  40
HETATM   40  N1  UNL     1      22.185  36.198  18.757  1.00  0.00    -0.394 N 
HETATM   41  C27 UNL     1      21.658  35.077  19.421  1.00  0.00     0.148 C 
HETATM   42  C28 UNL     1      21.828  37.472  19.306  1.00  0.00     0.148 C 
ENDBRANCH  39  40
ENDBRANCH  37  39
ENDBRANCH  36  37
ENDBRANCH  15  36
TORSDOF 14
ENDMDL
MODEL 4
REMARK VINA RESULT: -7.332668550      0.938      1.087
REMARK  14 active torsions:
REMARK  status: ('A' for Active; 'I' for Inactive)
REMARK    1  A    between atoms: O1_2  and  C2_3 
REMARK    2  A    between atoms: C8_9  and  C9_10 
REMARK    3  A    between atoms: C10_11  and  C11_12 
REMARK    4  A    between atoms: C11_12  and  C12_13 
REMARK    5  A    between atoms: C12_13  and  C13_14 
REMARK    6  A    between atoms: C13_14  and  C14_15 
REMARK    7  A    between atoms: C14_15  and  C15_16 
REMARK    8  A    between atoms: C15_16  and  C16_17 
REMARK    9  A    between atoms: C19_22  and  O4_23 
REMARK   10  A    between atoms: C24_29  and  O5_30 
REMARK   11  A    between atoms: O5_30  and  C25_31 
REMARK   12  A    between atoms: C25_31  and  C26_33 
REMARK   13  A    between atoms: C26_33  and  N1_34 
REMARK   14  A    between atoms: C31_40  and  O8_41 
ROOT
HETATM    1  C2  UNL     1      18.488  31.250  13.964  1.00  0.00     0.092 C 
HETATM    2  C3  UNL     1      18.045  31.005  12.601  1.00  0.00     0.041 C 
HETATM    3  C4  UNL     1      17.320  29.701  12.455  1.00  0.00     0.015 C 
HETATM    4  C5  UNL     1      18.120  28.649  13.156  1.00  0.00    -0.013 C 
HETATM    5  C6  UNL     1      17.243  27.395  13.196  1.00  0.00     0.018 C 
HETATM    6  C7  UNL     1      19.345  28.461  12.288  1.00  0.00     0.046 C 
HETATM    7  C8  UNL     1      20.601  28.921  12.871  1.00  0.00    -0.067 C 
HETATM    8  C17 UNL     1      20.549  29.947  13.954  1.00  0.00     0.026 C 
HETATM    9  C18 UNL     1      21.638  29.522  14.912  1.00  0.00     0.024 C 
HETATM   10  C19 UNL     1      20.751  31.373  13.405  1.00  0.00     0.146 C 
HETATM   11  C20 UNL     1      19.777  32.161  14.080  1.00  0.00     0.059 C 
HETATM   12  C21 UNL     1      19.281  33.503  14.006  1.00  0.00     0.026 C 
HETATM   13  C22 UNL     1      19.353  33.582  15.500  1.00  0.00     0.027 C 
HETATM   14  C23 UNL     1      18.307  34.034  16.391  1.00  0.00     0.014 C 
HETATM   15  C24 UNL     1      20.059  32.293  15.538  1.00  0.00     0.148 C 
HETATM   16  C29 UNL     1      19.388  30.970  15.897  1.00  0.00     0.178 C 
HETATM   17  O7  UNL     1      19.043  30.656  16.999  1.00  0.00    -0.293 OA
HETATM   18  C30 UNL     1      19.238  30.142  14.659  1.00  0.00     0.096 C 
HETATM   19  C31 UNL     1      18.449  28.955  14.616  1.00  0.00     0.146 C 
ENDROOT
BRANCH   7  20
HETATM   20  C9  UNL     1      21.712  29.195  11.930  1.00  0.00    -0.000 C 
HETATM   21  C10 UNL     1      22.508  28.350  11.370  1.00  0.00    -0.026 C 
BRANCH  21  22
HETATM   22  C11 UNL     1      23.620  28.610  10.435  1.00  0.00     0.027 C 
BRANCH  22  23
HETATM   23  C12 UNL     1      24.533  27.502  10.118  1.00  0.00     0.004 C 
BRANCH  23  24
HETATM   24  C13 UNL     1      24.499  26.334  11.099  1.00  0.00     0.001 C 
BRANCH  24  25
HETATM   25  C14 UNL     1      24.025  25.097  10.393  1.00  0.00     0.010 C 
BRANCH  25  26
HETATM   26  C15 UNL     1      22.547  25.026  10.184  1.00  0.00     0.113 C 
BRANCH  26  27
HETATM   27  C16 UNL     1      22.162  24.857   8.775  1.00  0.00     0.172 C 
HETATM   28  O2  UNL     1      20.982  24.627   8.446  1.00  0.00    -0.648 OA
HETATM   29  O3  UNL     1      23.140  24.956   7.774  1.00  0.00    -0.648 OA
ENDBRANCH  26  27
ENDBRANCH  25  26
ENDBRANCH  24  25
ENDBRANCH  23  24
ENDBRANCH  22  23
ENDBRANCH  21  22
ENDBRANCH   7  20
BRANCH  10  30
HETATM   30  O4  UNL     1      22.108  31.631  13.549  1.00  0.00    -0.393 OA
ATOM     31  H4  UNL     1      22.547  30.908  13.113  1.00  0.00     0.210 HD
ENDBRANCH  10  30
BRANCH  19  32
HETATM   32  O8  UNL     1      19.268  27.857  15.016  1.00  0.00    -0.393 OA
ATOM     33  H8  UNL     1      19.762  28.199  15.751  1.00  0.00     0.210 HD
ENDBRANCH  19  32
BRANCH   1  34
HETATM   34  O1  UNL     1      17.505  31.670  14.725  1.00  0.00    -0.383 OA
HETATM   35  C1  UNL     1      16.226  31.848  14.594  1.00  0.00     0.202 C 
ENDBRANCH   1  34
BRANCH  15  36
HETATM   36  O5  UNL     1      21.145  32.320  16.266  1.00  0.00    -0.296 OA
BRANCH  36  37
HETATM   37  C25 UNL     1      22.125  33.077  16.681  1.00  0.00     0.299 C 
HETATM   38  O6  UNL     1      23.079  32.963  15.867  1.00  0.00    -0.259 OA
BRANCH  37  39
HETATM   39  C26 UNL     1      22.297  33.975  17.848  1.00  0.00     0.167 C 
BRANCH  39  40
HETATM   40  N1  UNL     1      21.447  35.082  17.873  1.00  0.00    -0.394 N 
HETATM   41  C27 UNL     1      21.590  36.121  16.937  1.00  0.00     0.148 C 
HETATM   42  C28 UNL     1      20.942  35.464  19.157  1.00  0.00     0.148 C 
ENDBRANCH  39  40
ENDBRANCH  37  39
ENDBRANCH  36  37
ENDBRANCH  15  36
TORSDOF 14
ENDMDL
MODEL 5
REMARK VINA RESULT: -7.134748994      1.485      1.621
REMARK  14 active torsions:
REMARK  status: ('A' for Active; 'I' for Inactive)
REMARK    1  A    between atoms: O1_2  and  C2_3 
REMARK    2  A    between atoms: C8_9  and  C9_10 
REMARK    3  A    between atoms: C10_11  and  C11_12 
REMARK    4  A    between atoms: C11_12  and  C12_13 
REMARK    5  A    between atoms: C12_13  and  C13_14 
REMARK    6  A    between atoms: C13_14  and  C14_15 
REMARK    7  A    between atoms: C14_15  and  C15_16 
REMARK    8  A    between atoms: C15_16  and  C16_17 
REMARK    9  A    between atoms: C19_22  and  O4_23 
REMARK   10  A    between atoms: C24_29  and  O5_30 
REMARK   11  A    between atoms: O5_30  and  C25_31 
REMARK   12  A    between atoms: C25_31  and  C26_33 
REMARK   13  A    between atoms: C26_33  and  N1_34 
REMARK   14  A    between atoms: C31_40  and  O8_41 
ROOT
HETATM    1  C2  UNL     1      18.649  31.063  13.658  1.00  0.00     0.092 C 
HETATM    2  C3  UNL     1      18.310  30.767  12.276  1.00  0.00     0.041 C 
HETATM    3  C4  UNL     1      17.469  29.533  12.139  1.00  0.00     0.015 C 
HETATM    4  C5  UNL     1      18.087  28.460  12.977  1.00  0.00    -0.013 C 
HETATM    5  C6  UNL     1      17.084  27.304  13.007  1.00  0.00     0.018 C 
HETATM    6  C7  UNL     1      19.360  28.092  12.246  1.00  0.00     0.046 C 
HETATM    7  C8  UNL     1      20.599  28.466  12.921  1.00  0.00    -0.067 C 
HETATM    8  C17 UNL     1      20.555  29.566  13.930  1.00  0.00     0.026 C 
HETATM    9  C18 UNL     1      21.502  29.105  15.014  1.00  0.00     0.024 C 
HETATM   10  C19 UNL     1      20.954  30.923  13.318  1.00  0.00     0.146 C 
HETATM   11  C20 UNL     1      20.010  31.849  13.846  1.00  0.00     0.059 C 
HETATM   12  C21 UNL     1      19.666  33.224  13.642  1.00  0.00     0.026 C 
HETATM   13  C22 UNL     1      19.609  33.400  15.128  1.00  0.00     0.027 C 
HETATM   14  C23 UNL     1      18.538  34.014  15.883  1.00  0.00     0.014 C 
HETATM   15  C24 UNL     1      20.169  32.054  15.313  1.00  0.00     0.148 C 
HETATM   16  C29 UNL     1      19.334  30.832  15.684  1.00  0.00     0.178 C 
HETATM   17  O7  UNL     1      18.858  30.631  16.764  1.00  0.00    -0.293 OA
HETATM   18  C30 UNL     1      19.213  29.938  14.490  1.00  0.00     0.096 C 
HETATM   19  C31 UNL     1      18.311  28.833  14.441  1.00  0.00     0.146 C 
ENDROOT
BRANCH   7  20
HETATM   20  C9  UNL     1      21.813  28.563  12.079  1.00  0.00    -0.000 C 
HETATM   21  C10 UNL     1      22.872  27.829  12.121  1.00  0.00    -0.026 C 
BRANCH  21  22
HETATM   22  C11 UNL     1      24.089  27.917  11.291  1.00  0.00     0.027 C 
BRANCH  22  23
HETATM   23  C12 UNL     1      24.953  26.731  11.199  1.00  0.00     0.004 C 
BRANCH  23  24
HETATM   24  C13 UNL     1      24.290  25.492  10.604  1.00  0.00     0.001 C 
BRANCH  24  25
HETATM   25  C14 UNL     1      23.949  25.745   9.165  1.00  0.00     0.010 C 
BRANCH  25  26
HETATM   26  C15 UNL     1      23.820  24.514   8.329  1.00  0.00     0.113 C 
BRANCH  26  27
HETATM   27  C16 UNL     1      24.241  24.706   6.934  1.00  0.00     0.172 C 
HETATM   28  O2  UNL     1      25.230  24.109   6.463  1.00  0.00    -0.648 OA
HETATM   29  O3  UNL     1      23.519  25.580   6.108  1.00  0.00    -0.648 OA
ENDBRANCH  26  27
ENDBRANCH  25  26
ENDBRANCH  24  25
ENDBRANCH  23  24
ENDBRANCH  22  23
ENDBRANCH  21  22
ENDBRANCH   7  20
BRANCH  10  30
HETATM   30  O4  UNL     1      22.312  31.056  13.579  1.00  0.00    -0.393 OA
ATOM     31  H4  UNL     1      22.382  31.097  14.526  1.00  0.00     0.210 HD
ENDBRANCH  10  30
BRANCH  19  32
HETATM   32  O8  UNL     1      18.971  27.691  14.985  1.00  0.00    -0.393 OA
ATOM     33  H8  UNL     1      19.131  27.932  15.890  1.00  0.00     0.210 HD
ENDBRANCH  19  32
BRANCH   1  34
HETATM   34  O1  UNL     1      17.650  31.629  14.292  1.00  0.00    -0.383 OA
HETATM   35  C1  UNL     1      16.374  31.768  14.101  1.00  0.00     0.202 C 
ENDBRANCH   1  34
BRANCH  15  36
HETATM   36  O5  UNL     1      21.181  32.025  16.141  1.00  0.00    -0.296 OA
BRANCH  36  37
HETATM   37  C25 UNL     1      22.216  32.694  16.576  1.00  0.00     0.299 C 
HETATM   38  O6  UNL     1      23.171  32.497  15.781  1.00  0.00    -0.259 OA
BRANCH  37  39
HETATM   39  C26 UNL     1      22.443  33.574  17.747  1.00  0.00     0.167 C 
BRANCH  39  40
HETATM   40  N1  UNL     1      21.654  34.725  17.784  1.00  0.00    -0.394 N 
HETATM   41  C27 UNL     1      21.787  35.722  16.801  1.00  0.00     0.148 C 
HETATM   42  C28 UNL     1      21.255  35.179  19.082  1.00  0.00     0.148 C 
ENDBRANCH  39  40
ENDBRANCH  37  39
ENDBRANCH  36  37
ENDBRANCH  15  36
TORSDOF 14
ENDMDL
