MODEL 1
REMARK VINA RESULT: -5.101487866      0.000      0.000
REMARK  4 active torsions:
REMARK  status: ('A' for Active; 'I' for Inactive)
REMARK    1  A    between atoms: O1_1  and  C1_3 
REMARK    2  A    between atoms: C1_3  and  C2_4 
REMARK    3  A    between atoms: C2_4  and  C3_5 
REMARK    4  A    between atoms: C10_12  and  C14_16 
ROOT
HETATM    1  C3  UNL     1      -0.900 124.545 -12.251  1.00  0.00    -0.026 A 
HETATM    2  C4  UNL     1       0.043 123.447 -12.435  1.00  0.00    -0.000 C 
HETATM    3  C5  UNL     1       0.635 122.595 -11.343  1.00  0.00     0.006 C 
HETATM    4  C6  UNL     1       0.192 121.191 -11.127  1.00  0.00     0.001 C 
HETATM    5  C7  UNL     1      -1.105 120.555 -11.476  1.00  0.00     0.005 C 
HETATM    6  C8  UNL     1      -2.349 121.391 -11.701  1.00  0.00    -0.009 C 
HETATM    7  C9  UNL     1      -2.835 121.675 -13.106  1.00  0.00     0.010 C 
HETATM    8  C10 UNL     1      -2.048 122.878 -13.670  1.00  0.00    -0.004 C 
HETATM    9  C11 UNL     1      -0.915 122.486 -12.805  1.00  0.00    -0.000 C 
HETATM   10  C12 UNL     1      -1.732 122.647 -11.491  1.00  0.00    -0.000 C 
HETATM   11  C13 UNL     1      -2.261 123.993 -11.710  1.00  0.00     0.005 A 
HETATM   12  C14 UNL     1      -2.194 124.216 -13.112  1.00  0.00     0.005 A 
ENDROOT
BRANCH   1  13
HETATM   13  C2  UNL     1      -0.575 125.961 -12.045  1.00  0.00     0.037 C 
BRANCH  13  14
HETATM   14  C1  UNL     1      -0.539 126.228 -10.533  1.00  0.00     0.165 C 
BRANCH  14  15
HETATM   15  O1  UNL     1       0.778 126.305 -10.139  1.00  0.00    -0.401 OA
ATOM     16  H1  UNL     1       0.806 126.302  -9.189  1.00  0.00     0.209 HD
ENDBRANCH  14  15
ENDBRANCH  13  14
ENDBRANCH   1  13
TORSDOF 4
ENDMDL
MODEL 2
REMARK VINA RESULT: -4.978689700      1.550      3.071
REMARK  4 active torsions:
REMARK  status: ('A' for Active; 'I' for Inactive)
REMARK    1  A    between atoms: O1_1  and  C1_3 
REMARK    2  A    between atoms: C1_3  and  C2_4 
REMARK    3  A    between atoms: C2_4  and  C3_5 
REMARK    4  A    between atoms: C10_12  and  C14_16 
ROOT
HETATM    1  C3  UNL     1      -0.962 125.658 -11.033  1.00  0.00    -0.026 A 
HETATM    2  C4  UNL     1      -2.051 124.766 -11.418  1.00  0.00    -0.000 C 
HETATM    3  C5  UNL     1      -2.524 124.499 -12.823  1.00  0.00     0.006 C 
HETATM    4  C6  UNL     1      -2.224 123.214 -13.512  1.00  0.00     0.001 C 
HETATM    5  C7  UNL     1      -1.106 122.265 -13.275  1.00  0.00     0.005 C 
HETATM    6  C8  UNL     1       0.166 122.711 -12.581  1.00  0.00    -0.009 C 
HETATM    7  C9  UNL     1       0.404 122.366 -11.127  1.00  0.00     0.010 C 
HETATM    8  C10 UNL     1      -0.321 123.405 -10.245  1.00  0.00    -0.004 C 
HETATM    9  C11 UNL     1      -1.307 123.575 -11.333  1.00  0.00    -0.000 C 
HETATM   10  C12 UNL     1      -0.240 124.048 -12.361  1.00  0.00    -0.000 C 
HETATM   11  C13 UNL     1       0.399 125.097 -11.566  1.00  0.00     0.005 A 
HETATM   12  C14 UNL     1       0.093 124.801 -10.210  1.00  0.00     0.005 A 
ENDROOT
BRANCH   1  13
HETATM   13  C2  UNL     1      -1.064 127.085 -10.709  1.00  0.00     0.037 C 
BRANCH  13  14
HETATM   14  C1  UNL     1      -2.108 127.714 -11.643  1.00  0.00     0.165 C 
BRANCH  14  15
HETATM   15  O1  UNL     1      -1.475 128.097 -12.804  1.00  0.00    -0.401 OA
ATOM     16  H1  UNL     1      -0.683 127.581 -12.897  1.00  0.00     0.209 HD
ENDBRANCH  14  15
ENDBRANCH  13  14
ENDBRANCH   1  13
TORSDOF 4
ENDMDL
MODEL 3
REMARK VINA RESULT: -4.965953483      0.908      2.577
REMARK  4 active torsions:
REMARK  status: ('A' for Active; 'I' for Inactive)
REMARK    1  A    between atoms: O1_1  and  C1_3 
REMARK    2  A    between atoms: C1_3  and  C2_4 
REMARK    3  A    between atoms: C2_4  and  C3_5 
REMARK    4  A    between atoms: C10_12  and  C14_16 
ROOT
HETATM    1  C3  UNL     1      -0.110 124.230 -11.604  1.00  0.00    -0.026 A 
HETATM    2  C4  UNL     1      -1.515 123.951 -11.883  1.00  0.00    -0.000 C 
HETATM    3  C5  UNL     1      -2.164 123.943 -13.242  1.00  0.00     0.006 C 
HETATM    4  C6  UNL     1      -2.551 122.671 -13.910  1.00  0.00     0.001 C 
HETATM    5  C7  UNL     1      -1.990 121.308 -13.724  1.00  0.00     0.005 C 
HETATM    6  C8  UNL     1      -0.607 121.106 -13.136  1.00  0.00    -0.009 C 
HETATM    7  C9  UNL     1      -0.445 120.682 -11.693  1.00  0.00     0.010 C 
HETATM    8  C10 UNL     1      -0.533 121.933 -10.794  1.00  0.00    -0.004 C 
HETATM    9  C11 UNL     1      -1.407 122.550 -11.814  1.00  0.00    -0.000 C 
HETATM   10  C12 UNL     1      -0.325 122.477 -12.929  1.00  0.00    -0.000 C 
HETATM   11  C13 UNL     1       0.788 123.102 -12.214  1.00  0.00     0.005 A 
HETATM   12  C14 UNL     1       0.485 122.975 -10.832  1.00  0.00     0.005 A 
ENDROOT
BRANCH   1  13
HETATM   13  C2  UNL     1       0.489 125.538 -11.318  1.00  0.00     0.037 C 
BRANCH  13  14
HETATM   14  C1  UNL     1      -0.550 126.388 -10.574  1.00  0.00     0.165 C 
BRANCH  14  15
HETATM   15  O1  UNL     1       0.118 127.313  -9.805  1.00  0.00    -0.401 OA
ATOM     16  H1  UNL     1       0.739 127.771 -10.359  1.00  0.00     0.209 HD
ENDBRANCH  14  15
ENDBRANCH  13  14
ENDBRANCH   1  13
TORSDOF 4
ENDMDL
MODEL 4
REMARK VINA RESULT: -4.937692919      1.238      1.750
REMARK  4 active torsions:
REMARK  status: ('A' for Active; 'I' for Inactive)
REMARK    1  A    between atoms: O1_1  and  C1_3 
REMARK    2  A    between atoms: C1_3  and  C2_4 
REMARK    3  A    between atoms: C2_4  and  C3_5 
REMARK    4  A    between atoms: C10_12  and  C14_16 
ROOT
HETATM    1  C3  UNL     1      -1.826 125.429 -11.085  1.00  0.00    -0.026 A 
HETATM    2  C4  UNL     1      -0.604 125.216 -11.856  1.00  0.00    -0.000 C 
HETATM    3  C5  UNL     1       0.538 124.310 -11.475  1.00  0.00     0.006 C 
HETATM    4  C6  UNL     1       0.763 123.013 -12.168  1.00  0.00     0.001 C 
HETATM    5  C7  UNL     1      -0.215 122.151 -12.881  1.00  0.00     0.005 C 
HETATM    6  C8  UNL     1      -1.702 122.263 -12.608  1.00  0.00    -0.009 C 
HETATM    7  C9  UNL     1      -2.603 122.998 -13.575  1.00  0.00     0.010 C 
HETATM    8  C10 UNL     1      -2.535 124.510 -13.267  1.00  0.00    -0.004 C 
HETATM    9  C11 UNL     1      -1.159 124.301 -12.769  1.00  0.00    -0.000 C 
HETATM   10  C12 UNL     1      -1.605 123.307 -11.658  1.00  0.00    -0.000 C 
HETATM   11  C13 UNL     1      -2.664 124.108 -11.043  1.00  0.00     0.005 A 
HETATM   12  C14 UNL     1      -3.055 125.060 -12.022  1.00  0.00     0.005 A 
ENDROOT
BRANCH   1  13
HETATM   13  C2  UNL     1      -2.051 126.447 -10.054  1.00  0.00     0.037 C 
BRANCH  13  14
HETATM   14  C1  UNL     1      -1.197 127.675 -10.399  1.00  0.00     0.165 C 
BRANCH  14  15
HETATM   15  O1  UNL     1      -0.087 127.674  -9.586  1.00  0.00    -0.401 OA
ATOM     16  H1  UNL     1       0.150 128.575  -9.401  1.00  0.00     0.209 HD
ENDBRANCH  14  15
ENDBRANCH  13  14
ENDBRANCH   1  13
TORSDOF 4
ENDMDL
MODEL 5
REMARK VINA RESULT: -4.878176739      2.173      4.310
REMARK  4 active torsions:
REMARK  status: ('A' for Active; 'I' for Inactive)
REMARK    1  A    between atoms: O1_1  and  C1_3 
REMARK    2  A    between atoms: C1_3  and  C2_4 
REMARK    3  A    between atoms: C2_4  and  C3_5 
REMARK    4  A    between atoms: C10_12  and  C14_16 
ROOT
HETATM    1  C3  UNL     1      -0.194 122.218 -11.624  1.00  0.00    -0.026 A 
HETATM    2  C4  UNL     1      -0.648 122.773 -12.894  1.00  0.00    -0.000 C 
HETATM    3  C5  UNL     1      -2.081 122.986 -13.307  1.00  0.00     0.006 C 
HETATM    4  C6  UNL     1      -2.682 124.346 -13.351  1.00  0.00     0.001 C 
HETATM    5  C7  UNL     1      -2.296 125.565 -12.594  1.00  0.00     0.005 C 
HETATM    6  C8  UNL     1      -1.497 125.467 -11.309  1.00  0.00    -0.009 C 
HETATM    7  C9  UNL     1      -0.013 125.764 -11.307  1.00  0.00     0.010 C 
HETATM    8  C10 UNL     1       0.748 124.499 -11.758  1.00  0.00    -0.004 C 
HETATM    9  C11 UNL     1      -0.439 124.122 -12.553  1.00  0.00    -0.000 C 
HETATM   10  C12 UNL     1      -1.374 124.057 -11.311  1.00  0.00    -0.000 C 
HETATM   11  C13 UNL     1      -0.563 123.191 -10.455  1.00  0.00     0.005 A 
HETATM   12  C14 UNL     1       0.766 123.288 -10.947  1.00  0.00     0.005 A 
ENDROOT
BRANCH   1  13
HETATM   13  C2  UNL     1       0.058 120.805 -11.319  1.00  0.00     0.037 C 
BRANCH  13  14
HETATM   14  C1  UNL     1      -0.282 119.978 -12.567  1.00  0.00     0.165 C 
BRANCH  14  15
HETATM   15  O1  UNL     1       0.896 119.603 -13.172  1.00  0.00    -0.401 OA
ATOM     16  H1  UNL     1       0.716 119.418 -14.087  1.00  0.00     0.209 HD
ENDBRANCH  14  15
ENDBRANCH  13  14
ENDBRANCH   1  13
TORSDOF 4
ENDMDL
