MODEL 1
REMARK VINA RESULT: -7.434849872      0.000      0.000
REMARK  5 active torsions:
REMARK  status: ('A' for Active; 'I' for Inactive)
REMARK    1  A    between atoms: O1_2  and  C2_3 
REMARK    2  A    between atoms: C2_3  and  C3_4 
REMARK    3  A    between atoms: C3_4  and  N1_5 
REMARK    4  A    between atoms: N1_5  and  C4_6 
REMARK    5  A    between atoms: C5_7  and  O2_8 
ROOT
HETATM    1  N1  UNL     1      12.668  52.352  94.248  1.00  0.00    -0.355 N 
HETATM    2  C6  UNL     1      12.315  53.227  93.386  1.00  0.00     0.030 C 
HETATM    3  C7  UNL     1      13.347  53.973  92.680  1.00  0.00     0.040 C 
HETATM    4  C8  UNL     1      13.345  54.134  91.318  1.00  0.00    -0.008 A 
HETATM    5  C9  UNL     1      14.437  54.816  90.864  1.00  0.00     0.014 A 
HETATM    6  C10 UNL     1      14.557  55.057  89.509  1.00  0.00     0.001 A 
HETATM    7  C11 UNL     1      13.580  54.613  88.611  1.00  0.00     0.002 A 
HETATM    8  C12 UNL     1      12.461  53.913  89.090  1.00  0.00     0.030 A 
HETATM    9  C13 UNL     1      12.382  53.700  90.411  1.00  0.00     0.042 A 
HETATM   10  N2  UNL     1      11.251  53.007  90.721  1.00  0.00    -0.360 N 
ATOM     11  H2  UNL     1      10.888  52.368  90.013  1.00  0.00     0.165 HD
HETATM   12  C14 UNL     1      10.590  53.088  91.846  1.00  0.00     0.020 A 
HETATM   13  C15 UNL     1       9.818  53.159  92.656  1.00  0.00     0.066 A 
HETATM   14  C16 UNL     1       8.501  52.941  92.304  1.00  0.00     0.125 A 
HETATM   15  C17 UNL     1       8.256  53.133  93.344  1.00  0.00     0.120 A 
HETATM   16  C18 UNL     1       9.587  53.349  93.719  1.00  0.00     0.035 A 
HETATM   17  C19 UNL     1      10.916  53.343  93.180  1.00  0.00     0.079 A 
HETATM   18  C20 UNL     1       8.938  54.480  94.959  1.00  0.00     0.025 C 
HETATM   19  C21 UNL     1       8.366  53.837  95.964  1.00  0.00     0.060 C 
HETATM   20  C22 UNL     1       8.470  52.370  95.754  1.00  0.00     0.239 C 
HETATM   21  O3  UNL     1       7.686  51.472  96.006  1.00  0.00    -0.269 OA
HETATM   22  N3  UNL     1       9.701  52.371  95.209  1.00  0.00    -0.344 N 
ATOM     23  H3  UNL     1      10.341  51.584  95.313  1.00  0.00     0.163 HD
HETATM   24  C23 UNL     1      10.079  53.631  94.421  1.00  0.00     0.074 A 
HETATM   25  C24 UNL     1      10.627  54.720  94.958  1.00  0.00     0.055 C 
HETATM   26  C25 UNL     1      10.913  55.383  96.180  1.00  0.00     0.148 C 
HETATM   27  O4  UNL     1      11.558  55.235  97.043  1.00  0.00    -0.294 OA
HETATM   28  C26 UNL     1       9.912  56.593  95.949  1.00  0.00     0.084 C 
HETATM   29  C27 UNL     1       8.924  55.940  95.239  1.00  0.00     0.025 C 
HETATM   30  N4  UNL     1       7.157  52.829  92.663  1.00  0.00    -0.384 N 
HETATM   31  C28 UNL     1       5.806  52.634  92.712  1.00  0.00     0.116 C 
ENDROOT
BRANCH   1  32
HETATM   32  C3  UNL     1      13.323  52.508  95.549  1.00  0.00     0.154 C 
BRANCH  32  33
HETATM   33  C2  UNL     1      13.029  51.630  96.636  1.00  0.00     0.187 C 
BRANCH  33  34
HETATM   34  O1  UNL     1      11.816  52.022  97.182  1.00  0.00    -0.394 OA
HETATM   35  C1  UNL     1      11.859  52.050  98.569  1.00  0.00     0.201 C 
ENDBRANCH  33  34
ENDBRANCH  32  33
ENDBRANCH   1  32
BRANCH   1  36
HETATM   36  C4  UNL     1      12.583  50.949  93.988  1.00  0.00     0.115 C 
HETATM   37  C5  UNL     1      12.862  50.156  92.856  1.00  0.00     0.148 C 
BRANCH  37  38
HETATM   38  O2  UNL     1      14.183  50.133  92.364  1.00  0.00    -0.371 OA
ATOM     39  H2  UNL     1      14.506  50.897  91.901  1.00  0.00     0.216 HD
ENDBRANCH  37  38
ENDBRANCH   1  36
TORSDOF 5
ENDMDL
MODEL 2
REMARK VINA RESULT: -7.079379063      6.878     10.380
REMARK  5 active torsions:
REMARK  status: ('A' for Active; 'I' for Inactive)
REMARK    1  A    between atoms: O1_2  and  C2_3 
REMARK    2  A    between atoms: C2_3  and  C3_4 
REMARK    3  A    between atoms: C3_4  and  N1_5 
REMARK    4  A    between atoms: N1_5  and  C4_6 
REMARK    5  A    between atoms: C5_7  and  O2_8 
ROOT
HETATM    1  N1  UNL     1       9.948  51.239  83.227  1.00  0.00    -0.355 N 
HETATM    2  C6  UNL     1      11.120  51.009  83.680  1.00  0.00     0.030 C 
HETATM    3  C7  UNL     1      12.145  50.530  82.764  1.00  0.00     0.040 C 
HETATM    4  C8  UNL     1      13.399  51.080  82.700  1.00  0.00    -0.008 A 
HETATM    5  C9  UNL     1      14.177  50.515  81.731  1.00  0.00     0.014 A 
HETATM    6  C10 UNL     1      15.470  50.970  81.563  1.00  0.00     0.001 A 
HETATM    7  C11 UNL     1      15.982  51.993  82.370  1.00  0.00     0.002 A 
HETATM    8  C12 UNL     1      15.173  52.566  83.364  1.00  0.00     0.030 A 
HETATM    9  C13 UNL     1      13.924  52.096  83.494  1.00  0.00     0.042 A 
HETATM   10  N2  UNL     1      13.264  52.751  84.489  1.00  0.00    -0.360 N 
ATOM     11  H2  UNL     1      13.536  53.717  84.671  1.00  0.00     0.165 HD
HETATM   12  C14 UNL     1      12.311  52.250  85.232  1.00  0.00     0.020 A 
HETATM   13  C15 UNL     1      11.621  51.939  86.059  1.00  0.00     0.066 A 
HETATM   14  C16 UNL     1      11.764  52.566  87.280  1.00  0.00     0.125 A 
HETATM   15  C17 UNL     1      10.957  51.930  87.631  1.00  0.00     0.120 A 
HETATM   16  C18 UNL     1      10.793  51.291  86.397  1.00  0.00     0.035 A 
HETATM   17  C19 UNL     1      11.304  51.298  85.057  1.00  0.00     0.079 A 
HETATM   18  C20 UNL     1      10.274  49.848  87.339  1.00  0.00     0.025 C 
HETATM   19  C21 UNL     1       9.062  49.998  87.846  1.00  0.00     0.060 C 
HETATM   20  C22 UNL     1       8.503  51.315  87.446  1.00  0.00     0.239 C 
HETATM   21  O3  UNL     1       7.801  52.101  88.058  1.00  0.00    -0.269 OA
HETATM   22  N3  UNL     1       9.018  51.339  86.203  1.00  0.00    -0.344 N 
ATOM     23  H3  UNL     1       8.553  51.819  85.432  1.00  0.00     0.163 HD
HETATM   24  C23 UNL     1      10.350  50.602  86.020  1.00  0.00     0.074 A 
HETATM   25  C24 UNL     1      10.460  49.305  85.732  1.00  0.00     0.055 C 
HETATM   26  C25 UNL     1       9.755  48.076  85.668  1.00  0.00     0.148 C 
HETATM   27  O4  UNL     1       8.961  47.635  85.069  1.00  0.00    -0.294 OA
HETATM   28  C26 UNL     1      10.530  47.378  86.864  1.00  0.00     0.084 C 
HETATM   29  C27 UNL     1      10.773  48.483  87.654  1.00  0.00     0.025 C 
HETATM   30  N4  UNL     1      11.348  52.752  88.599  1.00  0.00    -0.384 N 
HETATM   31  C28 UNL     1      11.156  53.163  89.887  1.00  0.00     0.116 C 
ENDROOT
BRANCH   1  32
HETATM   32  C3  UNL     1       8.931  50.321  82.709  1.00  0.00     0.154 C 
BRANCH  32  33
HETATM   33  C2  UNL     1       8.891  49.961  81.328  1.00  0.00     0.187 C 
BRANCH  33  34
HETATM   34  O1  UNL     1       7.711  50.456  80.794  1.00  0.00    -0.394 OA
HETATM   35  C1  UNL     1       7.947  51.373  79.779  1.00  0.00     0.201 C 
ENDBRANCH  33  34
ENDBRANCH  32  33
ENDBRANCH   1  32
BRANCH   1  36
HETATM   36  C4  UNL     1       9.457  52.566  83.021  1.00  0.00     0.115 C 
HETATM   37  C5  UNL     1       8.175  53.146  83.099  1.00  0.00     0.148 C 
BRANCH  37  38
HETATM   38  O2  UNL     1       7.505  53.127  84.339  1.00  0.00    -0.371 OA
ATOM     39  H2  UNL     1       7.366  53.952  84.790  1.00  0.00     0.216 HD
ENDBRANCH  37  38
ENDBRANCH   1  36
TORSDOF 5
ENDMDL
MODEL 3
REMARK VINA RESULT: -6.876634900      5.894      9.098
REMARK  5 active torsions:
REMARK  status: ('A' for Active; 'I' for Inactive)
REMARK    1  A    between atoms: O1_2  and  C2_3 
REMARK    2  A    between atoms: C2_3  and  C3_4 
REMARK    3  A    between atoms: C3_4  and  N1_5 
REMARK    4  A    between atoms: N1_5  and  C4_6 
REMARK    5  A    between atoms: C5_7  and  O2_8 
ROOT
HETATM    1  N1  UNL     1       9.694  50.733  84.530  1.00  0.00    -0.355 N 
HETATM    2  C6  UNL     1      10.934  50.751  84.837  1.00  0.00     0.030 C 
HETATM    3  C7  UNL     1      11.913  50.368  83.830  1.00  0.00     0.040 C 
HETATM    4  C8  UNL     1      13.030  51.116  83.558  1.00  0.00    -0.008 A 
HETATM    5  C9  UNL     1      13.776  50.601  82.537  1.00  0.00     0.014 A 
HETATM    6  C10 UNL     1      14.936  51.253  82.165  1.00  0.00     0.001 A 
HETATM    7  C11 UNL     1      15.346  52.420  82.819  1.00  0.00     0.002 A 
HETATM    8  C12 UNL     1      14.570  52.939  83.867  1.00  0.00     0.030 A 
HETATM    9  C13 UNL     1      13.452  52.278  84.198  1.00  0.00     0.042 A 
HETATM   10  N2  UNL     1      12.807  52.903  85.222  1.00  0.00    -0.360 N 
ATOM     11  H2  UNL     1      12.919  53.914  85.294  1.00  0.00     0.165 HD
HETATM   12  C14 UNL     1      12.056  52.320  86.120  1.00  0.00     0.020 A 
HETATM   13  C15 UNL     1      11.538  51.976  87.053  1.00  0.00     0.066 A 
HETATM   14  C16 UNL     1      11.709  52.733  88.195  1.00  0.00     0.125 A 
HETATM   15  C17 UNL     1      11.078  52.005  88.696  1.00  0.00     0.120 A 
HETATM   16  C18 UNL     1      10.887  51.232  87.546  1.00  0.00     0.035 A 
HETATM   17  C19 UNL     1      11.225  51.198  86.152  1.00  0.00     0.079 A 
HETATM   18  C20 UNL     1      10.755  49.819  88.652  1.00  0.00     0.025 C 
HETATM   19  C21 UNL     1       9.604  49.807  89.305  1.00  0.00     0.060 C 
HETATM   20  C22 UNL     1       8.772  50.965  88.887  1.00  0.00     0.239 C 
HETATM   21  O3  UNL     1       8.017  51.675  89.529  1.00  0.00    -0.269 OA
HETATM   22  N3  UNL     1       9.123  50.958  87.588  1.00  0.00    -0.344 N 
ATOM     23  H3  UNL     1       8.490  51.275  86.853  1.00  0.00     0.163 HD
HETATM   24  C23 UNL     1      10.535  50.444  87.283  1.00  0.00     0.074 A 
HETATM   25  C24 UNL     1      10.844  49.164  87.078  1.00  0.00     0.055 C 
HETATM   26  C25 UNL     1      10.371  47.832  87.200  1.00  0.00     0.148 C 
HETATM   27  O4  UNL     1       9.605  47.206  86.747  1.00  0.00    -0.294 OA
HETATM   28  C26 UNL     1      11.397  47.394  88.329  1.00  0.00     0.084 C 
HETATM   29  C27 UNL     1      11.527  48.596  88.996  1.00  0.00     0.025 C 
HETATM   30  N4  UNL     1      11.426  52.970  89.541  1.00  0.00    -0.384 N 
HETATM   31  C28 UNL     1      11.317  53.465  90.809  1.00  0.00     0.116 C 
ENDROOT
BRANCH   1  32
HETATM   32  C3  UNL     1       8.807  49.609  84.222  1.00  0.00     0.154 C 
BRANCH  32  33
HETATM   33  C2  UNL     1       7.416  49.654  84.542  1.00  0.00     0.187 C 
BRANCH  33  34
HETATM   34  O1  UNL     1       7.281  49.357  85.889  1.00  0.00    -0.394 OA
HETATM   35  C1  UNL     1       6.002  49.633  86.353  1.00  0.00     0.201 C 
ENDBRANCH  33  34
ENDBRANCH  32  33
ENDBRANCH   1  32
BRANCH   1  36
HETATM   36  C4  UNL     1       8.950  51.931  84.295  1.00  0.00     0.115 C 
HETATM   37  C5  UNL     1       9.080  52.985  83.369  1.00  0.00     0.148 C 
BRANCH  37  38
HETATM   38  O2  UNL     1       8.971  52.688  81.996  1.00  0.00    -0.371 OA
ATOM     39  H2  UNL     1       8.233  52.165  81.704  1.00  0.00     0.216 HD
ENDBRANCH  37  38
ENDBRANCH   1  36
TORSDOF 5
ENDMDL
MODEL 4
REMARK VINA RESULT: -6.791198509      6.095      9.422
REMARK  5 active torsions:
REMARK  status: ('A' for Active; 'I' for Inactive)
REMARK    1  A    between atoms: O1_2  and  C2_3 
REMARK    2  A    between atoms: C2_3  and  C3_4 
REMARK    3  A    between atoms: C3_4  and  N1_5 
REMARK    4  A    between atoms: N1_5  and  C4_6 
REMARK    5  A    between atoms: C5_7  and  O2_8 
ROOT
HETATM    1  N1  UNL     1       9.713  50.707  84.571  1.00  0.00    -0.355 N 
HETATM    2  C6  UNL     1      10.954  50.739  84.872  1.00  0.00     0.030 C 
HETATM    3  C7  UNL     1      11.932  50.363  83.861  1.00  0.00     0.040 C 
HETATM    4  C8  UNL     1      13.039  51.121  83.580  1.00  0.00    -0.008 A 
HETATM    5  C9  UNL     1      13.786  50.611  82.558  1.00  0.00     0.014 A 
HETATM    6  C10 UNL     1      14.937  51.273  82.177  1.00  0.00     0.001 A 
HETATM    7  C11 UNL     1      15.338  52.447  82.825  1.00  0.00     0.002 A 
HETATM    8  C12 UNL     1      14.562  52.962  83.876  1.00  0.00     0.030 A 
HETATM    9  C13 UNL     1      13.452  52.290  84.214  1.00  0.00     0.042 A 
HETATM   10  N2  UNL     1      12.806  52.912  85.239  1.00  0.00    -0.360 N 
ATOM     11  H2  UNL     1      12.908  53.925  85.307  1.00  0.00     0.165 HD
HETATM   12  C14 UNL     1      12.066  52.325  86.143  1.00  0.00     0.020 A 
HETATM   13  C15 UNL     1      11.556  51.979  87.080  1.00  0.00     0.066 A 
HETATM   14  C16 UNL     1      11.725  52.741  88.218  1.00  0.00     0.125 A 
HETATM   15  C17 UNL     1      11.104  52.009  88.725  1.00  0.00     0.120 A 
HETATM   16  C18 UNL     1      10.916  51.229  87.579  1.00  0.00     0.035 A 
HETATM   17  C19 UNL     1      11.247  51.194  86.183  1.00  0.00     0.079 A 
HETATM   18  C20 UNL     1      10.804  49.819  88.690  1.00  0.00     0.025 C 
HETATM   19  C21 UNL     1       9.657  49.798  89.349  1.00  0.00     0.060 C 
HETATM   20  C22 UNL     1       8.810  50.945  88.932  1.00  0.00     0.239 C 
HETATM   21  O3  UNL     1       8.051  51.650  89.575  1.00  0.00    -0.269 OA
HETATM   22  N3  UNL     1       9.155  50.937  87.631  1.00  0.00    -0.344 N 
ATOM     23  H3  UNL     1       8.515  51.244  86.898  1.00  0.00     0.163 HD
HETATM   24  C23 UNL     1      10.570  50.437  87.320  1.00  0.00     0.074 A 
HETATM   25  C24 UNL     1      10.892  49.160  87.119  1.00  0.00     0.055 C 
HETATM   26  C25 UNL     1      10.434  47.823  87.247  1.00  0.00     0.148 C 
HETATM   27  O4  UNL     1       9.672  47.188  86.801  1.00  0.00    -0.294 OA
HETATM   28  C26 UNL     1      11.470  47.400  88.374  1.00  0.00     0.084 C 
HETATM   29  C27 UNL     1      11.591  48.606  89.035  1.00  0.00     0.025 C 
HETATM   30  N4  UNL     1      11.446  52.981  89.564  1.00  0.00    -0.384 N 
HETATM   31  C28 UNL     1      11.339  53.479  90.832  1.00  0.00     0.116 C 
ENDROOT
BRANCH   1  32
HETATM   32  C3  UNL     1       8.836  49.573  84.271  1.00  0.00     0.154 C 
BRANCH  32  33
HETATM   33  C2  UNL     1       8.094  49.511  83.053  1.00  0.00     0.187 C 
BRANCH  33  34
HETATM   34  O1  UNL     1       8.996  49.575  82.002  1.00  0.00    -0.394 OA
HETATM   35  C1  UNL     1       9.567  48.338  81.735  1.00  0.00     0.201 C 
ENDBRANCH  33  34
ENDBRANCH  32  33
ENDBRANCH   1  32
BRANCH   1  36
HETATM   36  C4  UNL     1       8.955  51.896  84.335  1.00  0.00     0.115 C 
HETATM   37  C5  UNL     1       9.106  52.979  83.447  1.00  0.00     0.148 C 
BRANCH  37  38
HETATM   38  O2  UNL     1       9.065  52.720  82.062  1.00  0.00    -0.371 OA
ATOM     39  H2  UNL     1       9.379  53.392  81.467  1.00  0.00     0.216 HD
ENDBRANCH  37  38
ENDBRANCH   1  36
TORSDOF 5
ENDMDL
MODEL 5
REMARK VINA RESULT: -6.780671118      9.601     12.489
REMARK  5 active torsions:
REMARK  status: ('A' for Active; 'I' for Inactive)
REMARK    1  A    between atoms: O1_2  and  C2_3 
REMARK    2  A    between atoms: C2_3  and  C3_4 
REMARK    3  A    between atoms: C3_4  and  N1_5 
REMARK    4  A    between atoms: N1_5  and  C4_6 
REMARK    5  A    between atoms: C5_7  and  O2_8 
ROOT
HETATM    1  N1  UNL     1      11.192  48.680  82.723  1.00  0.00    -0.355 N 
HETATM    2  C6  UNL     1      11.634  49.815  82.336  1.00  0.00     0.030 C 
HETATM    3  C7  UNL     1      12.904  50.290  82.862  1.00  0.00     0.040 C 
HETATM    4  C8  UNL     1      13.900  50.789  82.062  1.00  0.00    -0.008 A 
HETATM    5  C9  UNL     1      15.025  51.120  82.760  1.00  0.00     0.014 A 
HETATM    6  C10 UNL     1      16.105  51.643  82.076  1.00  0.00     0.001 A 
HETATM    7  C11 UNL     1      16.053  51.835  80.691  1.00  0.00     0.002 A 
HETATM    8  C12 UNL     1      14.891  51.491  79.983  1.00  0.00     0.030 A 
HETATM    9  C13 UNL     1      13.866  50.985  80.684  1.00  0.00     0.042 A 
HETATM   10  N2  UNL     1      12.818  50.696  79.864  1.00  0.00    -0.360 N 
ATOM     11  H2  UNL     1      13.037  50.440  78.901  1.00  0.00     0.165 HD
HETATM   12  C14 UNL     1      11.554  50.717  80.203  1.00  0.00     0.020 A 
HETATM   13  C15 UNL     1      10.443  50.851  80.266  1.00  0.00     0.066 A 
HETATM   14  C16 UNL     1       9.779  51.225  79.115  1.00  0.00     0.125 A 
HETATM   15  C17 UNL     1       8.871  51.217  79.711  1.00  0.00     0.120 A 
HETATM   16  C18 UNL     1       9.528  50.829  80.884  1.00  0.00     0.035 A 
HETATM   17  C19 UNL     1      10.830  50.480  81.374  1.00  0.00     0.079 A 
HETATM   18  C20 UNL     1       8.263  51.755  81.767  1.00  0.00     0.025 C 
HETATM   19  C21 UNL     1       7.098  51.127  81.765  1.00  0.00     0.060 C 
HETATM   20  C22 UNL     1       7.221  49.831  81.049  1.00  0.00     0.239 C 
HETATM   21  O3  UNL     1       6.438  49.246  80.320  1.00  0.00    -0.269 OA
HETATM   22  N3  UNL     1       8.461  49.526  81.477  1.00  0.00    -0.344 N 
ATOM     23  H3  UNL     1       8.770  48.562  81.599  1.00  0.00     0.163 HD
HETATM   24  C23 UNL     1       9.377  50.720  81.767  1.00  0.00     0.074 A 
HETATM   25  C24 UNL     1       9.440  51.356  82.936  1.00  0.00     0.055 C 
HETATM   26  C25 UNL     1       8.797  51.529  84.189  1.00  0.00     0.148 C 
HETATM   27  O4  UNL     1       8.605  50.938  85.082  1.00  0.00    -0.294 OA
HETATM   28  C26 UNL     1       8.360  53.035  83.945  1.00  0.00     0.084 C 
HETATM   29  C27 UNL     1       8.151  52.994  82.581  1.00  0.00     0.025 C 
HETATM   30  N4  UNL     1       8.589  51.520  78.448  1.00  0.00    -0.384 N 
HETATM   31  C28 UNL     1       7.612  51.824  77.543  1.00  0.00     0.116 C 
ENDROOT
BRANCH   1  32
HETATM   32  C3  UNL     1      10.711  48.244  84.035  1.00  0.00     0.154 C 
BRANCH  32  33
HETATM   33  C2  UNL     1      11.535  47.473  84.908  1.00  0.00     0.187 C 
BRANCH  33  34
HETATM   34  O1  UNL     1      12.331  48.352  85.628  1.00  0.00    -0.394 OA
HETATM   35  C1  UNL     1      11.575  49.319  86.277  1.00  0.00     0.201 C 
ENDBRANCH  33  34
ENDBRANCH  32  33
ENDBRANCH   1  32
BRANCH   1  36
HETATM   36  C4  UNL     1      11.225  47.523  81.883  1.00  0.00     0.115 C 
HETATM   37  C5  UNL     1      10.314  46.475  81.644  1.00  0.00     0.148 C 
BRANCH  37  38
HETATM   38  O2  UNL     1       9.055  46.795  81.097  1.00  0.00    -0.371 OA
ATOM     39  H2  UNL     1       8.563  46.107  80.662  1.00  0.00     0.216 HD
ENDBRANCH  37  38
ENDBRANCH   1  36
TORSDOF 5
ENDMDL
