MODEL 1
REMARK VINA RESULT: -5.849218772      0.000      0.000
REMARK  4 active torsions:
REMARK  status: ('A' for Active; 'I' for Inactive)
REMARK    1  A    between atoms: C6_6  and  C19_23 
REMARK    2  A    between atoms: C8_8  and  O1_9 
REMARK    3  A    between atoms: C13_16  and  C14_17 
REMARK    4  A    between atoms: C14_17  and  N1_18 
ROOT
HETATM    1  C1  UNL     1      -0.568  -9.437 -25.113  1.00  0.00     0.015 C 
HETATM    2  C2  UNL     1       0.697  -9.069 -24.942  1.00  0.00    -0.077 C 
HETATM    3  C3  UNL     1       1.242  -8.557 -23.667  1.00  0.00     0.020 C 
HETATM    4  C4  UNL     1       0.987  -7.091 -23.602  1.00  0.00     0.020 C 
HETATM    5  C5  UNL     1       2.277  -6.445 -23.743  1.00  0.00     0.053 C 
HETATM    6  C6  UNL     1       3.384  -7.455 -23.448  1.00  0.00     0.005 C 
HETATM    7  C7  UNL     1       4.181  -6.738 -24.450  1.00  0.00     0.074 C 
HETATM    8  C8  UNL     1       2.866  -6.224 -25.058  1.00  0.00     0.167 C 
HETATM    9  O2  UNL     1       2.569  -6.766 -26.155  1.00  0.00    -0.344 OA
HETATM   10  C9  UNL     1       2.014  -7.802 -26.657  1.00  0.00     0.065 C 
HETATM   11  C10 UNL     1       2.843  -8.264 -27.881  1.00  0.00     0.046 C 
HETATM   12  C11 UNL     1       0.662  -7.453 -27.282  1.00  0.00     0.046 C 
HETATM   13  C12 UNL     1       1.826  -9.057 -25.863  1.00  0.00     0.057 C 
HETATM   14  C13 UNL     1       3.085  -9.373 -25.053  1.00  0.00     0.040 C 
HETATM   15  C19 UNL     1       2.764  -8.755 -23.770  1.00  0.00     0.008 C 
ENDROOT
BRANCH  14  16
HETATM   16  C14 UNL     1       3.312 -10.856 -25.055  1.00  0.00     0.069 C 
BRANCH  16  17
HETATM   17  N1  UNL     1       4.637 -11.276 -24.916  1.00  0.00    -0.373 N 
HETATM   18  C15 UNL     1       5.571 -10.743 -24.054  1.00  0.00     0.063 C 
HETATM   19  C16 UNL     1       6.729 -11.735 -23.963  1.00  0.00     0.046 C 
HETATM   20  C17 UNL     1       6.055 -13.042 -24.259  1.00  0.00     0.025 C 
HETATM   21  C18 UNL     1       4.805 -12.719 -25.003  1.00  0.00     0.127 C 
ENDBRANCH  16  17
ENDBRANCH  14  16
BRANCH   8  22
HETATM   22  O1  UNL     1       3.035  -4.818 -25.254  1.00  0.00    -0.365 OA
ATOM     23  H1  UNL     1       3.944  -4.648 -25.473  1.00  0.00     0.213 HD
ENDBRANCH   8  22
TORSDOF 4
ENDMDL
MODEL 2
REMARK VINA RESULT: -5.623503590      1.978      3.711
REMARK  4 active torsions:
REMARK  status: ('A' for Active; 'I' for Inactive)
REMARK    1  A    between atoms: C6_6  and  C19_23 
REMARK    2  A    between atoms: C8_8  and  O1_9 
REMARK    3  A    between atoms: C13_16  and  C14_17 
REMARK    4  A    between atoms: C14_17  and  N1_18 
ROOT
HETATM    1  C1  UNL     1       2.734  -6.810 -27.267  1.00  0.00     0.015 C 
HETATM    2  C2  UNL     1       2.529  -7.754 -26.355  1.00  0.00    -0.077 C 
HETATM    3  C3  UNL     1       2.460  -9.198 -26.662  1.00  0.00     0.020 C 
HETATM    4  C4  UNL     1       1.066  -9.527 -27.069  1.00  0.00     0.020 C 
HETATM    5  C5  UNL     1       0.504 -10.321 -25.993  1.00  0.00     0.053 C 
HETATM    6  C6  UNL     1       1.636 -10.878 -25.131  1.00  0.00     0.005 C 
HETATM    7  C7  UNL     1       0.713 -10.747 -23.996  1.00  0.00     0.074 C 
HETATM    8  C8  UNL     1      -0.054  -9.688 -24.805  1.00  0.00     0.167 C 
HETATM    9  O2  UNL     1       0.114  -8.512 -24.387  1.00  0.00    -0.344 OA
HETATM   10  C9  UNL     1       0.909  -7.514 -24.457  1.00  0.00     0.065 C 
HETATM   11  C10 UNL     1       1.046  -6.890 -23.046  1.00  0.00     0.046 C 
HETATM   12  C11 UNL     1       0.292  -6.374 -25.268  1.00  0.00     0.046 C 
HETATM   13  C12 UNL     1       2.326  -7.668 -24.915  1.00  0.00     0.057 C 
HETATM   14  C13 UNL     1       2.961  -8.911 -24.286  1.00  0.00     0.040 C 
HETATM   15  C19 UNL     1       2.731  -9.909 -25.326  1.00  0.00     0.008 C 
ENDROOT
BRANCH  14  16
HETATM   16  C14 UNL     1       4.389  -8.610 -23.936  1.00  0.00     0.069 C 
BRANCH  16  17
HETATM   17  N1  UNL     1       5.134  -9.674 -23.424  1.00  0.00    -0.373 N 
HETATM   18  C15 UNL     1       6.148 -10.343 -24.076  1.00  0.00     0.063 C 
HETATM   19  C16 UNL     1       6.917 -11.145 -23.027  1.00  0.00     0.046 C 
HETATM   20  C17 UNL     1       6.689 -10.343 -21.781  1.00  0.00     0.025 C 
HETATM   21  C18 UNL     1       5.458  -9.535 -22.011  1.00  0.00     0.127 C 
ENDBRANCH  16  17
ENDBRANCH  14  16
BRANCH   8  22
HETATM   22  O1  UNL     1      -1.438 -10.033 -24.709  1.00  0.00    -0.365 OA
ATOM     23  H1  UNL     1      -1.508 -10.914 -24.362  1.00  0.00     0.213 HD
ENDBRANCH   8  22
TORSDOF 4
ENDMDL
MODEL 3
REMARK VINA RESULT: -5.486384840      1.624      3.648
REMARK  4 active torsions:
REMARK  status: ('A' for Active; 'I' for Inactive)
REMARK    1  A    between atoms: C6_6  and  C19_23 
REMARK    2  A    between atoms: C8_8  and  O1_9 
REMARK    3  A    between atoms: C13_16  and  C14_17 
REMARK    4  A    between atoms: C14_17  and  N1_18 
ROOT
HETATM    1  C1  UNL     1       5.049  -5.337 -24.917  1.00  0.00     0.015 C 
HETATM    2  C2  UNL     1       4.199  -6.313 -24.618  1.00  0.00    -0.077 C 
HETATM    3  C3  UNL     1       3.776  -7.360 -25.571  1.00  0.00     0.020 C 
HETATM    4  C4  UNL     1       2.629  -6.838 -26.365  1.00  0.00     0.020 C 
HETATM    5  C5  UNL     1       1.460  -7.578 -25.929  1.00  0.00     0.053 C 
HETATM    6  C6  UNL     1       1.905  -8.852 -25.212  1.00  0.00     0.005 C 
HETATM    7  C7  UNL     1       0.715  -8.684 -24.370  1.00  0.00     0.074 C 
HETATM    8  C8  UNL     1       0.730  -7.189 -24.729  1.00  0.00     0.167 C 
HETATM    9  O2  UNL     1       1.105  -6.445 -23.786  1.00  0.00    -0.344 OA
HETATM   10  C9  UNL     1       2.149  -5.980 -23.214  1.00  0.00     0.065 C 
HETATM   11  C10 UNL     1       1.924  -6.001 -21.682  1.00  0.00     0.046 C 
HETATM   12  C11 UNL     1       2.320  -4.489 -23.507  1.00  0.00     0.046 C 
HETATM   13  C12 UNL     1       3.491  -6.623 -23.382  1.00  0.00     0.057 C 
HETATM   14  C13 UNL     1       3.371  -8.146 -23.290  1.00  0.00     0.040 C 
HETATM   15  C19 UNL     1       3.245  -8.511 -24.698  1.00  0.00     0.008 C 
ENDROOT
BRANCH  14  16
HETATM   16  C14 UNL     1       4.559  -8.689 -22.551  1.00  0.00     0.069 C 
BRANCH  16  17
HETATM   17  N1  UNL     1       5.476  -9.418 -23.311  1.00  0.00    -0.373 N 
HETATM   18  C15 UNL     1       6.825  -9.159 -23.422  1.00  0.00     0.063 C 
HETATM   19  C16 UNL     1       7.483 -10.402 -24.019  1.00  0.00     0.046 C 
HETATM   20  C17 UNL     1       6.558 -11.497 -23.578  1.00  0.00     0.025 C 
HETATM   21  C18 UNL     1       5.246 -10.856 -23.284  1.00  0.00     0.127 C 
ENDBRANCH  16  17
ENDBRANCH  14  16
BRANCH   8  22
HETATM   22  O1  UNL     1      -0.609  -6.851 -25.097  1.00  0.00    -0.365 OA
ATOM     23  H1  UNL     1      -1.051  -7.638 -25.394  1.00  0.00     0.213 HD
ENDBRANCH   8  22
TORSDOF 4
ENDMDL
MODEL 4
REMARK VINA RESULT: -5.428590875      1.363      2.421
REMARK  4 active torsions:
REMARK  status: ('A' for Active; 'I' for Inactive)
REMARK    1  A    between atoms: C6_6  and  C19_23 
REMARK    2  A    between atoms: C8_8  and  O1_9 
REMARK    3  A    between atoms: C13_16  and  C14_17 
REMARK    4  A    between atoms: C14_17  and  N1_18 
ROOT
HETATM    1  C1  UNL     1       2.140  -8.537 -27.432  1.00  0.00     0.015 C 
HETATM    2  C2  UNL     1       2.170  -8.142 -26.164  1.00  0.00    -0.077 C 
HETATM    3  C3  UNL     1       0.979  -8.080 -25.291  1.00  0.00     0.020 C 
HETATM    4  C4  UNL     1       0.307  -6.768 -25.504  1.00  0.00     0.020 C 
HETATM    5  C5  UNL     1       0.518  -5.999 -24.293  1.00  0.00     0.053 C 
HETATM    6  C6  UNL     1       0.913  -6.942 -23.157  1.00  0.00     0.005 C 
HETATM    7  C7  UNL     1       1.740  -5.840 -22.652  1.00  0.00     0.074 C 
HETATM    8  C8  UNL     1       1.757  -5.263 -24.077  1.00  0.00     0.167 C 
HETATM    9  O2  UNL     1       2.864  -5.395 -24.663  1.00  0.00    -0.344 OA
HETATM   10  C9  UNL     1       3.559  -6.223 -25.343  1.00  0.00     0.065 C 
HETATM   11  C10 UNL     1       5.033  -6.131 -24.878  1.00  0.00     0.046 C 
HETATM   12  C11 UNL     1       3.644  -5.797 -26.810  1.00  0.00     0.046 C 
HETATM   13  C12 UNL     1       3.273  -7.693 -25.324  1.00  0.00     0.057 C 
HETATM   14  C13 UNL     1       2.987  -8.165 -23.896  1.00  0.00     0.040 C 
HETATM   15  C19 UNL     1       1.529  -8.087 -23.854  1.00  0.00     0.008 C 
ENDROOT
BRANCH  14  16
HETATM   16  C14 UNL     1       3.601  -9.518 -23.693  1.00  0.00     0.069 C 
BRANCH  16  17
HETATM   17  N1  UNL     1       4.981  -9.603 -23.887  1.00  0.00    -0.373 N 
HETATM   18  C15 UNL     1       5.949  -9.007 -23.106  1.00  0.00     0.063 C 
HETATM   19  C16 UNL     1       7.283  -9.670 -23.443  1.00  0.00     0.046 C 
HETATM   20  C17 UNL     1       6.856 -11.034 -23.899  1.00  0.00     0.025 C 
HETATM   21  C18 UNL     1       5.432 -10.918 -24.320  1.00  0.00     0.127 C 
ENDBRANCH  16  17
ENDBRANCH  14  16
BRANCH   8  22
HETATM   22  O1  UNL     1       1.448  -3.873 -23.952  1.00  0.00    -0.365 OA
ATOM     23  H1  UNL     1       2.025  -3.490 -23.302  1.00  0.00     0.213 HD
ENDBRANCH   8  22
TORSDOF 4
ENDMDL
MODEL 5
REMARK VINA RESULT: -5.340859115      2.216      4.732
REMARK  4 active torsions:
REMARK  status: ('A' for Active; 'I' for Inactive)
REMARK    1  A    between atoms: C6_6  and  C19_23 
REMARK    2  A    between atoms: C8_8  and  O1_9 
REMARK    3  A    between atoms: C13_16  and  C14_17 
REMARK    4  A    between atoms: C14_17  and  N1_18 
ROOT
HETATM    1  C1  UNL     1       3.336 -11.229 -24.916  1.00  0.00     0.015 C 
HETATM    2  C2  UNL     1       2.947  -9.981 -25.151  1.00  0.00    -0.077 C 
HETATM    3  C3  UNL     1       3.746  -8.788 -24.799  1.00  0.00     0.020 C 
HETATM    4  C4  UNL     1       3.456  -8.429 -23.382  1.00  0.00     0.020 C 
HETATM    5  C5  UNL     1       2.698  -7.194 -23.421  1.00  0.00     0.053 C 
HETATM    6  C6  UNL     1       2.883  -6.528 -24.784  1.00  0.00     0.005 C 
HETATM    7  C7  UNL     1       1.504  -6.047 -24.635  1.00  0.00     0.074 C 
HETATM    8  C8  UNL     1       1.258  -7.203 -23.651  1.00  0.00     0.167 C 
HETATM    9  O2  UNL     1       0.543  -8.126 -24.123  1.00  0.00    -0.344 OA
HETATM   10  C9  UNL     1       0.592  -9.182 -24.840  1.00  0.00     0.065 C 
HETATM   11  C10 UNL     1      -0.645  -9.205 -25.771  1.00  0.00     0.046 C 
HETATM   12  C11 UNL     1       0.392 -10.436 -23.988  1.00  0.00     0.046 C 
HETATM   13  C12 UNL     1       1.737  -9.452 -25.766  1.00  0.00     0.057 C 
HETATM   14  C13 UNL     1       2.124  -8.181 -26.526  1.00  0.00     0.040 C 
HETATM   15  C19 UNL     1       3.194  -7.656 -25.683  1.00  0.00     0.008 C 
ENDROOT
BRANCH  14  16
HETATM   16  C14 UNL     1       2.484  -8.541 -27.936  1.00  0.00     0.069 C 
BRANCH  16  17
HETATM   17  N1  UNL     1       2.511  -7.488 -28.853  1.00  0.00    -0.373 N 
HETATM   18  C15 UNL     1       3.569  -7.149 -29.669  1.00  0.00     0.063 C 
HETATM   19  C16 UNL     1       3.033  -6.212 -30.750  1.00  0.00     0.046 C 
HETATM   20  C17 UNL     1       1.596  -6.628 -30.850  1.00  0.00     0.025 C 
HETATM   21  C18 UNL     1       1.255  -7.299 -29.564  1.00  0.00     0.127 C 
ENDBRANCH  16  17
ENDBRANCH  14  16
BRANCH   8  22
HETATM   22  O1  UNL     1       0.609  -6.632 -22.514  1.00  0.00    -0.365 OA
ATOM     23  H1  UNL     1       1.134  -6.809 -21.742  1.00  0.00     0.213 HD
ENDBRANCH   8  22
TORSDOF 4
ENDMDL
