MODEL 1
REMARK VINA RESULT: -6.078281083      0.000      0.000
REMARK  8 active torsions:
REMARK  status: ('A' for Active; 'I' for Inactive)
REMARK    1  A    between atoms: C2_2  and  C3_3 
REMARK    2  A    between atoms: C3_3  and  C5_5 
REMARK    3  A    between atoms: C5_5  and  O1_6 
REMARK    4  A    between atoms: C5_5  and  C10_11 
REMARK    5  A    between atoms: O1_6  and  C6_7 
REMARK    6  A    between atoms: C6_7  and  C7_8 
REMARK    7  A    between atoms: C12_13  and  O2_14 
REMARK    8  A    between atoms: C17_20  and  O3_21 
ROOT
HETATM    1  C10 UNL     1     -15.848 -47.960  -9.122  1.00  0.00     0.057 A 
HETATM    2  C11 UNL     1     -14.602 -48.522  -8.416  1.00  0.00     0.058 A 
HETATM    3  C12 UNL     1     -15.042 -47.952  -7.100  1.00  0.00     0.065 A 
HETATM    4  C13 UNL     1     -15.839 -48.786  -6.178  1.00  0.00     0.044 A 
HETATM    5  C14 UNL     1     -17.061 -48.156  -6.866  1.00  0.00     0.003 A 
HETATM    6  C15 UNL     1     -18.092 -49.168  -7.050  1.00  0.00     0.016 C 
HETATM    7  C16 UNL     1     -19.404 -48.567  -7.563  1.00  0.00     0.013 C 
HETATM    8  C17 UNL     1     -17.809 -50.465  -7.688  1.00  0.00     0.133 C 
HETATM    9  C18 UNL     1     -16.774 -50.505  -8.756  1.00  0.00     0.081 C 
HETATM   10  C19 UNL     1     -17.162 -51.527  -9.831  1.00  0.00     0.020 C 
HETATM   11  C20 UNL     1     -16.704 -49.175  -9.411  1.00  0.00     0.145 C 
HETATM   12  O4  UNL     1     -17.502 -49.139 -10.320  1.00  0.00    -0.297 OA
HETATM   13  C21 UNL     1     -16.286 -47.457  -7.820  1.00  0.00     0.043 A 
ENDROOT
BRANCH   1  14
HETATM   14  C5  UNL     1     -15.454 -47.119 -10.219  1.00  0.00     0.141 C 
BRANCH  14  15
HETATM   15  C3  UNL     1     -14.442 -47.338 -11.253  1.00  0.00     0.011 C 
HETATM   16  C4  UNL     1     -12.985 -47.233 -10.923  1.00  0.00     0.012 C 
BRANCH  15  17
HETATM   17  C2  UNL     1     -14.649 -48.392 -12.281  1.00  0.00     0.002 C 
HETATM   18  C1  UNL     1     -14.104 -49.741 -12.010  1.00  0.00     0.005 C 
ENDBRANCH  15  17
ENDBRANCH  14  15
BRANCH  14  19
HETATM   19  O1  UNL     1     -14.989 -45.911  -9.608  1.00  0.00    -0.384 OA
BRANCH  19  20
HETATM   20  C6  UNL     1     -15.268 -44.784 -10.298  1.00  0.00     0.172 C 
BRANCH  20  21
HETATM   21  C7  UNL     1     -15.527 -43.661  -9.282  1.00  0.00     0.001 C 
HETATM   22  C8  UNL     1     -15.069 -42.331  -9.853  1.00  0.00     0.011 C 
HETATM   23  C9  UNL     1     -14.818 -43.902  -7.981  1.00  0.00     0.011 C 
ENDBRANCH  20  21
ENDBRANCH  19  20
ENDBRANCH  14  19
ENDBRANCH   1  14
BRANCH   3  24
HETATM   24  O2  UNL     1     -14.252 -46.979  -6.523  1.00  0.00    -0.389 OA
ATOM     25  H2  UNL     1     -13.659 -47.242  -5.830  1.00  0.00     0.210 HD
ENDBRANCH   3  24
BRANCH   8  26
HETATM   26  O3  UNL     1     -17.515 -51.517  -6.791  1.00  0.00    -0.394 OA
ATOM     27  H3  UNL     1     -18.273 -51.989  -6.468  1.00  0.00     0.210 HD
ENDBRANCH   8  26
TORSDOF 8
ENDMDL
MODEL 2
REMARK VINA RESULT: -5.916531684      2.102      4.293
REMARK  8 active torsions:
REMARK  status: ('A' for Active; 'I' for Inactive)
REMARK    1  A    between atoms: C2_2  and  C3_3 
REMARK    2  A    between atoms: C3_3  and  C5_5 
REMARK    3  A    between atoms: C5_5  and  O1_6 
REMARK    4  A    between atoms: C5_5  and  C10_11 
REMARK    5  A    between atoms: O1_6  and  C6_7 
REMARK    6  A    between atoms: C6_7  and  C7_8 
REMARK    7  A    between atoms: C12_13  and  O2_14 
REMARK    8  A    between atoms: C17_20  and  O3_21 
ROOT
HETATM    1  C10 UNL     1     -14.916 -46.910 -10.199  1.00  0.00     0.057 A 
HETATM    2  C11 UNL     1     -14.464 -46.859 -11.669  1.00  0.00     0.058 A 
HETATM    3  C12 UNL     1     -13.145 -47.485 -11.327  1.00  0.00     0.065 A 
HETATM    4  C13 UNL     1     -12.993 -48.952 -11.419  1.00  0.00     0.044 A 
HETATM    5  C14 UNL     1     -13.389 -48.959  -9.933  1.00  0.00     0.003 A 
HETATM    6  C15 UNL     1     -14.271 -50.087  -9.669  1.00  0.00     0.016 C 
HETATM    7  C16 UNL     1     -14.555 -50.258  -8.173  1.00  0.00     0.013 C 
HETATM    8  C17 UNL     1     -15.475 -50.343 -10.477  1.00  0.00     0.133 C 
HETATM    9  C18 UNL     1     -16.200 -49.171 -11.038  1.00  0.00     0.081 C 
HETATM   10  C19 UNL     1     -17.709 -49.442 -11.056  1.00  0.00     0.020 C 
HETATM   11  C20 UNL     1     -15.970 -47.996 -10.162  1.00  0.00     0.145 C 
HETATM   12  O4  UNL     1     -16.812 -47.979  -9.293  1.00  0.00    -0.297 OA
HETATM   13  C21 UNL     1     -13.645 -47.569  -9.894  1.00  0.00     0.043 A 
ENDROOT
BRANCH   1  14
HETATM   14  C5  UNL     1     -15.268 -45.592  -9.747  1.00  0.00     0.141 C 
BRANCH  14  15
HETATM   15  C3  UNL     1     -15.202 -44.310 -10.449  1.00  0.00     0.011 C 
HETATM   16  C4  UNL     1     -15.925 -44.117 -11.747  1.00  0.00     0.012 C 
BRANCH  15  17
HETATM   17  C2  UNL     1     -15.212 -43.040  -9.675  1.00  0.00     0.002 C 
HETATM   18  C1  UNL     1     -15.956 -41.891 -10.239  1.00  0.00     0.005 C 
ENDBRANCH  15  17
ENDBRANCH  14  15
BRANCH  14  19
HETATM   19  O1  UNL     1     -14.421 -45.351  -8.619  1.00  0.00    -0.384 OA
BRANCH  19  20
HETATM   20  C6  UNL     1     -15.059 -45.312  -7.429  1.00  0.00     0.172 C 
BRANCH  20  21
HETATM   21  C7  UNL     1     -14.338 -46.277  -6.476  1.00  0.00     0.001 C 
HETATM   22  C8  UNL     1     -15.338 -47.240  -5.861  1.00  0.00     0.011 C 
HETATM   23  C9  UNL     1     -13.621 -45.551  -5.375  1.00  0.00     0.011 C 
ENDBRANCH  20  21
ENDBRANCH  19  20
ENDBRANCH  14  19
ENDBRANCH   1  14
BRANCH   3  24
HETATM   24  O2  UNL     1     -12.004 -46.736 -11.525  1.00  0.00    -0.389 OA
ATOM     25  H2  UNL     1     -12.101 -45.870 -11.902  1.00  0.00     0.210 HD
ENDBRANCH   3  24
BRANCH   8  26
HETATM   26  O3  UNL     1     -15.295 -51.261 -11.536  1.00  0.00    -0.394 OA
ATOM     27  H3  UNL     1     -15.886 -52.005 -11.525  1.00  0.00     0.210 HD
ENDBRANCH   8  26
TORSDOF 8
ENDMDL
MODEL 3
REMARK VINA RESULT: -5.907752387      1.863      4.522
REMARK  8 active torsions:
REMARK  status: ('A' for Active; 'I' for Inactive)
REMARK    1  A    between atoms: C2_2  and  C3_3 
REMARK    2  A    between atoms: C3_3  and  C5_5 
REMARK    3  A    between atoms: C5_5  and  O1_6 
REMARK    4  A    between atoms: C5_5  and  C10_11 
REMARK    5  A    between atoms: O1_6  and  C6_7 
REMARK    6  A    between atoms: C6_7  and  C7_8 
REMARK    7  A    between atoms: C12_13  and  O2_14 
REMARK    8  A    between atoms: C17_20  and  O3_21 
ROOT
HETATM    1  C10 UNL     1     -14.643 -47.206  -9.520  1.00  0.00     0.057 A 
HETATM    2  C11 UNL     1     -14.458 -48.613  -8.925  1.00  0.00     0.058 A 
HETATM    3  C12 UNL     1     -15.858 -48.999  -9.300  1.00  0.00     0.065 A 
HETATM    4  C13 UNL     1     -16.105 -49.669 -10.593  1.00  0.00     0.044 A 
HETATM    5  C14 UNL     1     -16.343 -48.251 -11.138  1.00  0.00     0.003 A 
HETATM    6  C15 UNL     1     -15.758 -48.136 -12.467  1.00  0.00     0.016 C 
HETATM    7  C16 UNL     1     -16.118 -46.808 -13.141  1.00  0.00     0.013 C 
HETATM    8  C17 UNL     1     -14.362 -48.517 -12.742  1.00  0.00     0.133 C 
HETATM    9  C18 UNL     1     -13.360 -48.324 -11.659  1.00  0.00     0.081 C 
HETATM   10  C19 UNL     1     -12.006 -47.923 -12.257  1.00  0.00     0.020 C 
HETATM   11  C20 UNL     1     -13.805 -47.213 -10.782  1.00  0.00     0.145 C 
HETATM   12  O4  UNL     1     -13.387 -46.167 -11.224  1.00  0.00    -0.297 OA
HETATM   13  C21 UNL     1     -15.987 -47.619  -9.925  1.00  0.00     0.043 A 
ENDROOT
BRANCH   1  14
HETATM   14  C5  UNL     1     -14.372 -46.210  -8.520  1.00  0.00     0.141 C 
BRANCH  14  15
HETATM   15  C3  UNL     1     -14.364 -46.323  -7.062  1.00  0.00     0.011 C 
HETATM   16  C4  UNL     1     -13.590 -45.348  -6.229  1.00  0.00     0.012 C 
BRANCH  15  17
HETATM   17  C2  UNL     1     -15.602 -46.725  -6.342  1.00  0.00     0.002 C 
HETATM   18  C1  UNL     1     -15.526 -47.888  -5.429  1.00  0.00     0.005 C 
ENDBRANCH  15  17
ENDBRANCH  14  15
BRANCH  14  19
HETATM   19  O1  UNL     1     -15.365 -45.201  -8.729  1.00  0.00    -0.384 OA
BRANCH  19  20
HETATM   20  C6  UNL     1     -14.907 -43.932  -8.653  1.00  0.00     0.172 C 
BRANCH  20  21
HETATM   21  C7  UNL     1     -15.647 -43.101  -9.712  1.00  0.00     0.001 C 
HETATM   22  C8  UNL     1     -15.755 -43.888 -11.006  1.00  0.00     0.011 C 
HETATM   23  C9  UNL     1     -14.955 -41.798  -9.991  1.00  0.00     0.011 C 
ENDBRANCH  20  21
ENDBRANCH  19  20
ENDBRANCH  14  19
ENDBRANCH   1  14
BRANCH   3  24
HETATM   24  O2  UNL     1     -16.743 -49.284  -8.281  1.00  0.00    -0.389 OA
ATOM     25  H2  UNL     1     -16.935 -48.597  -7.654  1.00  0.00     0.210 HD
ENDBRANCH   3  24
BRANCH   8  26
HETATM   26  O3  UNL     1     -14.191 -49.832 -13.230  1.00  0.00    -0.394 OA
ATOM     27  H3  UNL     1     -13.638 -50.389 -12.694  1.00  0.00     0.210 HD
ENDBRANCH   8  26
TORSDOF 8
ENDMDL
MODEL 4
REMARK VINA RESULT: -5.855717124      8.074     12.167
REMARK  8 active torsions:
REMARK  status: ('A' for Active; 'I' for Inactive)
REMARK    1  A    between atoms: C2_2  and  C3_3 
REMARK    2  A    between atoms: C3_3  and  C5_5 
REMARK    3  A    between atoms: C5_5  and  O1_6 
REMARK    4  A    between atoms: C5_5  and  C10_11 
REMARK    5  A    between atoms: O1_6  and  C6_7 
REMARK    6  A    between atoms: C6_7  and  C7_8 
REMARK    7  A    between atoms: C12_13  and  O2_14 
REMARK    8  A    between atoms: C17_20  and  O3_21 
ROOT
HETATM    1  C10 UNL     1     -13.075 -37.536 -12.891  1.00  0.00     0.057 A 
HETATM    2  C11 UNL     1     -13.229 -36.047 -13.248  1.00  0.00     0.058 A 
HETATM    3  C12 UNL     1     -13.240 -35.660 -11.799  1.00  0.00     0.065 A 
HETATM    4  C13 UNL     1     -11.973 -35.285 -11.139  1.00  0.00     0.044 A 
HETATM    5  C14 UNL     1     -11.884 -36.769 -10.747  1.00  0.00     0.003 A 
HETATM    6  C15 UNL     1     -10.506 -37.223 -10.868  1.00  0.00     0.016 C 
HETATM    7  C16 UNL     1     -10.317 -38.641 -10.319  1.00  0.00     0.013 C 
HETATM    8  C17 UNL     1      -9.718 -37.012 -12.094  1.00  0.00     0.133 C 
HETATM    9  C18 UNL     1     -10.438 -37.024 -13.396  1.00  0.00     0.081 C 
HETATM   10  C19 UNL     1      -9.553 -37.643 -14.484  1.00  0.00     0.020 C 
HETATM   11  C20 UNL     1     -11.648 -37.874 -13.270  1.00  0.00     0.145 C 
HETATM   12  O4  UNL     1     -11.357 -39.019 -13.531  1.00  0.00    -0.297 OA
HETATM   13  C21 UNL     1     -13.034 -37.133 -11.485  1.00  0.00     0.043 A 
ENDROOT
BRANCH   1  14
HETATM   14  C5  UNL     1     -14.143 -38.296 -13.481  1.00  0.00     0.141 C 
BRANCH  14  15
HETATM   15  C3  UNL     1     -15.395 -37.842 -14.084  1.00  0.00     0.011 C 
HETATM   16  C4  UNL     1     -15.868 -38.422 -15.382  1.00  0.00     0.012 C 
BRANCH  15  17
HETATM   17  C2  UNL     1     -16.564 -37.530 -13.219  1.00  0.00     0.002 C 
HETATM   18  C1  UNL     1     -17.801 -38.319 -13.415  1.00  0.00     0.005 C 
ENDBRANCH  15  17
ENDBRANCH  14  15
BRANCH  14  19
HETATM   19  O1  UNL     1     -14.616 -39.143 -12.429  1.00  0.00    -0.384 OA
BRANCH  19  20
HETATM   20  C6  UNL     1     -14.473 -40.466 -12.660  1.00  0.00     0.172 C 
BRANCH  20  21
HETATM   21  C7  UNL     1     -14.735 -41.206 -11.340  1.00  0.00     0.001 C 
HETATM   22  C8  UNL     1     -16.227 -41.252 -11.060  1.00  0.00     0.011 C 
HETATM   23  C9  UNL     1     -14.042 -40.553 -10.179  1.00  0.00     0.011 C 
ENDBRANCH  20  21
ENDBRANCH  19  20
ENDBRANCH  14  19
ENDBRANCH   1  14
BRANCH   3  24
HETATM   24  O2  UNL     1     -14.390 -35.090 -11.293  1.00  0.00    -0.389 OA
ATOM     25  H2  UNL     1     -14.637 -35.307 -10.402  1.00  0.00     0.210 HD
ENDBRANCH   3  24
BRANCH   8  26
HETATM   26  O3  UNL     1      -8.904 -35.857 -12.086  1.00  0.00    -0.394 OA
ATOM     27  H3  UNL     1      -9.326 -35.069 -12.407  1.00  0.00     0.210 HD
ENDBRANCH   8  26
TORSDOF 8
ENDMDL
MODEL 5
REMARK VINA RESULT: -5.848505793      1.861      5.014
REMARK  8 active torsions:
REMARK  status: ('A' for Active; 'I' for Inactive)
REMARK    1  A    between atoms: C2_2  and  C3_3 
REMARK    2  A    between atoms: C3_3  and  C5_5 
REMARK    3  A    between atoms: C5_5  and  O1_6 
REMARK    4  A    between atoms: C5_5  and  C10_11 
REMARK    5  A    between atoms: O1_6  and  C6_7 
REMARK    6  A    between atoms: C6_7  and  C7_8 
REMARK    7  A    between atoms: C12_13  and  O2_14 
REMARK    8  A    between atoms: C17_20  and  O3_21 
ROOT
HETATM    1  C10 UNL     1     -14.998 -47.338  -9.592  1.00  0.00     0.057 A 
HETATM    2  C11 UNL     1     -14.221 -46.414 -10.546  1.00  0.00     0.058 A 
HETATM    3  C12 UNL     1     -13.029 -47.324 -10.520  1.00  0.00     0.065 A 
HETATM    4  C13 UNL     1     -12.892 -48.369 -11.554  1.00  0.00     0.044 A 
HETATM    5  C14 UNL     1     -13.617 -49.281 -10.550  1.00  0.00     0.003 A 
HETATM    6  C15 UNL     1     -14.560 -50.134 -11.259  1.00  0.00     0.016 C 
HETATM    7  C16 UNL     1     -15.182 -51.191 -10.341  1.00  0.00     0.013 C 
HETATM    8  C17 UNL     1     -15.553 -49.588 -12.201  1.00  0.00     0.133 C 
HETATM    9  C18 UNL     1     -16.105 -48.235 -11.924  1.00  0.00     0.081 C 
HETATM   10  C19 UNL     1     -17.575 -48.166 -12.354  1.00  0.00     0.020 C 
HETATM   11  C20 UNL     1     -16.056 -47.983 -10.463  1.00  0.00     0.145 C 
HETATM   12  O4  UNL     1     -17.074 -48.396  -9.955  1.00  0.00    -0.297 OA
HETATM   13  C21 UNL     1     -13.846 -48.239  -9.622  1.00  0.00     0.043 A 
ENDROOT
BRANCH   1  14
HETATM   14  C5  UNL     1     -15.417 -46.604  -8.430  1.00  0.00     0.141 C 
BRANCH  14  15
HETATM   15  C3  UNL     1     -14.874 -45.376  -7.849  1.00  0.00     0.011 C 
HETATM   16  C4  UNL     1     -15.177 -44.045  -8.467  1.00  0.00     0.012 C 
BRANCH  15  17
HETATM   17  C2  UNL     1     -14.778 -45.233  -6.372  1.00  0.00     0.002 C 
HETATM   18  C1  UNL     1     -13.444 -45.374  -5.748  1.00  0.00     0.005 C 
ENDBRANCH  15  17
ENDBRANCH  14  15
BRANCH  14  19
HETATM   19  O1  UNL     1     -15.279 -47.525  -7.343  1.00  0.00    -0.384 OA
BRANCH  19  20
HETATM   20  C6  UNL     1     -16.446 -47.976  -6.832  1.00  0.00     0.172 C 
BRANCH  20  21
HETATM   21  C7  UNL     1     -16.139 -49.219  -5.983  1.00  0.00     0.001 C 
HETATM   22  C8  UNL     1     -15.262 -48.835  -4.804  1.00  0.00     0.011 C 
HETATM   23  C9  UNL     1     -15.445 -50.288  -6.776  1.00  0.00     0.011 C 
ENDBRANCH  20  21
ENDBRANCH  19  20
ENDBRANCH  14  19
ENDBRANCH   1  14
BRANCH   3  24
HETATM   24  O2  UNL     1     -11.858 -46.837  -9.979  1.00  0.00    -0.389 OA
ATOM     25  H2  UNL     1     -11.360 -46.209 -10.490  1.00  0.00     0.210 HD
ENDBRANCH   3  24
BRANCH   8  26
HETATM   26  O3  UNL     1     -15.155 -49.601 -13.557  1.00  0.00    -0.394 OA
ATOM     27  H3  UNL     1     -15.859 -49.742 -14.178  1.00  0.00     0.210 HD
ENDBRANCH   8  26
TORSDOF 8
ENDMDL
