MODEL 1
REMARK VINA RESULT: -8.612558626      0.000      0.000
REMARK  3 active torsions:
REMARK  status: ('A' for Active; 'I' for Inactive)
REMARK    1  A    between atoms: C4_6  and  N1_7 
REMARK       I    between atoms: N1_7  and  C5_9 
REMARK    2  A    between atoms: C5_9  and  C6_11 
REMARK    3  A    between atoms: C8_13  and  C14_19 
ROOT
HETATM    1  C6  UNL     1      17.174   6.057  13.468  1.00  0.00     0.045 C 
HETATM    2  C7  UNL     1      18.269   5.406  12.621  1.00  0.00     0.024 C 
HETATM    3  C8  UNL     1      19.478   6.271  13.003  1.00  0.00    -0.008 C 
HETATM    4  C9  UNL     1      19.261   6.389  14.464  1.00  0.00     0.011 C 
HETATM    5  C10 UNL     1      17.853   6.828  14.558  1.00  0.00     0.004 C 
HETATM    6  C11 UNL     1      17.616   8.294  14.558  1.00  0.00     0.011 C 
HETATM    7  C12 UNL     1      18.197   9.115  13.487  1.00  0.00    -0.009 C 
HETATM    8  C13 UNL     1      19.631   8.771  13.141  1.00  0.00     0.010 C 
HETATM    9  C14 UNL     1      19.519   7.547  12.241  1.00  0.00    -0.006 C 
HETATM   10  C15 UNL     1      18.467   7.725  11.225  1.00  0.00    -0.005 C 
HETATM   11  C16 UNL     1      18.271   9.228  10.955  1.00  0.00     0.011 C 
HETATM   12  C17 UNL     1      17.423   9.210  12.213  1.00  0.00    -0.006 C 
HETATM   13  C18 UNL     1      17.068   7.830  11.651  1.00  0.00    -0.004 C 
HETATM   14  C19 UNL     1      16.408   6.924  12.517  1.00  0.00     0.025 C 
ENDROOT
BRANCH   1  15
HETATM   15  C5  UNL     1      16.231   5.030  13.972  1.00  0.00     0.227 C 
HETATM   16  N1  UNL     1      16.007   4.732  15.334  1.00  0.00    -0.346 N 
ATOM     17  H1  UNL     1      16.527   5.253  16.040  1.00  0.00     0.163 HD
HETATM   18  O3  UNL     1      15.573   4.368  13.093  1.00  0.00    -0.273 OA
BRANCH  16  19
HETATM   19  C4  UNL     1      15.073   3.719  15.770  1.00  0.00     0.186 C 
HETATM   20  C1  UNL     1      15.762   2.457  16.146  1.00  0.00     0.281 C 
HETATM   21  O1  UNL     1      16.269   1.715  15.407  1.00  0.00    -0.263 OA
HETATM   22  O2  UNL     1      15.703   2.303  17.525  1.00  0.00    -0.320 OA
HETATM   23  C2  UNL     1      15.049   3.387  18.137  1.00  0.00     0.181 C 
HETATM   24  C3  UNL     1      14.367   4.134  17.021  1.00  0.00     0.062 C 
ENDBRANCH  16  19
ENDBRANCH   1  15
TORSDOF 3
ENDMDL
MODEL 2
REMARK VINA RESULT: -8.549070848      0.749      1.525
REMARK  3 active torsions:
REMARK  status: ('A' for Active; 'I' for Inactive)
REMARK    1  A    between atoms: C4_6  and  N1_7 
REMARK       I    between atoms: N1_7  and  C5_9 
REMARK    2  A    between atoms: C5_9  and  C6_11 
REMARK    3  A    between atoms: C8_13  and  C14_19 
ROOT
HETATM    1  C6  UNL     1      17.066   6.042  13.579  1.00  0.00     0.045 C 
HETATM    2  C7  UNL     1      18.350   6.056  14.412  1.00  0.00     0.024 C 
HETATM    3  C8  UNL     1      18.663   7.559  14.425  1.00  0.00    -0.008 C 
HETATM    4  C9  UNL     1      17.304   8.105  14.648  1.00  0.00     0.011 C 
HETATM    5  C10 UNL     1      16.498   7.427  13.612  1.00  0.00     0.004 C 
HETATM    6  C11 UNL     1      16.395   8.114  12.300  1.00  0.00     0.011 C 
HETATM    7  C12 UNL     1      17.622   8.533  11.609  1.00  0.00    -0.009 C 
HETATM    8  C13 UNL     1      18.659   9.176  12.508  1.00  0.00     0.010 C 
HETATM    9  C14 UNL     1      19.353   8.001  13.185  1.00  0.00    -0.006 C 
HETATM   10  C15 UNL     1      19.676   6.941  12.215  1.00  0.00    -0.005 C 
HETATM   11  C16 UNL     1      19.826   7.562  10.814  1.00  0.00     0.011 C 
HETATM   12  C17 UNL     1      18.310   7.506  10.771  1.00  0.00    -0.006 C 
HETATM   13  C18 UNL     1      18.588   6.217  11.551  1.00  0.00    -0.004 C 
HETATM   14  C19 UNL     1      17.493   5.606  12.212  1.00  0.00     0.025 C 
ENDROOT
BRANCH   1  15
HETATM   15  C5  UNL     1      16.132   5.009  14.089  1.00  0.00     0.227 C 
HETATM   16  N1  UNL     1      15.930   4.699  15.452  1.00  0.00    -0.346 N 
ATOM     17  H1  UNL     1      16.459   5.216  16.154  1.00  0.00     0.163 HD
HETATM   18  O3  UNL     1      15.462   4.352  13.215  1.00  0.00    -0.273 OA
BRANCH  16  19
HETATM   19  C4  UNL     1      15.003   3.681  15.893  1.00  0.00     0.186 C 
HETATM   20  C1  UNL     1      15.700   2.417  16.247  1.00  0.00     0.281 C 
HETATM   21  O1  UNL     1      16.196   1.682  15.493  1.00  0.00    -0.263 OA
HETATM   22  O2  UNL     1      15.664   2.250  17.625  1.00  0.00    -0.320 OA
HETATM   23  C2  UNL     1      15.019   3.328  18.258  1.00  0.00     0.181 C 
HETATM   24  C3  UNL     1      14.317   4.084  17.160  1.00  0.00     0.062 C 
ENDBRANCH  16  19
ENDBRANCH   1  15
TORSDOF 3
ENDMDL
MODEL 3
REMARK VINA RESULT: -8.548783542      0.834      2.353
REMARK  3 active torsions:
REMARK  status: ('A' for Active; 'I' for Inactive)
REMARK    1  A    between atoms: C4_6  and  N1_7 
REMARK       I    between atoms: N1_7  and  C5_9 
REMARK    2  A    between atoms: C5_9  and  C6_11 
REMARK    3  A    between atoms: C8_13  and  C14_19 
ROOT
HETATM    1  C6  UNL     1      16.862   6.332  13.323  1.00  0.00     0.045 C 
HETATM    2  C7  UNL     1      15.917   7.527  13.463  1.00  0.00     0.024 C 
HETATM    3  C8  UNL     1      16.256   8.309  12.186  1.00  0.00    -0.008 C 
HETATM    4  C9  UNL     1      16.344   7.194  11.215  1.00  0.00     0.011 C 
HETATM    5  C10 UNL     1      17.256   6.241  11.881  1.00  0.00     0.004 C 
HETATM    6  C11 UNL     1      18.704   6.403  11.595  1.00  0.00     0.011 C 
HETATM    7  C12 UNL     1      19.331   7.719  11.781  1.00  0.00    -0.009 C 
HETATM    8  C13 UNL     1      18.513   8.882  11.254  1.00  0.00     0.010 C 
HETATM    9  C14 UNL     1      17.479   9.139  12.343  1.00  0.00    -0.006 C 
HETATM   10  C15 UNL     1      18.097   9.130  13.680  1.00  0.00    -0.005 C 
HETATM   11  C16 UNL     1      19.583   9.512  13.556  1.00  0.00     0.011 C 
HETATM   12  C17 UNL     1      19.788   8.061  13.161  1.00  0.00    -0.006 C 
HETATM   13  C18 UNL     1      18.673   7.886  14.197  1.00  0.00    -0.004 C 
HETATM   14  C19 UNL     1      18.010   6.634  14.235  1.00  0.00     0.025 C 
ENDROOT
BRANCH   1  15
HETATM   15  C5  UNL     1      16.215   5.100  13.836  1.00  0.00     0.227 C 
HETATM   16  N1  UNL     1      16.051   4.778  15.201  1.00  0.00    -0.346 N 
ATOM     17  H1  UNL     1      16.398   5.432  15.903  1.00  0.00     0.163 HD
HETATM   18  O3  UNL     1      15.775   4.270  12.963  1.00  0.00    -0.273 OA
BRANCH  16  19
HETATM   19  C4  UNL     1      15.410   3.561  15.646  1.00  0.00     0.186 C 
HETATM   20  C1  UNL     1      16.318   2.734  16.483  1.00  0.00     0.281 C 
HETATM   21  O1  UNL     1      17.244   2.143  16.099  1.00  0.00    -0.263 OA
HETATM   22  O2  UNL     1      15.883   2.778  17.801  1.00  0.00    -0.320 OA
HETATM   23  C2  UNL     1      14.755   3.605  17.944  1.00  0.00     0.181 C 
HETATM   24  C3  UNL     1      14.253   3.855  16.547  1.00  0.00     0.062 C 
ENDBRANCH  16  19
ENDBRANCH   1  15
TORSDOF 3
ENDMDL
MODEL 4
REMARK VINA RESULT: -8.308541606      0.648      1.911
REMARK  3 active torsions:
REMARK  status: ('A' for Active; 'I' for Inactive)
REMARK    1  A    between atoms: C4_6  and  N1_7 
REMARK       I    between atoms: N1_7  and  C5_9 
REMARK    2  A    between atoms: C5_9  and  C6_11 
REMARK    3  A    between atoms: C8_13  and  C14_19 
ROOT
HETATM    1  C6  UNL     1      16.953   6.198  13.482  1.00  0.00     0.045 C 
HETATM    2  C7  UNL     1      16.241   6.990  12.384  1.00  0.00     0.024 C 
HETATM    3  C8  UNL     1      17.413   7.278  11.436  1.00  0.00    -0.008 C 
HETATM    4  C9  UNL     1      18.094   5.963  11.458  1.00  0.00     0.011 C 
HETATM    5  C10 UNL     1      18.234   5.683  12.902  1.00  0.00     0.004 C 
HETATM    6  C11 UNL     1      19.479   6.168  13.551  1.00  0.00     0.011 C 
HETATM    7  C12 UNL     1      19.866   7.578  13.399  1.00  0.00    -0.009 C 
HETATM    8  C13 UNL     1      19.707   8.123  11.994  1.00  0.00     0.010 C 
HETATM    9  C14 UNL     1      18.222   8.443  11.879  1.00  0.00    -0.006 C 
HETATM   10  C15 UNL     1      17.734   9.149  13.077  1.00  0.00    -0.005 C 
HETATM   11  C16 UNL     1      18.904   9.899  13.738  1.00  0.00     0.011 C 
HETATM   12  C17 UNL     1      19.251   8.554  14.347  1.00  0.00    -0.006 C 
HETATM   13  C18 UNL     1      17.723   8.453  14.366  1.00  0.00    -0.004 C 
HETATM   14  C19 UNL     1      17.157   7.174  14.599  1.00  0.00     0.025 C 
ENDROOT
BRANCH   1  15
HETATM   15  C5  UNL     1      16.069   5.126  14.002  1.00  0.00     0.227 C 
HETATM   16  N1  UNL     1      15.915   4.791  15.365  1.00  0.00    -0.346 N 
ATOM     17  H1  UNL     1      16.446   5.316  16.060  1.00  0.00     0.163 HD
HETATM   18  O3  UNL     1      15.398   4.459  13.136  1.00  0.00    -0.273 OA
BRANCH  16  19
HETATM   19  C4  UNL     1      15.037   3.736  15.816  1.00  0.00     0.186 C 
HETATM   20  C1  UNL     1      15.790   2.503  16.167  1.00  0.00     0.281 C 
HETATM   21  O1  UNL     1      16.310   1.788  15.410  1.00  0.00    -0.263 OA
HETATM   22  O2  UNL     1      15.772   2.338  17.546  1.00  0.00    -0.320 OA
HETATM   23  C2  UNL     1      15.087   3.389  18.181  1.00  0.00     0.181 C 
HETATM   24  C3  UNL     1      14.345   4.112  17.088  1.00  0.00     0.062 C 
ENDBRANCH  16  19
ENDBRANCH   1  15
TORSDOF 3
ENDMDL
MODEL 5
REMARK VINA RESULT: -8.024805194      0.729      2.268
REMARK  3 active torsions:
REMARK  status: ('A' for Active; 'I' for Inactive)
REMARK    1  A    between atoms: C4_6  and  N1_7 
REMARK       I    between atoms: N1_7  and  C5_9 
REMARK    2  A    between atoms: C5_9  and  C6_11 
REMARK    3  A    between atoms: C8_13  and  C14_19 
ROOT
HETATM    1  C6  UNL     1      17.067   6.102  13.375  1.00  0.00     0.045 C 
HETATM    2  C7  UNL     1      17.325   7.170  14.439  1.00  0.00     0.024 C 
HETATM    3  C8  UNL     1      17.392   8.431  13.566  1.00  0.00    -0.008 C 
HETATM    4  C9  UNL     1      16.262   8.169  12.645  1.00  0.00     0.011 C 
HETATM    5  C10 UNL     1      16.535   6.800  12.161  1.00  0.00     0.004 C 
HETATM    6  C11 UNL     1      17.363   6.685  10.934  1.00  0.00     0.011 C 
HETATM    7  C12 UNL     1      18.661   7.372  10.877  1.00  0.00    -0.009 C 
HETATM    8  C13 UNL     1      18.647   8.785  11.423  1.00  0.00     0.010 C 
HETATM    9  C14 UNL     1      18.726   8.606  12.934  1.00  0.00    -0.006 C 
HETATM   10  C15 UNL     1      19.749   7.612  13.301  1.00  0.00    -0.005 C 
HETATM   11  C16 UNL     1      20.819   7.552  12.196  1.00  0.00     0.011 C 
HETATM   12  C17 UNL     1      19.831   6.658  11.470  1.00  0.00    -0.006 C 
HETATM   13  C18 UNL     1      19.563   6.212  12.911  1.00  0.00    -0.004 C 
HETATM   14  C19 UNL     1      18.394   5.447  13.150  1.00  0.00     0.025 C 
ENDROOT
BRANCH   1  15
HETATM   15  C5  UNL     1      16.154   5.058  13.902  1.00  0.00     0.227 C 
HETATM   16  N1  UNL     1      15.991   4.737  15.267  1.00  0.00    -0.346 N 
ATOM     17  H1  UNL     1      16.535   5.252  15.959  1.00  0.00     0.163 HD
HETATM   18  O3  UNL     1      15.466   4.403  13.041  1.00  0.00    -0.273 OA
BRANCH  16  19
HETATM   19  C4  UNL     1      15.085   3.708  15.725  1.00  0.00     0.186 C 
HETATM   20  C1  UNL     1      15.807   2.468  16.110  1.00  0.00     0.281 C 
HETATM   21  O1  UNL     1      16.323   1.728  15.375  1.00  0.00    -0.263 OA
HETATM   22  O2  UNL     1      15.766   2.330  17.491  1.00  0.00    -0.320 OA
HETATM   23  C2  UNL     1      15.095   3.407  18.097  1.00  0.00     0.181 C 
HETATM   24  C3  UNL     1      14.383   4.123  16.980  1.00  0.00     0.062 C 
ENDBRANCH  16  19
ENDBRANCH   1  15
TORSDOF 3
ENDMDL
