MODEL 1
REMARK VINA RESULT: -5.966587967      0.000      0.000
REMARK  5 active torsions:
REMARK  status: ('A' for Active; 'I' for Inactive)
REMARK    1  A    between atoms: C2_2  and  S1_3 
REMARK    2  A    between atoms: S1_3  and  C3_4 
REMARK    3  A    between atoms: C8_15  and  O6_16 
REMARK    4  A    between atoms: C8_15  and  C9_18 
REMARK    5  A    between atoms: C14_23  and  O7_24 
ROOT
HETATM    1  C3  UNL     1      11.737  23.676   4.344  1.00  0.00     0.267 C 
HETATM    2  C4  UNL     1      12.702  22.680   4.795  1.00  0.00     0.231 A 
HETATM    3  O1  UNL     1      12.225  22.222   6.053  1.00  0.00    -0.324 OA
HETATM    4  C5  UNL     1      11.158  21.365   5.939  1.00  0.00     0.363 C 
HETATM    5  O2  UNL     1       9.974  21.913   5.510  1.00  0.00    -0.248 OA
HETATM    6  S2  UNL     1      10.159  22.835   4.116  1.00  0.00     0.286 S 
HETATM    7  O3  UNL     1      10.131  22.039   2.872  1.00  0.00    -0.197 OA
HETATM    8  O4  UNL     1       9.119  23.946   4.120  1.00  0.00    -0.197 OA
HETATM    9  O5  UNL     1      13.121  21.607   4.090  1.00  0.00    -0.333 OA
HETATM   10  C6  UNL     1      14.509  21.870   4.172  1.00  0.00     0.129 A 
HETATM   11  C7  UNL     1      15.086  21.696   2.828  1.00  0.00     0.053 C 
HETATM   12  C8  UNL     1      15.231  21.387   5.350  1.00  0.00     0.101 A 
HETATM   13  C13 UNL     1      14.770  22.614   6.100  1.00  0.00     0.088 A 
HETATM   14  C14 UNL     1      14.160  23.096   4.811  1.00  0.00     0.153 A 
ENDROOT
BRANCH   1  15
HETATM   15  S1  UNL     1      12.127  24.780   3.033  1.00  0.00    -0.114 SA
BRANCH  15  16
HETATM   16  C2  UNL     1      11.055  24.756   1.632  1.00  0.00     0.036 C 
HETATM   17  C1  UNL     1      11.302  25.522   0.593  1.00  0.00     0.018 C 
ENDBRANCH  15  16
ENDBRANCH   1  15
BRANCH  14  18
HETATM   18  O7  UNL     1      14.458  24.327   4.374  1.00  0.00    -0.381 OA
ATOM     19  H7  UNL     1      14.069  24.607   3.553  1.00  0.00     0.211 HD
ENDBRANCH  14  18
BRANCH  12  20
HETATM   20  O6  UNL     1      14.584  20.242   5.872  1.00  0.00    -0.386 OA
ATOM     21  H6  UNL     1      15.200  19.520   5.925  1.00  0.00     0.210 HD
ENDBRANCH  12  20
BRANCH  12  22
HETATM   22  C9  UNL     1      16.685  21.230   5.392  1.00  0.00    -0.017 C 
HETATM   23  C10 UNL     1      16.961  19.713   5.533  1.00  0.00     0.018 C 
HETATM   24  C11 UNL     1      17.377  21.829   6.600  1.00  0.00     0.018 C 
HETATM   25  C12 UNL     1      17.481  21.653   4.210  1.00  0.00     0.018 C 
ENDBRANCH  12  22
TORSDOF 5
ENDMDL
MODEL 2
REMARK VINA RESULT: -5.251494105      3.129      5.887
REMARK  5 active torsions:
REMARK  status: ('A' for Active; 'I' for Inactive)
REMARK    1  A    between atoms: C2_2  and  S1_3 
REMARK    2  A    between atoms: S1_3  and  C3_4 
REMARK    3  A    between atoms: C8_15  and  O6_16 
REMARK    4  A    between atoms: C8_15  and  C9_18 
REMARK    5  A    between atoms: C14_23  and  O7_24 
ROOT
HETATM    1  C3  UNL     1      13.513  21.136   5.597  1.00  0.00     0.267 C 
HETATM    2  C4  UNL     1      12.210  20.805   5.032  1.00  0.00     0.231 A 
HETATM    3  O1  UNL     1      11.267  21.586   5.752  1.00  0.00    -0.324 OA
HETATM    4  C5  UNL     1      11.268  22.907   5.375  1.00  0.00     0.363 C 
HETATM    5  O2  UNL     1      12.377  23.641   5.718  1.00  0.00    -0.248 OA
HETATM    6  S2  UNL     1      13.812  22.885   5.274  1.00  0.00     0.286 S 
HETATM    7  O3  UNL     1      14.201  23.130   3.870  1.00  0.00    -0.197 OA
HETATM    8  O4  UNL     1      14.903  23.283   6.259  1.00  0.00    -0.197 OA
HETATM    9  O5  UNL     1      11.879  20.850   3.723  1.00  0.00    -0.333 OA
HETATM   10  C6  UNL     1      11.412  19.519   3.611  1.00  0.00     0.129 A 
HETATM   11  C7  UNL     1      11.994  18.933   2.392  1.00  0.00     0.053 C 
HETATM   12  C8  UNL     1      10.017  19.249   3.962  1.00  0.00     0.101 A 
HETATM   13  C13 UNL     1      10.427  19.175   5.413  1.00  0.00     0.088 A 
HETATM   14  C14 UNL     1      11.852  19.333   4.955  1.00  0.00     0.153 A 
ENDROOT
BRANCH   1  15
HETATM   15  S1  UNL     1      14.916  20.126   5.281  1.00  0.00    -0.114 SA
BRANCH  15  16
HETATM   16  C2  UNL     1      16.485  20.777   5.759  1.00  0.00     0.036 C 
HETATM   17  C1  UNL     1      17.333  21.203   4.849  1.00  0.00     0.018 C 
ENDBRANCH  15  16
ENDBRANCH   1  15
BRANCH  14  18
HETATM   18  O7  UNL     1      12.768  18.450   5.371  1.00  0.00    -0.381 OA
ATOM     19  H7  UNL     1      13.117  18.559   6.247  1.00  0.00     0.211 HD
ENDBRANCH  14  18
BRANCH  12  20
HETATM   20  O6  UNL     1       9.236  20.411   3.749  1.00  0.00    -0.386 OA
ATOM     21  H6  UNL     1       8.608  20.510   4.455  1.00  0.00     0.210 HD
ENDBRANCH  12  20
BRANCH  12  22
HETATM   22  C9  UNL     1       9.298  18.051   3.530  1.00  0.00    -0.017 C 
HETATM   23  C10 UNL     1       8.017  18.539   2.811  1.00  0.00     0.018 C 
HETATM   24  C11 UNL     1       8.765  17.167   4.641  1.00  0.00     0.018 C 
HETATM   25  C12 UNL     1       9.955  17.138   2.558  1.00  0.00     0.018 C 
ENDBRANCH  12  22
TORSDOF 5
ENDMDL
MODEL 3
REMARK VINA RESULT: -5.106275656      1.179      1.226
REMARK  5 active torsions:
REMARK  status: ('A' for Active; 'I' for Inactive)
REMARK    1  A    between atoms: C2_2  and  S1_3 
REMARK    2  A    between atoms: S1_3  and  C3_4 
REMARK    3  A    between atoms: C8_15  and  O6_16 
REMARK    4  A    between atoms: C8_15  and  C9_18 
REMARK    5  A    between atoms: C14_23  and  O7_24 
ROOT
HETATM    1  C3  UNL     1      11.476  23.122   4.851  1.00  0.00     0.267 C 
HETATM    2  C4  UNL     1      12.544  22.134   4.738  1.00  0.00     0.231 A 
HETATM    3  O1  UNL     1      11.999  20.919   5.232  1.00  0.00    -0.324 OA
HETATM    4  C5  UNL     1      11.139  20.320   4.344  1.00  0.00     0.363 C 
HETATM    5  O2  UNL     1       9.941  20.954   4.129  1.00  0.00    -0.248 OA
HETATM    6  S2  UNL     1      10.131  22.587   3.776  1.00  0.00     0.286 S 
HETATM    7  O3  UNL     1      10.421  22.855   2.352  1.00  0.00    -0.197 OA
HETATM    8  O4  UNL     1       8.908  23.344   4.273  1.00  0.00    -0.197 OA
HETATM    9  O5  UNL     1      13.249  21.854   3.621  1.00  0.00    -0.333 OA
HETATM   10  C6  UNL     1      14.539  22.058   4.167  1.00  0.00     0.129 A 
HETATM   11  C7  UNL     1      15.312  22.877   3.218  1.00  0.00     0.053 C 
HETATM   12  C8  UNL     1      15.176  20.937   4.860  1.00  0.00     0.101 A 
HETATM   13  C13 UNL     1      14.394  21.297   6.101  1.00  0.00     0.088 A 
HETATM   14  C14 UNL     1      13.881  22.499   5.354  1.00  0.00     0.153 A 
ENDROOT
BRANCH   1  15
HETATM   15  S1  UNL     1      11.821  24.840   4.723  1.00  0.00    -0.114 SA
BRANCH  15  16
HETATM   16  C2  UNL     1      12.694  25.369   3.284  1.00  0.00     0.036 C 
HETATM   17  C1  UNL     1      12.055  25.553   2.150  1.00  0.00     0.018 C 
ENDBRANCH  15  16
ENDBRANCH   1  15
BRANCH  14  18
HETATM   18  O7  UNL     1      13.995  23.709   5.917  1.00  0.00    -0.381 OA
ATOM     19  H7  UNL     1      14.405  23.759   6.772  1.00  0.00     0.211 HD
ENDBRANCH  14  18
BRANCH  12  20
HETATM   20  O6  UNL     1      14.694  19.714   4.334  1.00  0.00    -0.386 OA
ATOM     21  H6  UNL     1      15.422  19.127   4.168  1.00  0.00     0.210 HD
ENDBRANCH  12  20
BRANCH  12  22
HETATM   22  C9  UNL     1      16.614  20.865   5.116  1.00  0.00    -0.017 C 
HETATM   23  C10 UNL     1      16.954  19.367   5.310  1.00  0.00     0.018 C 
HETATM   24  C11 UNL     1      17.085  21.504   6.407  1.00  0.00     0.018 C 
HETATM   25  C12 UNL     1      17.550  21.333   4.060  1.00  0.00     0.018 C 
ENDBRANCH  12  22
TORSDOF 5
ENDMDL
MODEL 4
REMARK VINA RESULT: -4.743392672      1.909      3.456
REMARK  5 active torsions:
REMARK  status: ('A' for Active; 'I' for Inactive)
REMARK    1  A    between atoms: C2_2  and  S1_3 
REMARK    2  A    between atoms: S1_3  and  C3_4 
REMARK    3  A    between atoms: C8_15  and  O6_16 
REMARK    4  A    between atoms: C8_15  and  C9_18 
REMARK    5  A    between atoms: C14_23  and  O7_24 
ROOT
HETATM    1  C3  UNL     1      11.579  20.993   3.770  1.00  0.00     0.267 C 
HETATM    2  C4  UNL     1      12.797  21.488   4.402  1.00  0.00     0.231 A 
HETATM    3  O1  UNL     1      12.831  22.883   4.133  1.00  0.00    -0.324 OA
HETATM    4  C5  UNL     1      11.952  23.598   4.909  1.00  0.00     0.363 C 
HETATM    5  O2  UNL     1      10.616  23.418   4.645  1.00  0.00    -0.248 OA
HETATM    6  S2  UNL     1      10.184  21.795   4.584  1.00  0.00     0.286 S 
HETATM    7  O3  UNL     1       9.905  21.206   5.910  1.00  0.00    -0.197 OA
HETATM    8  O4  UNL     1       9.020  21.632   3.617  1.00  0.00    -0.197 OA
HETATM    9  O5  UNL     1      13.154  21.300   5.691  1.00  0.00    -0.333 OA
HETATM   10  C6  UNL     1      14.427  20.734   5.444  1.00  0.00     0.129 A 
HETATM   11  C7  UNL     1      14.569  19.543   6.298  1.00  0.00     0.053 C 
HETATM   12  C8  UNL     1      15.558  21.643   5.256  1.00  0.00     0.101 A 
HETATM   13  C13 UNL     1      15.149  21.806   3.811  1.00  0.00     0.088 A 
HETATM   14  C14 UNL     1      14.088  20.768   4.059  1.00  0.00     0.153 A 
ENDROOT
BRANCH   1  15
HETATM   15  S1  UNL     1      11.333  19.272   3.513  1.00  0.00    -0.114 SA
BRANCH  15  16
HETATM   16  C2  UNL     1       9.997  18.523   4.390  1.00  0.00     0.036 C 
HETATM   17  C1  UNL     1       9.025  17.927   3.738  1.00  0.00     0.018 C 
ENDBRANCH  15  16
ENDBRANCH   1  15
BRANCH  14  18
HETATM   18  O7  UNL     1      14.009  19.713   3.239  1.00  0.00    -0.381 OA
ATOM     19  H7  UNL     1      14.184  19.859   2.317  1.00  0.00     0.211 HD
ENDBRANCH  14  18
BRANCH  12  20
HETATM   20  O6  UNL     1      15.322  22.852   5.954  1.00  0.00    -0.386 OA
ATOM     21  H6  UNL     1      16.085  23.076   6.475  1.00  0.00     0.210 HD
ENDBRANCH  12  20
BRANCH  12  22
HETATM   22  C9  UNL     1      16.954  21.226   5.390  1.00  0.00    -0.017 C 
HETATM   23  C10 UNL     1      17.677  21.683   4.100  1.00  0.00     0.018 C 
HETATM   24  C11 UNL     1      17.194  19.730   5.418  1.00  0.00     0.018 C 
HETATM   25  C12 UNL     1      17.762  21.794   6.500  1.00  0.00     0.018 C 
ENDBRANCH  12  22
TORSDOF 5
ENDMDL
MODEL 5
REMARK VINA RESULT: -4.655070707      2.693      5.824
REMARK  5 active torsions:
REMARK  status: ('A' for Active; 'I' for Inactive)
REMARK    1  A    between atoms: C2_2  and  S1_3 
REMARK    2  A    between atoms: S1_3  and  C3_4 
REMARK    3  A    between atoms: C8_15  and  O6_16 
REMARK    4  A    between atoms: C8_15  and  C9_18 
REMARK    5  A    between atoms: C14_23  and  O7_24 
ROOT
HETATM    1  C3  UNL     1      15.712  20.065   4.764  1.00  0.00     0.267 C 
HETATM    2  C4  UNL     1      14.368  20.581   4.997  1.00  0.00     0.231 A 
HETATM    3  O1  UNL     1      13.483  19.525   4.648  1.00  0.00    -0.324 OA
HETATM    4  C5  UNL     1      13.435  18.534   5.598  1.00  0.00     0.363 C 
HETATM    5  O2  UNL     1      14.561  17.760   5.733  1.00  0.00    -0.248 OA
HETATM    6  S2  UNL     1      15.960  18.679   5.891  1.00  0.00     0.286 S 
HETATM    7  O3  UNL     1      16.219  19.131   7.274  1.00  0.00    -0.197 OA
HETATM    8  O4  UNL     1      17.129  17.901   5.304  1.00  0.00    -0.197 OA
HETATM    9  O5  UNL     1      13.921  21.142   6.141  1.00  0.00    -0.333 OA
HETATM   10  C6  UNL     1      13.462  22.357   5.578  1.00  0.00     0.129 A 
HETATM   11  C7  UNL     1      13.941  23.462   6.425  1.00  0.00     0.053 C 
HETATM   12  C8  UNL     1      12.107  22.388   5.025  1.00  0.00     0.101 A 
HETATM   13  C13 UNL     1      12.646  21.788   3.747  1.00  0.00     0.088 A 
HETATM   14  C14 UNL     1      14.022  21.907   4.345  1.00  0.00     0.153 A 
ENDROOT
BRANCH   1  15
HETATM   15  S1  UNL     1      17.093  21.149   4.688  1.00  0.00    -0.114 SA
BRANCH  15  16
HETATM   16  C2  UNL     1      17.777  21.670   6.229  1.00  0.00     0.036 C 
HETATM   17  C1  UNL     1      17.098  22.470   7.020  1.00  0.00     0.018 C 
ENDBRANCH  15  16
ENDBRANCH   1  15
BRANCH  14  18
HETATM   18  O7  UNL     1      14.983  22.522   3.644  1.00  0.00    -0.381 OA
ATOM     19  H7  UNL     1      14.834  23.426   3.394  1.00  0.00     0.211 HD
ENDBRANCH  14  18
BRANCH  12  20
HETATM   20  O6  UNL     1      11.297  21.437   5.690  1.00  0.00    -0.386 OA
ATOM     21  H6  UNL     1      11.342  20.603   5.236  1.00  0.00     0.210 HD
ENDBRANCH  12  20
BRANCH  12  22
HETATM   22  C9  UNL     1      11.367  23.626   4.783  1.00  0.00    -0.017 C 
HETATM   23  C10 UNL     1      10.054  23.224   4.069  1.00  0.00     0.018 C 
HETATM   24  C11 UNL     1      12.011  24.600   3.816  1.00  0.00     0.018 C 
HETATM   25  C12 UNL     1      10.932  24.435   5.952  1.00  0.00     0.018 C 
ENDBRANCH  12  22
TORSDOF 5
ENDMDL
