MODEL 1
REMARK VINA RESULT: -7.960399187      0.000      0.000
REMARK  14 active torsions:
REMARK  status: ('A' for Active; 'I' for Inactive)
REMARK    1  A    between atoms: C2_2  and  C3_3 
REMARK    2  A    between atoms: C3_3  and  C4_4 
REMARK    3  A    between atoms: C4_4  and  C5_5 
REMARK    4  A    between atoms: C5_5  and  C6_6 
REMARK    5  A    between atoms: C6_6  and  C7_7 
REMARK    6  A    between atoms: C7_7  and  C8_8 
REMARK       I    between atoms: C8_8  and  N1_10 
REMARK    7  A    between atoms: N1_10  and  C9_12 
REMARK    8  A    between atoms: C10_13  and  O2_14 
REMARK    9  A    between atoms: C11_16  and  O3_17 
REMARK   10  A    between atoms: C20_29  and  C21_30 
REMARK   11  A    between atoms: C21_30  and  C22_31 
REMARK   12  A    between atoms: C22_31  and  C23_32 
REMARK   13  A    between atoms: C23_32  and  N3_33 
REMARK   14  A    between atoms: N3_33  and  C26_36 
ROOT
HETATM    1  C9  UNL     1    -147.160-173.452 359.924  1.00  0.00     0.120 C 
HETATM    2  C10 UNL     1    -147.988-172.313 359.544  1.00  0.00     0.170 C 
HETATM    3  C11 UNL     1    -149.100-171.997 360.483  1.00  0.00     0.157 C 
HETATM    4  C12 UNL     1    -149.781-173.182 361.080  1.00  0.00     0.052 C 
HETATM    5  C13 UNL     1    -150.991-173.502 360.472  1.00  0.00    -0.013 C 
HETATM    6  C14 UNL     1    -150.389-174.309 359.321  1.00  0.00     0.066 A 
HETATM    7  N2  UNL     1    -150.830-174.326 358.446  1.00  0.00    -0.394 N 
ATOM      8  H2  UNL     1    -151.502-174.136 357.703  1.00  0.00     0.155 HD
HETATM    9  C15 UNL     1    -149.784-174.812 359.083  1.00  0.00     0.066 A 
HETATM   10  C16 UNL     1    -149.055-175.616 358.254  1.00  0.00    -0.006 A 
HETATM   11  C17 UNL     1    -149.118-175.217 359.219  1.00  0.00     0.035 A 
HETATM   12  C18 UNL     1    -148.002-175.633 360.175  1.00  0.00     0.026 C 
HETATM   13  C19 UNL     1    -147.916-174.362 360.797  1.00  0.00     0.026 C 
HETATM   14  C20 UNL     1    -149.404-174.514 360.641  1.00  0.00     0.021 A 
ENDROOT
BRANCH   1  15
HETATM   15  N1  UNL     1    -146.072-173.021 360.794  1.00  0.00    -0.353 N 
HETATM   16  C8  UNL     1    -144.802-172.595 360.374  1.00  0.00     0.217 C 
HETATM   17  O1  UNL     1    -144.527-172.564 359.164  1.00  0.00    -0.274 OA
ATOM     18  H1  UNL     1    -146.250-173.029 361.798  1.00  0.00     0.163 HD
BRANCH  16  19
HETATM   19  C7  UNL     1    -143.754-172.177 361.332  1.00  0.00     0.103 C 
BRANCH  19  20
HETATM   20  C6  UNL     1    -142.582-171.500 360.687  1.00  0.00     0.009 C 
BRANCH  20  21
HETATM   21  C5  UNL     1    -141.634-171.106 361.824  1.00  0.00     0.000 C 
BRANCH  21  22
HETATM   22  C4  UNL     1    -140.283-170.784 361.217  1.00  0.00     0.000 C 
BRANCH  22  23
HETATM   23  C3  UNL     1    -139.188-170.896 362.261  1.00  0.00    -0.000 C 
BRANCH  23  24
HETATM   24  C2  UNL     1    -139.606-171.901 363.328  1.00  0.00    -0.005 C 
HETATM   25  C1  UNL     1    -138.635-173.042 363.433  1.00  0.00     0.005 C 
ENDBRANCH  23  24
ENDBRANCH  22  23
ENDBRANCH  21  22
ENDBRANCH  20  21
ENDBRANCH  19  20
ENDBRANCH  16  19
ENDBRANCH   1  15
BRANCH   2  26
HETATM   26  O2  UNL     1    -147.222-171.163 359.420  1.00  0.00    -0.391 OA
ATOM     27  H2  UNL     1    -147.736-170.389 359.617  1.00  0.00     0.210 HD
ENDBRANCH   2  26
BRANCH   3  28
HETATM   28  O3  UNL     1    -149.982-171.194 359.772  1.00  0.00    -0.392 OA
ATOM     29  H3  UNL     1    -149.687-171.220 358.869  1.00  0.00     0.210 HD
ENDBRANCH   3  28
BRANCH  14  30
HETATM   30  C21 UNL     1    -150.004-175.515 361.526  1.00  0.00     0.017 C 
BRANCH  30  31
HETATM   31  C22 UNL     1    -149.907-175.104 362.943  1.00  0.00     0.029 C 
BRANCH  31  32
HETATM   32  C23 UNL     1    -150.874-176.057 363.673  1.00  0.00     0.238 C 
BRANCH  32  33
HETATM   33  N3  UNL     1    -150.156-176.992 364.471  1.00  0.00    -0.062 N 
HETATM   34  C24 UNL     1    -150.943-177.444 365.629  1.00  0.00     0.273 C 
HETATM   35  C25 UNL     1    -148.891-176.518 364.963  1.00  0.00     0.273 C 
BRANCH  33  36
HETATM   36  C26 UNL     1    -149.900-178.162 363.652  1.00  0.00     0.350 C 
HETATM   37 CL1  UNL     1    -150.168-179.666 364.530  1.00  0.00    -0.101 Cl
ENDBRANCH  33  36
ENDBRANCH  32  33
ENDBRANCH  31  32
ENDBRANCH  30  31
ENDBRANCH  14  30
TORSDOF 14
ENDMDL
MODEL 2
REMARK VINA RESULT: -7.879253265      3.938      7.878
REMARK  14 active torsions:
REMARK  status: ('A' for Active; 'I' for Inactive)
REMARK    1  A    between atoms: C2_2  and  C3_3 
REMARK    2  A    between atoms: C3_3  and  C4_4 
REMARK    3  A    between atoms: C4_4  and  C5_5 
REMARK    4  A    between atoms: C5_5  and  C6_6 
REMARK    5  A    between atoms: C6_6  and  C7_7 
REMARK    6  A    between atoms: C7_7  and  C8_8 
REMARK       I    between atoms: C8_8  and  N1_10 
REMARK    7  A    between atoms: N1_10  and  C9_12 
REMARK    8  A    between atoms: C10_13  and  O2_14 
REMARK    9  A    between atoms: C11_16  and  O3_17 
REMARK   10  A    between atoms: C20_29  and  C21_30 
REMARK   11  A    between atoms: C21_30  and  C22_31 
REMARK   12  A    between atoms: C22_31  and  C23_32 
REMARK   13  A    between atoms: C23_32  and  N3_33 
REMARK   14  A    between atoms: N3_33  and  C26_36 
ROOT
HETATM    1  C9  UNL     1    -148.003-173.385 360.494  1.00  0.00     0.120 C 
HETATM    2  C10 UNL     1    -146.593-173.121 360.235  1.00  0.00     0.170 C 
HETATM    3  C11 UNL     1    -146.110-171.779 360.667  1.00  0.00     0.157 C 
HETATM    4  C12 UNL     1    -147.075-170.661 360.459  1.00  0.00     0.052 C 
HETATM    5  C13 UNL     1    -146.811-169.891 359.330  1.00  0.00    -0.013 C 
HETATM    6  C14 UNL     1    -147.516-170.813 358.333  1.00  0.00     0.066 A 
HETATM    7  N2  UNL     1    -147.190-170.884 357.412  1.00  0.00    -0.394 N 
ATOM      8  H2  UNL     1    -146.623-170.738 356.577  1.00  0.00     0.155 HD
HETATM    9  C15 UNL     1    -148.138-171.336 358.208  1.00  0.00     0.066 A 
HETATM   10  C16 UNL     1    -148.953-172.200 357.534  1.00  0.00    -0.006 A 
HETATM   11  C17 UNL     1    -148.771-171.739 358.456  1.00  0.00     0.035 A 
HETATM   12  C18 UNL     1    -149.747-172.102 359.574  1.00  0.00     0.026 C 
HETATM   13  C19 UNL     1    -148.750-172.122 360.582  1.00  0.00     0.026 C 
HETATM   14  C20 UNL     1    -148.330-170.924 359.775  1.00  0.00     0.021 A 
ENDROOT
BRANCH   1  15
HETATM   15  N1  UNL     1    -148.179-173.943 361.829  1.00  0.00    -0.353 N 
HETATM   16  C8  UNL     1    -149.177-174.851 362.218  1.00  0.00     0.217 C 
HETATM   17  O1  UNL     1    -150.011-175.247 361.389  1.00  0.00    -0.274 OA
ATOM     18  H1  UNL     1    -147.517-173.647 362.546  1.00  0.00     0.163 HD
BRANCH  16  19
HETATM   19  C7  UNL     1    -149.281-175.364 363.601  1.00  0.00     0.103 C 
BRANCH  19  20
HETATM   20  C6  UNL     1    -150.418-176.319 363.808  1.00  0.00     0.009 C 
BRANCH  20  21
HETATM   21  C5  UNL     1    -149.995-177.251 364.948  1.00  0.00     0.000 C 
BRANCH  21  22
HETATM   22  C4  UNL     1    -150.730-178.565 364.776  1.00  0.00     0.000 C 
BRANCH  22  23
HETATM   23  C3  UNL     1    -151.076-178.796 363.317  1.00  0.00    -0.000 C 
BRANCH  23  24
HETATM   24  C2  UNL     1    -150.358-180.043 362.816  1.00  0.00    -0.005 C 
HETATM   25  C1  UNL     1    -149.680-180.786 363.932  1.00  0.00     0.005 C 
ENDBRANCH  23  24
ENDBRANCH  22  23
ENDBRANCH  21  22
ENDBRANCH  20  21
ENDBRANCH  19  20
ENDBRANCH  16  19
ENDBRANCH   1  15
BRANCH   2  26
HETATM   26  O2  UNL     1    -145.789-174.063 360.862  1.00  0.00    -0.391 OA
ATOM     27  H2  UNL     1    -146.275-174.861 361.037  1.00  0.00     0.210 HD
ENDBRANCH   2  26
BRANCH   3  28
HETATM   28  O3  UNL     1    -144.917-171.568 359.990  1.00  0.00    -0.392 OA
ATOM     29  H3  UNL     1    -145.057-170.799 359.449  1.00  0.00     0.210 HD
ENDBRANCH   3  28
BRANCH  14  30
HETATM   30  C21 UNL     1    -149.218-169.767 359.906  1.00  0.00     0.017 C 
BRANCH  30  31
HETATM   31  C22 UNL     1    -149.062-169.121 361.228  1.00  0.00     0.029 C 
BRANCH  31  32
HETATM   32  C23 UNL     1    -149.624-167.701 361.015  1.00  0.00     0.238 C 
BRANCH  32  33
HETATM   33  N3  UNL     1    -150.013-167.120 362.255  1.00  0.00    -0.062 N 
HETATM   34  C24 UNL     1    -151.408-166.653 362.229  1.00  0.00     0.273 C 
HETATM   35  C25 UNL     1    -149.195-166.019 362.687  1.00  0.00     0.273 C 
BRANCH  33  36
HETATM   36  C26 UNL     1    -149.932-168.153 363.270  1.00  0.00     0.350 C 
HETATM   37 CL1  UNL     1    -151.027-167.856 364.618  1.00  0.00    -0.101 Cl
ENDBRANCH  33  36
ENDBRANCH  32  33
ENDBRANCH  31  32
ENDBRANCH  30  31
ENDBRANCH  14  30
TORSDOF 14
ENDMDL
MODEL 3
REMARK VINA RESULT: -7.865413055      4.157      8.203
REMARK  14 active torsions:
REMARK  status: ('A' for Active; 'I' for Inactive)
REMARK    1  A    between atoms: C2_2  and  C3_3 
REMARK    2  A    between atoms: C3_3  and  C4_4 
REMARK    3  A    between atoms: C4_4  and  C5_5 
REMARK    4  A    between atoms: C5_5  and  C6_6 
REMARK    5  A    between atoms: C6_6  and  C7_7 
REMARK    6  A    between atoms: C7_7  and  C8_8 
REMARK       I    between atoms: C8_8  and  N1_10 
REMARK    7  A    between atoms: N1_10  and  C9_12 
REMARK    8  A    between atoms: C10_13  and  O2_14 
REMARK    9  A    between atoms: C11_16  and  O3_17 
REMARK   10  A    between atoms: C20_29  and  C21_30 
REMARK   11  A    between atoms: C21_30  and  C22_31 
REMARK   12  A    between atoms: C22_31  and  C23_32 
REMARK   13  A    between atoms: C23_32  and  N3_33 
REMARK   14  A    between atoms: N3_33  and  C26_36 
ROOT
HETATM    1  C9  UNL     1    -148.004-173.341 360.411  1.00  0.00     0.120 C 
HETATM    2  C10 UNL     1    -146.586-173.122 360.153  1.00  0.00     0.170 C 
HETATM    3  C11 UNL     1    -146.055-171.807 360.610  1.00  0.00     0.157 C 
HETATM    4  C12 UNL     1    -146.980-170.652 360.428  1.00  0.00     0.052 C 
HETATM    5  C13 UNL     1    -146.692-169.869 359.315  1.00  0.00    -0.013 C 
HETATM    6  C14 UNL     1    -147.432-170.744 358.302  1.00  0.00     0.066 A 
HETATM    7  N2  UNL     1    -147.112-170.807 357.378  1.00  0.00    -0.394 N 
ATOM      8  H2  UNL     1    -146.542-170.664 356.545  1.00  0.00     0.155 HD
HETATM    9  C15 UNL     1    -148.072-171.242 358.168  1.00  0.00     0.066 A 
HETATM   10  C16 UNL     1    -148.920-172.062 357.480  1.00  0.00    -0.006 A 
HETATM   11  C17 UNL     1    -148.719-171.628 358.410  1.00  0.00     0.035 A 
HETATM   12  C18 UNL     1    -149.704-171.978 359.524  1.00  0.00     0.026 C 
HETATM   13  C19 UNL     1    -148.706-172.054 360.528  1.00  0.00     0.026 C 
HETATM   14  C20 UNL     1    -148.245-170.856 359.744  1.00  0.00     0.021 A 
ENDROOT
BRANCH   1  15
HETATM   15  N1  UNL     1    -148.196-173.920 361.735  1.00  0.00    -0.353 N 
HETATM   16  C8  UNL     1    -149.202-174.830 362.099  1.00  0.00     0.217 C 
HETATM   17  O1  UNL     1    -150.030-175.208 361.255  1.00  0.00    -0.274 OA
ATOM     18  H1  UNL     1    -147.540-173.639 362.464  1.00  0.00     0.163 HD
BRANCH  16  19
HETATM   19  C7  UNL     1    -149.322-175.364 363.473  1.00  0.00     0.103 C 
BRANCH  19  20
HETATM   20  C6  UNL     1    -150.455-176.330 363.648  1.00  0.00     0.009 C 
BRANCH  20  21
HETATM   21  C5  UNL     1    -150.193-177.066 364.966  1.00  0.00     0.000 C 
BRANCH  21  22
HETATM   22  C4  UNL     1    -150.691-178.489 364.815  1.00  0.00     0.000 C 
BRANCH  22  23
HETATM   23  C3  UNL     1    -151.128-178.753 363.387  1.00  0.00    -0.000 C 
BRANCH  23  24
HETATM   24  C2  UNL     1    -150.426-180.000 362.864  1.00  0.00    -0.005 C 
HETATM   25  C1  UNL     1    -149.674-180.717 363.948  1.00  0.00     0.005 C 
ENDBRANCH  23  24
ENDBRANCH  22  23
ENDBRANCH  21  22
ENDBRANCH  20  21
ENDBRANCH  19  20
ENDBRANCH  16  19
ENDBRANCH   1  15
BRANCH   2  26
HETATM   26  O2  UNL     1    -145.814-174.104 360.757  1.00  0.00    -0.391 OA
ATOM     27  H2  UNL     1    -146.281-174.504 361.483  1.00  0.00     0.210 HD
ENDBRANCH   2  26
BRANCH   3  28
HETATM   28  O3  UNL     1    -144.856-171.624 359.933  1.00  0.00    -0.392 OA
ATOM     29  H3  UNL     1    -144.186-172.018 360.480  1.00  0.00     0.210 HD
ENDBRANCH   3  28
BRANCH  14  30
HETATM   30  C21 UNL     1    -149.091-169.671 359.902  1.00  0.00     0.017 C 
BRANCH  30  31
HETATM   31  C22 UNL     1    -148.857-169.017 361.208  1.00  0.00     0.029 C 
BRANCH  31  32
HETATM   32  C23 UNL     1    -149.694-167.725 361.132  1.00  0.00     0.238 C 
BRANCH  32  33
HETATM   33  N3  UNL     1    -148.861-166.575 361.225  1.00  0.00    -0.062 N 
HETATM   34  C24 UNL     1    -149.399-165.581 362.166  1.00  0.00     0.273 C 
HETATM   35  C25 UNL     1    -148.619-165.904 359.976  1.00  0.00     0.273 C 
BRANCH  33  36
HETATM   36  C26 UNL     1    -147.579-167.003 361.750  1.00  0.00     0.350 C 
HETATM   37 CL1  UNL     1    -146.238-166.545 360.703  1.00  0.00    -0.101 Cl
ENDBRANCH  33  36
ENDBRANCH  32  33
ENDBRANCH  31  32
ENDBRANCH  30  31
ENDBRANCH  14  30
TORSDOF 14
ENDMDL
MODEL 4
REMARK VINA RESULT: -7.824148923      6.915     11.765
REMARK  14 active torsions:
REMARK  status: ('A' for Active; 'I' for Inactive)
REMARK    1  A    between atoms: C2_2  and  C3_3 
REMARK    2  A    between atoms: C3_3  and  C4_4 
REMARK    3  A    between atoms: C4_4  and  C5_5 
REMARK    4  A    between atoms: C5_5  and  C6_6 
REMARK    5  A    between atoms: C6_6  and  C7_7 
REMARK    6  A    between atoms: C7_7  and  C8_8 
REMARK       I    between atoms: C8_8  and  N1_10 
REMARK    7  A    between atoms: N1_10  and  C9_12 
REMARK    8  A    between atoms: C10_13  and  O2_14 
REMARK    9  A    between atoms: C11_16  and  O3_17 
REMARK   10  A    between atoms: C20_29  and  C21_30 
REMARK   11  A    between atoms: C21_30  and  C22_31 
REMARK   12  A    between atoms: C22_31  and  C23_32 
REMARK   13  A    between atoms: C23_32  and  N3_33 
REMARK   14  A    between atoms: N3_33  and  C26_36 
ROOT
HETATM    1  C9  UNL     1    -139.605-169.930 356.759  1.00  0.00     0.120 C 
HETATM    2  C10 UNL     1    -138.822-170.678 355.782  1.00  0.00     0.170 C 
HETATM    3  C11 UNL     1    -137.781-171.575 356.357  1.00  0.00     0.157 C 
HETATM    4  C12 UNL     1    -137.068-171.033 357.550  1.00  0.00     0.052 C 
HETATM    5  C13 UNL     1    -135.811-170.508 357.264  1.00  0.00    -0.013 C 
HETATM    6  C14 UNL     1    -136.306-169.131 356.817  1.00  0.00     0.066 A 
HETATM    7  N2  UNL     1    -135.819-168.631 356.130  1.00  0.00    -0.394 N 
ATOM      8  H2  UNL     1    -135.120-168.392 355.427  1.00  0.00     0.155 HD
HETATM    9  C15 UNL     1    -136.869-168.541 356.921  1.00  0.00     0.066 A 
HETATM   10  C16 UNL     1    -137.507-167.349 356.729  1.00  0.00    -0.006 A 
HETATM   11  C17 UNL     1    -137.517-168.247 357.265  1.00  0.00     0.035 A 
HETATM   12  C18 UNL     1    -138.657-168.398 358.270  1.00  0.00     0.026 C 
HETATM   13  C19 UNL     1    -138.847-169.778 358.010  1.00  0.00     0.026 C 
HETATM   14  C20 UNL     1    -137.346-169.678 357.989  1.00  0.00     0.021 A 
ENDROOT
BRANCH   1  15
HETATM   15  N1  UNL     1    -140.760-170.709 357.188  1.00  0.00    -0.353 N 
HETATM   16  C8  UNL     1    -142.046-170.653 356.628  1.00  0.00     0.217 C 
HETATM   17  O1  UNL     1    -142.276-169.886 355.679  1.00  0.00    -0.274 OA
ATOM     18  H1  UNL     1    -140.621-171.354 357.966  1.00  0.00     0.163 HD
BRANCH  16  19
HETATM   19  C7  UNL     1    -143.163-171.481 357.133  1.00  0.00     0.103 C 
BRANCH  19  20
HETATM   20  C6  UNL     1    -144.057-170.764 358.099  1.00  0.00     0.009 C 
BRANCH  20  21
HETATM   21  C5  UNL     1    -144.270-171.719 359.278  1.00  0.00     0.000 C 
BRANCH  21  22
HETATM   22  C4  UNL     1    -142.960-171.833 360.031  1.00  0.00     0.000 C 
BRANCH  22  23
HETATM   23  C3  UNL     1    -143.072-171.185 361.398  1.00  0.00    -0.000 C 
BRANCH  23  24
HETATM   24  C2  UNL     1    -141.699-170.695 361.841  1.00  0.00    -0.005 C 
HETATM   25  C1  UNL     1    -140.628-171.055 360.851  1.00  0.00     0.005 C 
ENDBRANCH  23  24
ENDBRANCH  22  23
ENDBRANCH  21  22
ENDBRANCH  20  21
ENDBRANCH  19  20
ENDBRANCH  16  19
ENDBRANCH   1  15
BRANCH   2  26
HETATM   26  O2  UNL     1    -139.643-171.467 354.988  1.00  0.00    -0.391 OA
ATOM     27  H2  UNL     1    -139.146-172.157 354.565  1.00  0.00     0.210 HD
ENDBRANCH   2  26
BRANCH   3  28
HETATM   28  O3  UNL     1    -136.908-171.861 355.316  1.00  0.00    -0.392 OA
ATOM     29  H3  UNL     1    -136.637-171.021 354.964  1.00  0.00     0.210 HD
ENDBRANCH   3  28
BRANCH  14  30
HETATM   30  C21 UNL     1    -136.740-169.448 359.302  1.00  0.00     0.017 C 
BRANCH  30  31
HETATM   31  C22 UNL     1    -137.019-170.570 360.224  1.00  0.00     0.029 C 
BRANCH  31  32
HETATM   32  C23 UNL     1    -135.716-170.718 361.034  1.00  0.00     0.238 C 
BRANCH  32  33
HETATM   33  N3  UNL     1    -135.998-171.028 362.394  1.00  0.00    -0.062 N 
HETATM   34  C24 UNL     1    -136.209-169.817 363.201  1.00  0.00     0.273 C 
HETATM   35  C25 UNL     1    -134.993-171.819 363.053  1.00  0.00     0.273 C 
BRANCH  33  36
HETATM   36  C26 UNL     1    -137.239-171.778 362.426  1.00  0.00     0.350 C 
HETATM   37 CL1  UNL     1    -138.341-171.199 363.674  1.00  0.00    -0.101 Cl
ENDBRANCH  33  36
ENDBRANCH  32  33
ENDBRANCH  31  32
ENDBRANCH  30  31
ENDBRANCH  14  30
TORSDOF 14
ENDMDL
MODEL 5
REMARK VINA RESULT: -7.822515526      3.530      8.083
REMARK  14 active torsions:
REMARK  status: ('A' for Active; 'I' for Inactive)
REMARK    1  A    between atoms: C2_2  and  C3_3 
REMARK    2  A    between atoms: C3_3  and  C4_4 
REMARK    3  A    between atoms: C4_4  and  C5_5 
REMARK    4  A    between atoms: C5_5  and  C6_6 
REMARK    5  A    between atoms: C6_6  and  C7_7 
REMARK    6  A    between atoms: C7_7  and  C8_8 
REMARK       I    between atoms: C8_8  and  N1_10 
REMARK    7  A    between atoms: N1_10  and  C9_12 
REMARK    8  A    between atoms: C10_13  and  O2_14 
REMARK    9  A    between atoms: C11_16  and  O3_17 
REMARK   10  A    between atoms: C20_29  and  C21_30 
REMARK   11  A    between atoms: C21_30  and  C22_31 
REMARK   12  A    between atoms: C22_31  and  C23_32 
REMARK   13  A    between atoms: C23_32  and  N3_33 
REMARK   14  A    between atoms: N3_33  and  C26_36 
ROOT
HETATM    1  C9  UNL     1    -148.904-171.442 359.623  1.00  0.00     0.120 C 
HETATM    2  C10 UNL     1    -148.848-171.442 358.166  1.00  0.00     0.170 C 
HETATM    3  C11 UNL     1    -147.478-171.374 357.585  1.00  0.00     0.157 C 
HETATM    4  C12 UNL     1    -146.522-170.494 358.317  1.00  0.00     0.052 C 
HETATM    5  C13 UNL     1    -146.341-169.246 357.728  1.00  0.00    -0.013 C 
HETATM    6  C14 UNL     1    -147.573-168.589 358.353  1.00  0.00     0.066 A 
HETATM    7  N2  UNL     1    -148.058-167.889 357.869  1.00  0.00    -0.394 N 
ATOM      8  H2  UNL     1    -148.321-167.232 357.135  1.00  0.00     0.155 HD
HETATM    9  C15 UNL     1    -148.067-168.550 359.009  1.00  0.00     0.066 A 
HETATM   10  C16 UNL     1    -149.100-168.125 359.796  1.00  0.00    -0.006 A 
HETATM   11  C17 UNL     1    -148.290-168.785 359.730  1.00  0.00     0.035 A 
HETATM   12  C18 UNL     1    -148.077-169.683 360.947  1.00  0.00     0.026 C 
HETATM   13  C19 UNL     1    -147.697-170.813 360.180  1.00  0.00     0.026 C 
HETATM   14  C20 UNL     1    -146.999-169.705 359.439  1.00  0.00     0.021 A 
ENDROOT
BRANCH   1  15
HETATM   15  N1  UNL     1    -148.808-172.804 360.135  1.00  0.00    -0.353 N 
HETATM   16  C8  UNL     1    -149.479-173.310 361.260  1.00  0.00     0.217 C 
HETATM   17  O1  UNL     1    -150.234-172.574 361.914  1.00  0.00    -0.274 OA
ATOM     18  H1  UNL     1    -148.198-173.447 359.630  1.00  0.00     0.163 HD
BRANCH  16  19
HETATM   19  C7  UNL     1    -149.318-174.710 361.709  1.00  0.00     0.103 C 
BRANCH  19  20
HETATM   20  C6  UNL     1    -150.222-175.088 362.843  1.00  0.00     0.009 C 
BRANCH  20  21
HETATM   21  C5  UNL     1    -150.071-176.601 363.029  1.00  0.00     0.000 C 
BRANCH  21  22
HETATM   22  C4  UNL     1    -149.829-176.871 364.500  1.00  0.00     0.000 C 
BRANCH  22  23
HETATM   23  C3  UNL     1    -150.496-178.167 364.922  1.00  0.00    -0.000 C 
BRANCH  23  24
HETATM   24  C2  UNL     1    -150.503-179.139 363.750  1.00  0.00    -0.005 C 
HETATM   25  C1  UNL     1    -149.809-180.428 364.086  1.00  0.00     0.005 C 
ENDBRANCH  23  24
ENDBRANCH  22  23
ENDBRANCH  21  22
ENDBRANCH  20  21
ENDBRANCH  19  20
ENDBRANCH  16  19
ENDBRANCH   1  15
BRANCH   2  26
HETATM   26  O2  UNL     1    -149.454-172.576 357.647  1.00  0.00    -0.391 OA
ATOM     27  H2  UNL     1    -149.154-172.747 356.761  1.00  0.00     0.210 HD
ENDBRANCH   2  26
BRANCH   3  28
HETATM   28  O3  UNL     1    -147.643-170.977 356.265  1.00  0.00    -0.392 OA
ATOM     29  H3  UNL     1    -148.327-171.533 355.910  1.00  0.00     0.210 HD
ENDBRANCH   3  28
BRANCH  14  30
HETATM   30  C21 UNL     1    -145.862-169.124 360.156  1.00  0.00     0.017 C 
BRANCH  30  31
HETATM   31  C22 UNL     1    -144.689-170.025 360.119  1.00  0.00     0.029 C 
BRANCH  31  32
HETATM   32  C23 UNL     1    -144.120-169.953 361.550  1.00  0.00     0.238 C 
BRANCH  32  33
HETATM   33  N3  UNL     1    -143.325-171.099 361.836  1.00  0.00    -0.062 N 
HETATM   34  C24 UNL     1    -144.045-172.350 361.554  1.00  0.00     0.273 C 
HETATM   35  C25 UNL     1    -142.839-171.172 363.188  1.00  0.00     0.273 C 
BRANCH  33  36
HETATM   36  C26 UNL     1    -142.173-171.066 360.956  1.00  0.00     0.350 C 
HETATM   37 CL1  UNL     1    -140.736-170.431 361.754  1.00  0.00    -0.101 Cl
ENDBRANCH  33  36
ENDBRANCH  32  33
ENDBRANCH  31  32
ENDBRANCH  30  31
ENDBRANCH  14  30
TORSDOF 14
ENDMDL
