MODEL 1
REMARK VINA RESULT: -8.454409061      0.000      0.000
REMARK  13 active torsions:
REMARK  status: ('A' for Active; 'I' for Inactive)
REMARK    1  A    between atoms: C2_2  and  C3_3 
REMARK    2  A    between atoms: C3_3  and  C4_4 
REMARK    3  A    between atoms: C4_4  and  N1_5 
REMARK    4  A    between atoms: N1_5  and  C5_7 
REMARK    5  A    between atoms: N2_9  and  C7_11 
REMARK    6  A    between atoms: C7_11  and  C8_12 
REMARK    7  A    between atoms: C8_12  and  C9_13 
REMARK    8  A    between atoms: C9_13  and  N3_14 
REMARK       I    between atoms: N3_14  and  C10_16 
REMARK    9  A    between atoms: C10_16  and  C11_18 
REMARK   10  A    between atoms: C11_18  and  N4_19 
REMARK   11  A    between atoms: C11_18  and  C12_23 
REMARK   12  A    between atoms: C12_23  and  C13_24 
REMARK   13  A    between atoms: C13_24  and  C14_25 
ROOT
HETATM    1  C11 UNL     1    -143.319-170.173 362.127  1.00  0.00     0.275 C 
ENDROOT
BRANCH   1   2
HETATM    2  C10 UNL     1    -144.615-170.433 361.397  1.00  0.00     0.251 C 
HETATM    3  N3  UNL     1    -145.183-171.716 361.283  1.00  0.00    -0.339 N 
ATOM      4  H3  UNL     1    -144.655-172.455 361.749  1.00  0.00     0.167 HD
HETATM    5  O1  UNL     1    -145.149-169.432 360.903  1.00  0.00    -0.271 OA
BRANCH   3   6
HETATM    6  C9  UNL     1    -146.353-172.153 360.638  1.00  0.00     0.065 C 
BRANCH   6   7
HETATM    7  C8  UNL     1    -147.072-173.359 361.064  1.00  0.00     0.064 C 
BRANCH   7   8
HETATM    8  C7  UNL     1    -148.555-173.423 360.988  1.00  0.00     0.126 C 
BRANCH   8   9
HETATM    9  N2  UNL     1    -148.904-174.850 360.993  1.00  0.00    -0.380 N 
HETATM   10  C5  UNL     1    -149.708-175.401 361.788  1.00  0.00     0.068 C 
HETATM   11  C6  UNL     1    -150.408-174.615 362.823  1.00  0.00     0.088 C 
ATOM     12  H2  UNL     1    -148.458-175.443 360.293  1.00  0.00     0.160 HD
BRANCH  10  13
HETATM   13  N1  UNL     1    -149.964-176.787 361.695  1.00  0.00    -0.380 N 
ATOM     14  H1  UNL     1    -149.545-177.268 360.899  1.00  0.00     0.160 HD
BRANCH  13  15
HETATM   15  C4  UNL     1    -150.734-177.591 362.579  1.00  0.00     0.121 C 
BRANCH  15  16
HETATM   16  C3  UNL     1    -150.117-178.865 363.003  1.00  0.00     0.019 C 
BRANCH  16  17
HETATM   17  C2  UNL     1    -150.316-179.213 364.435  1.00  0.00    -0.003 C 
HETATM   18  C1  UNL     1    -150.692-177.928 365.206  1.00  0.00     0.005 C 
ENDBRANCH  16  17
ENDBRANCH  15  16
ENDBRANCH  13  15
ENDBRANCH  10  13
ENDBRANCH   8   9
ENDBRANCH   7   8
ENDBRANCH   6   7
ENDBRANCH   3   6
ENDBRANCH   1   2
BRANCH   1  19
HETATM   19  N4  UNL     1    -143.593-170.276 363.525  1.00  0.00    -0.066 N 
ATOM     20  H43 UNL     1    -144.582-170.422 363.728  1.00  0.00     0.275 HD
ATOM     21  H42 UNL     1    -143.244-171.143 363.937  1.00  0.00     0.275 HD
ATOM     22  H41 UNL     1    -143.212-169.441 363.970  1.00  0.00     0.275 HD
ENDBRANCH   1  19
BRANCH   1  23
HETATM   23  C12 UNL     1    -142.256-171.147 361.658  1.00  0.00     0.045 C 
BRANCH  23  24
HETATM   24  C13 UNL     1    -141.057-171.137 362.527  1.00  0.00     0.027 C 
BRANCH  24  25
HETATM   25  C14 UNL     1    -139.746-171.147 361.756  1.00  0.00     0.077 C 
HETATM   26  C15 UNL     1    -138.791-170.292 362.625  1.00  0.00     0.034 C 
HETATM   27  C16 UNL     1    -137.692-170.023 361.717  1.00  0.00    -0.036 C 
HETATM   28  C17 UNL     1    -137.088-171.351 361.434  1.00  0.00     0.014 C 
HETATM   29  C22 UNL     1    -138.159-169.071 360.714  1.00  0.00     0.032 C 
HETATM   30  C23 UNL     1    -136.297-169.650 361.930  1.00  0.00     0.014 C 
HETATM   31  C18 UNL     1    -136.002-170.570 360.736  1.00  0.00    -0.012 C 
HETATM   32  C19 UNL     1    -136.602-170.257 359.434  1.00  0.00     0.027 C 
HETATM   33  C20 UNL     1    -137.992-169.787 359.374  1.00  0.00     0.035 C 
HETATM   34 BR1  UNL     1    -138.153-168.407 358.015  1.00  0.00    -0.084 Br
HETATM   35  C21 UNL     1    -139.132-170.753 359.382  1.00  0.00     0.135 C 
HETATM   36  N5  UNL     1    -140.014-170.682 360.480  1.00  0.00    -0.416 N 
ATOM     37  H5  UNL     1    -140.925-170.252 360.321  1.00  0.00     0.153 HD
ENDBRANCH  24  25
ENDBRANCH  23  24
ENDBRANCH   1  23
TORSDOF 13
ENDMDL
MODEL 2
REMARK VINA RESULT: -8.388852808      3.820     12.146
REMARK  13 active torsions:
REMARK  status: ('A' for Active; 'I' for Inactive)
REMARK    1  A    between atoms: C2_2  and  C3_3 
REMARK    2  A    between atoms: C3_3  and  C4_4 
REMARK    3  A    between atoms: C4_4  and  N1_5 
REMARK    4  A    between atoms: N1_5  and  C5_7 
REMARK    5  A    between atoms: N2_9  and  C7_11 
REMARK    6  A    between atoms: C7_11  and  C8_12 
REMARK    7  A    between atoms: C8_12  and  C9_13 
REMARK    8  A    between atoms: C9_13  and  N3_14 
REMARK       I    between atoms: N3_14  and  C10_16 
REMARK    9  A    between atoms: C10_16  and  C11_18 
REMARK   10  A    between atoms: C11_18  and  N4_19 
REMARK   11  A    between atoms: C11_18  and  C12_23 
REMARK   12  A    between atoms: C12_23  and  C13_24 
REMARK   13  A    between atoms: C13_24  and  C14_25 
ROOT
HETATM    1  C11 UNL     1    -148.356-173.036 360.460  1.00  0.00     0.275 C 
ENDROOT
BRANCH   1   2
HETATM    2  C10 UNL     1    -146.876-172.812 360.265  1.00  0.00     0.251 C 
HETATM    3  N3  UNL     1    -145.924-173.083 361.265  1.00  0.00    -0.339 N 
ATOM      4  H3  UNL     1    -146.314-173.460 362.129  1.00  0.00     0.167 HD
HETATM    5  O1  UNL     1    -146.554-172.370 359.153  1.00  0.00    -0.271 OA
BRANCH   3   6
HETATM    6  C9  UNL     1    -144.526-172.924 361.277  1.00  0.00     0.065 C 
BRANCH   6   7
HETATM    7  C8  UNL     1    -143.895-171.602 361.371  1.00  0.00     0.064 C 
BRANCH   7   8
HETATM    8  C7  UNL     1    -142.493-171.399 360.921  1.00  0.00     0.126 C 
BRANCH   8   9
HETATM    9  N2  UNL     1    -141.638-171.889 362.009  1.00  0.00    -0.380 N 
HETATM   10  C5  UNL     1    -140.519-171.411 362.328  1.00  0.00     0.068 C 
HETATM   11  C6  UNL     1    -139.955-170.254 361.604  1.00  0.00     0.088 C 
ATOM     12  H2  UNL     1    -141.979-172.682 362.552  1.00  0.00     0.160 HD
BRANCH  10  13
HETATM   13  N1  UNL     1    -139.785-171.969 363.398  1.00  0.00    -0.380 N 
ATOM     14  H1  UNL     1    -140.086-171.704 364.335  1.00  0.00     0.160 HD
BRANCH  13  15
HETATM   15  C4  UNL     1    -138.677-172.857 363.323  1.00  0.00     0.121 C 
BRANCH  15  16
HETATM   16  C3  UNL     1    -137.340-172.227 363.304  1.00  0.00     0.019 C 
BRANCH  16  17
HETATM   17  C2  UNL     1    -137.235-170.952 364.061  1.00  0.00    -0.003 C 
HETATM   18  C1  UNL     1    -136.407-169.951 363.225  1.00  0.00     0.005 C 
ENDBRANCH  16  17
ENDBRANCH  15  16
ENDBRANCH  13  15
ENDBRANCH  10  13
ENDBRANCH   8   9
ENDBRANCH   7   8
ENDBRANCH   6   7
ENDBRANCH   3   6
ENDBRANCH   1   2
BRANCH   1  19
HETATM   19  N4  UNL     1    -148.906-173.364 359.184  1.00  0.00    -0.066 N 
ATOM     20  H43 UNL     1    -148.397-172.939 358.408  1.00  0.00     0.275 HD
ATOM     21  H42 UNL     1    -148.755-174.338 358.922  1.00  0.00     0.275 HD
ATOM     22  H41 UNL     1    -149.892-173.103 359.204  1.00  0.00     0.275 HD
ENDBRANCH   1  19
BRANCH   1  23
HETATM   23  C12 UNL     1    -148.583-174.118 361.498  1.00  0.00     0.045 C 
BRANCH  23  24
HETATM   24  C13 UNL     1    -149.473-175.195 361.007  1.00  0.00     0.027 C 
BRANCH  24  25
HETATM   25  C14 UNL     1    -149.414-176.462 361.845  1.00  0.00     0.077 C 
HETATM   26  C15 UNL     1    -150.511-177.369 361.235  1.00  0.00     0.034 C 
HETATM   27  C16 UNL     1    -150.676-178.392 362.250  1.00  0.00    -0.036 C 
HETATM   28  C17 UNL     1    -149.377-179.109 362.296  1.00  0.00     0.014 C 
HETATM   29  C22 UNL     1    -151.354-177.787 363.392  1.00  0.00     0.032 C 
HETATM   30  C23 UNL     1    -151.205-179.753 362.211  1.00  0.00     0.014 C 
HETATM   31  C18 UNL     1    -150.084-180.079 363.209  1.00  0.00    -0.012 C 
HETATM   32  C19 UNL     1    -150.065-179.391 364.504  1.00  0.00     0.027 C 
HETATM   33  C20 UNL     1    -150.390-177.960 364.566  1.00  0.00     0.035 C 
HETATM   34 BR1  UNL     1    -151.437-177.601 366.164  1.00  0.00    -0.084 Br
HETATM   35  C21 UNL     1    -149.353-176.922 364.285  1.00  0.00     0.135 C 
HETATM   36  N5  UNL     1    -149.576-176.090 363.168  1.00  0.00    -0.416 N 
ATOM     37  H5  UNL     1    -149.883-175.135 363.351  1.00  0.00     0.153 HD
ENDBRANCH  24  25
ENDBRANCH  23  24
ENDBRANCH   1  23
TORSDOF 13
ENDMDL
MODEL 3
REMARK VINA RESULT: -8.379970570      1.182      1.410
REMARK  13 active torsions:
REMARK  status: ('A' for Active; 'I' for Inactive)
REMARK    1  A    between atoms: C2_2  and  C3_3 
REMARK    2  A    between atoms: C3_3  and  C4_4 
REMARK    3  A    between atoms: C4_4  and  N1_5 
REMARK    4  A    between atoms: N1_5  and  C5_7 
REMARK    5  A    between atoms: N2_9  and  C7_11 
REMARK    6  A    between atoms: C7_11  and  C8_12 
REMARK    7  A    between atoms: C8_12  and  C9_13 
REMARK    8  A    between atoms: C9_13  and  N3_14 
REMARK       I    between atoms: N3_14  and  C10_16 
REMARK    9  A    between atoms: C10_16  and  C11_18 
REMARK   10  A    between atoms: C11_18  and  N4_19 
REMARK   11  A    between atoms: C11_18  and  C12_23 
REMARK   12  A    between atoms: C12_23  and  C13_24 
REMARK   13  A    between atoms: C13_24  and  C14_25 
ROOT
HETATM    1  C11 UNL     1    -143.623-171.907 361.521  1.00  0.00     0.275 C 
ENDROOT
BRANCH   1   2
HETATM    2  C10 UNL     1    -144.939-171.418 360.968  1.00  0.00     0.251 C 
HETATM    3  N3  UNL     1    -146.104-172.206 360.960  1.00  0.00    -0.339 N 
ATOM      4  H3  UNL     1    -145.991-173.132 361.374  1.00  0.00     0.167 HD
HETATM    5  O1  UNL     1    -144.924-170.263 360.519  1.00  0.00    -0.271 OA
BRANCH   3   6
HETATM    6  C9  UNL     1    -147.398-171.937 360.479  1.00  0.00     0.065 C 
BRANCH   6   7
HETATM    7  C8  UNL     1    -148.538-172.812 360.779  1.00  0.00     0.064 C 
BRANCH   7   8
HETATM    8  C7  UNL     1    -148.365-174.288 360.835  1.00  0.00     0.126 C 
BRANCH   8   9
HETATM    9  N2  UNL     1    -149.070-174.737 362.043  1.00  0.00    -0.380 N 
HETATM   10  C5  UNL     1    -149.739-175.797 362.143  1.00  0.00     0.068 C 
HETATM   11  C6  UNL     1    -149.865-176.725 361.002  1.00  0.00     0.088 C 
ATOM     12  H2  UNL     1    -149.011-174.140 362.868  1.00  0.00     0.160 HD
BRANCH  10  13
HETATM   13  N1  UNL     1    -150.375-176.124 363.361  1.00  0.00    -0.380 N 
ATOM     14  H1  UNL     1    -151.265-175.659 363.542  1.00  0.00     0.160 HD
BRANCH  13  15
HETATM   15  C4  UNL     1    -149.924-177.023 364.365  1.00  0.00     0.121 C 
BRANCH  15  16
HETATM   16  C3  UNL     1    -150.799-178.182 364.641  1.00  0.00     0.019 C 
BRANCH  16  17
HETATM   17  C2  UNL     1    -150.165-179.511 364.437  1.00  0.00    -0.003 C 
HETATM   18  C1  UNL     1    -150.223-179.857 362.932  1.00  0.00     0.005 C 
ENDBRANCH  16  17
ENDBRANCH  15  16
ENDBRANCH  13  15
ENDBRANCH  10  13
ENDBRANCH   8   9
ENDBRANCH   7   8
ENDBRANCH   6   7
ENDBRANCH   3   6
ENDBRANCH   1   2
BRANCH   1  19
HETATM   19  N4  UNL     1    -143.604-173.327 361.376  1.00  0.00    -0.066 N 
ATOM     20  H43 UNL     1    -143.631-173.629 360.402  1.00  0.00     0.275 HD
ATOM     21  H42 UNL     1    -142.704-173.742 361.618  1.00  0.00     0.275 HD
ATOM     22  H41 UNL     1    -144.377-173.698 361.930  1.00  0.00     0.275 HD
ENDBRANCH   1  19
BRANCH   1  23
HETATM   23  C12 UNL     1    -142.474-171.223 360.805  1.00  0.00     0.045 C 
BRANCH  23  24
HETATM   24  C13 UNL     1    -141.420-170.762 361.738  1.00  0.00     0.027 C 
BRANCH  24  25
HETATM   25  C14 UNL     1    -140.013-170.885 361.175  1.00  0.00     0.077 C 
HETATM   26  C15 UNL     1    -139.152-170.012 362.120  1.00  0.00     0.034 C 
HETATM   27  C16 UNL     1    -137.918-169.859 361.372  1.00  0.00    -0.036 C 
HETATM   28  C17 UNL     1    -137.351-171.228 361.270  1.00  0.00     0.014 C 
HETATM   29  C22 UNL     1    -138.181-168.962 360.251  1.00  0.00     0.032 C 
HETATM   30  C23 UNL     1    -136.551-169.532 361.768  1.00  0.00     0.014 C 
HETATM   31  C18 UNL     1    -136.134-170.549 360.694  1.00  0.00    -0.012 C 
HETATM   32  C19 UNL     1    -136.519-170.305 359.299  1.00  0.00     0.027 C 
HETATM   33  C20 UNL     1    -137.857-169.780 359.001  1.00  0.00     0.035 C 
HETATM   34 BR1  UNL     1    -137.741-168.495 357.546  1.00  0.00    -0.084 Br
HETATM   35  C21 UNL     1    -139.036-170.692 358.899  1.00  0.00     0.135 C 
HETATM   36  N5  UNL     1    -140.065-170.503 359.846  1.00  0.00    -0.416 N 
ATOM     37  H5  UNL     1    -140.918-170.046 359.524  1.00  0.00     0.153 HD
ENDBRANCH  24  25
ENDBRANCH  23  24
ENDBRANCH   1  23
TORSDOF 13
ENDMDL
MODEL 4
REMARK VINA RESULT: -8.324799381      1.879      2.548
REMARK  13 active torsions:
REMARK  status: ('A' for Active; 'I' for Inactive)
REMARK    1  A    between atoms: C2_2  and  C3_3 
REMARK    2  A    between atoms: C3_3  and  C4_4 
REMARK    3  A    between atoms: C4_4  and  N1_5 
REMARK    4  A    between atoms: N1_5  and  C5_7 
REMARK    5  A    between atoms: N2_9  and  C7_11 
REMARK    6  A    between atoms: C7_11  and  C8_12 
REMARK    7  A    between atoms: C8_12  and  C9_13 
REMARK    8  A    between atoms: C9_13  and  N3_14 
REMARK       I    between atoms: N3_14  and  C10_16 
REMARK    9  A    between atoms: C10_16  and  C11_18 
REMARK   10  A    between atoms: C11_18  and  N4_19 
REMARK   11  A    between atoms: C11_18  and  C12_23 
REMARK   12  A    between atoms: C12_23  and  C13_24 
REMARK   13  A    between atoms: C13_24  and  C14_25 
ROOT
HETATM    1  C11 UNL     1    -143.279-170.344 362.117  1.00  0.00     0.275 C 
ENDROOT
BRANCH   1   2
HETATM    2  C10 UNL     1    -144.511-170.757 361.349  1.00  0.00     0.251 C 
HETATM    3  N3  UNL     1    -145.026-172.066 361.377  1.00  0.00    -0.339 N 
ATOM      4  H3  UNL     1    -144.507-172.712 361.973  1.00  0.00     0.167 HD
HETATM    5  O1  UNL     1    -145.043-169.856 360.686  1.00  0.00    -0.271 OA
BRANCH   3   6
HETATM    6  C9  UNL     1    -146.133-172.638 360.724  1.00  0.00     0.065 C 
BRANCH   6   7
HETATM    7  C8  UNL     1    -146.920-173.720 361.329  1.00  0.00     0.064 C 
BRANCH   7   8
HETATM    8  C7  UNL     1    -148.340-173.930 360.943  1.00  0.00     0.126 C 
BRANCH   8   9
HETATM    9  N2  UNL     1    -149.002-174.509 362.120  1.00  0.00    -0.380 N 
HETATM   10  C5  UNL     1    -149.683-175.565 362.125  1.00  0.00     0.068 C 
HETATM   11  C6  UNL     1    -149.871-176.353 360.890  1.00  0.00     0.088 C 
ATOM     12  H2  UNL     1    -148.899-174.013 363.005  1.00  0.00     0.160 HD
BRANCH  10  13
HETATM   13  N1  UNL     1    -150.275-176.025 363.323  1.00  0.00    -0.380 N 
ATOM     14  H1  UNL     1    -151.260-175.796 363.454  1.00  0.00     0.160 HD
BRANCH  13  15
HETATM   15  C4  UNL     1    -149.660-176.767 364.368  1.00  0.00     0.121 C 
BRANCH  15  16
HETATM   16  C3  UNL     1    -150.415-177.936 364.866  1.00  0.00     0.019 C 
BRANCH  16  17
HETATM   17  C2  UNL     1    -150.686-178.988 363.851  1.00  0.00    -0.003 C 
HETATM   18  C1  UNL     1    -149.894-180.258 364.235  1.00  0.00     0.005 C 
ENDBRANCH  16  17
ENDBRANCH  15  16
ENDBRANCH  13  15
ENDBRANCH  10  13
ENDBRANCH   8   9
ENDBRANCH   7   8
ENDBRANCH   6   7
ENDBRANCH   3   6
ENDBRANCH   1   2
BRANCH   1  19
HETATM   19  N4  UNL     1    -143.353-170.966 363.400  1.00  0.00    -0.066 N 
ATOM     20  H43 UNL     1    -143.601-171.955 363.351  1.00  0.00     0.275 HD
ATOM     21  H42 UNL     1    -142.440-171.082 363.841  1.00  0.00     0.275 HD
ATOM     22  H41 UNL     1    -144.003-170.419 363.965  1.00  0.00     0.275 HD
ENDBRANCH   1  19
BRANCH   1  23
HETATM   23  C12 UNL     1    -142.033-170.728 361.343  1.00  0.00     0.045 C 
BRANCH  23  24
HETATM   24  C13 UNL     1    -141.100-171.552 362.147  1.00  0.00     0.027 C 
BRANCH  24  25
HETATM   25  C14 UNL     1    -139.751-170.889 362.379  1.00  0.00     0.077 C 
HETATM   26  C15 UNL     1    -138.965-171.169 361.075  1.00  0.00     0.034 C 
HETATM   27  C16 UNL     1    -137.601-170.852 361.454  1.00  0.00    -0.036 C 
HETATM   28  C17 UNL     1    -137.608-169.397 361.754  1.00  0.00     0.014 C 
HETATM   29  C22 UNL     1    -137.127-171.902 362.350  1.00  0.00     0.032 C 
HETATM   30  C23 UNL     1    -136.415-170.489 360.683  1.00  0.00     0.014 C 
HETATM   31  C18 UNL     1    -136.109-169.533 361.846  1.00  0.00    -0.012 C 
HETATM   32  C19 UNL     1    -135.907-170.091 363.188  1.00  0.00     0.027 C 
HETATM   33  C20 UNL     1    -136.770-171.185 363.652  1.00  0.00     0.035 C 
HETATM   34 BR1  UNL     1    -135.713-172.453 364.679  1.00  0.00    -0.084 Br
HETATM   35  C21 UNL     1    -138.112-170.908 364.246  1.00  0.00     0.135 C 
HETATM   36  N5  UNL     1    -139.229-171.414 363.548  1.00  0.00    -0.416 N 
ATOM     37  H5  UNL     1    -139.689-172.236 363.938  1.00  0.00     0.153 HD
ENDBRANCH  24  25
ENDBRANCH  23  24
ENDBRANCH   1  23
TORSDOF 13
ENDMDL
MODEL 5
REMARK VINA RESULT: -8.197805229      3.698     11.949
REMARK  13 active torsions:
REMARK  status: ('A' for Active; 'I' for Inactive)
REMARK    1  A    between atoms: C2_2  and  C3_3 
REMARK    2  A    between atoms: C3_3  and  C4_4 
REMARK    3  A    between atoms: C4_4  and  N1_5 
REMARK    4  A    between atoms: N1_5  and  C5_7 
REMARK    5  A    between atoms: N2_9  and  C7_11 
REMARK    6  A    between atoms: C7_11  and  C8_12 
REMARK    7  A    between atoms: C8_12  and  C9_13 
REMARK    8  A    between atoms: C9_13  and  N3_14 
REMARK       I    between atoms: N3_14  and  C10_16 
REMARK    9  A    between atoms: C10_16  and  C11_18 
REMARK   10  A    between atoms: C11_18  and  N4_19 
REMARK   11  A    between atoms: C11_18  and  C12_23 
REMARK   12  A    between atoms: C12_23  and  C13_24 
REMARK   13  A    between atoms: C13_24  and  C14_25 
ROOT
HETATM    1  C11 UNL     1    -149.793-172.682 360.770  1.00  0.00     0.275 C 
ENDROOT
BRANCH   1   2
HETATM    2  C10 UNL     1    -148.595-171.790 360.546  1.00  0.00     0.251 C 
HETATM    3  N3  UNL     1    -147.435-172.223 359.877  1.00  0.00    -0.339 N 
ATOM      4  H3  UNL     1    -147.475-173.185 359.540  1.00  0.00     0.167 HD
HETATM    5  O1  UNL     1    -148.705-170.641 360.994  1.00  0.00    -0.271 OA
BRANCH   3   6
HETATM    6  C9  UNL     1    -146.230-171.555 359.593  1.00  0.00     0.065 C 
BRANCH   6   7
HETATM    7  C8  UNL     1    -144.922-172.168 359.855  1.00  0.00     0.064 C 
BRANCH   7   8
HETATM    8  C7  UNL     1    -144.456-172.393 361.248  1.00  0.00     0.126 C 
BRANCH   8   9
HETATM    9  N2  UNL     1    -142.989-172.455 361.184  1.00  0.00    -0.380 N 
HETATM   10  C5  UNL     1    -142.205-171.545 361.556  1.00  0.00     0.068 C 
HETATM   11  C6  UNL     1    -142.722-170.284 362.126  1.00  0.00     0.088 C 
ATOM     12  H2  UNL     1    -142.573-173.306 360.807  1.00  0.00     0.160 HD
BRANCH  10  13
HETATM   13  N1  UNL     1    -140.808-171.720 361.444  1.00  0.00    -0.380 N 
ATOM     14  H1  UNL     1    -140.474-172.119 360.566  1.00  0.00     0.160 HD
BRANCH  13  15
HETATM   15  C4  UNL     1    -139.811-171.407 362.408  1.00  0.00     0.121 C 
BRANCH  15  16
HETATM   16  C3  UNL     1    -138.811-170.396 362.005  1.00  0.00     0.019 C 
BRANCH  16  17
HETATM   17  C2  UNL     1    -139.034-169.792 360.665  1.00  0.00    -0.003 C 
HETATM   18  C1  UNL     1    -137.659-169.537 360.006  1.00  0.00     0.005 C 
ENDBRANCH  16  17
ENDBRANCH  15  16
ENDBRANCH  13  15
ENDBRANCH  10  13
ENDBRANCH   8   9
ENDBRANCH   7   8
ENDBRANCH   6   7
ENDBRANCH   3   6
ENDBRANCH   1   2
BRANCH   1  19
HETATM   19  N4  UNL     1    -150.327-173.003 359.485  1.00  0.00    -0.066 N 
ATOM     20  H43 UNL     1    -150.198-172.256 358.801  1.00  0.00     0.275 HD
ATOM     21  H42 UNL     1    -149.791-173.722 358.998  1.00  0.00     0.275 HD
ATOM     22  H41 UNL     1    -151.306-173.256 359.620  1.00  0.00     0.275 HD
ENDBRANCH   1  19
BRANCH   1  23
HETATM   23  C12 UNL     1    -149.384-173.907 361.565  1.00  0.00     0.045 C 
BRANCH  23  24
HETATM   24  C13 UNL     1    -149.719-175.170 360.867  1.00  0.00     0.027 C 
BRANCH  24  25
HETATM   25  C14 UNL     1    -149.562-176.406 361.739  1.00  0.00     0.077 C 
HETATM   26  C15 UNL     1    -150.608-177.399 361.176  1.00  0.00     0.034 C 
HETATM   27  C16 UNL     1    -150.688-178.401 362.221  1.00  0.00    -0.036 C 
HETATM   28  C17 UNL     1    -149.344-179.031 362.262  1.00  0.00     0.014 C 
HETATM   29  C22 UNL     1    -151.384-177.809 363.359  1.00  0.00     0.032 C 
HETATM   30  C23 UNL     1    -151.127-179.794 362.231  1.00  0.00     0.014 C 
HETATM   31  C18 UNL     1    -149.970-180.018 363.215  1.00  0.00    -0.012 C 
HETATM   32  C19 UNL     1    -149.973-179.292 364.490  1.00  0.00     0.027 C 
HETATM   33  C20 UNL     1    -150.390-177.885 364.518  1.00  0.00     0.035 C 
HETATM   34 BR1  UNL     1    -151.429-177.548 366.127  1.00  0.00    -0.084 Br
HETATM   35  C21 UNL     1    -149.428-176.790 364.189  1.00  0.00     0.135 C 
HETATM   36  N5  UNL     1    -149.725-176.007 363.054  1.00  0.00    -0.416 N 
ATOM     37  H5  UNL     1    -150.091-175.069 363.217  1.00  0.00     0.153 HD
ENDBRANCH  24  25
ENDBRANCH  23  24
ENDBRANCH   1  23
TORSDOF 13
ENDMDL
