MODEL 1
REMARK VINA RESULT: -7.489267678      0.000      0.000
REMARK  2 active torsions:
REMARK  status: ('A' for Active; 'I' for Inactive)
REMARK    1  A    between atoms: O1_2  and  C2_3 
REMARK    2  A    between atoms: C16_17  and  O2_18 
ROOT
HETATM    1  C2  UNL     1      -1.768 -23.125  -9.623  1.00  0.00     0.130 C 
HETATM    2  C3  UNL     1      -1.100 -21.734  -9.658  1.00  0.00     0.037 C 
HETATM    3  C4  UNL     1      -2.229 -20.874  -9.229  1.00  0.00    -0.012 C 
HETATM    4  C5  UNL     1      -2.970 -20.568 -10.443  1.00  0.00     0.005 C 
HETATM    5  C6  UNL     1      -3.059 -21.585 -11.594  1.00  0.00     0.005 C 
HETATM    6  C7  UNL     1      -3.984 -22.682 -11.590  1.00  0.00    -0.006 C 
HETATM    7  C8  UNL     1      -5.092 -22.288 -10.639  1.00  0.00     0.006 C 
HETATM    8  C9  UNL     1      -4.383 -22.513  -9.379  1.00  0.00     0.013 C 
HETATM    9  C10 UNL     1      -3.135 -23.257  -9.246  1.00  0.00    -0.006 C 
HETATM   10  C11 UNL     1      -2.990 -22.905  -7.787  1.00  0.00     0.013 C 
HETATM   11  C12 UNL     1      -2.674 -21.396  -7.940  1.00  0.00     0.005 C 
HETATM   12  C13 UNL     1      -3.527 -24.533  -9.827  1.00  0.00    -0.024 C 
HETATM   13  C14 UNL     1      -4.719 -25.114  -9.144  1.00  0.00     0.017 C 
HETATM   14  C15 UNL     1      -2.649 -25.719 -10.006  1.00  0.00     0.047 C 
HETATM   15  C16 UNL     1      -3.439 -26.844 -10.690  1.00  0.00     0.159 C 
HETATM   16  C17 UNL     1      -4.525 -26.319 -11.559  1.00  0.00     0.014 C 
HETATM   17 BR1  UNL     1      -5.731 -27.652 -12.239  1.00  0.00    -0.053 Br
HETATM   18  C18 UNL     1      -4.670 -25.044 -11.856  1.00  0.00    -0.004 C 
HETATM   19  C19 UNL     1      -3.693 -24.094 -11.288  1.00  0.00     0.022 C 
ENDROOT
BRANCH   1  20
HETATM   20  O1  UNL     1      -0.947 -23.697  -8.618  1.00  0.00    -0.390 OA
HETATM   21  C1  UNL     1       0.345 -23.416  -8.622  1.00  0.00     0.202 C 
ENDBRANCH   1  20
BRANCH  15  22
HETATM   22  O2  UNL     1      -2.618 -27.574 -11.595  1.00  0.00    -0.390 OA
ATOM     23  H2  UNL     1      -3.142 -28.109 -12.180  1.00  0.00     0.210 HD
ENDBRANCH  15  22
TORSDOF 2
ENDMDL
MODEL 2
REMARK VINA RESULT: -7.305481382      3.035      5.420
REMARK  2 active torsions:
REMARK  status: ('A' for Active; 'I' for Inactive)
REMARK    1  A    between atoms: O1_2  and  C2_3 
REMARK    2  A    between atoms: C16_17  and  O2_18 
ROOT
HETATM    1  C2  UNL     1      -3.821 -23.611 -10.974  1.00  0.00     0.130 C 
HETATM    2  C3  UNL     1      -3.596 -25.008 -11.591  1.00  0.00     0.037 C 
HETATM    3  C4  UNL     1      -3.774 -25.869 -10.397  1.00  0.00    -0.012 C 
HETATM    4  C5  UNL     1      -2.469 -25.923  -9.756  1.00  0.00     0.005 C 
HETATM    5  C6  UNL     1      -1.512 -24.720  -9.807  1.00  0.00     0.005 C 
HETATM    6  C7  UNL     1      -1.634 -23.593  -8.927  1.00  0.00    -0.006 C 
HETATM    7  C8  UNL     1      -2.409 -24.087  -7.725  1.00  0.00     0.006 C 
HETATM    8  C9  UNL     1      -3.741 -24.119  -8.327  1.00  0.00     0.013 C 
HETATM    9  C10 UNL     1      -4.104 -23.475  -9.585  1.00  0.00    -0.006 C 
HETATM   10  C11 UNL     1      -5.485 -24.081  -9.587  1.00  0.00     0.013 C 
HETATM   11  C12 UNL     1      -5.094 -25.555  -9.860  1.00  0.00     0.005 C 
HETATM   12  C13 UNL     1      -3.727 -22.099  -9.294  1.00  0.00    -0.024 C 
HETATM   13  C14 UNL     1      -4.404 -21.584  -8.069  1.00  0.00     0.017 C 
HETATM   14  C15 UNL     1      -3.831 -20.948 -10.228  1.00  0.00     0.047 C 
HETATM   15  C16 UNL     1      -3.295 -19.682  -9.543  1.00  0.00     0.159 C 
HETATM   16  C17 UNL     1      -2.262 -19.992  -8.520  1.00  0.00     0.014 C 
HETATM   17 BR1  UNL     1      -1.733 -18.502  -7.429  1.00  0.00    -0.053 Br
HETATM   18  C18 UNL     1      -1.735 -21.188  -8.354  1.00  0.00    -0.004 C 
HETATM   19  C19 UNL     1      -2.203 -22.271  -9.241  1.00  0.00     0.022 C 
ENDROOT
BRANCH   1  20
HETATM   20  O1  UNL     1      -4.974 -23.264 -11.724  1.00  0.00    -0.390 OA
HETATM   21  C1  UNL     1      -4.959 -23.457 -13.032  1.00  0.00     0.202 C 
ENDBRANCH   1  20
BRANCH  15  22
HETATM   22  O2  UNL     1      -2.601 -18.850 -10.468  1.00  0.00    -0.390 OA
ATOM     23  H2  UNL     1      -2.453 -19.301 -11.291  1.00  0.00     0.210 HD
ENDBRANCH  15  22
TORSDOF 2
ENDMDL
MODEL 3
REMARK VINA RESULT: -7.102478453      3.128      5.341
REMARK  2 active torsions:
REMARK  status: ('A' for Active; 'I' for Inactive)
REMARK    1  A    between atoms: O1_2  and  C2_3 
REMARK    2  A    between atoms: C16_17  and  O2_18 
ROOT
HETATM    1  C2  UNL     1      -1.703 -23.455  -7.699  1.00  0.00     0.130 C 
HETATM    2  C3  UNL     1      -2.153 -24.908  -7.436  1.00  0.00     0.037 C 
HETATM    3  C4  UNL     1      -2.432 -25.365  -8.819  1.00  0.00    -0.012 C 
HETATM    4  C5  UNL     1      -3.806 -24.970  -9.090  1.00  0.00     0.005 C 
HETATM    5  C6  UNL     1      -4.397 -23.689  -8.477  1.00  0.00     0.005 C 
HETATM    6  C7  UNL     1      -4.164 -22.385  -9.029  1.00  0.00    -0.006 C 
HETATM    7  C8  UNL     1      -3.787 -22.608 -10.477  1.00  0.00     0.006 C 
HETATM    8  C9  UNL     1      -2.417 -23.076 -10.272  1.00  0.00     0.013 C 
HETATM    9  C10 UNL     1      -1.667 -22.942  -9.027  1.00  0.00    -0.006 C 
HETATM   10  C11 UNL     1      -0.512 -23.762  -9.543  1.00  0.00     0.013 C 
HETATM   11  C12 UNL     1      -1.205 -25.148  -9.578  1.00  0.00     0.005 C 
HETATM   12  C13 UNL     1      -1.730 -21.499  -8.837  1.00  0.00    -0.024 C 
HETATM   13  C14 UNL     1      -1.193 -20.758 -10.014  1.00  0.00     0.017 C 
HETATM   14  C15 UNL     1      -1.159 -20.743  -7.692  1.00  0.00     0.047 C 
HETATM   15  C16 UNL     1      -1.476 -19.249  -7.855  1.00  0.00     0.159 C 
HETATM   16  C17 UNL     1      -2.731 -19.023  -8.619  1.00  0.00     0.014 C 
HETATM   17 BR1  UNL     1      -3.063 -17.193  -9.101  1.00  0.00    -0.053 Br
HETATM   18  C18 UNL     1      -3.567 -19.985  -8.952  1.00  0.00    -0.004 C 
HETATM   19  C19 UNL     1      -3.228 -21.360  -8.535  1.00  0.00     0.022 C 
ENDROOT
BRANCH   1  20
HETATM   20  O1  UNL     1      -0.377 -23.583  -7.210  1.00  0.00    -0.390 OA
HETATM   21  C1  UNL     1      -0.175 -24.284  -6.108  1.00  0.00     0.202 C 
ENDBRANCH   1  20
BRANCH  15  22
HETATM   22  O2  UNL     1      -1.744 -18.639  -6.596  1.00  0.00    -0.390 OA
ATOM     23  H2  UNL     1      -1.091 -17.981  -6.388  1.00  0.00     0.210 HD
ENDBRANCH  15  22
TORSDOF 2
ENDMDL
MODEL 4
REMARK VINA RESULT: -5.928224703      1.944      3.345
REMARK  2 active torsions:
REMARK  status: ('A' for Active; 'I' for Inactive)
REMARK    1  A    between atoms: O1_2  and  C2_3 
REMARK    2  A    between atoms: C16_17  and  O2_18 
ROOT
HETATM    1  C2  UNL     1      -3.701 -22.195  -8.832  1.00  0.00     0.130 C 
HETATM    2  C3  UNL     1      -2.880 -21.392  -7.802  1.00  0.00     0.037 C 
HETATM    3  C4  UNL     1      -1.509 -21.576  -8.338  1.00  0.00    -0.012 C 
HETATM    4  C5  UNL     1      -1.032 -22.827  -7.769  1.00  0.00     0.005 C 
HETATM    5  C6  UNL     1      -2.001 -23.987  -7.483  1.00  0.00     0.005 C 
HETATM    6  C7  UNL     1      -2.446 -24.895  -8.501  1.00  0.00    -0.006 C 
HETATM    7  C8  UNL     1      -1.408 -24.828  -9.600  1.00  0.00     0.006 C 
HETATM    8  C9  UNL     1      -1.794 -23.543 -10.181  1.00  0.00     0.013 C 
HETATM    9  C10 UNL     1      -3.052 -22.851  -9.917  1.00  0.00    -0.006 C 
HETATM   10  C11 UNL     1      -2.630 -21.626 -10.688  1.00  0.00     0.013 C 
HETATM   11  C12 UNL     1      -1.542 -21.101  -9.718  1.00  0.00     0.005 C 
HETATM   12  C13 UNL     1      -4.004 -23.879 -10.313  1.00  0.00    -0.024 C 
HETATM   13  C14 UNL     1      -3.783 -24.333 -11.717  1.00  0.00     0.017 C 
HETATM   14  C15 UNL     1      -5.485 -23.773 -10.239  1.00  0.00     0.047 C 
HETATM   15  C16 UNL     1      -6.117 -25.088 -10.718  1.00  0.00     0.159 C 
HETATM   16  C17 UNL     1      -5.230 -26.256 -10.482  1.00  0.00     0.014 C 
HETATM   17 BR1  UNL     1      -5.821 -27.896 -11.289  1.00  0.00    -0.053 Br
HETATM   18  C18 UNL     1      -4.119 -26.198  -9.776  1.00  0.00    -0.004 C 
HETATM   19  C19 UNL     1      -3.747 -24.894  -9.192  1.00  0.00     0.022 C 
ENDROOT
BRANCH   1  20
HETATM   20  O1  UNL     1      -4.473 -21.116  -9.333  1.00  0.00    -0.390 OA
HETATM   21  C1  UNL     1      -4.842 -20.161  -8.496  1.00  0.00     0.202 C 
ENDBRANCH   1  20
BRANCH  15  22
HETATM   22  O2  UNL     1      -7.284 -25.404  -9.965  1.00  0.00    -0.390 OA
ATOM     23  H2  UNL     1      -8.061 -25.025 -10.359  1.00  0.00     0.210 HD
ENDBRANCH  15  22
TORSDOF 2
ENDMDL
MODEL 5
REMARK VINA RESULT: -5.620643568      2.679      4.368
REMARK  2 active torsions:
REMARK  status: ('A' for Active; 'I' for Inactive)
REMARK    1  A    between atoms: O1_2  and  C2_3 
REMARK    2  A    between atoms: C16_17  and  O2_18 
ROOT
HETATM    1  C2  UNL     1      -2.904 -22.611 -10.623  1.00  0.00     0.130 C 
HETATM    2  C3  UNL     1      -3.555 -22.632 -12.023  1.00  0.00     0.037 C 
HETATM    3  C4  UNL     1      -4.842 -23.303 -11.719  1.00  0.00    -0.012 C 
HETATM    4  C5  UNL     1      -4.568 -24.729 -11.805  1.00  0.00     0.005 C 
HETATM    5  C6  UNL     1      -3.194 -25.297 -11.411  1.00  0.00     0.005 C 
HETATM    6  C7  UNL     1      -2.821 -25.550 -10.049  1.00  0.00    -0.006 C 
HETATM    7  C8  UNL     1      -4.117 -25.695  -9.283  1.00  0.00     0.006 C 
HETATM    8  C9  UNL     1      -4.486 -24.281  -9.216  1.00  0.00     0.013 C 
HETATM    9  C10 UNL     1      -3.586 -23.169  -9.504  1.00  0.00    -0.006 C 
HETATM   10  C11 UNL     1      -4.687 -22.146  -9.391  1.00  0.00     0.013 C 
HETATM   11  C12 UNL     1      -5.479 -22.511 -10.672  1.00  0.00     0.005 C 
HETATM   12  C13 UNL     1      -2.515 -23.446  -8.556  1.00  0.00    -0.024 C 
HETATM   13  C14 UNL     1      -3.021 -23.540  -7.157  1.00  0.00     0.017 C 
HETATM   14  C15 UNL     1      -1.266 -22.658  -8.395  1.00  0.00     0.047 C 
HETATM   15  C16 UNL     1      -0.387 -23.306  -7.315  1.00  0.00     0.159 C 
HETATM   16  C17 UNL     1      -0.613 -24.771  -7.213  1.00  0.00     0.014 C 
HETATM   17 BR1  UNL     1       0.241 -25.617  -5.714  1.00  0.00    -0.053 Br
HETATM   18  C18 UNL     1      -1.337 -25.460  -8.071  1.00  0.00    -0.004 C 
HETATM   19  C19 UNL     1      -1.952 -24.723  -9.193  1.00  0.00     0.022 C 
ENDROOT
BRANCH   1  20
HETATM   20  O1  UNL     1      -2.836 -21.202 -10.474  1.00  0.00    -0.390 OA
HETATM   21  C1  UNL     1      -2.400 -20.479 -11.492  1.00  0.00     0.202 C 
ENDBRANCH   1  20
BRANCH  15  22
HETATM   22  O2  UNL     1       0.994 -23.208  -7.647  1.00  0.00    -0.390 OA
ATOM     23  H2  UNL     1       1.443 -24.032  -7.497  1.00  0.00     0.210 HD
ENDBRANCH  15  22
TORSDOF 2
ENDMDL
