MODEL 1
REMARK VINA RESULT: -6.579911459      0.000      0.000
REMARK  3 active torsions:
REMARK  status: ('A' for Active; 'I' for Inactive)
REMARK    1  A    between atoms: S1_2  and  N1_3 
REMARK    2  A    between atoms: C6_14  and  C7_15 
REMARK    3  A    between atoms: C7_15  and  C8_16 
ROOT
HETATM    1  N1  UNL     1      23.381  -3.262   1.503  1.00  0.00    -0.256 N 
HETATM    2  C2  UNL     1      22.664  -2.187   0.827  1.00  0.00     0.354 A 
HETATM    3  C3  UNL     1      21.427  -2.558  -0.043  1.00  0.00     0.341 A 
HETATM    4  C4  UNL     1      20.955  -1.999  -0.379  1.00  0.00     0.379 A 
HETATM    5  N2  UNL     1      19.909  -2.030  -1.198  1.00  0.00    -0.191 N 
ATOM      6  H2  UNL     1      19.383  -1.236  -1.561  1.00  0.00     0.180 HD
HETATM    7  C5  UNL     1      19.698  -3.317  -1.441  1.00  0.00     0.679 A 
HETATM    8  N3  UNL     1      18.877  -3.889  -2.131  1.00  0.00    -0.234 N 
ATOM      9  H31 UNL     1      18.714  -4.878  -2.318  1.00  0.00     0.174 HD
ATOM     10  H32 UNL     1      18.109  -3.556  -2.714  1.00  0.00     0.174 HD
HETATM   11  N4  UNL     1      20.743  -3.770  -0.648  1.00  0.00    -0.127 N 
HETATM   12  C6  UNL     1      21.147  -5.101  -0.412  1.00  0.00     0.102 A 
HETATM   13  N5  UNL     1      22.198  -5.230   0.397  1.00  0.00    -0.324 N 
ATOM     14  H5  UNL     1      22.649  -6.096   0.693  1.00  0.00     0.165 HD
HETATM   15  C14 UNL     1      22.571  -3.837   0.777  1.00  0.00     0.358 A 
HETATM   16  N6  UNL     1      21.806  -2.968   0.230  1.00  0.00     0.083 N 
ENDROOT
BRANCH  12  17
HETATM   17  C7  UNL     1      20.630  -6.367  -0.874  1.00  0.00     0.081 C 
BRANCH  17  18
HETATM   18  C8  UNL     1      21.498  -7.537  -0.830  1.00  0.00    -0.007 C 
HETATM   19  C9  UNL     1      20.718  -8.584  -0.051  1.00  0.00     0.005 C 
HETATM   20  C10 UNL     1      21.144  -9.963  -0.426  1.00  0.00     0.000 C 
HETATM   21  C11 UNL     1      20.708 -10.177  -1.860  1.00  0.00     0.000 C 
HETATM   22  C12 UNL     1      21.480  -9.234  -2.713  1.00  0.00     0.000 C 
HETATM   23  C13 UNL     1      22.147  -8.101  -2.014  1.00  0.00     0.005 C 
ENDBRANCH  17  18
ENDBRANCH  12  17
BRANCH   1  24
HETATM   24  S1  UNL     1      24.552  -2.665   2.571  1.00  0.00    -0.056 SA
HETATM   25  C1  UNL     1      25.686  -1.494   1.759  1.00  0.00     0.115 C 
ENDBRANCH   1  24
TORSDOF 3
ENDMDL
MODEL 2
REMARK VINA RESULT: -6.578610744      2.380      4.125
REMARK  3 active torsions:
REMARK  status: ('A' for Active; 'I' for Inactive)
REMARK    1  A    between atoms: S1_2  and  N1_3 
REMARK    2  A    between atoms: C6_14  and  C7_15 
REMARK    3  A    between atoms: C7_15  and  C8_16 
ROOT
HETATM    1  N1  UNL     1      19.480  -3.347  -1.574  1.00  0.00    -0.256 N 
HETATM    2  C2  UNL     1      20.173  -2.257  -0.894  1.00  0.00     0.354 A 
HETATM    3  C3  UNL     1      21.407  -2.605  -0.009  1.00  0.00     0.341 A 
HETATM    4  C4  UNL     1      21.866  -2.038   0.329  1.00  0.00     0.379 A 
HETATM    5  N2  UNL     1      22.903  -2.049   1.159  1.00  0.00    -0.191 N 
ATOM      6  H2  UNL     1      23.413  -1.245   1.525  1.00  0.00     0.180 HD
HETATM    7  C5  UNL     1      23.132  -3.331   1.410  1.00  0.00     0.679 A 
HETATM    8  N3  UNL     1      23.954  -3.888   2.111  1.00  0.00    -0.234 N 
ATOM      9  H31 UNL     1      24.131  -4.874   2.304  1.00  0.00     0.174 HD
ATOM     10  H32 UNL     1      24.711  -3.541   2.701  1.00  0.00     0.174 HD
HETATM   11  N4  UNL     1      22.103  -3.804   0.608  1.00  0.00    -0.127 N 
HETATM   12  C6  UNL     1      21.723  -5.142   0.373  1.00  0.00     0.102 A 
HETATM   13  N5  UNL     1      20.683  -5.291  -0.447  1.00  0.00    -0.324 N 
ATOM     14  H5  UNL     1      20.248  -6.165  -0.744  1.00  0.00     0.165 HD
HETATM   15  C14 UNL     1      20.292  -3.905  -0.836  1.00  0.00     0.358 A 
HETATM   16  N6  UNL     1      21.037  -3.023  -0.285  1.00  0.00     0.083 N 
ENDROOT
BRANCH  12  17
HETATM   17  C7  UNL     1      22.255  -6.398   0.846  1.00  0.00     0.081 C 
BRANCH  17  18
HETATM   18  C8  UNL     1      21.391  -7.573   0.839  1.00  0.00    -0.007 C 
HETATM   19  C9  UNL     1      22.171  -8.638   0.086  1.00  0.00     0.005 C 
HETATM   20  C10 UNL     1      21.753 -10.008   0.503  1.00  0.00     0.000 C 
HETATM   21  C11 UNL     1      22.196 -10.179   1.940  1.00  0.00     0.000 C 
HETATM   22  C12 UNL     1      21.425  -9.215   2.770  1.00  0.00     0.000 C 
HETATM   23  C13 UNL     1      20.750  -8.105   2.042  1.00  0.00     0.005 C 
ENDBRANCH  17  18
ENDBRANCH  12  17
BRANCH   1  24
HETATM   24  S1  UNL     1      18.312  -2.772  -2.656  1.00  0.00    -0.056 SA
HETATM   25  C1  UNL     1      17.242  -1.506  -1.901  1.00  0.00     0.115 C 
ENDBRANCH   1  24
TORSDOF 3
ENDMDL
MODEL 3
REMARK VINA RESULT: -6.410014301      2.657      6.164
REMARK  3 active torsions:
REMARK  status: ('A' for Active; 'I' for Inactive)
REMARK    1  A    between atoms: S1_2  and  N1_3 
REMARK    2  A    between atoms: C6_14  and  C7_15 
REMARK    3  A    between atoms: C7_15  and  C8_16 
ROOT
HETATM    1  N1  UNL     1      20.724  -7.311  -0.544  1.00  0.00    -0.256 N 
HETATM    2  C2  UNL     1      21.726  -6.836   0.405  1.00  0.00     0.354 A 
HETATM    3  C3  UNL     1      21.884  -5.300   0.605  1.00  0.00     0.341 A 
HETATM    4  C4  UNL     1      22.370  -4.988   1.166  1.00  0.00     0.379 A 
HETATM    5  N2  UNL     1      22.739  -3.757   1.501  1.00  0.00    -0.191 N 
ATOM      6  H2  UNL     1      23.375  -3.482   2.248  1.00  0.00     0.180 HD
HETATM    7  C5  UNL     1      22.100  -2.961   0.653  1.00  0.00     0.679 A 
HETATM    8  N3  UNL     1      22.095  -1.753   0.519  1.00  0.00    -0.234 N 
ATOM      9  H31 UNL     1      21.604  -1.141  -0.133  1.00  0.00     0.174 HD
ATOM     10  H32 UNL     1      22.566  -0.999   1.018  1.00  0.00     0.174 HD
HETATM   11  N4  UNL     1      21.459  -3.988  -0.027  1.00  0.00    -0.127 N 
HETATM   12  C6  UNL     1      20.568  -3.891  -1.116  1.00  0.00     0.102 A 
HETATM   13  N5  UNL     1      20.112  -5.058  -1.569  1.00  0.00    -0.324 N 
ATOM     14  H5  UNL     1      19.467  -5.213  -2.344  1.00  0.00     0.165 HD
HETATM   15  C14 UNL     1      20.747  -6.090  -0.699  1.00  0.00     0.358 A 
HETATM   16  N6  UNL     1      21.515  -5.568   0.183  1.00  0.00     0.083 N 
ENDROOT
BRANCH  12  17
HETATM   17  C7  UNL     1      20.040  -2.758  -1.838  1.00  0.00     0.081 C 
BRANCH  17  18
HETATM   18  C8  UNL     1      19.049  -1.910  -1.185  1.00  0.00    -0.007 C 
HETATM   19  C9  UNL     1      19.464  -0.485  -1.513  1.00  0.00     0.005 C 
HETATM   20  C10 UNL     1      18.295   0.440  -1.475  1.00  0.00     0.000 C 
HETATM   21  C11 UNL     1      17.394   0.048  -2.627  1.00  0.00     0.000 C 
HETATM   22  C12 UNL     1      16.879  -1.320  -2.354  1.00  0.00     0.000 C 
HETATM   23  C13 UNL     1      17.606  -2.110  -1.322  1.00  0.00     0.005 C 
ENDBRANCH  17  18
ENDBRANCH  12  17
BRANCH   1  24
HETATM   24  S1  UNL     1      20.535  -8.991  -0.475  1.00  0.00    -0.056 SA
HETATM   25  C1  UNL     1      21.749  -9.772   0.636  1.00  0.00     0.115 C 
ENDBRANCH   1  24
TORSDOF 3
ENDMDL
MODEL 4
REMARK VINA RESULT: -6.385411707      1.958      6.271
REMARK  3 active torsions:
REMARK  status: ('A' for Active; 'I' for Inactive)
REMARK    1  A    between atoms: S1_2  and  N1_3 
REMARK    2  A    between atoms: C6_14  and  C7_15 
REMARK    3  A    between atoms: C7_15  and  C8_16 
ROOT
HETATM    1  N1  UNL     1      22.123  -7.109   0.453  1.00  0.00    -0.256 N 
HETATM    2  C2  UNL     1      21.128  -6.612  -0.491  1.00  0.00     0.354 A 
HETATM    3  C3  UNL     1      20.985  -5.072  -0.672  1.00  0.00     0.341 A 
HETATM    4  C4  UNL     1      20.504  -4.747  -1.229  1.00  0.00     0.379 A 
HETATM    5  N2  UNL     1      20.148  -3.508  -1.548  1.00  0.00    -0.191 N 
ATOM      6  H2  UNL     1      19.516  -3.217  -2.293  1.00  0.00     0.180 HD
HETATM    7  C5  UNL     1      20.792  -2.730  -0.688  1.00  0.00     0.679 A 
HETATM    8  N3  UNL     1      20.809  -1.525  -0.538  1.00  0.00    -0.234 N 
ATOM      9  H31 UNL     1      21.304  -0.926   0.123  1.00  0.00     0.174 HD
ATOM     10  H32 UNL     1      20.347  -0.759  -1.028  1.00  0.00     0.174 HD
HETATM   11  N4  UNL     1      21.421  -3.773  -0.021  1.00  0.00    -0.127 N 
HETATM   12  C6  UNL     1      22.311  -3.699   1.072  1.00  0.00     0.102 A 
HETATM   13  N5  UNL     1      22.755  -4.876   1.510  1.00  0.00    -0.324 N 
ATOM     14  H5  UNL     1      23.396  -5.048   2.284  1.00  0.00     0.165 HD
HETATM   15  C14 UNL     1      22.111  -5.890   0.625  1.00  0.00     0.358 A 
HETATM   16  N6  UNL     1      21.351  -5.349  -0.252  1.00  0.00     0.083 N 
ENDROOT
BRANCH  12  17
HETATM   17  C7  UNL     1      22.849  -2.581   1.810  1.00  0.00     0.081 C 
BRANCH  17  18
HETATM   18  C8  UNL     1      23.879  -1.759   1.186  1.00  0.00    -0.007 C 
HETATM   19  C9  UNL     1      23.505  -0.325   1.523  1.00  0.00     0.005 C 
HETATM   20  C10 UNL     1      24.704   0.561   1.518  1.00  0.00     0.000 C 
HETATM   21  C11 UNL     1      25.569   0.127   2.683  1.00  0.00     0.000 C 
HETATM   22  C12 UNL     1      26.045  -1.254   2.403  1.00  0.00     0.000 C 
HETATM   23  C13 UNL     1      25.312  -2.008   1.349  1.00  0.00     0.005 C 
ENDBRANCH  17  18
ENDBRANCH  12  17
BRANCH   1  24
HETATM   24  S1  UNL     1      22.295  -8.790   0.362  1.00  0.00    -0.056 SA
HETATM   25  C1  UNL     1      21.140  -9.534  -0.834  1.00  0.00     0.115 C 
ENDBRANCH   1  24
TORSDOF 3
ENDMDL
MODEL 5
REMARK VINA RESULT: -6.267097326      2.920      5.883
REMARK  3 active torsions:
REMARK  status: ('A' for Active; 'I' for Inactive)
REMARK    1  A    between atoms: S1_2  and  N1_3 
REMARK    2  A    between atoms: C6_14  and  C7_15 
REMARK    3  A    between atoms: C7_15  and  C8_16 
ROOT
HETATM    1  N1  UNL     1      21.096  -7.650   1.277  1.00  0.00    -0.256 N 
HETATM    2  C2  UNL     1      21.840  -8.327   0.220  1.00  0.00     0.354 A 
HETATM    3  C3  UNL     1      22.401  -7.470  -0.953  1.00  0.00     0.341 A 
HETATM    4  C4  UNL     1      22.877  -7.781  -1.522  1.00  0.00     0.379 A 
HETATM    5  N2  UNL     1      23.425  -7.313  -2.639  1.00  0.00    -0.191 N 
ATOM      6  H2  UNL     1      24.024  -7.816  -3.292  1.00  0.00     0.180 HD
HETATM    7  C5  UNL     1      23.023  -6.052  -2.720  1.00  0.00     0.679 A 
HETATM    8  N3  UNL     1      23.228  -5.185  -3.547  1.00  0.00    -0.234 N 
ATOM      9  H31 UNL     1      22.919  -4.215  -3.609  1.00  0.00     0.174 HD
ATOM     10  H32 UNL     1      23.771  -5.166  -4.409  1.00  0.00     0.174 HD
HETATM   11  N4  UNL     1      22.283  -6.079  -1.545  1.00  0.00    -0.127 N 
HETATM   12  C6  UNL     1      21.535  -5.035  -0.962  1.00  0.00     0.102 A 
HETATM   13  N5  UNL     1      20.918  -5.359   0.175  1.00  0.00    -0.324 N 
ATOM     14  H5  UNL     1      20.328  -4.760   0.752  1.00  0.00     0.165 HD
HETATM   15  C14 UNL     1      21.277  -6.785   0.421  1.00  0.00     0.358 A 
HETATM   16  N6  UNL     1      22.034  -7.256  -0.498  1.00  0.00     0.083 N 
ENDROOT
BRANCH  12  17
HETATM   17  C7  UNL     1      21.312  -3.664  -1.355  1.00  0.00     0.081 C 
BRANCH  17  18
HETATM   18  C8  UNL     1      20.057  -3.318  -2.012  1.00  0.00    -0.007 C 
HETATM   19  C9  UNL     1      19.093  -2.988  -0.885  1.00  0.00     0.005 C 
HETATM   20  C10 UNL     1      18.023  -2.056  -1.345  1.00  0.00     0.000 C 
HETATM   21  C11 UNL     1      18.698  -0.735  -1.644  1.00  0.00     0.000 C 
HETATM   22  C12 UNL     1      19.618  -0.946  -2.794  1.00  0.00     0.000 C 
HETATM   23  C13 UNL     1      19.966  -2.358  -3.113  1.00  0.00     0.005 C 
ENDBRANCH  17  18
ENDBRANCH  12  17
BRANCH   1  24
HETATM   24  S1  UNL     1      20.753  -8.687   2.570  1.00  0.00    -0.056 SA
HETATM   25  C1  UNL     1      22.174  -9.743   2.998  1.00  0.00     0.115 C 
ENDBRANCH   1  24
TORSDOF 3
ENDMDL
