MODEL 1
REMARK VINA RESULT: -7.002825885      0.000      0.000
REMARK  8 active torsions:
REMARK  status: ('A' for Active; 'I' for Inactive)
REMARK    1  A    between atoms: C2_2  and  C3_3 
REMARK    2  A    between atoms: C4_4  and  O1_5 
REMARK    3  A    between atoms: C5_7  and  O2_8 
REMARK    4  A    between atoms: C6_10  and  O3_11 
REMARK    5  A    between atoms: O3_11  and  C7_12 
REMARK    6  A    between atoms: C7_12  and  C8_13 
REMARK    7  A    between atoms: N3_31  and  C23_32 
REMARK    8  A    between atoms: C23_32  and  C24_33 
ROOT
HETATM    1  C3  UNL     1      11.094  11.713  22.063  1.00  0.00     0.231 C 
HETATM    2  C4  UNL     1       9.627  11.878  22.053  1.00  0.00     0.183 C 
HETATM    3  C5  UNL     1       9.397  13.332  21.982  1.00  0.00     0.214 C 
HETATM    4  C6  UNL     1      10.598  13.972  22.661  1.00  0.00     0.277 C 
HETATM    5  C14 UNL     1      10.731  13.763  24.058  1.00  0.00     0.132 C 
HETATM    6  C15 UNL     1      11.055  14.620  25.193  1.00  0.00     0.288 C 
HETATM    7  C16 UNL     1      11.359  13.667  26.364  1.00  0.00     0.282 C 
HETATM    8  N1  UNL     1      11.408  12.309  26.113  1.00  0.00     0.034 N 
HETATM    9  C17 UNL     1      12.455  11.717  26.972  1.00  0.00     0.362 C 
HETATM   10  O4  UNL     1      10.260  11.732  26.639  1.00  0.00    -0.060 OA
HETATM   11  C18 UNL     1      11.662  11.828  24.753  1.00  0.00     0.357 C 
HETATM   12  C19 UNL     1      11.996  12.973  23.826  1.00  0.00     0.182 C 
HETATM   13  C20 UNL     1      13.283  13.476  24.325  1.00  0.00     0.073 C 
HETATM   14  C21 UNL     1      13.382  14.798  24.968  1.00  0.00     0.275 C 
HETATM   15  N2  UNL     1      12.154  15.522  25.082  1.00  0.00     0.095 N 
HETATM   16  C22 UNL     1      12.163  16.356  26.303  1.00  0.00     0.310 C 
HETATM   17  N3  UNL     1      11.697  12.990  22.423  1.00  0.00     0.008 N 
ENDROOT
BRANCH   4  18
HETATM   18  O3  UNL     1      10.831  15.237  22.272  1.00  0.00    -0.320 OA
BRANCH  18  19
HETATM   19  C7  UNL     1      10.048  16.281  22.372  1.00  0.00     0.149 C 
BRANCH  19  20
HETATM   20  C8  UNL     1      10.219  17.547  23.030  1.00  0.00    -0.014 A 
HETATM   21  C9  UNL     1       9.546  17.897  24.167  1.00  0.00     0.013 A 
HETATM   22  C10 UNL     1       9.724  19.090  24.788  1.00  0.00     0.001 A 
HETATM   23  C11 UNL     1      10.625  20.027  24.279  1.00  0.00     0.000 A 
HETATM   24  C12 UNL     1      11.302  19.670  23.134  1.00  0.00     0.001 A 
HETATM   25  C13 UNL     1      11.096  18.461  22.536  1.00  0.00     0.013 A 
ENDBRANCH  19  20
ENDBRANCH  18  19
ENDBRANCH   4  18
BRANCH   3  26
HETATM   26  O2  UNL     1       9.179  13.725  20.689  1.00  0.00    -0.388 OA
ATOM     27  H2  UNL     1       9.939  13.542  20.149  1.00  0.00     0.210 HD
ENDBRANCH   3  26
BRANCH  17  28
HETATM   28  C23 UNL     1      12.533  13.367  21.419  1.00  0.00     0.219 C 
BRANCH  28  29
HETATM   29  C24 UNL     1      13.858  12.977  20.930  1.00  0.00    -0.013 A 
HETATM   30  C25 UNL     1      14.081  12.413  19.686  1.00  0.00     0.013 A 
HETATM   31  C26 UNL     1      15.274  12.013  19.153  1.00  0.00     0.001 A 
HETATM   32  C27 UNL     1      16.389  12.187  19.936  1.00  0.00     0.000 A 
HETATM   33  C28 UNL     1      16.264  12.740  21.192  1.00  0.00     0.001 A 
HETATM   34  C29 UNL     1      15.026  13.102  21.623  1.00  0.00     0.013 A 
ENDBRANCH  28  29
ENDBRANCH  17  28
BRANCH   2  35
HETATM   35  O1  UNL     1       9.012  11.314  20.902  1.00  0.00    -0.391 OA
ATOM     36  H1  UNL     1       9.356  11.662  20.087  1.00  0.00     0.210 HD
ENDBRANCH   2  35
BRANCH   1  37
HETATM   37  C2  UNL     1      11.509  10.886  20.918  1.00  0.00     0.032 C 
HETATM   38  C1  UNL     1      12.235   9.594  21.165  1.00  0.00     0.007 C 
ENDBRANCH   1  37
TORSDOF 8
ENDMDL
MODEL 2
REMARK VINA RESULT: -6.974089117      3.268      4.665
REMARK  8 active torsions:
REMARK  status: ('A' for Active; 'I' for Inactive)
REMARK    1  A    between atoms: C2_2  and  C3_3 
REMARK    2  A    between atoms: C4_4  and  O1_5 
REMARK    3  A    between atoms: C5_7  and  O2_8 
REMARK    4  A    between atoms: C6_10  and  O3_11 
REMARK    5  A    between atoms: O3_11  and  C7_12 
REMARK    6  A    between atoms: C7_12  and  C8_13 
REMARK    7  A    between atoms: N3_31  and  C23_32 
REMARK    8  A    between atoms: C23_32  and  C24_33 
ROOT
HETATM    1  C3  UNL     1       7.479  12.478  19.661  1.00  0.00     0.231 C 
HETATM    2  C4  UNL     1       6.625  13.088  20.699  1.00  0.00     0.183 C 
HETATM    3  C5  UNL     1       7.201  14.421  20.947  1.00  0.00     0.214 C 
HETATM    4  C6  UNL     1       8.686  14.291  20.644  1.00  0.00     0.277 C 
HETATM    5  C14 UNL     1       9.448  13.474  21.517  1.00  0.00     0.132 C 
HETATM    6  C15 UNL     1      10.745  13.610  22.172  1.00  0.00     0.288 C 
HETATM    7  C16 UNL     1      11.099  12.206  22.696  1.00  0.00     0.282 C 
HETATM    8  N1  UNL     1      10.276  11.149  22.357  1.00  0.00     0.034 N 
HETATM    9  C17 UNL     1      11.118   9.948  22.173  1.00  0.00     0.362 C 
HETATM   10  O4  UNL     1       9.538  10.800  23.480  1.00  0.00    -0.060 OA
HETATM   11  C18 UNL     1       9.419  11.243  21.173  1.00  0.00     0.357 C 
HETATM   12  C19 UNL     1       9.710  12.504  20.391  1.00  0.00     0.182 C 
HETATM   13  C20 UNL     1      11.076  12.306  19.888  1.00  0.00     0.073 C 
HETATM   14  C21 UNL     1      12.195  13.119  20.397  1.00  0.00     0.275 C 
HETATM   15  N2  UNL     1      11.856  14.072  21.407  1.00  0.00     0.095 N 
HETATM   16  C22 UNL     1      12.989  14.252  22.342  1.00  0.00     0.310 C 
HETATM   17  N3  UNL     1       8.736  13.213  19.612  1.00  0.00     0.008 N 
ENDROOT
BRANCH   4  18
HETATM   18  O3  UNL     1       9.278  15.454  20.325  1.00  0.00    -0.320 OA
BRANCH  18  19
HETATM   19  C7  UNL     1       9.118  16.632  20.872  1.00  0.00     0.149 C 
BRANCH  19  20
HETATM   20  C8  UNL     1       9.818  17.297  21.937  1.00  0.00    -0.014 A 
HETATM   21  C9  UNL     1      10.768  18.257  21.723  1.00  0.00     0.013 A 
HETATM   22  C10 UNL     1      11.414  18.889  22.735  1.00  0.00     0.001 A 
HETATM   23  C11 UNL     1      11.126  18.575  24.064  1.00  0.00     0.000 A 
HETATM   24  C12 UNL     1      10.168  17.608  24.276  1.00  0.00     0.001 A 
HETATM   25  C13 UNL     1       9.539  16.994  23.232  1.00  0.00     0.013 A 
ENDBRANCH  19  20
ENDBRANCH  18  19
ENDBRANCH   4  18
BRANCH   3  26
HETATM   26  O2  UNL     1       6.539  15.377  20.223  1.00  0.00    -0.388 OA
ATOM     27  H2  UNL     1       6.657  16.235  20.613  1.00  0.00     0.210 HD
ENDBRANCH   3  26
BRANCH  17  28
HETATM   28  C23 UNL     1       8.902  13.697  18.352  1.00  0.00     0.219 C 
BRANCH  28  29
HETATM   29  C24 UNL     1       9.192  13.144  17.026  1.00  0.00    -0.013 A 
HETATM   30  C25 UNL     1       9.932  11.993  16.820  1.00  0.00     0.013 A 
HETATM   31  C26 UNL     1      10.256  11.413  15.626  1.00  0.00     0.001 A 
HETATM   32  C27 UNL     1       9.798  12.037  14.491  1.00  0.00     0.000 A 
HETATM   33  C28 UNL     1       9.052  13.191  14.598  1.00  0.00     0.001 A 
HETATM   34  C29 UNL     1       8.789  13.683  15.839  1.00  0.00     0.013 A 
ENDBRANCH  28  29
ENDBRANCH  17  28
BRANCH   2  35
HETATM   35  O1  UNL     1       5.287  13.299  20.265  1.00  0.00    -0.391 OA
ATOM     36  H1  UNL     1       4.916  14.113  20.584  1.00  0.00     0.210 HD
ENDBRANCH   2  35
BRANCH   1  37
HETATM   37  C2  UNL     1       6.664  12.137  18.484  1.00  0.00     0.032 C 
HETATM   38  C1  UNL     1       6.586  10.707  18.029  1.00  0.00     0.007 C 
ENDBRANCH   1  37
TORSDOF 8
ENDMDL
MODEL 3
REMARK VINA RESULT: -6.935551484      2.403      5.989
REMARK  8 active torsions:
REMARK  status: ('A' for Active; 'I' for Inactive)
REMARK    1  A    between atoms: C2_2  and  C3_3 
REMARK    2  A    between atoms: C4_4  and  O1_5 
REMARK    3  A    between atoms: C5_7  and  O2_8 
REMARK    4  A    between atoms: C6_10  and  O3_11 
REMARK    5  A    between atoms: O3_11  and  C7_12 
REMARK    6  A    between atoms: C7_12  and  C8_13 
REMARK    7  A    between atoms: N3_31  and  C23_32 
REMARK    8  A    between atoms: C23_32  and  C24_33 
ROOT
HETATM    1  C3  UNL     1      12.857  14.622  26.499  1.00  0.00     0.231 C 
HETATM    2  C4  UNL     1      13.543  15.919  26.334  1.00  0.00     0.183 C 
HETATM    3  C5  UNL     1      12.539  16.822  25.747  1.00  0.00     0.214 C 
HETATM    4  C6  UNL     1      11.605  15.931  24.941  1.00  0.00     0.277 C 
HETATM    5  C14 UNL     1      12.150  15.308  23.789  1.00  0.00     0.132 C 
HETATM    6  C15 UNL     1      11.689  15.112  22.419  1.00  0.00     0.288 C 
HETATM    7  C16 UNL     1      12.632  14.060  21.806  1.00  0.00     0.282 C 
HETATM    8  N1  UNL     1      13.559  13.448  22.629  1.00  0.00     0.034 N 
HETATM    9  C17 UNL     1      13.710  12.045  22.189  1.00  0.00     0.362 C 
HETATM   10  O4  UNL     1      14.811  13.967  22.329  1.00  0.00    -0.060 OA
HETATM   11  C18 UNL     1      13.338  13.410  24.076  1.00  0.00     0.357 C 
HETATM   12  C19 UNL     1      11.973  13.954  24.430  1.00  0.00     0.182 C 
HETATM   13  C20 UNL     1      11.037  12.979  23.852  1.00  0.00     0.073 C 
HETATM   14  C21 UNL     1      10.184  13.337  22.704  1.00  0.00     0.275 C 
HETATM   15  N2  UNL     1      10.353  14.665  22.202  1.00  0.00     0.095 N 
HETATM   16  C22 UNL     1      10.112  14.692  20.742  1.00  0.00     0.310 C 
HETATM   17  N3  UNL     1      11.666  14.625  25.660  1.00  0.00     0.008 N 
ENDROOT
BRANCH   4  18
HETATM   18  O3  UNL     1      10.383  16.456  24.754  1.00  0.00    -0.320 OA
BRANCH  18  19
HETATM   19  C7  UNL     1      10.052  17.703  24.529  1.00  0.00     0.149 C 
BRANCH  19  20
HETATM   20  C8  UNL     1      10.551  18.672  23.593  1.00  0.00    -0.014 A 
HETATM   21  C9  UNL     1      10.962  18.350  22.329  1.00  0.00     0.013 A 
HETATM   22  C10 UNL     1      11.418  19.275  21.448  1.00  0.00     0.001 A 
HETATM   23  C11 UNL     1      11.486  20.622  21.805  1.00  0.00     0.000 A 
HETATM   24  C12 UNL     1      11.070  20.943  23.079  1.00  0.00     0.001 A 
HETATM   25  C13 UNL     1      10.617  19.985  23.939  1.00  0.00     0.013 A 
ENDBRANCH  19  20
ENDBRANCH  18  19
ENDBRANCH   4  18
BRANCH   3  26
HETATM   26  O2  UNL     1      11.935  17.573  26.720  1.00  0.00    -0.388 OA
ATOM     27  H2  UNL     1      12.457  18.339  26.925  1.00  0.00     0.210 HD
ENDBRANCH   3  26
BRANCH  17  28
HETATM   28  C23 UNL     1      10.582  14.409  26.454  1.00  0.00     0.219 C 
BRANCH  28  29
HETATM   29  C24 UNL     1      10.126  13.367  27.377  1.00  0.00    -0.013 A 
HETATM   30  C25 UNL     1       9.424  13.627  28.541  1.00  0.00     0.013 A 
HETATM   31  C26 UNL     1       8.968  12.723  29.459  1.00  0.00     0.001 A 
HETATM   32  C27 UNL     1       9.233  11.399  29.208  1.00  0.00     0.000 A 
HETATM   33  C28 UNL     1       9.928  11.045  28.072  1.00  0.00     0.001 A 
HETATM   34  C29 UNL     1      10.336  12.027  27.225  1.00  0.00     0.013 A 
ENDBRANCH  28  29
ENDBRANCH  17  28
BRANCH   2  35
HETATM   35  O1  UNL     1      13.938  16.500  27.570  1.00  0.00    -0.391 OA
ATOM     36  H1  UNL     1      13.582  17.371  27.702  1.00  0.00     0.210 HD
ENDBRANCH   2  35
BRANCH   1  37
HETATM   37  C2  UNL     1      12.881  14.225  27.916  1.00  0.00     0.032 C 
HETATM   38  C1  UNL     1      13.712  13.046  28.338  1.00  0.00     0.007 C 
ENDBRANCH   1  37
TORSDOF 8
ENDMDL
MODEL 4
REMARK VINA RESULT: -6.893480071      2.156      3.509
REMARK  8 active torsions:
REMARK  status: ('A' for Active; 'I' for Inactive)
REMARK    1  A    between atoms: C2_2  and  C3_3 
REMARK    2  A    between atoms: C4_4  and  O1_5 
REMARK    3  A    between atoms: C5_7  and  O2_8 
REMARK    4  A    between atoms: C6_10  and  O3_11 
REMARK    5  A    between atoms: O3_11  and  C7_12 
REMARK    6  A    between atoms: C7_12  and  C8_13 
REMARK    7  A    between atoms: N3_31  and  C23_32 
REMARK    8  A    between atoms: C23_32  and  C24_33 
ROOT
HETATM    1  C3  UNL     1      11.092  11.268  18.393  1.00  0.00     0.231 C 
HETATM    2  C4  UNL     1       9.778  11.911  18.193  1.00  0.00     0.183 C 
HETATM    3  C5  UNL     1       9.795  13.110  19.048  1.00  0.00     0.214 C 
HETATM    4  C6  UNL     1      10.721  12.777  20.207  1.00  0.00     0.277 C 
HETATM    5  C14 UNL     1      10.281  11.778  21.112  1.00  0.00     0.132 C 
HETATM    6  C15 UNL     1      10.262  11.653  22.565  1.00  0.00     0.288 C 
HETATM    7  C16 UNL     1       9.962  10.170  22.854  1.00  0.00     0.282 C 
HETATM    8  N1  UNL     1       9.915   9.288  21.790  1.00  0.00     0.034 N 
HETATM    9  C17 UNL     1      10.463   7.991  22.241  1.00  0.00     0.362 C 
HETATM   10  O4  UNL     1       8.586   8.961  21.559  1.00  0.00    -0.060 OA
HETATM   11  C18 UNL     1      10.600   9.618  20.539  1.00  0.00     0.357 C 
HETATM   12  C19 UNL     1      11.417  10.882  20.685  1.00  0.00     0.182 C 
HETATM   13  C20 UNL     1      12.472  10.519  21.641  1.00  0.00     0.073 C 
HETATM   14  C21 UNL     1      12.499  11.098  22.996  1.00  0.00     0.275 C 
HETATM   15  N2  UNL     1      11.433  12.001  23.301  1.00  0.00     0.095 N 
HETATM   16  C22 UNL     1      11.090  11.919  24.738  1.00  0.00     0.310 C 
HETATM   17  N3  UNL     1      11.681  11.800  19.615  1.00  0.00     0.008 N 
ENDROOT
BRANCH   4  18
HETATM   18  O3  UNL     1      11.257  13.857  20.801  1.00  0.00    -0.320 OA
BRANCH  18  19
HETATM   19  C7  UNL     1      10.696  15.011  21.061  1.00  0.00     0.149 C 
BRANCH  19  20
HETATM   20  C8  UNL     1      10.830  15.913  22.172  1.00  0.00    -0.014 A 
HETATM   21  C9  UNL     1      10.906  15.494  23.472  1.00  0.00     0.013 A 
HETATM   22  C10 UNL     1      11.047  16.352  24.513  1.00  0.00     0.001 A 
HETATM   23  C11 UNL     1      11.123  17.728  24.291  1.00  0.00     0.000 A 
HETATM   24  C12 UNL     1      11.047  18.147  22.981  1.00  0.00     0.001 A 
HETATM   25  C13 UNL     1      10.905  17.253  21.959  1.00  0.00     0.013 A 
ENDBRANCH  19  20
ENDBRANCH  18  19
ENDBRANCH   4  18
BRANCH   3  26
HETATM   26  O2  UNL     1      10.144  14.218  18.321  1.00  0.00    -0.388 OA
ATOM     27  H2  UNL     1       9.441  14.857  18.326  1.00  0.00     0.210 HD
ENDBRANCH   3  26
BRANCH  17  28
HETATM   28  C23 UNL     1      12.881  12.361  19.304  1.00  0.00     0.219 C 
BRANCH  28  29
HETATM   29  C24 UNL     1      14.288  12.122  19.635  1.00  0.00    -0.013 A 
HETATM   30  C25 UNL     1      15.071  11.166  19.011  1.00  0.00     0.013 A 
HETATM   31  C26 UNL     1      16.382  10.871  19.259  1.00  0.00     0.001 A 
HETATM   32  C27 UNL     1      17.005  11.602  20.240  1.00  0.00     0.000 A 
HETATM   33  C28 UNL     1      16.304  12.576  20.918  1.00  0.00     0.001 A 
HETATM   34  C29 UNL     1      15.001  12.786  20.590  1.00  0.00     0.013 A 
ENDBRANCH  28  29
ENDBRANCH  17  28
BRANCH   2  35
HETATM   35  O1  UNL     1       9.578  12.365  16.861  1.00  0.00    -0.391 OA
ATOM     36  H1  UNL     1       8.813  12.921  16.768  1.00  0.00     0.210 HD
ENDBRANCH   2  35
BRANCH   1  37
HETATM   37  C2  UNL     1      11.795  11.164  17.103  1.00  0.00     0.032 C 
HETATM   38  C1  UNL     1      12.395   9.848  16.695  1.00  0.00     0.007 C 
ENDBRANCH   1  37
TORSDOF 8
ENDMDL
MODEL 5
REMARK VINA RESULT: -6.835378898      3.709      5.589
REMARK  8 active torsions:
REMARK  status: ('A' for Active; 'I' for Inactive)
REMARK    1  A    between atoms: C2_2  and  C3_3 
REMARK    2  A    between atoms: C4_4  and  O1_5 
REMARK    3  A    between atoms: C5_7  and  O2_8 
REMARK    4  A    between atoms: C6_10  and  O3_11 
REMARK    5  A    between atoms: O3_11  and  C7_12 
REMARK    6  A    between atoms: C7_12  and  C8_13 
REMARK    7  A    between atoms: N3_31  and  C23_32 
REMARK    8  A    between atoms: C23_32  and  C24_33 
ROOT
HETATM    1  C3  UNL     1       6.711  13.072  19.178  1.00  0.00     0.231 C 
HETATM    2  C4  UNL     1       6.219  13.997  20.218  1.00  0.00     0.183 C 
HETATM    3  C5  UNL     1       7.402  14.756  20.658  1.00  0.00     0.214 C 
HETATM    4  C6  UNL     1       8.589  13.829  20.446  1.00  0.00     0.277 C 
HETATM    5  C14 UNL     1       8.656  12.676  21.269  1.00  0.00     0.132 C 
HETATM    6  C15 UNL     1       9.719  12.020  22.024  1.00  0.00     0.288 C 
HETATM    7  C16 UNL     1       9.167  10.633  22.405  1.00  0.00     0.282 C 
HETATM    8  N1  UNL     1       7.945  10.246  21.889  1.00  0.00     0.034 N 
HETATM    9  C17 UNL     1       7.994   8.792  21.626  1.00  0.00     0.362 C 
HETATM   10  O4  UNL     1       7.006  10.310  22.909  1.00  0.00    -0.060 OA
HETATM   11  C18 UNL     1       7.437  10.874  20.667  1.00  0.00     0.357 C 
HETATM   12  C19 UNL     1       8.471  11.793  20.059  1.00  0.00     0.182 C 
HETATM   13  C20 UNL     1       9.548  10.889  19.633  1.00  0.00     0.073 C 
HETATM   14  C21 UNL     1      10.857  10.898  20.309  1.00  0.00     0.275 C 
HETATM   15  N2  UNL     1      10.983  11.818  21.397  1.00  0.00     0.095 N 
HETATM   16  C22 UNL     1      11.900  11.274  22.422  1.00  0.00     0.310 C 
HETATM   17  N3  UNL     1       8.159  12.971  19.302  1.00  0.00     0.008 N 
ENDROOT
BRANCH   4  18
HETATM   18  O3  UNL     1       9.761  14.471  20.306  1.00  0.00    -0.320 OA
BRANCH  18  19
HETATM   19  C7  UNL     1      10.164  15.574  20.885  1.00  0.00     0.149 C 
BRANCH  19  20
HETATM   20  C8  UNL     1      10.282  15.941  22.269  1.00  0.00    -0.014 A 
HETATM   21  C9  UNL     1      10.862  15.137  23.210  1.00  0.00     0.013 A 
HETATM   22  C10 UNL     1      10.981  15.498  24.513  1.00  0.00     0.001 A 
HETATM   23  C11 UNL     1      10.506  16.736  24.951  1.00  0.00     0.000 A 
HETATM   24  C12 UNL     1       9.923  17.544  23.999  1.00  0.00     0.001 A 
HETATM   25  C13 UNL     1       9.821  17.146  22.698  1.00  0.00     0.013 A 
ENDBRANCH  19  20
ENDBRANCH  18  19
ENDBRANCH   4  18
BRANCH   3  26
HETATM   26  O2  UNL     1       7.476  15.958  20.007  1.00  0.00    -0.388 OA
ATOM     27  H2  UNL     1       7.275  15.853  19.084  1.00  0.00     0.210 HD
ENDBRANCH   3  26
BRANCH  17  28
HETATM   28  C23 UNL     1       8.718  13.348  18.121  1.00  0.00     0.219 C 
BRANCH  28  29
HETATM   29  C24 UNL     1       8.805  12.810  16.761  1.00  0.00    -0.013 A 
HETATM   30  C25 UNL     1       8.788  11.457  16.469  1.00  0.00     0.013 A 
HETATM   31  C26 UNL     1       8.870  10.870  15.238  1.00  0.00     0.001 A 
HETATM   32  C27 UNL     1       8.984  11.710  14.158  1.00  0.00     0.000 A 
HETATM   33  C28 UNL     1       9.011  13.074  14.352  1.00  0.00     0.001 A 
HETATM   34  C29 UNL     1       8.922  13.552  15.622  1.00  0.00     0.013 A 
ENDBRANCH  28  29
ENDBRANCH  17  28
BRANCH   2  35
HETATM   35  O1  UNL     1       5.288  14.949  19.719  1.00  0.00    -0.391 OA
ATOM     36  H1  UNL     1       5.704  15.730  19.373  1.00  0.00     0.210 HD
ENDBRANCH   2  35
BRANCH   1  37
HETATM   37  C2  UNL     1       5.996  13.318  17.915  1.00  0.00     0.032 C 
HETATM   38  C1  UNL     1       5.193  12.210  17.294  1.00  0.00     0.007 C 
ENDBRANCH   1  37
TORSDOF 8
ENDMDL
