MODEL 1
REMARK VINA RESULT: -8.605656297      0.000      0.000
REMARK  6 active torsions:
REMARK  status: ('A' for Active; 'I' for Inactive)
REMARK    1  A    between atoms: N1_7  and  C6_8 
REMARK    2  A    between atoms: C6_8  and  C7_9 
REMARK    3  A    between atoms: C8_10  and  C9_11 
REMARK    4  A    between atoms: C10_12  and  C11_13 
REMARK       I    between atoms: N2_15  and  C13_16 
REMARK    5  A    between atoms: C13_16  and  C14_18 
REMARK    6  A    between atoms: C22_28  and  N3_29 
ROOT
HETATM    1  C7  UNL     1     -16.844 -24.613  26.663  1.00  0.00     0.002 C 
HETATM    2  C8  UNL     1     -16.852 -25.157  27.875  1.00  0.00     0.062 C 
ENDROOT
BRANCH   1   3
HETATM    3  C6  UNL     1     -16.829 -25.463  25.438  1.00  0.00     0.163 C 
BRANCH   3   4
HETATM    4  N1  UNL     1     -16.117 -24.841  24.347  1.00  0.00    -0.283 N 
HETATM    5  C5  UNL     1     -16.803 -23.902  23.499  1.00  0.00     0.227 C 
HETATM    6  C4  UNL     1     -16.065 -23.367  22.329  1.00  0.00     0.114 C 
HETATM    7  O1  UNL     1     -17.974 -23.574  23.770  1.00  0.00    -0.273 OA
HETATM    8  C2  UNL     1     -15.232 -24.488  21.752  1.00  0.00    -0.010 C 
HETATM    9  C1  UNL     1     -16.051 -25.730  21.504  1.00  0.00     0.018 C 
HETATM   10  C3  UNL     1     -14.686 -24.016  20.432  1.00  0.00     0.018 C 
HETATM   11  C22 UNL     1     -14.134 -24.827  22.732  1.00  0.00     0.184 C 
HETATM   12  C21 UNL     1     -14.763 -25.098  24.046  1.00  0.00     0.250 C 
HETATM   13  O3  UNL     1     -14.031 -25.591  24.955  1.00  0.00    -0.271 OA
BRANCH  11  14
HETATM   14  N3  UNL     1     -13.454 -26.009  22.298  1.00  0.00    -0.353 N 
HETATM   15  C23 UNL     1     -12.242 -26.010  21.840  1.00  0.00     0.197 C 
HETATM   16  N4  UNL     1     -11.463 -24.838  21.724  1.00  0.00    -0.067 NA
HETATM   17  N5  UNL     1     -11.692 -27.265  21.444  1.00  0.00    -0.067 NA
ATOM     18  H3  UNL     1     -13.950 -26.899  22.352  1.00  0.00     0.162 HD
ENDBRANCH  11  14
ENDBRANCH   3   4
ENDBRANCH   1   3
BRANCH   2  19
HETATM   19  C9  UNL     1     -16.846 -26.576  28.075  1.00  0.00    -0.078 C 
HETATM   20  C10 UNL     1     -16.829 -27.772  28.261  1.00  0.00    -0.095 C 
BRANCH  20  21
HETATM   21  C11 UNL     1     -16.785 -29.228  28.497  1.00  0.00     0.092 C 
HETATM   22  C12 UNL     1     -16.109 -29.443  29.834  1.00  0.00     0.144 C 
HETATM   23  N2  UNL     1     -16.708 -30.446  30.667  1.00  0.00    -0.345 N 
HETATM   24  C13 UNL     1     -16.285 -30.502  32.013  1.00  0.00     0.230 C 
HETATM   25  C15 UNL     1     -17.712 -31.397  30.217  1.00  0.00     0.097 C 
HETATM   26  O2  UNL     1     -16.786 -31.364  32.772  1.00  0.00    -0.273 OA
HETATM   27  C16 UNL     1     -19.078 -30.784  29.981  1.00  0.00     0.015 C 
HETATM   28  C20 UNL     1     -17.597 -31.351  28.697  1.00  0.00     0.024 A 
HETATM   29  C17 UNL     1     -18.976 -29.334  29.645  1.00  0.00     0.019 C 
HETATM   30  C19 UNL     1     -18.875 -30.946  28.466  1.00  0.00     0.009 A 
HETATM   31  C18 UNL     1     -18.067 -29.842  28.491  1.00  0.00    -0.014 A 
BRANCH  24  32
HETATM   32  C14 UNL     1     -15.268 -29.580  32.572  1.00  0.00     0.188 C 
HETATM   33 BR1  UNL     1     -14.160 -30.465  33.855  1.00  0.00    -0.087 Br
ENDBRANCH  24  32
ENDBRANCH  20  21
ENDBRANCH   2  19
TORSDOF 6
ENDMDL
MODEL 2
REMARK VINA RESULT: -8.365683949      4.205      8.544
REMARK  6 active torsions:
REMARK  status: ('A' for Active; 'I' for Inactive)
REMARK    1  A    between atoms: N1_7  and  C6_8 
REMARK    2  A    between atoms: C6_8  and  C7_9 
REMARK    3  A    between atoms: C8_10  and  C9_11 
REMARK    4  A    between atoms: C10_12  and  C11_13 
REMARK       I    between atoms: N2_15  and  C13_16 
REMARK    5  A    between atoms: C13_16  and  C14_18 
REMARK    6  A    between atoms: C22_28  and  N3_29 
ROOT
HETATM    1  C7  UNL     1     -17.447 -25.809  28.362  1.00  0.00     0.002 C 
HETATM    2  C8  UNL     1     -16.486 -26.208  27.537  1.00  0.00     0.062 C 
ENDROOT
BRANCH   1   3
HETATM    3  C6  UNL     1     -18.302 -24.632  28.038  1.00  0.00     0.163 C 
BRANCH   3   4
HETATM    4  N1  UNL     1     -19.609 -25.016  27.562  1.00  0.00    -0.283 N 
HETATM    5  C5  UNL     1     -20.582 -25.521  28.495  1.00  0.00     0.227 C 
HETATM    6  C4  UNL     1     -21.875 -26.001  27.947  1.00  0.00     0.114 C 
HETATM    7  O1  UNL     1     -20.312 -25.539  29.711  1.00  0.00    -0.273 OA
HETATM    8  C2  UNL     1     -21.594 -26.707  26.641  1.00  0.00    -0.010 C 
HETATM    9  C1  UNL     1     -20.510 -27.747  26.784  1.00  0.00     0.018 C 
HETATM   10  C3  UNL     1     -22.859 -27.403  26.219  1.00  0.00     0.018 C 
HETATM   11  C22 UNL     1     -21.142 -25.683  25.626  1.00  0.00     0.184 C 
HETATM   12  C21 UNL     1     -20.009 -24.929  26.211  1.00  0.00     0.250 C 
HETATM   13  O3  UNL     1     -19.361 -24.156  25.445  1.00  0.00    -0.271 OA
BRANCH  11  14
HETATM   14  N3  UNL     1     -20.686 -26.351  24.445  1.00  0.00    -0.353 N 
HETATM   15  C23 UNL     1     -21.158 -26.114  23.262  1.00  0.00     0.197 C 
HETATM   16  N4  UNL     1     -22.176 -25.167  23.016  1.00  0.00    -0.067 NA
HETATM   17  N5  UNL     1     -20.608 -26.856  22.176  1.00  0.00    -0.067 NA
ATOM     18  H3  UNL     1     -19.949 -27.050  24.540  1.00  0.00     0.162 HD
ENDBRANCH  11  14
ENDBRANCH   3   4
ENDBRANCH   1   3
BRANCH   2  19
HETATM   19  C9  UNL     1     -16.216 -25.536  26.300  1.00  0.00    -0.078 C 
HETATM   20  C10 UNL     1     -16.008 -24.959  25.256  1.00  0.00    -0.095 C 
BRANCH  20  21
HETATM   21  C11 UNL     1     -15.779 -24.259  23.977  1.00  0.00     0.092 C 
HETATM   22  C12 UNL     1     -14.527 -24.846  23.364  1.00  0.00     0.144 C 
HETATM   23  N2  UNL     1     -14.590 -25.080  21.950  1.00  0.00    -0.345 N 
HETATM   24  C13 UNL     1     -13.562 -25.860  21.379  1.00  0.00     0.230 C 
HETATM   25  C15 UNL     1     -15.636 -24.569  21.078  1.00  0.00     0.097 C 
HETATM   26  O2  UNL     1     -13.583 -26.086  20.147  1.00  0.00    -0.273 OA
HETATM   27  C16 UNL     1     -16.972 -25.263  21.248  1.00  0.00     0.015 C 
HETATM   28  C20 UNL     1     -16.280 -23.457  21.900  1.00  0.00     0.024 A 
HETATM   29  C17 UNL     1     -17.122 -25.833  22.617  1.00  0.00     0.019 C 
HETATM   30  C19 UNL     1     -17.527 -24.001  21.928  1.00  0.00     0.009 A 
HETATM   31  C18 UNL     1     -16.867 -24.368  23.069  1.00  0.00    -0.014 A 
BRANCH  24  32
HETATM   32  C14 UNL     1     -12.449 -26.428  22.178  1.00  0.00     0.188 C 
HETATM   33 BR1  UNL     1     -11.094 -25.121  22.510  1.00  0.00    -0.087 Br
ENDBRANCH  24  32
ENDBRANCH  20  21
ENDBRANCH   2  19
TORSDOF 6
ENDMDL
MODEL 3
REMARK VINA RESULT: -8.174685512      4.443      8.481
REMARK  6 active torsions:
REMARK  status: ('A' for Active; 'I' for Inactive)
REMARK    1  A    between atoms: N1_7  and  C6_8 
REMARK    2  A    between atoms: C6_8  and  C7_9 
REMARK    3  A    between atoms: C8_10  and  C9_11 
REMARK    4  A    between atoms: C10_12  and  C11_13 
REMARK       I    between atoms: N2_15  and  C13_16 
REMARK    5  A    between atoms: C13_16  and  C14_18 
REMARK    6  A    between atoms: C22_28  and  N3_29 
ROOT
HETATM    1  C7  UNL     1     -21.666 -23.594  21.629  1.00  0.00     0.002 C 
HETATM    2  C8  UNL     1     -20.577 -24.032  21.006  1.00  0.00     0.062 C 
ENDROOT
BRANCH   1   3
HETATM    3  C6  UNL     1     -21.570 -22.869  22.928  1.00  0.00     0.163 C 
BRANCH   3   4
HETATM    4  N1  UNL     1     -21.501 -23.768  24.056  1.00  0.00    -0.283 N 
HETATM    5  C5  UNL     1     -20.559 -23.507  25.112  1.00  0.00     0.227 C 
HETATM    6  C4  UNL     1     -20.449 -24.511  26.199  1.00  0.00     0.114 C 
HETATM    7  O1  UNL     1     -19.877 -22.465  25.080  1.00  0.00    -0.273 OA
HETATM    8  C2  UNL     1     -20.580 -25.883  25.580  1.00  0.00    -0.010 C 
HETATM    9  C1  UNL     1     -19.642 -26.068  24.413  1.00  0.00     0.018 C 
HETATM   10  C3  UNL     1     -20.222 -26.894  26.634  1.00  0.00     0.018 C 
HETATM   11  C22 UNL     1     -21.997 -26.056  25.085  1.00  0.00     0.184 C 
HETATM   12  C21 UNL     1     -22.314 -24.913  24.198  1.00  0.00     0.250 C 
HETATM   13  O3  UNL     1     -23.386 -24.971  23.526  1.00  0.00    -0.271 OA
BRANCH  11  14
HETATM   14  N3  UNL     1     -22.094 -27.265  24.325  1.00  0.00    -0.353 N 
HETATM   15  C23 UNL     1     -22.846 -28.264  24.662  1.00  0.00     0.197 C 
HETATM   16  N4  UNL     1     -23.653 -28.261  25.821  1.00  0.00    -0.067 NA
HETATM   17  N5  UNL     1     -22.841 -29.406  23.808  1.00  0.00    -0.067 NA
ATOM     18  H3  UNL     1     -21.540 -27.344  23.471  1.00  0.00     0.162 HD
ENDBRANCH  11  14
ENDBRANCH   3   4
ENDBRANCH   1   3
BRANCH   2  19
HETATM   19  C9  UNL     1     -19.262 -23.835  21.540  1.00  0.00    -0.078 C 
HETATM   20  C10 UNL     1     -18.148 -23.654  21.976  1.00  0.00    -0.095 C 
BRANCH  20  21
HETATM   21  C11 UNL     1     -16.780 -23.429  22.484  1.00  0.00     0.092 C 
HETATM   22  C12 UNL     1     -16.758 -23.886  23.926  1.00  0.00     0.144 C 
HETATM   23  N2  UNL     1     -15.589 -24.622  24.316  1.00  0.00    -0.345 N 
HETATM   24  C13 UNL     1     -15.634 -25.292  25.558  1.00  0.00     0.230 C 
HETATM   25  C15 UNL     1     -14.376 -24.719  23.521  1.00  0.00     0.097 C 
HETATM   26  O2  UNL     1     -14.633 -25.945  25.932  1.00  0.00    -0.273 OA
HETATM   27  C16 UNL     1     -14.513 -25.597  22.293  1.00  0.00     0.015 C 
HETATM   28  C20 UNL     1     -14.503 -23.570  22.526  1.00  0.00     0.024 A 
HETATM   29  C17 UNL     1     -15.925 -25.654  21.816  1.00  0.00     0.019 C 
HETATM   30  C19 UNL     1     -14.473 -24.342  21.406  1.00  0.00     0.009 A 
HETATM   31  C18 UNL     1     -15.780 -24.109  21.738  1.00  0.00    -0.014 A 
BRANCH  24  32
HETATM   32  C14 UNL     1     -16.822 -25.258  26.444  1.00  0.00     0.188 C 
HETATM   33 BR1  UNL     1     -16.564 -26.349  27.994  1.00  0.00    -0.087 Br
ENDBRANCH  24  32
ENDBRANCH  20  21
ENDBRANCH   2  19
TORSDOF 6
ENDMDL
MODEL 4
REMARK VINA RESULT: -8.134455115      4.437      8.522
REMARK  6 active torsions:
REMARK  status: ('A' for Active; 'I' for Inactive)
REMARK    1  A    between atoms: N1_7  and  C6_8 
REMARK    2  A    between atoms: C6_8  and  C7_9 
REMARK    3  A    between atoms: C8_10  and  C9_11 
REMARK    4  A    between atoms: C10_12  and  C11_13 
REMARK       I    between atoms: N2_15  and  C13_16 
REMARK    5  A    between atoms: C13_16  and  C14_18 
REMARK    6  A    between atoms: C22_28  and  N3_29 
ROOT
HETATM    1  C7  UNL     1     -16.825 -25.444  28.524  1.00  0.00     0.002 C 
HETATM    2  C8  UNL     1     -16.309 -26.117  27.501  1.00  0.00     0.062 C 
ENDROOT
BRANCH   1   3
HETATM    3  C6  UNL     1     -17.184 -24.003  28.395  1.00  0.00     0.163 C 
BRANCH   3   4
HETATM    4  N1  UNL     1     -18.578 -23.809  28.077  1.00  0.00    -0.283 N 
HETATM    5  C5  UNL     1     -19.580 -24.119  29.064  1.00  0.00     0.227 C 
HETATM    6  C4  UNL     1     -21.002 -24.004  28.659  1.00  0.00     0.114 C 
HETATM    7  O1  UNL     1     -19.225 -24.468  30.206  1.00  0.00    -0.273 OA
HETATM    8  C2  UNL     1     -21.121 -24.493  27.234  1.00  0.00    -0.010 C 
HETATM    9  C1  UNL     1     -20.489 -25.850  27.048  1.00  0.00     0.018 C 
HETATM   10  C3  UNL     1     -22.587 -24.611  26.915  1.00  0.00     0.018 C 
HETATM   11  C22 UNL     1     -20.419 -23.511  26.326  1.00  0.00     0.184 C 
HETATM   12  C21 UNL     1     -19.039 -23.326  26.834  1.00  0.00     0.250 C 
HETATM   13  O3  UNL     1     -18.225 -22.691  26.100  1.00  0.00    -0.271 OA
BRANCH  11  14
HETATM   14  N3  UNL     1     -20.351 -24.049  25.002  1.00  0.00    -0.353 N 
HETATM   15  C23 UNL     1     -20.811 -23.438  23.956  1.00  0.00     0.197 C 
HETATM   16  N4  UNL     1     -21.429 -22.170  24.018  1.00  0.00    -0.067 NA
HETATM   17  N5  UNL     1     -20.674 -24.096  22.699  1.00  0.00    -0.067 NA
ATOM     18  H3  UNL     1     -19.916 -24.964  24.874  1.00  0.00     0.162 HD
ENDBRANCH  11  14
ENDBRANCH   3   4
ENDBRANCH   1   3
BRANCH   2  19
HETATM   19  C9  UNL     1     -16.068 -25.502  26.229  1.00  0.00    -0.078 C 
HETATM   20  C10 UNL     1     -15.874 -24.966  25.161  1.00  0.00    -0.095 C 
BRANCH  20  21
HETATM   21  C11 UNL     1     -15.660 -24.299  23.861  1.00  0.00     0.092 C 
HETATM   22  C12 UNL     1     -14.428 -24.918  23.239  1.00  0.00     0.144 C 
HETATM   23  N2  UNL     1     -14.522 -25.185  21.833  1.00  0.00    -0.345 N 
HETATM   24  C13 UNL     1     -13.515 -25.994  21.261  1.00  0.00     0.230 C 
HETATM   25  C15 UNL     1     -15.577 -24.680  20.969  1.00  0.00     0.097 C 
HETATM   26  O2  UNL     1     -13.563 -26.249  20.036  1.00  0.00    -0.273 OA
HETATM   27  C16 UNL     1     -16.919 -25.351  21.181  1.00  0.00     0.015 C 
HETATM   28  C20 UNL     1     -16.190 -23.541  21.776  1.00  0.00     0.024 A 
HETATM   29  C17 UNL     1     -17.051 -25.887  22.566  1.00  0.00     0.019 C 
HETATM   30  C19 UNL     1     -17.444 -24.065  21.840  1.00  0.00     0.009 A 
HETATM   31  C18 UNL     1     -16.767 -24.415  22.977  1.00  0.00    -0.014 A 
BRANCH  24  32
HETATM   32  C14 UNL     1     -12.396 -26.558  22.053  1.00  0.00     0.188 C 
HETATM   33 BR1  UNL     1     -11.144 -25.201  22.551  1.00  0.00    -0.087 Br
ENDBRANCH  24  32
ENDBRANCH  20  21
ENDBRANCH   2  19
TORSDOF 6
ENDMDL
MODEL 5
REMARK VINA RESULT: -8.097927785      1.091      1.105
REMARK  6 active torsions:
REMARK  status: ('A' for Active; 'I' for Inactive)
REMARK    1  A    between atoms: N1_7  and  C6_8 
REMARK    2  A    between atoms: C6_8  and  C7_9 
REMARK    3  A    between atoms: C8_10  and  C9_11 
REMARK    4  A    between atoms: C10_12  and  C11_13 
REMARK       I    between atoms: N2_15  and  C13_16 
REMARK    5  A    between atoms: C13_16  and  C14_18 
REMARK    6  A    between atoms: C22_28  and  N3_29 
ROOT
HETATM    1  C7  UNL     1     -17.227 -24.321  26.241  1.00  0.00     0.002 C 
HETATM    2  C8  UNL     1     -17.315 -24.672  27.519  1.00  0.00     0.062 C 
ENDROOT
BRANCH   1   3
HETATM    3  C6  UNL     1     -16.919 -25.328  25.185  1.00  0.00     0.163 C 
BRANCH   3   4
HETATM    4  N1  UNL     1     -16.158 -24.766  24.095  1.00  0.00    -0.283 N 
HETATM    5  C5  UNL     1     -16.812 -23.907  23.143  1.00  0.00     0.227 C 
HETATM    6  C4  UNL     1     -16.017 -23.437  21.982  1.00  0.00     0.114 C 
HETATM    7  O1  UNL     1     -18.004 -23.593  23.321  1.00  0.00    -0.273 OA
HETATM    8  C2  UNL     1     -15.126 -24.573  21.537  1.00  0.00    -0.010 C 
HETATM    9  C1  UNL     1     -15.900 -25.851  21.333  1.00  0.00     0.018 C 
HETATM   10  C3  UNL     1     -14.512 -24.180  20.221  1.00  0.00     0.018 C 
HETATM   11  C22 UNL     1     -14.081 -24.813  22.602  1.00  0.00     0.184 C 
HETATM   12  C21 UNL     1     -14.782 -25.007  23.893  1.00  0.00     0.250 C 
HETATM   13  O3  UNL     1     -14.096 -25.415  24.877  1.00  0.00    -0.271 OA
BRANCH  11  14
HETATM   14  N3  UNL     1     -13.350 -26.004  22.295  1.00  0.00    -0.353 N 
HETATM   15  C23 UNL     1     -12.125 -26.003  21.875  1.00  0.00     0.197 C 
HETATM   16  N4  UNL     1     -11.381 -24.819  21.678  1.00  0.00    -0.067 NA
HETATM   17  N5  UNL     1     -11.523 -27.268  21.607  1.00  0.00    -0.067 NA
ATOM     18  H3  UNL     1     -13.819 -26.903  22.413  1.00  0.00     0.162 HD
ENDBRANCH  11  14
ENDBRANCH   3   4
ENDBRANCH   1   3
BRANCH   2  19
HETATM   19  C9  UNL     1     -17.121 -26.024  27.953  1.00  0.00    -0.078 C 
HETATM   20  C10 UNL     1     -16.945 -27.158  28.338  1.00  0.00    -0.095 C 
BRANCH  20  21
HETATM   21  C11 UNL     1     -16.709 -28.535  28.815  1.00  0.00     0.092 C 
HETATM   22  C12 UNL     1     -16.914 -28.529  30.314  1.00  0.00     0.144 C 
HETATM   23  N2  UNL     1     -17.633 -29.656  30.836  1.00  0.00    -0.345 N 
HETATM   24  C13 UNL     1     -18.078 -29.573  32.173  1.00  0.00     0.230 C 
HETATM   25  C15 UNL     1     -17.928 -30.865  30.083  1.00  0.00     0.097 C 
HETATM   26  O2  UNL     1     -18.709 -30.537  32.665  1.00  0.00    -0.273 OA
HETATM   27  C16 UNL     1     -18.994 -30.682  29.022  1.00  0.00     0.015 C 
HETATM   28  C20 UNL     1     -16.960 -30.801  28.906  1.00  0.00     0.024 A 
HETATM   29  C17 UNL     1     -19.057 -29.271  28.546  1.00  0.00     0.019 C 
HETATM   30  C19 UNL     1     -17.912 -30.792  27.934  1.00  0.00     0.009 A 
HETATM   31  C18 UNL     1     -17.558 -29.499  28.207  1.00  0.00    -0.014 A 
BRANCH  24  32
HETATM   32  C14 UNL     1     -17.830 -28.387  33.028  1.00  0.00     0.188 C 
HETATM   33 BR1  UNL     1     -16.929 -28.872  34.644  1.00  0.00    -0.087 Br
ENDBRANCH  24  32
ENDBRANCH  20  21
ENDBRANCH   2  19
TORSDOF 6
ENDMDL
