MODEL 1
REMARK VINA RESULT: -7.436284651      0.000      0.000
REMARK  8 active torsions:
REMARK  status: ('A' for Active; 'I' for Inactive)
REMARK    1  A    between atoms: C2_2  and  C5_5 
REMARK    2  A    between atoms: C8_8  and  O1_9 
REMARK    3  A    between atoms: N1_15  and  C13_16 
REMARK    4  A    between atoms: C13_16  and  C14_17 
REMARK    5  A    between atoms: C19_22  and  C20_23 
REMARK    6  A    between atoms: C20_23  and  C21_24 
REMARK    7  A    between atoms: N2_30  and  C25_31 
REMARK    8  A    between atoms: C25_31  and  C26_32 
ROOT
HETATM    1  C5  UNL     1      26.443   8.911  -7.272  1.00  0.00     0.001 C 
HETATM    2  C6  UNL     1      27.437   8.898  -8.384  1.00  0.00     0.014 C 
HETATM    3  C7  UNL     1      27.102   7.722  -9.214  1.00  0.00     0.033 C 
HETATM    4  C8  UNL     1      25.598   8.071  -9.320  1.00  0.00     0.088 C 
HETATM    5  C9  UNL     1      25.363   8.080  -7.795  1.00  0.00     0.039 C 
HETATM    6  C10 UNL     1      25.640   6.571  -7.990  1.00  0.00     0.004 C 
HETATM    7  C11 UNL     1      25.045   5.759  -6.955  1.00  0.00     0.057 C 
HETATM    8  C12 UNL     1      25.713   5.690  -5.648  1.00  0.00     0.059 C 
HETATM    9  N1  UNL     1      27.058   5.686  -5.502  1.00  0.00    -0.387 N 
HETATM   10  C17 UNL     1      28.042   5.462  -6.421  1.00  0.00     0.094 A 
HETATM   11  C18 UNL     1      27.824   4.364  -7.392  1.00  0.00     0.039 A 
HETATM   12  C19 UNL     1      28.096   5.875  -7.760  1.00  0.00     0.001 A 
HETATM   13  C22 UNL     1      26.959   6.375  -8.556  1.00  0.00    -0.009 C 
HETATM   14  C23 UNL     1      26.994   5.384  -9.750  1.00  0.00     0.056 C 
HETATM   15  C24 UNL     1      25.633   4.881 -10.134  1.00  0.00     0.064 C 
HETATM   16  N2  UNL     1      24.846   6.023 -10.304  1.00  0.00    -0.365 N 
HETATM   17  C29 UNL     1      24.789   6.846  -9.220  1.00  0.00     0.133 C 
ENDROOT
BRANCH   1  18
HETATM   18  C2  UNL     1      25.952  10.233  -6.805  1.00  0.00    -0.047 C 
HETATM   19  C1  UNL     1      26.210  11.419  -7.654  1.00  0.00     0.015 C 
HETATM   20  C3  UNL     1      24.432  10.183  -6.556  1.00  0.00     0.015 C 
HETATM   21  C4  UNL     1      26.510  10.597  -5.415  1.00  0.00     0.015 C 
ENDBRANCH   1  18
BRANCH   4  22
HETATM   22  O1  UNL     1      25.223   9.056 -10.091  1.00  0.00    -0.387 OA
ATOM     23  H1  UNL     1      25.379   9.950  -9.813  1.00  0.00     0.210 HD
ENDBRANCH   4  22
BRANCH  12  24
HETATM   24  C20 UNL     1      29.409   5.904  -8.525  1.00  0.00     0.125 C 
BRANCH  24  25
HETATM   25  C21 UNL     1      30.341   6.951  -8.029  1.00  0.00     0.173 C 
HETATM   26  O2  UNL     1      31.492   7.071  -8.589  1.00  0.00    -0.648 OA
HETATM   27  O3  UNL     1      30.108   7.830  -7.012  1.00  0.00    -0.648 OA
ENDBRANCH  24  25
ENDBRANCH  12  24
BRANCH  16  28
HETATM   28  C25 UNL     1      23.779   6.032 -11.218  1.00  0.00     0.068 C 
BRANCH  28  29
HETATM   29  C26 UNL     1      24.216   6.326 -12.635  1.00  0.00     0.024 A 
HETATM   30  C27 UNL     1      25.361   7.198 -12.945  1.00  0.00     0.010 A 
HETATM   31  C28 UNL     1      23.977   7.705 -13.207  1.00  0.00     0.010 A 
ENDBRANCH  28  29
ENDBRANCH  16  28
BRANCH   9  32
HETATM   32  C13 UNL     1      27.439   6.017  -4.149  1.00  0.00     0.127 C 
BRANCH  32  33
HETATM   33  C14 UNL     1      27.417   7.511  -3.897  1.00  0.00     0.003 A 
HETATM   34  C15 UNL     1      27.906   8.026  -2.589  1.00  0.00     0.007 A 
HETATM   35  C16 UNL     1      28.807   8.126  -3.774  1.00  0.00     0.007 A 
ENDBRANCH  32  33
ENDBRANCH   9  32
TORSDOF 8
ENDMDL
MODEL 2
REMARK VINA RESULT: -7.176561521      3.335      7.216
REMARK  8 active torsions:
REMARK  status: ('A' for Active; 'I' for Inactive)
REMARK    1  A    between atoms: C2_2  and  C5_5 
REMARK    2  A    between atoms: C8_8  and  O1_9 
REMARK    3  A    between atoms: N1_15  and  C13_16 
REMARK    4  A    between atoms: C13_16  and  C14_17 
REMARK    5  A    between atoms: C19_22  and  C20_23 
REMARK    6  A    between atoms: C20_23  and  C21_24 
REMARK    7  A    between atoms: N2_30  and  C25_31 
REMARK    8  A    between atoms: C25_31  and  C26_32 
ROOT
HETATM    1  C5  UNL     1      25.591   9.511  -5.868  1.00  0.00     0.001 C 
HETATM    2  C6  UNL     1      24.691   9.450  -4.680  1.00  0.00     0.014 C 
HETATM    3  C7  UNL     1      25.567   9.605  -3.500  1.00  0.00     0.033 C 
HETATM    4  C8  UNL     1      26.293  10.856  -4.048  1.00  0.00     0.088 C 
HETATM    5  C9  UNL     1      26.784  10.162  -5.336  1.00  0.00     0.039 C 
HETATM    6  C10 UNL     1      27.633   9.385  -4.303  1.00  0.00     0.004 C 
HETATM    7  C11 UNL     1      28.838   8.835  -4.875  1.00  0.00     0.057 C 
HETATM    8  C12 UNL     1      28.736   7.609  -5.679  1.00  0.00     0.059 C 
HETATM    9  N1  UNL     1      27.878   6.604  -5.391  1.00  0.00    -0.387 N 
HETATM   10  C17 UNL     1      27.179   6.343  -4.249  1.00  0.00     0.094 A 
HETATM   11  C18 UNL     1      27.890   6.533  -2.962  1.00  0.00     0.039 A 
HETATM   12  C19 UNL     1      26.549   7.252  -3.385  1.00  0.00     0.001 A 
HETATM   13  C22 UNL     1      26.770   8.709  -3.355  1.00  0.00    -0.009 C 
HETATM   14  C23 UNL     1      27.187   8.901  -1.872  1.00  0.00     0.056 C 
HETATM   15  C24 UNL     1      28.364   9.818  -1.708  1.00  0.00     0.064 C 
HETATM   16  N2  UNL     1      28.034  10.981  -2.411  1.00  0.00    -0.365 N 
HETATM   17  C29 UNL     1      27.728  10.788  -3.724  1.00  0.00     0.133 C 
ENDROOT
BRANCH   1  18
HETATM   18  C2  UNL     1      25.078  10.194  -7.083  1.00  0.00    -0.047 C 
HETATM   19  C1  UNL     1      24.828   9.381  -8.295  1.00  0.00     0.015 C 
HETATM   20  C3  UNL     1      23.766  10.938  -6.766  1.00  0.00     0.015 C 
HETATM   21  C4  UNL     1      26.009  11.334  -7.541  1.00  0.00     0.015 C 
ENDBRANCH   1  18
BRANCH   4  22
HETATM   22  O1  UNL     1      25.668  12.002  -4.067  1.00  0.00    -0.387 OA
ATOM     23  H1  UNL     1      24.760  12.033  -4.341  1.00  0.00     0.210 HD
ENDBRANCH   4  22
BRANCH  12  24
HETATM   24  C20 UNL     1      25.485   6.797  -2.400  1.00  0.00     0.125 C 
BRANCH  24  25
HETATM   25  C21 UNL     1      24.383   6.041  -3.051  1.00  0.00     0.173 C 
HETATM   26  O2  UNL     1      24.517   5.680  -4.277  1.00  0.00    -0.648 OA
HETATM   27  O3  UNL     1      23.201   5.673  -2.474  1.00  0.00    -0.648 OA
ENDBRANCH  24  25
ENDBRANCH  12  24
BRANCH  16  28
HETATM   28  C25 UNL     1      28.533  12.230  -2.007  1.00  0.00     0.068 C 
BRANCH  28  29
HETATM   29  C26 UNL     1      27.509  13.067  -1.273  1.00  0.00     0.024 A 
HETATM   30  C27 UNL     1      27.693  14.507  -1.029  1.00  0.00     0.010 A 
HETATM   31  C28 UNL     1      27.824  13.558   0.121  1.00  0.00     0.010 A 
ENDBRANCH  28  29
ENDBRANCH  16  28
BRANCH   9  32
HETATM   32  C13 UNL     1      27.691   5.733  -6.529  1.00  0.00     0.127 C 
BRANCH  32  33
HETATM   33  C14 UNL     1      26.785   6.347  -7.577  1.00  0.00     0.003 A 
HETATM   34  C15 UNL     1      26.484   5.570  -8.810  1.00  0.00     0.007 A 
HETATM   35  C16 UNL     1      25.455   5.618  -7.731  1.00  0.00     0.007 A 
ENDBRANCH  32  33
ENDBRANCH   9  32
TORSDOF 8
ENDMDL
MODEL 3
REMARK VINA RESULT: -6.564009627      2.817      6.121
REMARK  8 active torsions:
REMARK  status: ('A' for Active; 'I' for Inactive)
REMARK    1  A    between atoms: C2_2  and  C5_5 
REMARK    2  A    between atoms: C8_8  and  O1_9 
REMARK    3  A    between atoms: N1_15  and  C13_16 
REMARK    4  A    between atoms: C13_16  and  C14_17 
REMARK    5  A    between atoms: C19_22  and  C20_23 
REMARK    6  A    between atoms: C20_23  and  C21_24 
REMARK    7  A    between atoms: N2_30  and  C25_31 
REMARK    8  A    between atoms: C25_31  and  C26_32 
ROOT
HETATM    1  C5  UNL     1      26.304   9.555  -7.538  1.00  0.00     0.001 C 
HETATM    2  C6  UNL     1      25.037   8.781  -7.407  1.00  0.00     0.014 C 
HETATM    3  C7  UNL     1      25.051   8.210  -6.044  1.00  0.00     0.033 C 
HETATM    4  C8  UNL     1      25.392   9.551  -5.352  1.00  0.00     0.088 C 
HETATM    5  C9  UNL     1      26.694   9.775  -6.149  1.00  0.00     0.039 C 
HETATM    6  C10 UNL     1      27.128   8.547  -5.316  1.00  0.00     0.004 C 
HETATM    7  C11 UNL     1      28.559   8.468  -5.147  1.00  0.00     0.057 C 
HETATM    8  C12 UNL     1      29.371   7.968  -6.265  1.00  0.00     0.059 C 
HETATM    9  N1  UNL     1      28.963   6.978  -7.092  1.00  0.00    -0.387 N 
HETATM   10  C17 UNL     1      27.951   6.074  -6.950  1.00  0.00     0.094 A 
HETATM   11  C18 UNL     1      27.771   5.465  -5.611  1.00  0.00     0.039 A 
HETATM   12  C19 UNL     1      26.672   6.273  -6.407  1.00  0.00     0.001 A 
HETATM   13  C22 UNL     1      26.253   7.424  -5.588  1.00  0.00    -0.009 C 
HETATM   14  C23 UNL     1      25.746   6.695  -4.315  1.00  0.00     0.056 C 
HETATM   15  C24 UNL     1      26.205   7.348  -3.043  1.00  0.00     0.064 C 
HETATM   16  N2  UNL     1      25.849   8.694  -3.164  1.00  0.00    -0.365 N 
HETATM   17  C29 UNL     1      26.355   9.324  -4.262  1.00  0.00     0.133 C 
ENDROOT
BRANCH   1  18
HETATM   18  C2  UNL     1      26.257  10.823  -8.311  1.00  0.00    -0.047 C 
HETATM   19  C1  UNL     1      26.359  12.103  -7.572  1.00  0.00     0.015 C 
HETATM   20  C3  UNL     1      27.362  10.837  -9.385  1.00  0.00     0.015 C 
HETATM   21  C4  UNL     1      24.970  10.939  -9.151  1.00  0.00     0.015 C 
ENDBRANCH   1  18
BRANCH   4  22
HETATM   22  O1  UNL     1      24.471  10.469  -5.245  1.00  0.00    -0.387 OA
ATOM     23  H1  UNL     1      24.666  11.358  -5.515  1.00  0.00     0.210 HD
ENDBRANCH   4  22
BRANCH  12  24
HETATM   24  C20 UNL     1      25.537   5.302  -6.685  1.00  0.00     0.125 C 
BRANCH  24  25
HETATM   25  C21 UNL     1      25.310   5.081  -8.138  1.00  0.00     0.173 C 
HETATM   26  O2  UNL     1      24.277   5.609  -8.691  1.00  0.00    -0.648 OA
HETATM   27  O3  UNL     1      26.101   4.356  -8.981  1.00  0.00    -0.648 OA
ENDBRANCH  24  25
ENDBRANCH  12  24
BRANCH  16  28
HETATM   28  C25 UNL     1      25.535   9.459  -2.029  1.00  0.00     0.068 C 
BRANCH  28  29
HETATM   29  C26 UNL     1      26.672   9.541  -1.037  1.00  0.00     0.024 A 
HETATM   30  C27 UNL     1      26.517  10.146   0.297  1.00  0.00     0.010 A 
HETATM   31  C28 UNL     1      27.297  10.886  -0.744  1.00  0.00     0.010 A 
ENDBRANCH  28  29
ENDBRANCH  16  28
BRANCH   9  32
HETATM   32  C13 UNL     1      29.738   6.960  -8.311  1.00  0.00     0.127 C 
BRANCH  32  33
HETATM   33  C14 UNL     1      31.031   7.740  -8.178  1.00  0.00     0.003 A 
HETATM   34  C15 UNL     1      32.200   7.338  -9.007  1.00  0.00     0.007 A 
HETATM   35  C16 UNL     1      31.399   8.522  -9.434  1.00  0.00     0.007 A 
ENDBRANCH  32  33
ENDBRANCH   9  32
TORSDOF 8
ENDMDL
MODEL 4
REMARK VINA RESULT: -6.312618739      2.662      7.361
REMARK  8 active torsions:
REMARK  status: ('A' for Active; 'I' for Inactive)
REMARK    1  A    between atoms: C2_2  and  C5_5 
REMARK    2  A    between atoms: C8_8  and  O1_9 
REMARK    3  A    between atoms: N1_15  and  C13_16 
REMARK    4  A    between atoms: C13_16  and  C14_17 
REMARK    5  A    between atoms: C19_22  and  C20_23 
REMARK    6  A    between atoms: C20_23  and  C21_24 
REMARK    7  A    between atoms: N2_30  and  C25_31 
REMARK    8  A    between atoms: C25_31  and  C26_32 
ROOT
HETATM    1  C5  UNL     1      25.535   8.163  -8.620  1.00  0.00     0.001 C 
HETATM    2  C6  UNL     1      26.760   8.848  -9.125  1.00  0.00     0.014 C 
HETATM    3  C7  UNL     1      26.822  10.143  -8.416  1.00  0.00     0.033 C 
HETATM    4  C8  UNL     1      26.619   9.524  -7.012  1.00  0.00     0.088 C 
HETATM    5  C9  UNL     1      25.273   8.856  -7.363  1.00  0.00     0.039 C 
HETATM    6  C10 UNL     1      24.835  10.338  -7.431  1.00  0.00     0.004 C 
HETATM    7  C11 UNL     1      23.420  10.510  -7.203  1.00  0.00     0.057 C 
HETATM    8  C12 UNL     1      22.491  10.208  -8.302  1.00  0.00     0.059 C 
HETATM    9  N1  UNL     1      22.771  10.467  -9.600  1.00  0.00    -0.387 N 
HETATM   10  C17 UNL     1      23.734  11.260 -10.151  1.00  0.00     0.094 A 
HETATM   11  C18 UNL     1      23.985  12.570  -9.504  1.00  0.00     0.039 A 
HETATM   12  C19 UNL     1      25.062  11.438  -9.734  1.00  0.00     0.001 A 
HETATM   13  C22 UNL     1      25.615  11.045  -8.426  1.00  0.00    -0.009 C 
HETATM   14  C23 UNL     1      26.178  12.406  -7.937  1.00  0.00     0.056 C 
HETATM   15  C24 UNL     1      25.865  12.687  -6.496  1.00  0.00     0.064 C 
HETATM   16  N2  UNL     1      26.290  11.557  -5.792  1.00  0.00    -0.365 N 
HETATM   17  C29 UNL     1      25.736  10.383  -6.207  1.00  0.00     0.133 C 
ENDROOT
BRANCH   1  18
HETATM   18  C2  UNL     1      25.596   6.690  -8.442  1.00  0.00    -0.047 C 
HETATM   19  C1  UNL     1      25.381   6.135  -7.085  1.00  0.00     0.015 C 
HETATM   20  C3  UNL     1      24.585   5.995  -9.374  1.00  0.00     0.015 C 
HETATM   21  C4  UNL     1      26.943   6.107  -8.912  1.00  0.00     0.015 C 
ENDBRANCH   1  18
BRANCH   4  22
HETATM   22  O1  UNL     1      27.600   8.868  -6.454  1.00  0.00    -0.387 OA
ATOM     23  H1  UNL     1      27.420   8.302  -5.714  1.00  0.00     0.210 HD
ENDBRANCH   4  22
BRANCH  12  24
HETATM   24  C20 UNL     1      26.110  12.022 -10.667  1.00  0.00     0.125 C 
BRANCH  24  25
HETATM   25  C21 UNL     1      26.190  11.305 -11.966  1.00  0.00     0.173 C 
HETATM   26  O2  UNL     1      26.408  11.983 -13.037  1.00  0.00    -0.648 OA
HETATM   27  O3  UNL     1      26.053   9.961 -12.161  1.00  0.00    -0.648 OA
ENDBRANCH  24  25
ENDBRANCH  12  24
BRANCH  16  28
HETATM   28  C25 UNL     1      26.741  11.664  -4.467  1.00  0.00     0.068 C 
BRANCH  28  29
HETATM   29  C26 UNL     1      27.359  13.008  -4.158  1.00  0.00     0.024 A 
HETATM   30  C27 UNL     1      28.647  13.145  -3.457  1.00  0.00     0.010 A 
HETATM   31  C28 UNL     1      27.388  13.493  -2.727  1.00  0.00     0.010 A 
ENDBRANCH  28  29
ENDBRANCH  16  28
BRANCH   9  32
HETATM   32  C13 UNL     1      21.899   9.725 -10.481  1.00  0.00     0.127 C 
BRANCH  32  33
HETATM   33  C14 UNL     1      22.633   9.190 -11.694  1.00  0.00     0.003 A 
HETATM   34  C15 UNL     1      22.678   7.719 -11.915  1.00  0.00     0.007 A 
HETATM   35  C16 UNL     1      21.714   8.528 -12.715  1.00  0.00     0.007 A 
ENDBRANCH  32  33
ENDBRANCH   9  32
TORSDOF 8
ENDMDL
MODEL 5
REMARK VINA RESULT: -6.079579947      2.555      7.204
REMARK  8 active torsions:
REMARK  status: ('A' for Active; 'I' for Inactive)
REMARK    1  A    between atoms: C2_2  and  C5_5 
REMARK    2  A    between atoms: C8_8  and  O1_9 
REMARK    3  A    between atoms: N1_15  and  C13_16 
REMARK    4  A    between atoms: C13_16  and  C14_17 
REMARK    5  A    between atoms: C19_22  and  C20_23 
REMARK    6  A    between atoms: C20_23  and  C21_24 
REMARK    7  A    between atoms: N2_30  and  C25_31 
REMARK    8  A    between atoms: C25_31  and  C26_32 
ROOT
HETATM    1  C5  UNL     1      25.505   8.099  -9.024  1.00  0.00     0.001 C 
HETATM    2  C6  UNL     1      26.746   8.766  -9.514  1.00  0.00     0.014 C 
HETATM    3  C7  UNL     1      26.817  10.061  -8.806  1.00  0.00     0.033 C 
HETATM    4  C8  UNL     1      26.588   9.447  -7.404  1.00  0.00     0.088 C 
HETATM    5  C9  UNL     1      25.237   8.798  -7.771  1.00  0.00     0.039 C 
HETATM    6  C10 UNL     1      24.820  10.285  -7.846  1.00  0.00     0.004 C 
HETATM    7  C11 UNL     1      23.405  10.476  -7.637  1.00  0.00     0.057 C 
HETATM    8  C12 UNL     1      22.487  10.186  -8.747  1.00  0.00     0.059 C 
HETATM    9  N1  UNL     1      22.786  10.440 -10.041  1.00  0.00    -0.387 N 
HETATM   10  C17 UNL     1      23.767  11.219 -10.581  1.00  0.00     0.094 A 
HETATM   11  C18 UNL     1      24.028  12.526  -9.932  1.00  0.00     0.039 A 
HETATM   12  C19 UNL     1      25.092  11.378 -10.148  1.00  0.00     0.001 A 
HETATM   13  C22 UNL     1      25.623  10.980  -8.832  1.00  0.00    -0.009 C 
HETATM   14  C23 UNL     1      26.199  12.334  -8.337  1.00  0.00     0.056 C 
HETATM   15  C24 UNL     1      25.871  12.621  -6.901  1.00  0.00     0.064 C 
HETATM   16  N2  UNL     1      26.271  11.486  -6.191  1.00  0.00    -0.365 N 
HETATM   17  C29 UNL     1      25.706  10.319  -6.611  1.00  0.00     0.133 C 
ENDROOT
BRANCH   1  18
HETATM   18  C2  UNL     1      25.544   6.625  -8.843  1.00  0.00    -0.047 C 
HETATM   19  C1  UNL     1      24.597   5.796  -9.625  1.00  0.00     0.015 C 
HETATM   20  C3  UNL     1      26.958   6.086  -9.136  1.00  0.00     0.015 C 
HETATM   21  C4  UNL     1      25.326   6.218  -7.373  1.00  0.00     0.015 C 
ENDBRANCH   1  18
BRANCH   4  22
HETATM   22  O1  UNL     1      27.552   8.778  -6.832  1.00  0.00    -0.387 OA
ATOM     23  H1  UNL     1      27.928   9.103  -6.023  1.00  0.00     0.210 HD
ENDBRANCH   4  22
BRANCH  12  24
HETATM   24  C20 UNL     1      26.160  11.946 -11.067  1.00  0.00     0.125 C 
BRANCH  24  25
HETATM   25  C21 UNL     1      26.351  11.136 -12.299  1.00  0.00     0.173 C 
HETATM   26  O2  UNL     1      27.002  11.647 -13.283  1.00  0.00    -0.648 OA
HETATM   27  O3  UNL     1      25.898   9.867 -12.513  1.00  0.00    -0.648 OA
ENDBRANCH  24  25
ENDBRANCH  12  24
BRANCH  16  28
HETATM   28  C25 UNL     1      26.707  11.588  -4.860  1.00  0.00     0.068 C 
BRANCH  28  29
HETATM   29  C26 UNL     1      26.181  10.478  -3.978  1.00  0.00     0.024 A 
HETATM   30  C27 UNL     1      26.366  10.473  -2.517  1.00  0.00     0.010 A 
HETATM   31  C28 UNL     1      27.160   9.514  -3.348  1.00  0.00     0.010 A 
ENDBRANCH  28  29
ENDBRANCH  16  28
BRANCH   9  32
HETATM   32  C13 UNL     1      21.916   9.709 -10.933  1.00  0.00     0.127 C 
BRANCH  32  33
HETATM   33  C14 UNL     1      22.681   9.030 -12.051  1.00  0.00     0.003 A 
HETATM   34  C15 UNL     1      22.654   7.546 -12.142  1.00  0.00     0.007 A 
HETATM   35  C16 UNL     1      21.781   8.330 -13.063  1.00  0.00     0.007 A 
ENDBRANCH  32  33
ENDBRANCH   9  32
TORSDOF 8
ENDMDL
