MODEL 1
REMARK VINA RESULT: -6.491999004      0.000      0.000
REMARK  1 active torsions:
REMARK  status: ('A' for Active; 'I' for Inactive)
REMARK    1  A    between atoms: C2_2  and  O1_3 
ROOT
HETATM    1  C1  UNL     1     -18.477  -2.796  -6.316  1.00  0.00     0.046 C 
HETATM    2  C2  UNL     1     -17.951  -1.933  -7.404  1.00  0.00     0.059 C 
HETATM    3  C3  UNL     1     -17.875  -0.522  -6.789  1.00  0.00     0.038 C 
HETATM    4  C4  UNL     1     -16.840   0.348  -7.376  1.00  0.00     0.006 C 
HETATM    5  C5  UNL     1     -15.452   0.177  -6.928  1.00  0.00     0.038 C 
HETATM    6  C6  UNL     1     -14.790  -1.131  -6.955  1.00  0.00     0.065 C 
HETATM    7  C7  UNL     1     -13.557  -1.074  -6.056  1.00  0.00     0.046 C 
HETATM    8  O2  UNL     1     -14.462  -1.654  -8.237  1.00  0.00    -0.368 OA
HETATM    9  C8  UNL     1     -14.802  -2.947  -7.900  1.00  0.00     0.072 C 
HETATM   10  C9  UNL     1     -13.853  -3.998  -7.731  1.00  0.00     0.047 C 
HETATM   11  C10 UNL     1     -15.627  -2.328  -6.861  1.00  0.00     0.063 C 
HETATM   12  C11 UNL     1     -16.674  -2.206  -7.982  1.00  0.00     0.040 C 
HETATM   13  C12 UNL     1     -16.131  -3.453  -8.499  1.00  0.00    -0.009 C 
HETATM   14  C13 UNL     1     -15.891  -3.529 -10.018  1.00  0.00     0.018 C 
HETATM   15  C14 UNL     1     -16.560  -4.764  -7.993  1.00  0.00     0.018 C 
ENDROOT
BRANCH   2  16
HETATM   16  O1  UNL     1     -18.938  -1.933  -8.423  1.00  0.00    -0.390 OA
ATOM     17  H1  UNL     1     -18.472  -2.023  -9.245  1.00  0.00     0.210 HD
ENDBRANCH   2  16
TORSDOF 1
ENDMDL
MODEL 2
REMARK VINA RESULT: -6.187885753      1.427      3.516
REMARK  1 active torsions:
REMARK  status: ('A' for Active; 'I' for Inactive)
REMARK    1  A    between atoms: C2_2  and  O1_3 
ROOT
HETATM    1  C1  UNL     1     -15.767  -3.741  -9.964  1.00  0.00     0.046 C 
HETATM    2  C2  UNL     1     -15.504  -3.836  -8.506  1.00  0.00     0.059 C 
HETATM    3  C3  UNL     1     -13.988  -3.597  -8.361  1.00  0.00     0.038 C 
HETATM    4  C4  UNL     1     -13.579  -3.013  -7.071  1.00  0.00     0.006 C 
HETATM    5  C5  UNL     1     -13.733  -1.564  -6.884  1.00  0.00     0.038 C 
HETATM    6  C6  UNL     1     -15.012  -0.889  -7.124  1.00  0.00     0.065 C 
HETATM    7  C7  UNL     1     -14.754   0.610  -7.266  1.00  0.00     0.046 C 
HETATM    8  O2  UNL     1     -16.052  -1.140  -6.187  1.00  0.00    -0.368 OA
HETATM    9  C8  UNL     1     -17.037  -1.189  -7.152  1.00  0.00     0.072 C 
HETATM   10  C9  UNL     1     -18.040  -0.189  -7.311  1.00  0.00     0.047 C 
HETATM   11  C10 UNL     1     -15.943  -1.497  -8.076  1.00  0.00     0.063 C 
HETATM   12  C11 UNL     1     -16.155  -2.945  -7.601  1.00  0.00     0.040 C 
HETATM   13  C12 UNL     1     -17.564  -2.601  -7.479  1.00  0.00    -0.009 C 
HETATM   14  C13 UNL     1     -18.287  -3.074  -6.205  1.00  0.00     0.018 C 
HETATM   15  C14 UNL     1     -18.483  -2.651  -8.624  1.00  0.00     0.018 C 
ENDROOT
BRANCH   2  16
HETATM   16  O1  UNL     1     -15.791  -5.175  -8.137  1.00  0.00    -0.390 OA
ATOM     17  H1  UNL     1     -16.699  -5.326  -8.370  1.00  0.00     0.210 HD
ENDBRANCH   2  16
TORSDOF 1
ENDMDL
MODEL 3
REMARK VINA RESULT: -6.037992076      1.704      3.879
REMARK  1 active torsions:
REMARK  status: ('A' for Active; 'I' for Inactive)
REMARK    1  A    between atoms: C2_2  and  O1_3 
ROOT
HETATM    1  C1  UNL     1     -19.578  -1.412 -10.045  1.00  0.00     0.046 C 
HETATM    2  C2  UNL     1     -19.530  -2.028  -8.695  1.00  0.00     0.059 C 
HETATM    3  C3  UNL     1     -19.227  -3.518  -8.950  1.00  0.00     0.038 C 
HETATM    4  C4  UNL     1     -18.513  -4.196  -7.854  1.00  0.00     0.006 C 
HETATM    5  C5  UNL     1     -17.059  -4.012  -7.751  1.00  0.00     0.038 C 
HETATM    6  C6  UNL     1     -16.453  -2.677  -7.720  1.00  0.00     0.065 C 
HETATM    7  C7  UNL     1     -14.966  -2.809  -8.041  1.00  0.00     0.046 C 
HETATM    8  O2  UNL     1     -16.653  -1.913  -6.536  1.00  0.00    -0.368 OA
HETATM    9  C8  UNL     1     -16.824  -0.727  -7.220  1.00  0.00     0.072 C 
HETATM   10  C9  UNL     1     -15.878   0.339  -7.204  1.00  0.00     0.047 C 
HETATM   11  C10 UNL     1     -17.177  -1.577  -8.359  1.00  0.00     0.063 C 
HETATM   12  C11 UNL     1     -18.582  -1.569  -7.731  1.00  0.00     0.040 C 
HETATM   13  C12 UNL     1     -18.277  -0.216  -7.291  1.00  0.00    -0.009 C 
HETATM   14  C13 UNL     1     -18.655   0.146  -5.843  1.00  0.00     0.018 C 
HETATM   15  C14 UNL     1     -18.463   0.951  -8.164  1.00  0.00     0.018 C 
ENDROOT
BRANCH   2  16
HETATM   16  O1  UNL     1     -20.838  -1.915  -8.160  1.00  0.00    -0.390 OA
ATOM     17  H1  UNL     1     -20.766  -1.352  -7.398  1.00  0.00     0.210 HD
ENDBRANCH   2  16
TORSDOF 1
ENDMDL
MODEL 4
REMARK VINA RESULT: -6.009470810      2.467      3.501
REMARK  1 active torsions:
REMARK  status: ('A' for Active; 'I' for Inactive)
REMARK    1  A    between atoms: C2_2  and  O1_3 
ROOT
HETATM    1  C1  UNL     1     -21.460  -2.294  -8.487  1.00  0.00     0.046 C 
HETATM    2  C2  UNL     1     -20.521  -1.493  -9.313  1.00  0.00     0.059 C 
HETATM    3  C3  UNL     1     -21.097  -0.064  -9.293  1.00  0.00     0.038 C 
HETATM    4  C4  UNL     1     -20.094   1.004  -9.459  1.00  0.00     0.006 C 
HETATM    5  C5  UNL     1     -19.304   1.404  -8.287  1.00  0.00     0.038 C 
HETATM    6  C6  UNL     1     -18.564   0.424  -7.487  1.00  0.00     0.065 C 
HETATM    7  C7  UNL     1     -18.216   1.055  -6.140  1.00  0.00     0.046 C 
HETATM    8  O2  UNL     1     -17.412  -0.154  -8.091  1.00  0.00    -0.368 OA
HETATM    9  C8  UNL     1     -17.661  -1.411  -7.580  1.00  0.00     0.072 C 
HETATM   10  C9  UNL     1     -16.873  -2.021  -6.560  1.00  0.00     0.047 C 
HETATM   11  C10 UNL     1     -19.049  -0.957  -7.470  1.00  0.00     0.063 C 
HETATM   12  C11 UNL     1     -19.146  -1.394  -8.942  1.00  0.00     0.040 C 
HETATM   13  C12 UNL     1     -18.193  -2.440  -8.598  1.00  0.00    -0.009 C 
HETATM   14  C13 UNL     1     -17.035  -2.676  -9.585  1.00  0.00     0.018 C 
HETATM   15  C14 UNL     1     -18.613  -3.716  -8.003  1.00  0.00     0.018 C 
ENDROOT
BRANCH   2  16
HETATM   16  O1  UNL     1     -20.617  -2.005 -10.632  1.00  0.00    -0.390 OA
ATOM     17  H1  UNL     1     -20.247  -1.342 -11.202  1.00  0.00     0.210 HD
ENDBRANCH   2  16
TORSDOF 1
ENDMDL
MODEL 5
REMARK VINA RESULT: -5.961820502      2.305      3.872
REMARK  1 active torsions:
REMARK  status: ('A' for Active; 'I' for Inactive)
REMARK    1  A    between atoms: C2_2  and  O1_3 
ROOT
HETATM    1  C1  UNL     1     -19.749   0.571  -6.151  1.00  0.00     0.046 C 
HETATM    2  C2  UNL     1     -18.671   0.729  -7.159  1.00  0.00     0.059 C 
HETATM    3  C3  UNL     1     -17.359   0.599  -6.360  1.00  0.00     0.038 C 
HETATM    4  C4  UNL     1     -16.217   0.084  -7.135  1.00  0.00     0.006 C 
HETATM    5  C5  UNL     1     -16.121  -1.365  -7.353  1.00  0.00     0.038 C 
HETATM    6  C6  UNL     1     -17.234  -2.133  -7.919  1.00  0.00     0.065 C 
HETATM    7  C7  UNL     1     -17.004  -3.615  -7.627  1.00  0.00     0.046 C 
HETATM    8  O2  UNL     1     -17.518  -1.925  -9.298  1.00  0.00    -0.368 OA
HETATM    9  C8  UNL     1     -18.885  -1.973  -9.119  1.00  0.00     0.072 C 
HETATM   10  C9  UNL     1     -19.707  -3.043  -9.579  1.00  0.00     0.047 C 
HETATM   11  C10 UNL     1     -18.592  -1.620  -7.729  1.00  0.00     0.063 C 
HETATM   12  C11 UNL     1     -18.580  -0.176  -8.259  1.00  0.00     0.040 C 
HETATM   13  C12 UNL     1     -19.605  -0.611  -9.198  1.00  0.00    -0.009 C 
HETATM   14  C13 UNL     1     -19.449  -0.150 -10.659  1.00  0.00     0.018 C 
HETATM   15  C14 UNL     1     -21.028  -0.659  -8.836  1.00  0.00     0.018 C 
ENDROOT
BRANCH   2  16
HETATM   16  O1  UNL     1     -18.776   2.056  -7.649  1.00  0.00    -0.390 OA
ATOM     17  H1  UNL     1     -19.399   2.027  -8.365  1.00  0.00     0.210 HD
ENDBRANCH   2  16
TORSDOF 1
ENDMDL
