MODEL 1
REMARK VINA RESULT: -7.580369408      0.000      0.000
REMARK  0 active torsions:
REMARK  status: ('A' for Active; 'I' for Inactive)
ROOT
HETATM    1  C1  UNL     1      13.940 -44.401 -42.089  1.00  0.00     0.015 C 
HETATM    2  C2  UNL     1      13.427 -42.946 -42.122  1.00  0.00    -0.041 C 
HETATM    3  C3  UNL     1      13.672 -42.386 -40.684  1.00  0.00     0.010 C 
HETATM    4  C4  UNL     1      12.561 -41.375 -40.482  1.00  0.00     0.016 C 
HETATM    5  C5  UNL     1      11.692 -41.479 -41.742  1.00  0.00     0.049 C 
HETATM    6  C6  UNL     1      11.972 -42.916 -42.094  1.00  0.00     0.024 C 
HETATM    7  S1  UNL     1      12.199 -40.304 -42.954  1.00  0.00    -0.148 SA
HETATM    8  C7  UNL     1      13.409 -41.311 -43.940  1.00  0.00     0.082 A 
HETATM    9  C8  UNL     1      14.243 -42.260 -43.052  1.00  0.00     0.036 C 
HETATM   10  C9  UNL     1      13.287 -41.596 -44.432  1.00  0.00     0.136 A 
HETATM   11  N1  UNL     1      12.699 -42.396 -45.255  1.00  0.00    -0.317 N 
ATOM     12  H1  UNL     1      11.906 -42.926 -44.895  1.00  0.00     0.181 HD
HETATM   13  N2  UNL     1      13.056 -42.611 -46.640  1.00  0.00    -0.287 N 
ATOM     14  H2  UNL     1      12.750 -43.431 -47.164  1.00  0.00     0.188 HD
HETATM   15  C10 UNL     1      13.872 -41.587 -47.221  1.00  0.00     0.150 A 
HETATM   16  N3  UNL     1      14.343 -41.434 -48.445  1.00  0.00    -0.336 N 
ATOM     17  H3  UNL     1      14.188 -42.056 -49.239  1.00  0.00     0.168 HD
HETATM   18  C11 UNL     1      15.070 -40.294 -48.445  1.00  0.00     0.182 A 
HETATM   19  N4  UNL     1      15.070 -39.699 -47.205  1.00  0.00    -0.347 N 
ATOM     20  H4  UNL     1      15.539 -38.835 -46.934  1.00  0.00     0.167 HD
HETATM   21  C12 UNL     1      14.326 -40.495 -46.428  1.00  0.00     0.110 A 
HETATM   22  N5  UNL     1      13.957 -40.416 -45.066  1.00  0.00     0.000 N 
HETATM   23  O1  UNL     1      14.050 -39.375 -44.419  1.00  0.00    -0.220 OA
HETATM   24  C13 UNL     1      14.398 -40.584 -43.926  1.00  0.00     0.184 A 
ENDROOT
TORSDOF 0
ENDMDL
MODEL 2
REMARK VINA RESULT: -7.221431000      1.312      1.575
REMARK  0 active torsions:
REMARK  status: ('A' for Active; 'I' for Inactive)
ROOT
HETATM    1  C1  UNL     1      13.934 -43.709 -40.937  1.00  0.00     0.015 C 
HETATM    2  C2  UNL     1      13.535 -42.294 -41.406  1.00  0.00    -0.041 C 
HETATM    3  C3  UNL     1      14.278 -41.312 -40.444  1.00  0.00     0.010 C 
HETATM    4  C4  UNL     1      13.365 -40.106 -40.364  1.00  0.00     0.016 C 
HETATM    5  C5  UNL     1      12.122 -40.489 -41.178  1.00  0.00     0.049 C 
HETATM    6  C6  UNL     1      12.177 -41.981 -40.987  1.00  0.00     0.024 C 
HETATM    7  S1  UNL     1      12.274 -39.947 -42.849  1.00  0.00    -0.148 SA
HETATM    8  C7  UNL     1      13.021 -41.450 -43.643  1.00  0.00     0.082 A 
HETATM    9  C8  UNL     1      14.039 -42.156 -42.721  1.00  0.00     0.036 C 
HETATM   10  C9  UNL     1      12.725 -41.865 -43.924  1.00  0.00     0.136 A 
HETATM   11  N1  UNL     1      11.847 -42.780 -44.156  1.00  0.00    -0.317 N 
ATOM     12  H1  UNL     1      11.186 -42.985 -43.408  1.00  0.00     0.181 HD
HETATM   13  N2  UNL     1      11.710 -43.542 -45.378  1.00  0.00    -0.287 N 
ATOM     14  H2  UNL     1      11.196 -44.422 -45.421  1.00  0.00     0.188 HD
HETATM   15  C10 UNL     1      12.352 -42.969 -46.524  1.00  0.00     0.150 A 
HETATM   16  N3  UNL     1      12.400 -43.359 -47.785  1.00  0.00    -0.336 N 
ATOM     17  H3  UNL     1      11.951 -44.183 -48.184  1.00  0.00     0.168 HD
HETATM   18  C11 UNL     1      13.158 -42.455 -48.445  1.00  0.00     0.182 A 
HETATM   19  N4  UNL     1      13.608 -41.466 -47.602  1.00  0.00    -0.347 N 
ATOM     20  H4  UNL     1      14.194 -40.667 -47.843  1.00  0.00     0.167 HD
HETATM   21  C12 UNL     1      13.112 -41.773 -46.397  1.00  0.00     0.110 A 
HETATM   22  N5  UNL     1      13.222 -41.141 -45.138  1.00  0.00     0.000 N 
HETATM   23  O1  UNL     1      13.591 -39.975 -45.017  1.00  0.00    -0.220 OA
HETATM   24  C13 UNL     1      14.004 -40.969 -44.199  1.00  0.00     0.184 A 
ENDROOT
TORSDOF 0
ENDMDL
MODEL 3
REMARK VINA RESULT: -7.211565461      1.940      2.997
REMARK  0 active torsions:
REMARK  status: ('A' for Active; 'I' for Inactive)
ROOT
HETATM    1  C1  UNL     1      13.112 -38.651 -42.154  1.00  0.00     0.015 C 
HETATM    2  C2  UNL     1      13.036 -40.184 -41.995  1.00  0.00    -0.041 C 
HETATM    3  C3  UNL     1      12.234 -40.425 -40.676  1.00  0.00     0.010 C 
HETATM    4  C4  UNL     1      12.793 -41.723 -40.130  1.00  0.00     0.016 C 
HETATM    5  C5  UNL     1      13.936 -42.099 -41.083  1.00  0.00     0.049 C 
HETATM    6  C6  UNL     1      14.313 -40.715 -41.541  1.00  0.00     0.024 C 
HETATM    7  S1  UNL     1      13.365 -43.174 -42.357  1.00  0.00    -0.148 SA
HETATM    8  C7  UNL     1      12.920 -41.951 -43.682  1.00  0.00     0.082 A 
HETATM    9  C8  UNL     1      12.297 -40.660 -43.103  1.00  0.00     0.036 C 
HETATM   10  C9  UNL     1      13.263 -41.794 -44.124  1.00  0.00     0.136 A 
HETATM   11  N1  UNL     1      14.299 -41.367 -44.761  1.00  0.00    -0.317 N 
ATOM     12  H1  UNL     1      15.109 -41.103 -44.199  1.00  0.00     0.181 HD
HETATM   13  N2  UNL     1      14.424 -41.228 -46.195  1.00  0.00    -0.287 N 
ATOM     14  H2  UNL     1      15.138 -40.644 -46.630  1.00  0.00     0.188 HD
HETATM   15  C10 UNL     1      13.467 -41.972 -46.961  1.00  0.00     0.150 A 
HETATM   16  N3  UNL     1      13.312 -42.113 -48.265  1.00  0.00    -0.336 N 
ATOM     17  H3  UNL     1      13.889 -41.697 -48.995  1.00  0.00     0.168 HD
HETATM   18  C11 UNL     1      12.240 -42.918 -48.445  1.00  0.00     0.182 A 
HETATM   19  N4  UNL     1      11.694 -43.304 -47.243  1.00  0.00    -0.347 N 
ATOM     20  H4  UNL     1      10.884 -43.906 -47.097  1.00  0.00     0.167 HD
HETATM   21  C12 UNL     1      12.450 -42.720 -46.305  1.00  0.00     0.110 A 
HETATM   22  N5  UNL     1      12.392 -42.740 -44.893  1.00  0.00     0.000 N 
HETATM   23  O1  UNL     1      11.753 -43.587 -44.273  1.00  0.00    -0.220 OA
HETATM   24  C13 UNL     1      11.765 -42.278 -43.937  1.00  0.00     0.184 A 
ENDROOT
TORSDOF 0
ENDMDL
MODEL 4
REMARK VINA RESULT: -7.179405737      1.643      2.808
REMARK  0 active torsions:
REMARK  status: ('A' for Active; 'I' for Inactive)
ROOT
HETATM    1  C1  UNL     1      12.504 -38.260 -41.520  1.00  0.00     0.015 C 
HETATM    2  C2  UNL     1      12.785 -39.762 -41.738  1.00  0.00    -0.041 C 
HETATM    3  C3  UNL     1      11.700 -40.513 -40.901  1.00  0.00     0.010 C 
HETATM    4  C4  UNL     1      12.378 -41.801 -40.481  1.00  0.00     0.016 C 
HETATM    5  C5  UNL     1      13.819 -41.682 -40.994  1.00  0.00     0.049 C 
HETATM    6  C6  UNL     1      13.945 -40.182 -40.966  1.00  0.00     0.024 C 
HETATM    7  S1  UNL     1      13.981 -42.412 -42.590  1.00  0.00    -0.148 SA
HETATM    8  C7  UNL     1      13.673 -40.944 -43.686  1.00  0.00     0.082 A 
HETATM    9  C8  UNL     1      12.585 -40.006 -43.117  1.00  0.00     0.036 C 
HETATM   10  C9  UNL     1      14.084 -40.609 -43.922  1.00  0.00     0.136 A 
HETATM   11  N1  UNL     1      15.120 -39.845 -44.016  1.00  0.00    -0.317 N 
ATOM     12  H1  UNL     1      15.612 -39.627 -43.150  1.00  0.00     0.181 HD
HETATM   13  N2  UNL     1      15.649 -39.270 -45.233  1.00  0.00    -0.287 N 
ATOM     14  H2  UNL     1      16.286 -38.473 -45.231  1.00  0.00     0.188 HD
HETATM   15  C10 UNL     1      15.213 -39.903 -46.442  1.00  0.00     0.150 A 
HETATM   16  N3  UNL     1      15.519 -39.677 -47.706  1.00  0.00    -0.336 N 
ATOM     17  H3  UNL     1      16.167 -38.972 -48.059  1.00  0.00     0.168 HD
HETATM   18  C11 UNL     1      14.809 -40.559 -48.445  1.00  0.00     0.182 A 
HETATM   19  N4  UNL     1      14.032 -41.369 -47.649  1.00  0.00    -0.347 N 
ATOM     20  H4  UNL     1      13.405 -42.114 -47.951  1.00  0.00     0.167 HD
HETATM   21  C12 UNL     1      14.274 -40.971 -46.393  1.00  0.00     0.110 A 
HETATM   22  N5  UNL     1      13.781 -41.417 -45.146  1.00  0.00     0.000 N 
HETATM   23  O1  UNL     1      13.223 -42.504 -45.010  1.00  0.00    -0.220 OA
HETATM   24  C13 UNL     1      12.786 -41.370 -44.419  1.00  0.00     0.184 A 
ENDROOT
TORSDOF 0
ENDMDL
MODEL 5
REMARK VINA RESULT: -7.031833624      1.732      2.674
REMARK  0 active torsions:
REMARK  status: ('A' for Active; 'I' for Inactive)
ROOT
HETATM    1  C1  UNL     1      13.623 -38.467 -41.606  1.00  0.00     0.015 C 
HETATM    2  C2  UNL     1      13.119 -39.917 -41.765  1.00  0.00    -0.041 C 
HETATM    3  C3  UNL     1      11.824 -40.004 -40.895  1.00  0.00     0.010 C 
HETATM    4  C4  UNL     1      11.784 -41.445 -40.428  1.00  0.00     0.016 C 
HETATM    5  C5  UNL     1      13.083 -42.071 -40.951  1.00  0.00     0.049 C 
HETATM    6  C6  UNL     1      13.937 -40.831 -40.984  1.00  0.00     0.024 C 
HETATM    7  S1  UNL     1      12.824 -42.837 -42.518  1.00  0.00    -0.148 SA
HETATM    8  C7  UNL     1      13.258 -41.446 -43.669  1.00  0.00     0.082 A 
HETATM    9  C8  UNL     1      12.792 -40.074 -43.133  1.00  0.00     0.036 C 
HETATM   10  C9  UNL     1      13.776 -41.366 -43.921  1.00  0.00     0.136 A 
HETATM   11  N1  UNL     1      15.051 -41.220 -44.049  1.00  0.00    -0.317 N 
ATOM     12  H1  UNL     1      15.606 -41.247 -43.195  1.00  0.00     0.181 HD
HETATM   13  N2  UNL     1      15.767 -41.022 -45.290  1.00  0.00    -0.287 N 
ATOM     14  H2  UNL     1      16.715 -40.645 -45.323  1.00  0.00     0.188 HD
HETATM   15  C10 UNL     1      15.046 -41.394 -46.471  1.00  0.00     0.150 A 
HETATM   16  N3  UNL     1      15.394 -41.390 -47.745  1.00  0.00    -0.336 N 
ATOM     17  H3  UNL     1      16.298 -41.111 -48.128  1.00  0.00     0.168 HD
HETATM   18  C11 UNL     1      14.323 -41.828 -48.445  1.00  0.00     0.182 A 
HETATM   19  N4  UNL     1      13.267 -42.119 -47.614  1.00  0.00    -0.347 N 
ATOM     20  H4  UNL     1      12.346 -42.465 -47.883  1.00  0.00     0.167 HD
HETATM   21  C12 UNL     1      13.703 -41.854 -46.376  1.00  0.00     0.110 A 
HETATM   22  N5  UNL     1      13.083 -41.956 -45.110  1.00  0.00     0.000 N 
HETATM   23  O1  UNL     1      12.064 -42.619 -44.929  1.00  0.00    -0.220 OA
HETATM   24  C13 UNL     1      12.259 -41.398 -44.381  1.00  0.00     0.184 A 
ENDROOT
TORSDOF 0
ENDMDL
