MODEL 1
REMARK VINA RESULT: -7.418838240      0.000      0.000
REMARK  3 active torsions:
REMARK  status: ('A' for Active; 'I' for Inactive)
REMARK    1  A    between atoms: C6_6  and  C7_7 
REMARK    2  A    between atoms: C14_16  and  O3_17 
REMARK    3  A    between atoms: C29_38  and  O6_39 
ROOT
HETATM    1  C1  UNL     1       8.660  15.305   0.862  1.00  0.00     0.013 C 
HETATM    2  C2  UNL     1       7.307  14.975   1.349  1.00  0.00     0.022 C 
HETATM    3  C3  UNL     1       7.285  14.188   2.668  1.00  0.00     0.017 C 
HETATM    4  C4  UNL     1       6.320  14.808   3.588  1.00  0.00     0.010 C 
HETATM    5  C5  UNL     1       4.941  14.286   3.842  1.00  0.00     0.021 C 
HETATM    6  C6  UNL     1       4.309  15.505   4.493  1.00  0.00     0.029 C 
HETATM    7  C8  UNL     1       2.946  15.480   4.898  1.00  0.00     0.009 A 
HETATM    8  C9  UNL     1       1.703  15.182   4.185  1.00  0.00     0.014 A 
HETATM    9  C10 UNL     1       2.297  16.537   3.945  1.00  0.00     0.021 A 
HETATM   10  C11 UNL     1       3.223  16.593   2.746  1.00  0.00     0.132 C 
HETATM   11  O2  UNL     1       2.832  15.677   1.856  1.00  0.00    -0.384 OA
HETATM   12  C12 UNL     1       3.552  14.569   1.645  1.00  0.00     0.181 C 
HETATM   13  C13 UNL     1       4.819  14.380   2.371  1.00  0.00     0.025 C 
HETATM   14  C14 UNL     1       5.424  13.106   1.847  1.00  0.00     0.147 C 
HETATM   15  C15 UNL     1       6.809  12.787   2.368  1.00  0.00     0.068 C 
HETATM   16  C16 UNL     1       6.768  11.971   3.644  1.00  0.00     0.028 C 
HETATM   17  C17 UNL     1       7.626  12.053   1.380  1.00  0.00     0.229 C 
HETATM   18  O4  UNL     1       7.105  12.001   0.192  1.00  0.00    -0.273 OA
HETATM   19  N1  UNL     1       8.863  11.416   1.557  1.00  0.00    -0.360 N 
ATOM     20  H1  UNL     1       8.891  10.441   1.260  1.00  0.00     0.162 HD
HETATM   21  C18 UNL     1      10.097  11.921   2.090  1.00  0.00     0.135 C 
HETATM   22  C19 UNL     1      10.636  11.158   3.282  1.00  0.00     0.128 C 
HETATM   23  S1  UNL     1      11.849  12.206   4.099  1.00  0.00     0.016 S 
HETATM   24  O5  UNL     1      13.338  11.480   4.168  1.00  0.00    -0.258 OA
HETATM   25  C20 UNL     1      11.282  12.844   5.611  1.00  0.00     0.109 C 
HETATM   26  C21 UNL     1      10.365  14.013   5.519  1.00  0.00     0.016 C 
HETATM   27  C22 UNL     1      10.883  15.173   4.741  1.00  0.00     0.027 C 
HETATM   28  C23 UNL     1      10.465  16.438   5.384  1.00  0.00    -0.031 C 
HETATM   29  C24 UNL     1      10.310  17.604   4.790  1.00  0.00    -0.031 C 
HETATM   30  C25 UNL     1      10.529  17.872   3.350  1.00  0.00     0.027 C 
HETATM   31  C26 UNL     1       9.304  18.429   2.665  1.00  0.00     0.004 C 
HETATM   32  C27 UNL     1       8.052  17.595   2.981  1.00  0.00     0.003 C 
HETATM   33  C28 UNL     1       7.137  17.447   1.839  1.00  0.00     0.039 C 
HETATM   34  C29 UNL     1       6.425  16.201   1.603  1.00  0.00     0.071 C 
HETATM   35  C30 UNL     1       5.552  15.638   2.594  1.00  0.00     0.015 C 
HETATM   36  C31 UNL     1       4.563  16.483   3.346  1.00  0.00     0.044 C 
ENDROOT
BRANCH   6  37
HETATM   37  C7  UNL     1       5.156  16.021   5.630  1.00  0.00     0.242 C 
HETATM   38  O1  UNL     1       4.713  16.211   6.728  1.00  0.00    -0.306 OA
ENDBRANCH   6  37
BRANCH  14  39
HETATM   39  O3  UNL     1       4.605  12.077   2.324  1.00  0.00    -0.393 OA
ATOM     40  H3  UNL     1       5.111  11.280   2.220  1.00  0.00     0.210 HD
ENDBRANCH  14  39
BRANCH  34  41
HETATM   41  O6  UNL     1       5.673  16.375   0.412  1.00  0.00    -0.389 OA
ATOM     42  H6  UNL     1       5.472  17.304   0.375  1.00  0.00     0.210 HD
ENDBRANCH  34  41
TORSDOF 3
ENDMDL
MODEL 2
REMARK VINA RESULT: -7.310139853      2.265      5.196
REMARK  3 active torsions:
REMARK  status: ('A' for Active; 'I' for Inactive)
REMARK    1  A    between atoms: C6_6  and  C7_7 
REMARK    2  A    between atoms: C14_16  and  O3_17 
REMARK    3  A    between atoms: C29_38  and  O6_39 
ROOT
HETATM    1  C1  UNL     1       7.989  12.052   4.772  1.00  0.00     0.013 C 
HETATM    2  C2  UNL     1       7.138  13.235   4.539  1.00  0.00     0.022 C 
HETATM    3  C3  UNL     1       7.165  13.758   3.095  1.00  0.00     0.017 C 
HETATM    4  C4  UNL     1       5.787  13.986   2.636  1.00  0.00     0.010 C 
HETATM    5  C5  UNL     1       5.130  15.329   2.572  1.00  0.00     0.021 C 
HETATM    6  C6  UNL     1       3.674  14.909   2.453  1.00  0.00     0.029 C 
HETATM    7  C8  UNL     1       2.645  15.889   2.385  1.00  0.00     0.009 A 
HETATM    8  C9  UNL     1       2.281  17.008   3.254  1.00  0.00     0.014 A 
HETATM    9  C10 UNL     1       1.866  15.645   3.720  1.00  0.00     0.021 A 
HETATM   10  C11 UNL     1       2.873  14.982   4.638  1.00  0.00     0.132 C 
HETATM   11  O2  UNL     1       3.542  15.930   5.301  1.00  0.00    -0.384 OA
HETATM   12  C12 UNL     1       4.822  16.195   5.020  1.00  0.00     0.181 C 
HETATM   13  C13 UNL     1       5.520  15.398   3.997  1.00  0.00     0.025 C 
HETATM   14  C14 UNL     1       6.948  15.871   3.988  1.00  0.00     0.147 C 
HETATM   15  C15 UNL     1       7.883  15.087   3.093  1.00  0.00     0.068 C 
HETATM   16  C16 UNL     1       7.931  15.644   1.684  1.00  0.00     0.028 C 
HETATM   17  C17 UNL     1       9.263  15.046   3.618  1.00  0.00     0.229 C 
HETATM   18  O4  UNL     1       9.384  15.492   4.831  1.00  0.00    -0.273 OA
HETATM   19  N1  UNL     1      10.434  14.599   2.988  1.00  0.00    -0.360 N 
ATOM     20  H1  UNL     1      11.202  15.270   2.985  1.00  0.00     0.162 HD
HETATM   21  C18 UNL     1      10.722  13.347   2.347  1.00  0.00     0.135 C 
HETATM   22  C19 UNL     1      11.148  13.457   0.898  1.00  0.00     0.128 C 
HETATM   23  S1  UNL     1      10.961  11.831   0.149  1.00  0.00     0.016 S 
HETATM   24  O5  UNL     1      12.396  11.270  -0.464  1.00  0.00    -0.258 OA
HETATM   25  C20 UNL     1       9.619  11.743  -0.949  1.00  0.00     0.109 C 
HETATM   26  C21 UNL     1       8.278  11.586  -0.323  1.00  0.00     0.016 C 
HETATM   27  C22 UNL     1       8.137  10.430   0.606  1.00  0.00     0.027 C 
HETATM   28  C23 UNL     1       6.795   9.826   0.458  1.00  0.00    -0.031 C 
HETATM   29  C24 UNL     1       6.139   9.141   1.374  1.00  0.00    -0.031 C 
HETATM   30  C25 UNL     1       6.629   8.844   2.740  1.00  0.00     0.027 C 
HETATM   31  C26 UNL     1       5.702   9.353   3.818  1.00  0.00     0.004 C 
HETATM   32  C27 UNL     1       5.312  10.821   3.580  1.00  0.00     0.003 C 
HETATM   33  C28 UNL     1       5.220  11.616   4.815  1.00  0.00     0.039 C 
HETATM   34  C29 UNL     1       5.657  13.002   4.850  1.00  0.00     0.071 C 
HETATM   35  C30 UNL     1       5.093  13.988   3.972  1.00  0.00     0.015 C 
HETATM   36  C31 UNL     1       3.612  14.082   3.737  1.00  0.00     0.044 C 
ENDROOT
BRANCH   6  37
HETATM   37  C7  UNL     1       3.481  13.906   1.343  1.00  0.00     0.242 C 
HETATM   38  O1  UNL     1       2.817  12.917   1.478  1.00  0.00    -0.306 OA
ENDBRANCH   6  37
BRANCH  14  39
HETATM   39  O3  UNL     1       6.913  17.160   3.446  1.00  0.00    -0.393 OA
ATOM     40  H3  UNL     1       7.173  17.740   4.151  1.00  0.00     0.210 HD
ENDBRANCH  14  39
BRANCH  34  41
HETATM   41  O6  UNL     1       5.477  13.457   6.183  1.00  0.00    -0.389 OA
ATOM     42  H6  UNL     1       4.710  12.997   6.504  1.00  0.00     0.210 HD
ENDBRANCH  34  41
TORSDOF 3
ENDMDL
MODEL 3
REMARK VINA RESULT: -7.204909249      2.373      4.088
REMARK  3 active torsions:
REMARK  status: ('A' for Active; 'I' for Inactive)
REMARK    1  A    between atoms: C6_6  and  C7_7 
REMARK    2  A    between atoms: C14_16  and  O3_17 
REMARK    3  A    between atoms: C29_38  and  O6_39 
ROOT
HETATM    1  C1  UNL     1       9.042  13.972   3.127  1.00  0.00     0.013 C 
HETATM    2  C2  UNL     1       7.654  14.275   3.521  1.00  0.00     0.022 C 
HETATM    3  C3  UNL     1       7.482  15.617   4.249  1.00  0.00     0.017 C 
HETATM    4  C4  UNL     1       6.358  16.353   3.651  1.00  0.00     0.010 C 
HETATM    5  C5  UNL     1       4.988  16.433   4.248  1.00  0.00     0.021 C 
HETATM    6  C6  UNL     1       4.200  16.921   3.044  1.00  0.00     0.029 C 
HETATM    7  C8  UNL     1       2.795  17.125   3.139  1.00  0.00     0.009 A 
HETATM    8  C9  UNL     1       1.690  16.257   3.546  1.00  0.00     0.014 A 
HETATM    9  C10 UNL     1       2.235  16.034   2.167  1.00  0.00     0.021 A 
HETATM   10  C11 UNL     1       3.323  14.980   2.106  1.00  0.00     0.132 C 
HETATM   11  O2  UNL     1       3.120  14.092   3.084  1.00  0.00    -0.384 OA
HETATM   12  C12 UNL     1       3.924  14.047   4.151  1.00  0.00     0.181 C 
HETATM   13  C13 UNL     1       5.079  14.957   4.227  1.00  0.00     0.025 C 
HETATM   14  C14 UNL     1       5.826  14.594   5.483  1.00  0.00     0.147 C 
HETATM   15  C15 UNL     1       7.134  15.325   5.690  1.00  0.00     0.068 C 
HETATM   16  C16 UNL     1       6.953  16.624   6.449  1.00  0.00     0.028 C 
HETATM   17  C17 UNL     1       8.129  14.506   6.413  1.00  0.00     0.229 C 
HETATM   18  O4  UNL     1       7.792  13.260   6.550  1.00  0.00    -0.273 OA
HETATM   19  N1  UNL     1       9.360  14.893   6.961  1.00  0.00    -0.360 N 
ATOM     20  H1  UNL     1       9.486  14.656   7.945  1.00  0.00     0.162 HD
HETATM   21  C18 UNL     1      10.472  15.572   6.356  1.00  0.00     0.135 C 
HETATM   22  C19 UNL     1      10.871  16.868   7.030  1.00  0.00     0.128 C 
HETATM   23  S1  UNL     1      11.889  17.794   5.872  1.00  0.00     0.016 S 
HETATM   24  O5  UNL     1      13.391  18.117   6.498  1.00  0.00    -0.258 OA
HETATM   25  C20 UNL     1      11.070  19.173   5.205  1.00  0.00     0.109 C 
HETATM   26  C21 UNL     1      10.112  18.888   4.102  1.00  0.00     0.016 C 
HETATM   27  C22 UNL     1      10.674  18.133   2.947  1.00  0.00     0.027 C 
HETATM   28  C23 UNL     1      10.095  18.640   1.684  1.00  0.00    -0.031 C 
HETATM   29  C24 UNL     1       9.963  17.970   0.557  1.00  0.00    -0.031 C 
HETATM   30  C25 UNL     1      10.377  16.564   0.339  1.00  0.00     0.027 C 
HETATM   31  C26 UNL     1       9.236  15.681  -0.108  1.00  0.00     0.004 C 
HETATM   32  C27 UNL     1       8.000  15.857   0.790  1.00  0.00     0.003 C 
HETATM   33  C28 UNL     1       7.273  14.604   1.046  1.00  0.00     0.039 C 
HETATM   34  C29 UNL     1       6.676  14.334   2.343  1.00  0.00     0.071 C 
HETATM   35  C30 UNL     1       5.699  15.217   2.916  1.00  0.00     0.015 C 
HETATM   36  C31 UNL     1       4.564  15.772   2.104  1.00  0.00     0.044 C 
ENDROOT
BRANCH   6  37
HETATM   37  C7  UNL     1       4.840  18.139   2.426  1.00  0.00     0.242 C 
HETATM   38  O1  UNL     1       4.938  18.282   1.239  1.00  0.00    -0.306 OA
ENDBRANCH   6  37
BRANCH  14  39
HETATM   39  O3  UNL     1       5.005  15.001   6.539  1.00  0.00    -0.393 OA
ATOM     40  H3  UNL     1       4.931  14.245   7.110  1.00  0.00     0.210 HD
ENDBRANCH  14  39
BRANCH  34  41
HETATM   41  O6  UNL     1       6.098  13.039   2.270  1.00  0.00    -0.389 OA
ATOM     42  H6  UNL     1       6.374  12.688   1.431  1.00  0.00     0.210 HD
ENDBRANCH  34  41
TORSDOF 3
ENDMDL
MODEL 4
REMARK VINA RESULT: -7.104372231      2.586      4.710
REMARK  3 active torsions:
REMARK  status: ('A' for Active; 'I' for Inactive)
REMARK    1  A    between atoms: C6_6  and  C7_7 
REMARK    2  A    between atoms: C14_16  and  O3_17 
REMARK    3  A    between atoms: C29_38  and  O6_39 
ROOT
HETATM    1  C1  UNL     1       9.143  14.079   3.706  1.00  0.00     0.013 C 
HETATM    2  C2  UNL     1       7.816  14.673   3.957  1.00  0.00     0.022 C 
HETATM    3  C3  UNL     1       7.816  16.208   4.036  1.00  0.00     0.017 C 
HETATM    4  C4  UNL     1       6.728  16.737   3.200  1.00  0.00     0.010 C 
HETATM    5  C5  UNL     1       5.413  17.216   3.731  1.00  0.00     0.021 C 
HETATM    6  C6  UNL     1       4.595  17.225   2.450  1.00  0.00     0.029 C 
HETATM    7  C8  UNL     1       3.224  17.604   2.475  1.00  0.00     0.009 A 
HETATM    8  C9  UNL     1       2.073  17.122   3.239  1.00  0.00     0.014 A 
HETATM    9  C10 UNL     1       2.504  16.272   2.082  1.00  0.00     0.021 A 
HETATM   10  C11 UNL     1       3.484  15.180   2.461  1.00  0.00     0.132 C 
HETATM   11  O2  UNL     1       3.265  14.825   3.730  1.00  0.00    -0.384 OA
HETATM   12  C12 UNL     1       4.131  15.152   4.696  1.00  0.00     0.181 C 
HETATM   13  C13 UNL     1       5.367  15.873   4.349  1.00  0.00     0.025 C 
HETATM   14  C14 UNL     1       6.157  16.002   5.623  1.00  0.00     0.147 C 
HETATM   15  C15 UNL     1       7.538  16.602   5.467  1.00  0.00     0.068 C 
HETATM   16  C16 UNL     1       7.526  18.112   5.593  1.00  0.00     0.028 C 
HETATM   17  C17 UNL     1       8.499  16.066   6.454  1.00  0.00     0.229 C 
HETATM   18  O4  UNL     1       8.060  15.045   7.123  1.00  0.00    -0.273 OA
HETATM   19  N1  UNL     1       9.794  16.512   6.756  1.00  0.00    -0.360 N 
ATOM     20  H1  UNL     1       9.961  16.706   7.743  1.00  0.00     0.162 HD
HETATM   21  C18 UNL     1      10.920  16.738   5.895  1.00  0.00     0.135 C 
HETATM   22  C19 UNL     1      11.480  18.145   5.934  1.00  0.00     0.128 C 
HETATM   23  S1  UNL     1      12.501  18.368   4.470  1.00  0.00     0.016 S 
HETATM   24  O5  UNL     1      14.063  18.759   4.865  1.00  0.00    -0.258 OA
HETATM   25  C20 UNL     1      11.769  19.410   3.289  1.00  0.00     0.109 C 
HETATM   26  C21 UNL     1      10.719  18.788   2.437  1.00  0.00     0.016 C 
HETATM   27  C22 UNL     1      11.132  17.554   1.711  1.00  0.00     0.027 C 
HETATM   28  C23 UNL     1      10.520  17.533   0.364  1.00  0.00    -0.031 C 
HETATM   29  C24 UNL     1      10.254  16.463  -0.359  1.00  0.00    -0.031 C 
HETATM   30  C25 UNL     1      10.522  15.063   0.045  1.00  0.00     0.027 C 
HETATM   31  C26 UNL     1       9.279  14.206   0.046  1.00  0.00     0.004 C 
HETATM   32  C27 UNL     1       8.126  14.885   0.804  1.00  0.00     0.003 C 
HETATM   33  C28 UNL     1       7.306  13.951   1.591  1.00  0.00     0.039 C 
HETATM   34  C29 UNL     1       6.772  14.331   2.889  1.00  0.00     0.071 C 
HETATM   35  C30 UNL     1       5.921  15.476   3.043  1.00  0.00     0.015 C 
HETATM   36  C31 UNL     1       4.790  15.752   2.093  1.00  0.00     0.044 C 
ENDROOT
BRANCH   6  37
HETATM   37  C7  UNL     1       5.301  17.982   1.354  1.00  0.00     0.242 C 
HETATM   38  O1  UNL     1       5.135  19.156   1.172  1.00  0.00    -0.306 OA
ENDBRANCH   6  37
BRANCH  14  39
HETATM   39  O3  UNL     1       5.448  16.910   6.415  1.00  0.00    -0.393 OA
ATOM     40  H3  UNL     1       5.585  16.627   7.311  1.00  0.00     0.210 HD
ENDBRANCH  14  39
BRANCH  34  41
HETATM   41  O6  UNL     1       6.076  13.202   3.394  1.00  0.00    -0.389 OA
ATOM     42  H6  UNL     1       6.166  13.254   4.339  1.00  0.00     0.210 HD
ENDBRANCH  34  41
TORSDOF 3
ENDMDL
MODEL 5
REMARK VINA RESULT: -7.004123164      2.395      5.345
REMARK  3 active torsions:
REMARK  status: ('A' for Active; 'I' for Inactive)
REMARK    1  A    between atoms: C6_6  and  C7_7 
REMARK    2  A    between atoms: C14_16  and  O3_17 
REMARK    3  A    between atoms: C29_38  and  O6_39 
ROOT
HETATM    1  C1  UNL     1       7.782  11.780   5.349  1.00  0.00     0.013 C 
HETATM    2  C2  UNL     1       7.049  12.978   4.897  1.00  0.00     0.022 C 
HETATM    3  C3  UNL     1       6.985  13.140   3.371  1.00  0.00     0.017 C 
HETATM    4  C4  UNL     1       5.601  13.436   2.971  1.00  0.00     0.010 C 
HETATM    5  C5  UNL     1       5.095  14.802   2.629  1.00  0.00     0.021 C 
HETATM    6  C6  UNL     1       3.597  14.564   2.724  1.00  0.00     0.029 C 
HETATM    7  C8  UNL     1       2.683  15.629   2.493  1.00  0.00     0.009 A 
HETATM    8  C9  UNL     1       2.537  16.959   3.086  1.00  0.00     0.014 A 
HETATM    9  C10 UNL     1       2.023  15.811   3.900  1.00  0.00     0.021 A 
HETATM   10  C11 UNL     1       3.039  15.252   4.876  1.00  0.00     0.132 C 
HETATM   11  O2  UNL     1       3.874  16.231   5.236  1.00  0.00    -0.384 OA
HETATM   12  C12 UNL     1       5.141  16.250   4.806  1.00  0.00     0.181 C 
HETATM   13  C13 UNL     1       5.636  15.150   3.962  1.00  0.00     0.025 C 
HETATM   14  C14 UNL     1       7.099  15.414   3.733  1.00  0.00     0.147 C 
HETATM   15  C15 UNL     1       7.843  14.324   2.990  1.00  0.00     0.068 C 
HETATM   16  C16 UNL     1       7.808  14.525   1.489  1.00  0.00     0.028 C 
HETATM   17  C17 UNL     1       9.257  14.224   3.407  1.00  0.00     0.229 C 
HETATM   18  O4  UNL     1       9.551  14.921   4.461  1.00  0.00    -0.273 OA
HETATM   19  N1  UNL     1      10.299  13.490   2.822  1.00  0.00    -0.360 N 
ATOM     20  H1  UNL     1      11.133  14.033   2.598  1.00  0.00     0.162 HD
HETATM   21  C18 UNL     1      10.377  12.096   2.487  1.00  0.00     0.135 C 
HETATM   22  C19 UNL     1      10.661  11.806   1.028  1.00  0.00     0.128 C 
HETATM   23  S1  UNL     1      10.218  10.090   0.716  1.00  0.00     0.016 S 
HETATM   24  O5  UNL     1      11.511   9.216   0.156  1.00  0.00    -0.258 OA
HETATM   25  C20 UNL     1       8.769   9.928  -0.226  1.00  0.00     0.109 C 
HETATM   26  C21 UNL     1       7.490  10.102   0.516  1.00  0.00     0.016 C 
HETATM   27  C22 UNL     1       7.317   9.224   1.707  1.00  0.00     0.027 C 
HETATM   28  C23 UNL     1       5.908   8.786   1.811  1.00  0.00    -0.031 C 
HETATM   29  C24 UNL     1       5.278   8.429   2.912  1.00  0.00    -0.031 C 
HETATM   30  C25 UNL     1       5.870   8.396   4.270  1.00  0.00     0.027 C 
HETATM   31  C26 UNL     1       5.122   9.263   5.255  1.00  0.00     0.004 C 
HETATM   32  C27 UNL     1       4.876  10.673   4.694  1.00  0.00     0.003 C 
HETATM   33  C28 UNL     1       5.001  11.739   5.700  1.00  0.00     0.039 C 
HETATM   34  C29 UNL     1       5.591  13.024   5.363  1.00  0.00     0.071 C 
HETATM   35  C30 UNL     1       5.054  13.843   4.313  1.00  0.00     0.015 C 
HETATM   36  C31 UNL     1       3.576  14.076   4.172  1.00  0.00     0.044 C 
ENDROOT
BRANCH   6  37
HETATM   37  C7  UNL     1       3.180  13.365   1.910  1.00  0.00     0.242 C 
HETATM   38  O1  UNL     1       3.015  13.419   0.723  1.00  0.00    -0.306 OA
ENDBRANCH   6  37
BRANCH  14  39
HETATM   39  O3  UNL     1       7.153  16.532   2.895  1.00  0.00    -0.393 OA
ATOM     40  H3  UNL     1       7.555  17.220   3.414  1.00  0.00     0.210 HD
ENDBRANCH  14  39
BRANCH  34  41
HETATM   41  O6  UNL     1       5.602  13.798   6.554  1.00  0.00    -0.389 OA
ATOM     42  H6  UNL     1       4.946  13.402   7.116  1.00  0.00     0.210 HD
ENDBRANCH  34  41
TORSDOF 3
ENDMDL
