MODEL 1
REMARK VINA RESULT: -8.201544628      0.000      0.000
REMARK  7 active torsions:
REMARK  status: ('A' for Active; 'I' for Inactive)
REMARK    1  A    between atoms: C6_6  and  O1_7 
REMARK    2  A    between atoms: O1_7  and  C7_8 
REMARK    3  A    between atoms: C9_10  and  O2_11 
REMARK    4  A    between atoms: C14_18  and  O4_19 
REMARK    5  A    between atoms: C18_24  and  O5_25 
REMARK    6  A    between atoms: O5_25  and  O6_26 
REMARK    7  A    between atoms: C20_29  and  O7_30 
ROOT
HETATM    1  C1  UNL     1       0.226   5.494 -17.487  1.00  0.00     0.019 C 
HETATM    2  C2  UNL     1       0.993   4.839 -16.646  1.00  0.00    -0.059 C 
HETATM    3  C3  UNL     1       1.883   5.351 -15.661  1.00  0.00    -0.038 A 
HETATM    4  C4  UNL     1       2.816   5.944 -14.839  1.00  0.00     0.063 A 
HETATM    5  C5  UNL     1       3.953   6.972 -15.014  1.00  0.00     0.061 C 
HETATM    6  C6  UNL     1       3.977   7.216 -16.457  1.00  0.00     0.179 C 
HETATM    7  C14 UNL     1       3.407   5.890 -16.457  1.00  0.00     0.067 C 
HETATM    8  C15 UNL     1       2.420   5.644 -15.289  1.00  0.00     0.060 A 
HETATM    9  C16 UNL     1       1.452   6.707 -14.641  1.00  0.00    -0.006 C 
HETATM   10  C17 UNL     1       0.164   6.490 -14.171  1.00  0.00     0.012 C 
HETATM   11  C18 UNL     1      -1.034   5.671 -14.074  1.00  0.00     0.125 A 
HETATM   12  C19 UNL     1      -1.240   4.373 -13.406  1.00  0.00     0.065 A 
HETATM   13  C20 UNL     1      -1.745   3.022 -13.961  1.00  0.00     0.130 C 
HETATM   14  C21 UNL     1      -0.581   3.302 -14.891  1.00  0.00     0.023 C 
HETATM   15  C22 UNL     1      -0.500   2.861 -16.242  1.00  0.00     0.016 C 
HETATM   16  C23 UNL     1       0.808   3.364 -16.866  1.00  0.00     0.014 C 
HETATM   17  C24 UNL     1       0.615   3.025 -18.349  1.00  0.00     0.015 C 
HETATM   18  C25 UNL     1      -1.375   4.594 -14.804  1.00  0.00     0.044 A 
HETATM   19  C26 UNL     1       3.044   4.485 -14.404  1.00  0.00     0.100 A 
HETATM   20  C27 UNL     1       2.682   5.398 -13.455  1.00  0.00     0.148 A 
HETATM   21  O8  UNL     1       3.233   6.055 -12.531  1.00  0.00    -0.296 OA
ENDROOT
BRANCH   6  22
HETATM   22  O1  UNL     1       3.296   8.303 -16.807  1.00  0.00    -0.350 OA
BRANCH  22  23
HETATM   23  C7  UNL     1       4.132   9.314 -17.185  1.00  0.00     0.263 C 
HETATM   24  C8  UNL     1       4.819   8.768 -18.427  1.00  0.00     0.092 C 
HETATM   25  C9  UNL     1       3.883   9.130 -19.578  1.00  0.00     0.122 C 
HETATM   26  C10 UNL     1       2.507   8.643 -19.387  1.00  0.00     0.034 C 
HETATM   27  C11 UNL     1       1.583   9.460 -18.589  1.00  0.00     0.034 C 
HETATM   28  C12 UNL     1       2.142  10.429 -17.629  1.00  0.00     0.120 C 
HETATM   29  C13 UNL     1       1.667  11.849 -17.916  1.00  0.00     0.039 C 
HETATM   30  O3  UNL     1       3.513  10.488 -17.539  1.00  0.00    -0.356 OA
BRANCH  25  31
HETATM   31  O2  UNL     1       3.999  10.466 -19.866  1.00  0.00    -0.395 OA
ATOM     32  H2  UNL     1       4.336  10.575 -20.748  1.00  0.00     0.210 HD
ENDBRANCH  25  31
ENDBRANCH  22  23
ENDBRANCH   6  22
BRANCH   7  33
HETATM   33  O4  UNL     1       3.178   5.448 -17.673  1.00  0.00    -0.365 OA
ATOM     34  H4  UNL     1       2.354   5.767 -18.021  1.00  0.00     0.217 HD
ENDBRANCH   7  33
BRANCH  11  35
HETATM   35  O5  UNL     1      -2.215   6.486 -13.786  1.00  0.00    -0.227 OA
BRANCH  35  36
HETATM   36  O6  UNL     1      -2.400   7.163 -14.902  1.00  0.00    -0.249 OA
ATOM     37  H6  UNL     1      -3.002   6.616 -15.394  1.00  0.00     0.253 HD
ENDBRANCH  35  36
ENDBRANCH  11  35
BRANCH  13  38
HETATM   38  O7  UNL     1      -1.529   2.028 -13.042  1.00  0.00    -0.395 OA
ATOM     39  H7  UNL     1      -1.364   1.205 -13.487  1.00  0.00     0.210 HD
ENDBRANCH  13  38
TORSDOF 7
ENDMDL
MODEL 2
REMARK VINA RESULT: -7.998150152      0.788      1.419
REMARK  7 active torsions:
REMARK  status: ('A' for Active; 'I' for Inactive)
REMARK    1  A    between atoms: C6_6  and  O1_7 
REMARK    2  A    between atoms: O1_7  and  C7_8 
REMARK    3  A    between atoms: C9_10  and  O2_11 
REMARK    4  A    between atoms: C14_18  and  O4_19 
REMARK    5  A    between atoms: C18_24  and  O5_25 
REMARK    6  A    between atoms: O5_25  and  O6_26 
REMARK    7  A    between atoms: C20_29  and  O7_30 
ROOT
HETATM    1  C1  UNL     1       0.044   5.477 -17.477  1.00  0.00     0.019 C 
HETATM    2  C2  UNL     1       0.871   4.834 -16.685  1.00  0.00    -0.059 C 
HETATM    3  C3  UNL     1       1.796   5.359 -15.739  1.00  0.00    -0.038 A 
HETATM    4  C4  UNL     1       2.752   5.968 -14.957  1.00  0.00     0.063 A 
HETATM    5  C5  UNL     1       3.849   7.030 -15.174  1.00  0.00     0.061 C 
HETATM    6  C6  UNL     1       3.793   7.292 -16.613  1.00  0.00     0.179 C 
HETATM    7  C14 UNL     1       3.261   5.951 -16.603  1.00  0.00     0.067 C 
HETATM    8  C15 UNL     1       2.342   5.662 -15.391  1.00  0.00     0.060 A 
HETATM    9  C16 UNL     1       1.379   6.689 -14.679  1.00  0.00    -0.006 C 
HETATM   10  C17 UNL     1       0.123   6.429 -14.148  1.00  0.00     0.012 C 
HETATM   11  C18 UNL     1      -1.046   5.576 -14.003  1.00  0.00     0.125 A 
HETATM   12  C19 UNL     1      -1.181   4.264 -13.344  1.00  0.00     0.065 A 
HETATM   13  C20 UNL     1      -1.675   2.906 -13.891  1.00  0.00     0.130 C 
HETATM   14  C21 UNL     1      -0.568   3.231 -14.875  1.00  0.00     0.023 C 
HETATM   15  C22 UNL     1      -0.544   2.810 -16.234  1.00  0.00     0.016 C 
HETATM   16  C23 UNL     1       0.716   3.357 -16.916  1.00  0.00     0.014 C 
HETATM   17  C24 UNL     1       0.458   3.032 -18.392  1.00  0.00     0.015 C 
HETATM   18  C25 UNL     1      -1.392   4.498 -14.729  1.00  0.00     0.044 A 
HETATM   19  C26 UNL     1       3.042   4.510 -14.554  1.00  0.00     0.100 A 
HETATM   20  C27 UNL     1       2.704   5.401 -13.576  1.00  0.00     0.148 A 
HETATM   21  O8  UNL     1       3.282   6.061 -12.672  1.00  0.00    -0.296 OA
ENDROOT
BRANCH   6  22
HETATM   22  O1  UNL     1       3.065   8.364 -16.913  1.00  0.00    -0.350 OA
BRANCH  22  23
HETATM   23  C7  UNL     1       3.304   8.787 -18.189  1.00  0.00     0.263 C 
HETATM   24  C8  UNL     1       1.948   9.283 -18.665  1.00  0.00     0.092 C 
HETATM   25  C9  UNL     1       1.885  10.739 -18.207  1.00  0.00     0.122 C 
HETATM   26  C10 UNL     1       2.117  10.908 -16.763  1.00  0.00     0.034 C 
HETATM   27  C11 UNL     1       3.504  10.984 -16.284  1.00  0.00     0.034 C 
HETATM   28  C12 UNL     1       4.575  10.414 -17.121  1.00  0.00     0.120 C 
HETATM   29  C13 UNL     1       5.629  11.457 -17.476  1.00  0.00     0.039 C 
HETATM   30  O3  UNL     1       4.189   9.832 -18.306  1.00  0.00    -0.356 OA
BRANCH  25  31
HETATM   31  O2  UNL     1       2.670  11.515 -19.023  1.00  0.00    -0.395 OA
ATOM     32  H2  UNL     1       2.728  12.395 -18.669  1.00  0.00     0.210 HD
ENDBRANCH  25  31
ENDBRANCH  22  23
ENDBRANCH   6  22
BRANCH   7  33
HETATM   33  O4  UNL     1       2.983   5.518 -17.812  1.00  0.00    -0.365 OA
ATOM     34  H4  UNL     1       2.449   4.733 -17.798  1.00  0.00     0.217 HD
ENDBRANCH   7  33
BRANCH  11  35
HETATM   35  O5  UNL     1      -2.232   6.352 -13.643  1.00  0.00    -0.227 OA
BRANCH  35  36
HETATM   36  O6  UNL     1      -2.318   7.244 -14.611  1.00  0.00    -0.249 OA
ATOM     37  H6  UNL     1      -3.116   7.718 -14.403  1.00  0.00     0.253 HD
ENDBRANCH  35  36
ENDBRANCH  11  35
BRANCH  13  38
HETATM   38  O7  UNL     1      -1.385   1.907 -12.998  1.00  0.00    -0.395 OA
ATOM     39  H7  UNL     1      -2.151   1.712 -12.470  1.00  0.00     0.210 HD
ENDBRANCH  13  38
TORSDOF 7
ENDMDL
MODEL 3
REMARK VINA RESULT: -7.576280717      1.147      1.313
REMARK  7 active torsions:
REMARK  status: ('A' for Active; 'I' for Inactive)
REMARK    1  A    between atoms: C6_6  and  O1_7 
REMARK    2  A    between atoms: O1_7  and  C7_8 
REMARK    3  A    between atoms: C9_10  and  O2_11 
REMARK    4  A    between atoms: C14_18  and  O4_19 
REMARK    5  A    between atoms: C18_24  and  O5_25 
REMARK    6  A    between atoms: O5_25  and  O6_26 
REMARK    7  A    between atoms: C20_29  and  O7_30 
ROOT
HETATM    1  C1  UNL     1       0.095   6.633 -17.183  1.00  0.00     0.019 C 
HETATM    2  C2  UNL     1       0.709   5.655 -16.558  1.00  0.00    -0.059 C 
HETATM    3  C3  UNL     1       1.798   5.721 -15.644  1.00  0.00    -0.038 A 
HETATM    4  C4  UNL     1       2.936   5.880 -14.885  1.00  0.00     0.063 A 
HETATM    5  C5  UNL     1       4.304   6.569 -15.070  1.00  0.00     0.061 C 
HETATM    6  C6  UNL     1       4.265   7.045 -16.453  1.00  0.00     0.179 C 
HETATM    7  C14 UNL     1       3.332   5.950 -16.561  1.00  0.00     0.067 C 
HETATM    8  C15 UNL     1       2.430   5.785 -15.313  1.00  0.00     0.060 A 
HETATM    9  C16 UNL     1       1.882   6.943 -14.393  1.00  0.00    -0.006 C 
HETATM   10  C17 UNL     1       0.637   7.011 -13.784  1.00  0.00     0.012 C 
HETATM   11  C18 UNL     1      -0.735   6.552 -13.638  1.00  0.00     0.125 A 
HETATM   12  C19 UNL     1      -1.252   5.265 -13.137  1.00  0.00     0.065 A 
HETATM   13  C20 UNL     1      -2.182   4.224 -13.802  1.00  0.00     0.130 C 
HETATM   14  C21 UNL     1      -1.078   4.330 -14.836  1.00  0.00     0.023 C 
HETATM   15  C22 UNL     1      -1.257   4.128 -16.233  1.00  0.00     0.016 C 
HETATM   16  C23 UNL     1       0.078   4.351 -16.955  1.00  0.00     0.014 C 
HETATM   17  C24 UNL     1      -0.343   4.343 -18.430  1.00  0.00     0.015 C 
HETATM   18  C25 UNL     1      -1.444   5.755 -14.458  1.00  0.00     0.044 A 
HETATM   19  C26 UNL     1       2.763   4.363 -14.696  1.00  0.00     0.100 A 
HETATM   20  C27 UNL     1       2.776   5.159 -13.587  1.00  0.00     0.148 A 
HETATM   21  O8  UNL     1       3.579   5.466 -12.665  1.00  0.00    -0.296 OA
ENDROOT
BRANCH   6  22
HETATM   22  O1  UNL     1       3.906   8.322 -16.548  1.00  0.00    -0.350 OA
BRANCH  22  23
HETATM   23  C7  UNL     1       4.816   9.043 -17.267  1.00  0.00     0.263 C 
HETATM   24  C8  UNL     1       4.352   8.878 -18.705  1.00  0.00     0.092 C 
HETATM   25  C9  UNL     1       3.327   9.991 -18.912  1.00  0.00     0.122 C 
HETATM   26  C10 UNL     1       2.238   9.973 -17.921  1.00  0.00     0.034 C 
HETATM   27  C11 UNL     1       2.461  10.636 -16.629  1.00  0.00     0.034 C 
HETATM   28  C12 UNL     1       3.845  10.847 -16.170  1.00  0.00     0.120 C 
HETATM   29  C13 UNL     1       4.138  12.322 -15.916  1.00  0.00     0.039 C 
HETATM   30  O3  UNL     1       4.846  10.389 -16.996  1.00  0.00    -0.356 OA
BRANCH  25  31
HETATM   31  O2  UNL     1       3.971  11.193 -19.055  1.00  0.00    -0.395 OA
ATOM     32  H2  UNL     1       3.350  11.860 -19.326  1.00  0.00     0.210 HD
ENDBRANCH  25  31
ENDBRANCH  22  23
ENDBRANCH   6  22
BRANCH   7  33
HETATM   33  O4  UNL     1       2.872   5.808 -17.783  1.00  0.00    -0.365 OA
ATOM     34  H4  UNL     1       1.964   5.528 -17.794  1.00  0.00     0.217 HD
ENDBRANCH   7  33
BRANCH  11  35
HETATM   35  O5  UNL     1      -1.591   7.597 -13.076  1.00  0.00    -0.227 OA
BRANCH  35  36
HETATM   36  O6  UNL     1      -0.847   8.682 -13.164  1.00  0.00    -0.249 OA
ATOM     37  H6  UNL     1      -1.484   9.377 -13.277  1.00  0.00     0.253 HD
ENDBRANCH  35  36
ENDBRANCH  11  35
BRANCH  13  38
HETATM   38  O7  UNL     1      -2.184   3.065 -13.071  1.00  0.00    -0.395 OA
ATOM     39  H7  UNL     1      -2.797   2.445 -13.448  1.00  0.00     0.210 HD
ENDBRANCH  13  38
TORSDOF 7
ENDMDL
MODEL 4
REMARK VINA RESULT: -7.428074377      1.997      7.523
REMARK  7 active torsions:
REMARK  status: ('A' for Active; 'I' for Inactive)
REMARK    1  A    between atoms: C6_6  and  O1_7 
REMARK    2  A    between atoms: O1_7  and  C7_8 
REMARK    3  A    between atoms: C9_10  and  O2_11 
REMARK    4  A    between atoms: C14_18  and  O4_19 
REMARK    5  A    between atoms: C18_24  and  O5_25 
REMARK    6  A    between atoms: O5_25  and  O6_26 
REMARK    7  A    between atoms: C20_29  and  O7_30 
ROOT
HETATM    1  C1  UNL     1       1.289   9.729 -18.744  1.00  0.00     0.019 C 
HETATM    2  C2  UNL     1       2.526   9.810 -18.311  1.00  0.00    -0.059 C 
HETATM    3  C3  UNL     1       3.400   8.765 -17.897  1.00  0.00    -0.038 A 
HETATM    4  C4  UNL     1       4.114   7.704 -17.387  1.00  0.00     0.063 A 
HETATM    5  C5  UNL     1       3.861   6.600 -16.340  1.00  0.00     0.061 C 
HETATM    6  C6  UNL     1       2.550   6.943 -15.788  1.00  0.00     0.179 C 
HETATM    7  C14 UNL     1       2.966   8.254 -16.225  1.00  0.00     0.067 C 
HETATM    8  C15 UNL     1       3.747   8.237 -17.562  1.00  0.00     0.060 A 
HETATM    9  C16 UNL     1       3.513   7.253 -18.772  1.00  0.00    -0.006 C 
HETATM   10  C17 UNL     1       3.603   7.553 -20.124  1.00  0.00     0.012 C 
HETATM   11  C18 UNL     1       3.677   8.515 -21.213  1.00  0.00     0.125 A 
HETATM   12  C19 UNL     1       4.754   9.456 -21.569  1.00  0.00     0.065 A 
HETATM   13  C20 UNL     1       4.736  10.993 -21.735  1.00  0.00     0.130 C 
HETATM   14  C21 UNL     1       4.194  10.846 -20.326  1.00  0.00     0.023 C 
HETATM   15  C22 UNL     1       3.285  11.751 -19.711  1.00  0.00     0.016 C 
HETATM   16  C23 UNL     1       2.945  11.253 -18.300  1.00  0.00     0.014 C 
HETATM   17  C24 UNL     1       1.793  12.181 -17.894  1.00  0.00     0.015 C 
HETATM   18  C25 UNL     1       3.441   9.839 -21.179  1.00  0.00     0.044 A 
HETATM   19  C26 UNL     1       5.203   8.782 -17.244  1.00  0.00     0.100 A 
HETATM   20  C27 UNL     1       5.476   7.678 -17.999  1.00  0.00     0.148 A 
HETATM   21  O8  UNL     1       6.128   6.605 -17.884  1.00  0.00    -0.296 OA
ENDROOT
BRANCH   6  22
HETATM   22  O1  UNL     1       1.558   6.265 -16.356  1.00  0.00    -0.350 OA
BRANCH  22  23
HETATM   23  C7  UNL     1       1.742   4.917 -16.233  1.00  0.00     0.263 C 
HETATM   24  C8  UNL     1       1.342   4.628 -14.795  1.00  0.00     0.092 C 
HETATM   25  C9  UNL     1      -0.168   4.403 -14.851  1.00  0.00     0.122 C 
HETATM   26  C10 UNL     1      -0.902   5.520 -15.469  1.00  0.00     0.034 C 
HETATM   27  C11 UNL     1      -1.014   5.556 -16.933  1.00  0.00     0.034 C 
HETATM   28  C12 UNL     1      -0.027   4.814 -17.738  1.00  0.00     0.120 C 
HETATM   29  C13 UNL     1      -0.695   3.788 -18.647  1.00  0.00     0.039 C 
HETATM   30  O3  UNL     1       0.953   4.140 -17.045  1.00  0.00    -0.356 OA
BRANCH  25  31
HETATM   31  O2  UNL     1      -0.433   3.164 -15.377  1.00  0.00    -0.395 OA
ATOM     32  H2  UNL     1      -0.308   2.499 -14.710  1.00  0.00     0.210 HD
ENDBRANCH  25  31
ENDBRANCH  22  23
ENDBRANCH   6  22
BRANCH   7  33
HETATM   33  O4  UNL     1       2.073   9.177 -15.946  1.00  0.00    -0.365 OA
ATOM     34  H4  UNL     1       1.270   9.059 -16.438  1.00  0.00     0.217 HD
ENDBRANCH   7  33
BRANCH  11  35
HETATM   35  O5  UNL     1       3.186   7.942 -22.466  1.00  0.00    -0.227 OA
BRANCH  35  36
HETATM   36  O6  UNL     1       1.876   8.050 -22.360  1.00  0.00    -0.249 OA
ATOM     37  H6  UNL     1       1.551   7.397 -22.969  1.00  0.00     0.253 HD
ENDBRANCH  35  36
ENDBRANCH  11  35
BRANCH  13  38
HETATM   38  O7  UNL     1       6.019  11.470 -21.818  1.00  0.00    -0.395 OA
ATOM     39  H7  UNL     1       6.121  12.226 -21.252  1.00  0.00     0.210 HD
ENDBRANCH  13  38
TORSDOF 7
ENDMDL
MODEL 5
REMARK VINA RESULT: -7.014679479     10.427     12.560
REMARK  7 active torsions:
REMARK  status: ('A' for Active; 'I' for Inactive)
REMARK    1  A    between atoms: C6_6  and  O1_7 
REMARK    2  A    between atoms: O1_7  and  C7_8 
REMARK    3  A    between atoms: C9_10  and  O2_11 
REMARK    4  A    between atoms: C14_18  and  O4_19 
REMARK    5  A    between atoms: C18_24  and  O5_25 
REMARK    6  A    between atoms: O5_25  and  O6_26 
REMARK    7  A    between atoms: C20_29  and  O7_30 
ROOT
HETATM    1  C1  UNL     1     -11.838   4.629 -21.039  1.00  0.00     0.019 C 
HETATM    2  C2  UNL     1     -11.125   4.514 -19.943  1.00  0.00    -0.059 C 
HETATM    3  C3  UNL     1      -9.776   4.904 -19.708  1.00  0.00    -0.038 A 
HETATM    4  C4  UNL     1      -8.430   5.185 -19.626  1.00  0.00     0.063 A 
HETATM    5  C5  UNL     1      -7.170   4.821 -20.438  1.00  0.00     0.061 C 
HETATM    6  C6  UNL     1      -7.670   3.885 -21.446  1.00  0.00     0.179 C 
HETATM    7  C14 UNL     1      -8.668   3.677 -20.425  1.00  0.00     0.067 C 
HETATM    8  C15 UNL     1      -9.064   4.975 -19.679  1.00  0.00     0.060 A 
HETATM    9  C16 UNL     1      -9.137   6.425 -20.294  1.00  0.00    -0.006 C 
HETATM   10  C17 UNL     1     -10.064   7.415 -19.998  1.00  0.00     0.012 C 
HETATM   11  C18 UNL     1     -11.322   7.845 -19.409  1.00  0.00     0.125 A 
HETATM   12  C19 UNL     1     -11.729   7.910 -17.993  1.00  0.00     0.065 A 
HETATM   13  C20 UNL     1     -12.922   7.261 -17.255  1.00  0.00     0.130 C 
HETATM   14  C21 UNL     1     -12.267   6.043 -17.876  1.00  0.00     0.023 C 
HETATM   15  C22 UNL     1     -12.959   4.863 -18.265  1.00  0.00     0.016 C 
HETATM   16  C23 UNL     1     -11.966   3.868 -18.880  1.00  0.00     0.014 C 
HETATM   17  C24 UNL     1     -12.894   2.793 -19.458  1.00  0.00     0.015 C 
HETATM   18  C25 UNL     1     -12.347   7.089 -18.975  1.00  0.00     0.044 A 
HETATM   19  C26 UNL     1      -8.651   4.770 -18.161  1.00  0.00     0.100 A 
HETATM   20  C27 UNL     1      -8.167   6.021 -18.416  1.00  0.00     0.148 A 
HETATM   21  O8  UNL     1      -7.060   6.622 -18.372  1.00  0.00    -0.296 OA
ENDROOT
BRANCH   6  22
HETATM   22  O1  UNL     1      -7.929   4.473 -22.611  1.00  0.00    -0.350 OA
BRANCH  22  23
HETATM   23  C7  UNL     1      -7.045   5.482 -22.867  1.00  0.00     0.263 C 
HETATM   24  C8  UNL     1      -6.153   4.911 -23.959  1.00  0.00     0.092 C 
HETATM   25  C9  UNL     1      -6.881   5.236 -25.262  1.00  0.00     0.122 C 
HETATM   26  C10 UNL     1      -8.267   4.741 -25.296  1.00  0.00     0.034 C 
HETATM   27  C11 UNL     1      -9.318   5.570 -24.689  1.00  0.00     0.034 C 
HETATM   28  C12 UNL     1      -8.935   6.567 -23.672  1.00  0.00     0.120 C 
HETATM   29  C13 UNL     1      -9.361   7.975 -24.074  1.00  0.00     0.039 C 
HETATM   30  O3  UNL     1      -7.599   6.641 -23.352  1.00  0.00    -0.356 OA
BRANCH  25  31
HETATM   31  O2  UNL     1      -6.724   6.566 -25.561  1.00  0.00    -0.395 OA
ATOM     32  H2  UNL     1      -5.872   6.706 -25.959  1.00  0.00     0.210 HD
ENDBRANCH  25  31
ENDBRANCH  22  23
ENDBRANCH   6  22
BRANCH   7  33
HETATM   33  O4  UNL     1      -9.553   2.770 -20.773  1.00  0.00    -0.365 OA
ATOM     34  H4  UNL     1     -10.423   3.138 -20.872  1.00  0.00     0.217 HD
ENDBRANCH   7  33
BRANCH  11  35
HETATM   35  O5  UNL     1     -11.822   9.063 -20.047  1.00  0.00    -0.227 OA
BRANCH  35  36
HETATM   36  O6  UNL     1     -10.868   9.373 -20.903  1.00  0.00    -0.249 OA
ATOM     37  H6  UNL     1     -10.209   8.706 -20.748  1.00  0.00     0.253 HD
ENDBRANCH  35  36
ENDBRANCH  11  35
BRANCH  13  38
HETATM   38  O7  UNL     1     -12.757   7.384 -15.900  1.00  0.00    -0.395 OA
ATOM     39  H7  UNL     1     -12.597   8.292 -15.674  1.00  0.00     0.210 HD
ENDBRANCH  13  38
TORSDOF 7
ENDMDL
