MODEL 1
REMARK VINA RESULT: -10.229101902      0.000      0.000
REMARK  7 active torsions:
REMARK  status: ('A' for Active; 'I' for Inactive)
REMARK    1  A    between atoms: C8_8  and  C9_9 
REMARK    2  A    between atoms: C8_8  and  C17_21 
REMARK    3  A    between atoms: C9_9  and  C10_10 
REMARK    4  A    between atoms: C10_10  and  C11_11 
REMARK    5  A    between atoms: C17_21  and  C18_22 
REMARK    6  A    between atoms: C18_22  and  C19_23 
REMARK    7  A    between atoms: C26_30  and  C27_31 
ROOT
HETATM    1  C1  UNL     1      -7.844  22.912  17.037  1.00  0.00     0.010 C 
HETATM    2  C2  UNL     1      -7.442  23.966  16.023  1.00  0.00    -0.018 C 
HETATM    3  C3  UNL     1      -7.771  25.284  16.655  1.00  0.00     0.005 C 
HETATM    4  C4  UNL     1      -7.667  26.413  15.701  1.00  0.00     0.010 C 
HETATM    5  C5  UNL     1      -8.640  26.146  14.539  1.00  0.00    -0.040 C 
HETATM    6  C6  UNL     1      -8.626  27.381  13.737  1.00  0.00     0.015 C 
HETATM    7  C7  UNL     1     -10.004  26.124  15.274  1.00  0.00     0.015 C 
HETATM    8  C8  UNL     1      -8.396  24.875  13.826  1.00  0.00    -0.033 C 
HETATM    9  C31 UNL     1      -7.980  23.710  14.693  1.00  0.00     0.014 C 
ENDROOT
BRANCH   8  10
HETATM   10  C9  UNL     1      -9.719  24.408  13.214  1.00  0.00     0.017 C 
BRANCH  10  11
HETATM   11  C10 UNL     1     -10.163  23.044  13.445  1.00  0.00     0.066 C 
BRANCH  11  12
HETATM   12  C11 UNL     1     -11.607  23.110  13.922  1.00  0.00     0.055 A 
HETATM   13  C12 UNL     1     -12.290  24.216  13.978  1.00  0.00     0.036 A 
HETATM   14  C13 UNL     1     -13.678  24.225  14.444  1.00  0.00     0.046 A 
HETATM   15  C14 UNL     1     -14.546  24.750  13.321  1.00  0.00     0.042 C 
HETATM   16  C15 UNL     1     -13.837  25.135  15.661  1.00  0.00     0.042 C 
HETATM   17  N1  UNL     1     -14.189  22.936  14.820  1.00  0.00    -0.349 N 
HETATM   18  C16 UNL     1     -13.421  21.741  14.751  1.00  0.00     0.216 A 
ATOM     19  H1  UNL     1     -15.151  22.874  15.153  1.00  0.00     0.163 HD
HETATM   20  S1  UNL     1     -14.028  20.288  15.186  1.00  0.00    -0.033 SA
HETATM   21  O1  UNL     1     -12.120  21.855  14.294  1.00  0.00    -0.289 OA
ENDBRANCH  11  12
ENDBRANCH  10  11
ENDBRANCH   8  10
BRANCH   8  22
HETATM   22  C17 UNL     1      -7.476  24.970  12.596  1.00  0.00     0.011 C 
BRANCH  22  23
HETATM   23  C18 UNL     1      -6.207  24.268  12.633  1.00  0.00     0.012 C 
BRANCH  23  24
HETATM   24  C19 UNL     1      -4.948  24.882  13.029  1.00  0.00    -0.019 C 
HETATM   25  C20 UNL     1      -3.880  23.798  13.092  1.00  0.00    -0.004 C 
HETATM   26  C21 UNL     1      -2.687  23.983  12.272  1.00  0.00     0.010 C 
HETATM   27  C30 UNL     1      -3.762  23.909  14.598  1.00  0.00     0.011 C 
HETATM   28  C22 UNL     1      -2.605  25.094  11.315  1.00  0.00    -0.009 A 
HETATM   29  C23 UNL     1      -1.398  26.025  11.500  1.00  0.00     0.005 A 
HETATM   30  C25 UNL     1      -3.530  26.220  11.460  1.00  0.00     0.006 A 
HETATM   31  C24 UNL     1      -2.353  27.167  11.569  1.00  0.00     0.006 A 
HETATM   32  C26 UNL     1      -4.438  26.187  12.663  1.00  0.00     0.025 C 
HETATM   33  C28 UNL     1      -3.681  26.263  13.997  1.00  0.00     0.023 C 
HETATM   34  C29 UNL     1      -4.606  25.149  14.444  1.00  0.00    -0.003 C 
BRANCH  32  35
HETATM   35  C27 UNL     1      -5.306  27.371  12.615  1.00  0.00     0.241 C 
HETATM   36  O2  UNL     1      -5.184  28.350  13.370  1.00  0.00    -0.306 OA
ENDBRANCH  32  35
ENDBRANCH  23  24
ENDBRANCH  22  23
ENDBRANCH   8  22
TORSDOF 7
ENDMDL
MODEL 2
REMARK VINA RESULT: -9.995827493      3.184      8.474
REMARK  7 active torsions:
REMARK  status: ('A' for Active; 'I' for Inactive)
REMARK    1  A    between atoms: C8_8  and  C9_9 
REMARK    2  A    between atoms: C8_8  and  C17_21 
REMARK    3  A    between atoms: C9_9  and  C10_10 
REMARK    4  A    between atoms: C10_10  and  C11_11 
REMARK    5  A    between atoms: C17_21  and  C18_22 
REMARK    6  A    between atoms: C18_22  and  C19_23 
REMARK    7  A    between atoms: C26_30  and  C27_31 
ROOT
HETATM    1  C1  UNL     1      -7.922  28.306  14.459  1.00  0.00     0.010 C 
HETATM    2  C2  UNL     1      -8.710  27.060  14.812  1.00  0.00    -0.018 C 
HETATM    3  C3  UNL     1      -8.258  26.669  16.187  1.00  0.00     0.005 C 
HETATM    4  C4  UNL     1      -8.751  25.330  16.588  1.00  0.00     0.010 C 
HETATM    5  C5  UNL     1      -8.229  24.304  15.566  1.00  0.00    -0.040 C 
HETATM    6  C6  UNL     1      -8.590  22.990  16.125  1.00  0.00     0.015 C 
HETATM    7  C7  UNL     1      -6.696  24.441  15.744  1.00  0.00     0.015 C 
HETATM    8  C8  UNL     1      -8.632  24.580  14.172  1.00  0.00    -0.033 C 
HETATM    9  C31 UNL     1      -8.654  26.037  13.774  1.00  0.00     0.014 C 
ENDROOT
BRANCH   8  10
HETATM   10  C9  UNL     1      -7.579  23.974  13.240  1.00  0.00     0.017 C 
BRANCH  10  11
HETATM   11  C10 UNL     1      -7.167  24.716  12.061  1.00  0.00     0.066 C 
BRANCH  11  12
HETATM   12  C11 UNL     1      -5.812  25.338  12.367  1.00  0.00     0.055 A 
HETATM   13  C12 UNL     1      -5.485  26.547  12.012  1.00  0.00     0.036 A 
HETATM   14  C13 UNL     1      -4.167  27.098  12.331  1.00  0.00     0.046 A 
HETATM   15  C14 UNL     1      -4.369  28.325  13.193  1.00  0.00     0.042 C 
HETATM   16  C15 UNL     1      -3.424  27.502  11.059  1.00  0.00     0.042 C 
HETATM   17  N1  UNL     1      -3.304  26.202  13.050  1.00  0.00    -0.349 N 
HETATM   18  C16 UNL     1      -3.685  24.884  13.425  1.00  0.00     0.216 A 
ATOM     19  H1  UNL     1      -2.371  26.526  13.303  1.00  0.00     0.163 HD
HETATM   20  S1  UNL     1      -2.682  23.886  14.242  1.00  0.00    -0.033 SA
HETATM   21  O1  UNL     1      -4.956  24.471  13.069  1.00  0.00    -0.289 OA
ENDBRANCH  11  12
ENDBRANCH  10  11
ENDBRANCH   8  10
BRANCH   8  22
HETATM   22  C17 UNL     1      -9.926  23.889  13.706  1.00  0.00     0.011 C 
BRANCH  22  23
HETATM   23  C18 UNL     1     -11.113  24.703  13.529  1.00  0.00     0.012 C 
BRANCH  23  24
HETATM   24  C19 UNL     1     -12.472  24.186  13.581  1.00  0.00    -0.019 C 
HETATM   25  C20 UNL     1     -12.560  22.965  12.676  1.00  0.00    -0.004 C 
HETATM   26  C21 UNL     1     -13.011  21.714  13.279  1.00  0.00     0.010 C 
HETATM   27  C30 UNL     1     -13.467  23.676  11.694  1.00  0.00     0.011 C 
HETATM   28  C22 UNL     1     -13.217  21.617  14.730  1.00  0.00    -0.009 A 
HETATM   29  C23 UNL     1     -14.619  21.161  15.159  1.00  0.00     0.005 A 
HETATM   30  C25 UNL     1     -13.350  22.850  15.507  1.00  0.00     0.006 A 
HETATM   31  C24 UNL     1     -14.703  22.386  16.004  1.00  0.00     0.006 A 
HETATM   32  C26 UNL     1     -13.364  24.137  14.722  1.00  0.00     0.025 C 
HETATM   33  C28 UNL     1     -14.571  24.259  13.780  1.00  0.00     0.023 C 
HETATM   34  C29 UNL     1     -13.566  24.744  12.754  1.00  0.00    -0.003 C 
BRANCH  32  35
HETATM   35  C27 UNL     1     -13.470  25.253  15.670  1.00  0.00     0.241 C 
HETATM   36  O2  UNL     1     -12.630  25.493  16.553  1.00  0.00    -0.306 OA
ENDBRANCH  32  35
ENDBRANCH  23  24
ENDBRANCH  22  23
ENDBRANCH   8  22
TORSDOF 7
ENDMDL
MODEL 3
REMARK VINA RESULT: -9.841473900      3.216      8.594
REMARK  7 active torsions:
REMARK  status: ('A' for Active; 'I' for Inactive)
REMARK    1  A    between atoms: C8_8  and  C9_9 
REMARK    2  A    between atoms: C8_8  and  C17_21 
REMARK    3  A    between atoms: C9_9  and  C10_10 
REMARK    4  A    between atoms: C10_10  and  C11_11 
REMARK    5  A    between atoms: C17_21  and  C18_22 
REMARK    6  A    between atoms: C18_22  and  C19_23 
REMARK    7  A    between atoms: C26_30  and  C27_31 
ROOT
HETATM    1  C1  UNL     1      -8.161  28.196  14.467  1.00  0.00     0.010 C 
HETATM    2  C2  UNL     1      -8.847  26.920  14.917  1.00  0.00    -0.018 C 
HETATM    3  C3  UNL     1      -8.269  26.600  16.262  1.00  0.00     0.005 C 
HETATM    4  C4  UNL     1      -8.652  25.250  16.738  1.00  0.00     0.010 C 
HETATM    5  C5  UNL     1      -8.152  24.222  15.708  1.00  0.00    -0.040 C 
HETATM    6  C6  UNL     1      -8.393  22.909  16.330  1.00  0.00     0.015 C 
HETATM    7  C7  UNL     1      -6.620  24.449  15.761  1.00  0.00     0.015 C 
HETATM    8  C8  UNL     1      -8.677  24.429  14.342  1.00  0.00    -0.033 C 
HETATM    9  C31 UNL     1      -8.812  25.869  13.907  1.00  0.00     0.014 C 
ENDROOT
BRANCH   8  10
HETATM   10  C9  UNL     1      -7.665  23.852  13.348  1.00  0.00     0.017 C 
BRANCH  10  11
HETATM   11  C10 UNL     1      -7.205  24.680  12.246  1.00  0.00     0.066 C 
BRANCH  11  12
HETATM   12  C11 UNL     1      -5.781  25.110  12.564  1.00  0.00     0.055 A 
HETATM   13  C12 UNL     1      -4.778  24.281  12.609  1.00  0.00     0.036 A 
HETATM   14  C13 UNL     1      -3.426  24.747  12.921  1.00  0.00     0.046 A 
HETATM   15  C14 UNL     1      -2.535  24.419  11.742  1.00  0.00     0.042 C 
HETATM   16  C15 UNL     1      -2.881  24.046  14.164  1.00  0.00     0.042 C 
HETATM   17  N1  UNL     1      -3.323  26.160  13.162  1.00  0.00    -0.349 N 
HETATM   18  C16 UNL     1      -4.434  27.044  13.108  1.00  0.00     0.216 A 
ATOM     19  H1  UNL     1      -2.406  26.548  13.384  1.00  0.00     0.163 HD
HETATM   20  S1  UNL     1      -4.288  28.647  13.388  1.00  0.00    -0.033 SA
HETATM   21  O1  UNL     1      -5.665  26.491  12.804  1.00  0.00    -0.289 OA
ENDBRANCH  11  12
ENDBRANCH  10  11
ENDBRANCH   8  10
BRANCH   8  22
HETATM   22  C17 UNL     1      -9.961  23.653  13.999  1.00  0.00     0.011 C 
BRANCH  22  23
HETATM   23  C18 UNL     1     -11.047  24.373  13.362  1.00  0.00     0.012 C 
BRANCH  23  24
HETATM   24  C19 UNL     1     -12.450  24.010  13.490  1.00  0.00    -0.019 C 
HETATM   25  C20 UNL     1     -12.706  22.762  12.656  1.00  0.00    -0.004 C 
HETATM   26  C21 UNL     1     -13.263  21.600  13.341  1.00  0.00     0.010 C 
HETATM   27  C30 UNL     1     -13.571  23.519  11.669  1.00  0.00     0.011 C 
HETATM   28  C22 UNL     1     -13.419  21.598  14.802  1.00  0.00    -0.009 A 
HETATM   29  C23 UNL     1     -14.843  21.320  15.304  1.00  0.00     0.005 A 
HETATM   30  C25 UNL     1     -13.387  22.876  15.516  1.00  0.00     0.006 A 
HETATM   31  C24 UNL     1     -14.761  22.588  16.084  1.00  0.00     0.006 A 
HETATM   32  C26 UNL     1     -13.295  24.116  14.663  1.00  0.00     0.025 C 
HETATM   33  C28 UNL     1     -14.519  24.322  13.759  1.00  0.00     0.023 C 
HETATM   34  C29 UNL     1     -13.511  24.642  12.674  1.00  0.00    -0.003 C 
BRANCH  32  35
HETATM   35  C27 UNL     1     -13.241  25.283  15.553  1.00  0.00     0.241 C 
HETATM   36  O2  UNL     1     -12.424  25.409  16.479  1.00  0.00    -0.306 OA
ENDBRANCH  32  35
ENDBRANCH  23  24
ENDBRANCH  22  23
ENDBRANCH   8  22
TORSDOF 7
ENDMDL
MODEL 4
REMARK VINA RESULT: -9.295753235      4.443      8.838
REMARK  7 active torsions:
REMARK  status: ('A' for Active; 'I' for Inactive)
REMARK    1  A    between atoms: C8_8  and  C9_9 
REMARK    2  A    between atoms: C8_8  and  C17_21 
REMARK    3  A    between atoms: C9_9  and  C10_10 
REMARK    4  A    between atoms: C10_10  and  C11_11 
REMARK    5  A    between atoms: C17_21  and  C18_22 
REMARK    6  A    between atoms: C18_22  and  C19_23 
REMARK    7  A    between atoms: C26_30  and  C27_31 
ROOT
HETATM    1  C1  UNL     1      -2.038  27.470  14.491  1.00  0.00     0.010 C 
HETATM    2  C2  UNL     1      -3.465  26.957  14.478  1.00  0.00    -0.018 C 
HETATM    3  C3  UNL     1      -3.377  25.501  14.820  1.00  0.00     0.005 C 
HETATM    4  C4  UNL     1      -4.660  24.790  14.612  1.00  0.00     0.010 C 
HETATM    5  C5  UNL     1      -5.056  24.945  13.132  1.00  0.00    -0.040 C 
HETATM    6  C6  UNL     1      -6.224  24.065  12.955  1.00  0.00     0.015 C 
HETATM    7  C7  UNL     1      -3.874  24.241  12.419  1.00  0.00     0.015 C 
HETATM    8  C8  UNL     1      -5.193  26.347  12.686  1.00  0.00    -0.033 C 
HETATM    9  C31 UNL     1      -4.187  27.316  13.263  1.00  0.00     0.014 C 
ENDROOT
BRANCH   8  10
HETATM   10  C9  UNL     1      -4.914  26.400  11.182  1.00  0.00     0.017 C 
BRANCH  10  11
HETATM   11  C10 UNL     1      -4.088  27.471  10.653  1.00  0.00     0.066 C 
BRANCH  11  12
HETATM   12  C11 UNL     1      -2.952  26.826   9.872  1.00  0.00     0.055 A 
HETATM   13  C12 UNL     1      -2.331  25.754  10.271  1.00  0.00     0.036 A 
HETATM   14  C13 UNL     1      -1.243  25.173   9.481  1.00  0.00     0.046 A 
HETATM   15  C14 UNL     1      -1.642  23.763   9.101  1.00  0.00     0.042 C 
HETATM   16  C15 UNL     1       0.050  25.120  10.293  1.00  0.00     0.042 C 
HETATM   17  N1  UNL     1      -0.943  25.881   8.268  1.00  0.00    -0.349 N 
HETATM   18  C16 UNL     1      -1.636  27.052   7.855  1.00  0.00     0.216 A 
ATOM     19  H1  UNL     1      -0.196  25.526   7.672  1.00  0.00     0.163 HD
HETATM   20  S1  UNL     1      -1.273  27.837   6.469  1.00  0.00    -0.033 SA
HETATM   21  O1  UNL     1      -2.646  27.509   8.682  1.00  0.00    -0.289 OA
ENDBRANCH  11  12
ENDBRANCH  10  11
ENDBRANCH   8  10
BRANCH   8  22
HETATM   22  C17 UNL     1      -6.610  26.940  12.784  1.00  0.00     0.011 C 
BRANCH  22  23
HETATM   23  C18 UNL     1      -6.937  27.747  13.944  1.00  0.00     0.012 C 
BRANCH  23  24
HETATM   24  C19 UNL     1      -8.105  27.531  14.783  1.00  0.00    -0.019 C 
HETATM   25  C20 UNL     1      -9.256  28.365  14.235  1.00  0.00    -0.004 C 
HETATM   26  C21 UNL     1     -10.485  27.661  13.881  1.00  0.00     0.010 C 
HETATM   27  C30 UNL     1      -9.254  29.281  15.441  1.00  0.00     0.011 C 
HETATM   28  C22 UNL     1     -10.540  26.193  13.911  1.00  0.00    -0.009 A 
HETATM   29  C23 UNL     1     -11.645  25.601  14.798  1.00  0.00     0.005 A 
HETATM   30  C25 UNL     1      -9.513  25.465  14.658  1.00  0.00     0.006 A 
HETATM   31  C24 UNL     1     -10.591  24.810  15.496  1.00  0.00     0.006 A 
HETATM   32  C26 UNL     1      -8.525  26.304  15.429  1.00  0.00     0.025 C 
HETATM   33  C28 UNL     1      -9.174  27.122  16.556  1.00  0.00     0.023 C 
HETATM   34  C29 UNL     1      -8.319  28.266  16.050  1.00  0.00    -0.003 C 
BRANCH  32  35
HETATM   35  C27 UNL     1      -7.564  25.403  16.077  1.00  0.00     0.241 C 
HETATM   36  O2  UNL     1      -7.673  24.999  17.246  1.00  0.00    -0.306 OA
ENDBRANCH  32  35
ENDBRANCH  23  24
ENDBRANCH  22  23
ENDBRANCH   8  22
TORSDOF 7
ENDMDL
MODEL 5
REMARK VINA RESULT: -9.277091794      1.696      2.613
REMARK  7 active torsions:
REMARK  status: ('A' for Active; 'I' for Inactive)
REMARK    1  A    between atoms: C8_8  and  C9_9 
REMARK    2  A    between atoms: C8_8  and  C17_21 
REMARK    3  A    between atoms: C9_9  and  C10_10 
REMARK    4  A    between atoms: C10_10  and  C11_11 
REMARK    5  A    between atoms: C17_21  and  C18_22 
REMARK    6  A    between atoms: C18_22  and  C19_23 
REMARK    7  A    between atoms: C26_30  and  C27_31 
ROOT
HETATM    1  C1  UNL     1      -8.744  27.528  16.099  1.00  0.00     0.010 C 
HETATM    2  C2  UNL     1      -7.483  27.168  15.338  1.00  0.00    -0.018 C 
HETATM    3  C3  UNL     1      -7.454  28.076  14.146  1.00  0.00     0.005 C 
HETATM    4  C4  UNL     1      -6.413  27.691  13.164  1.00  0.00     0.010 C 
HETATM    5  C5  UNL     1      -6.701  26.251  12.704  1.00  0.00    -0.040 C 
HETATM    6  C6  UNL     1      -5.755  26.005  11.602  1.00  0.00     0.015 C 
HETATM    7  C7  UNL     1      -8.096  26.407  12.048  1.00  0.00     0.015 C 
HETATM    8  C8  UNL     1      -6.733  25.260  13.800  1.00  0.00    -0.033 C 
HETATM    9  C31 UNL     1      -7.356  25.737  15.092  1.00  0.00     0.014 C 
ENDROOT
BRANCH   8  10
HETATM   10  C9  UNL     1      -7.641  24.104  13.374  1.00  0.00     0.017 C 
BRANCH  10  11
HETATM   11  C10 UNL     1      -8.363  23.360  14.392  1.00  0.00     0.066 C 
BRANCH  11  12
HETATM   12  C11 UNL     1      -9.839  23.700  14.242  1.00  0.00     0.055 A 
HETATM   13  C12 UNL     1     -10.426  24.647  14.915  1.00  0.00     0.036 A 
HETATM   14  C13 UNL     1     -11.850  24.933  14.733  1.00  0.00     0.046 A 
HETATM   15  C14 UNL     1     -11.982  26.364  14.257  1.00  0.00     0.042 C 
HETATM   16  C15 UNL     1     -12.609  24.777  16.049  1.00  0.00     0.042 C 
HETATM   17  N1  UNL     1     -12.508  24.094  13.771  1.00  0.00    -0.349 N 
HETATM   18  C16 UNL     1     -11.845  23.065  13.049  1.00  0.00     0.216 A 
ATOM     19  H1  UNL     1     -13.502  24.244  13.597  1.00  0.00     0.163 HD
HETATM   20  S1  UNL     1     -12.620  22.124  11.960  1.00  0.00    -0.033 SA
HETATM   21  O1  UNL     1     -10.498  22.885  13.303  1.00  0.00    -0.289 OA
ENDBRANCH  11  12
ENDBRANCH  10  11
ENDBRANCH   8  10
BRANCH   8  22
HETATM   22  C17 UNL     1      -5.400  24.548  14.091  1.00  0.00     0.011 C 
BRANCH  22  23
HETATM   23  C18 UNL     1      -4.364  25.289  14.784  1.00  0.00     0.012 C 
BRANCH  23  24
HETATM   24  C19 UNL     1      -2.975  25.342  14.355  1.00  0.00    -0.019 C 
HETATM   25  C20 UNL     1      -2.627  24.024  13.676  1.00  0.00    -0.004 C 
HETATM   26  C21 UNL     1      -2.123  24.087  12.308  1.00  0.00     0.010 C 
HETATM   27  C30 UNL     1      -1.682  23.624  14.790  1.00  0.00     0.011 C 
HETATM   28  C22 UNL     1      -2.105  25.361  11.576  1.00  0.00    -0.009 A 
HETATM   29  C23 UNL     1      -0.731  25.782  11.034  1.00  0.00     0.005 A 
HETATM   30  C25 UNL     1      -2.219  26.609  12.333  1.00  0.00     0.006 A 
HETATM   31  C24 UNL     1      -0.902  27.077  11.751  1.00  0.00     0.006 A 
HETATM   32  C26 UNL     1      -2.245  26.481  13.835  1.00  0.00     0.025 C 
HETATM   33  C28 UNL     1      -0.944  25.910  14.417  1.00  0.00     0.023 C 
HETATM   34  C29 UNL     1      -1.850  25.044  15.270  1.00  0.00    -0.003 C 
BRANCH  32  35
HETATM   35  C27 UNL     1      -2.396  27.824  14.408  1.00  0.00     0.241 C 
HETATM   36  O2  UNL     1      -3.371  28.563  14.194  1.00  0.00    -0.306 OA
ENDBRANCH  32  35
ENDBRANCH  23  24
ENDBRANCH  22  23
ENDBRANCH   8  22
TORSDOF 7
ENDMDL
