MODEL 1
REMARK VINA RESULT: -8.280797862      0.000      0.000
REMARK  7 active torsions:
REMARK  status: ('A' for Active; 'I' for Inactive)
REMARK    1  A    between atoms: C2_2  and  C3_3 
REMARK    2  A    between atoms: C2_2  and  C4_5 
REMARK    3  A    between atoms: C4_5  and  N1_6 
REMARK       I    between atoms: N1_6  and  C5_7 
REMARK    4  A    between atoms: C5_7  and  C6_9 
REMARK    5  A    between atoms: C7_10  and  C8_11 
REMARK    6  A    between atoms: C18_22  and  O3_23 
REMARK    7  A    between atoms: C23_31  and  O5_32 
ROOT
HETATM    1  C8  UNL     1     131.932 105.939 284.024  1.00  0.00     0.040 C 
HETATM    2  C9  UNL     1     131.715 107.180 283.162  1.00  0.00     0.026 C 
HETATM    3  C10 UNL     1     131.493 104.768 283.159  1.00  0.00     0.078 C 
HETATM    4  C11 UNL     1     132.484 103.720 282.809  1.00  0.00     0.047 C 
HETATM    5  O2  UNL     1     130.595 105.073 282.129  1.00  0.00    -0.378 OA
HETATM    6  C12 UNL     1     129.777 103.935 282.258  1.00  0.00     0.174 C 
HETATM    7  C13 UNL     1     129.344 104.081 283.759  1.00  0.00     0.020 C 
HETATM    8  C14 UNL     1     128.121 104.826 283.729  1.00  0.00     0.015 C 
HETATM    9  C15 UNL     1     127.051 104.852 284.716  1.00  0.00     0.030 C 
HETATM   10  C16 UNL     1     126.514 103.667 285.380  1.00  0.00     0.020 C 
HETATM   11  C17 UNL     1     125.154 103.274 284.794  1.00  0.00     0.013 C 
HETATM   12  C18 UNL     1     126.236 103.838 286.889  1.00  0.00     0.154 C 
HETATM   13  C19 UNL     1     126.922 105.123 287.435  1.00  0.00     0.197 C 
HETATM   14  O4  UNL     1     126.265 106.055 286.678  1.00  0.00    -0.365 OA
HETATM   15  C20 UNL     1     127.353 105.896 285.796  1.00  0.00     0.103 C 
HETATM   16  C21 UNL     1     127.489 107.222 285.194  1.00  0.00     0.050 C 
HETATM   17  C22 UNL     1     128.215 105.294 286.757  1.00  0.00     0.190 C 
HETATM   18  F1  UNL     1     128.635 103.948 286.726  1.00  0.00    -0.234 F 
HETATM   19  C23 UNL     1     129.384 106.070 287.060  1.00  0.00     0.195 C 
HETATM   20  C24 UNL     1     130.544 105.408 286.333  1.00  0.00     0.191 A 
HETATM   21  O6  UNL     1     131.744 105.804 286.233  1.00  0.00    -0.365 OA
HETATM   22  C25 UNL     1     130.935 105.641 285.048  1.00  0.00     0.110 A 
HETATM   23  C26 UNL     1     130.625 104.401 284.333  1.00  0.00     0.066 C 
ENDROOT
BRANCH   1  24
HETATM   24  C7  UNL     1     133.389 105.771 284.171  1.00  0.00    -0.005 C 
HETATM   25  C6  UNL     1     134.400 106.462 283.753  1.00  0.00     0.086 C 
BRANCH  25  26
HETATM   26  C5  UNL     1     135.814 106.038 284.069  1.00  0.00     0.310 C 
HETATM   27  N1  UNL     1     136.122 105.119 284.965  1.00  0.00    -0.411 NA
HETATM   28  O1  UNL     1     136.651 106.700 283.343  1.00  0.00    -0.252 OA
BRANCH  27  29
HETATM   29  C4  UNL     1     136.473 104.126 285.928  1.00  0.00     0.227 C 
BRANCH  29  30
HETATM   30  C2  UNL     1     135.421 104.004 287.007  1.00  0.00     0.026 C 
HETATM   31  C1  UNL     1     134.956 105.346 287.494  1.00  0.00     0.014 C 
BRANCH  30  32
HETATM   32  C3  UNL     1     135.845 103.197 288.190  1.00  0.00     0.121 C 
HETATM   33 CL1  UNL     1     137.023 101.948 287.797  1.00  0.00    -0.130 Cl
ENDBRANCH  30  32
ENDBRANCH  29  30
ENDBRANCH  27  29
ENDBRANCH  25  26
ENDBRANCH   1  24
BRANCH  19  34
HETATM   34  O5  UNL     1     129.365 107.450 286.899  1.00  0.00    -0.389 OA
ATOM     35  H5  UNL     1     130.093 107.891 286.476  1.00  0.00     0.210 HD
ENDBRANCH  19  34
BRANCH  12  36
HETATM   36  O3  UNL     1     124.907 103.940 287.189  1.00  0.00    -0.392 OA
ATOM     37  H3  UNL     1     124.610 104.836 287.289  1.00  0.00     0.210 HD
ENDBRANCH  12  36
TORSDOF 7
ENDMDL
MODEL 2
REMARK VINA RESULT: -8.059628824      2.253      2.913
REMARK  7 active torsions:
REMARK  status: ('A' for Active; 'I' for Inactive)
REMARK    1  A    between atoms: C2_2  and  C3_3 
REMARK    2  A    between atoms: C2_2  and  C4_5 
REMARK    3  A    between atoms: C4_5  and  N1_6 
REMARK       I    between atoms: N1_6  and  C5_7 
REMARK    4  A    between atoms: C5_7  and  C6_9 
REMARK    5  A    between atoms: C7_10  and  C8_11 
REMARK    6  A    between atoms: C18_22  and  O3_23 
REMARK    7  A    between atoms: C23_31  and  O5_32 
ROOT
HETATM    1  C8  UNL     1     130.395 105.683 285.672  1.00  0.00     0.040 C 
HETATM    2  C9  UNL     1     130.349 107.094 285.090  1.00  0.00     0.026 C 
HETATM    3  C10 UNL     1     130.278 104.752 284.476  1.00  0.00     0.078 C 
HETATM    4  C11 UNL     1     131.386 103.808 284.187  1.00  0.00     0.047 C 
HETATM    5  O2  UNL     1     129.678 105.297 283.335  1.00  0.00    -0.378 OA
HETATM    6  C12 UNL     1     128.923 104.168 282.968  1.00  0.00     0.174 C 
HETATM    7  C13 UNL     1     128.090 103.959 284.282  1.00  0.00     0.020 C 
HETATM    8  C14 UNL     1     126.881 104.700 284.084  1.00  0.00     0.015 C 
HETATM    9  C15 UNL     1     125.582 104.501 284.712  1.00  0.00     0.030 C 
HETATM   10  C16 UNL     1     124.955 103.198 284.913  1.00  0.00     0.020 C 
HETATM   11  C17 UNL     1     123.831 102.964 283.897  1.00  0.00     0.013 C 
HETATM   12  C18 UNL     1     124.268 103.011 286.282  1.00  0.00     0.154 C 
HETATM   13  C19 UNL     1     124.703 104.127 287.275  1.00  0.00     0.197 C 
HETATM   14  O4  UNL     1     124.223 105.215 286.599  1.00  0.00    -0.365 OA
HETATM   15  C20 UNL     1     125.518 105.261 286.042  1.00  0.00     0.103 C 
HETATM   16  C21 UNL     1     125.735 106.689 285.821  1.00  0.00     0.050 C 
HETATM   17  C22 UNL     1     126.119 104.443 287.042  1.00  0.00     0.190 C 
HETATM   18  F1  UNL     1     126.610 103.138 286.823  1.00  0.00    -0.234 F 
HETATM   19  C23 UNL     1     127.114 105.117 287.826  1.00  0.00     0.195 C 
HETATM   20  C24 UNL     1     128.465 104.636 287.320  1.00  0.00     0.191 A 
HETATM   21  O6  UNL     1     129.622 105.035 287.651  1.00  0.00    -0.365 OA
HETATM   22  C25 UNL     1     129.176 105.161 286.283  1.00  0.00     0.110 A 
HETATM   23  C26 UNL     1     129.146 104.127 285.247  1.00  0.00     0.066 C 
ENDROOT
BRANCH   1  24
HETATM   24  C7  UNL     1     131.765 105.475 286.177  1.00  0.00    -0.005 C 
HETATM   25  C6  UNL     1     132.286 105.548 287.358  1.00  0.00     0.086 C 
BRANCH  25  26
HETATM   26  C5  UNL     1     133.754 105.271 287.578  1.00  0.00     0.310 C 
HETATM   27  N1  UNL     1     134.723 105.888 286.927  1.00  0.00    -0.411 NA
HETATM   28  O1  UNL     1     133.907 104.360 288.479  1.00  0.00    -0.252 OA
BRANCH  27  29
HETATM   29  C4  UNL     1     135.782 106.547 286.235  1.00  0.00     0.227 C 
BRANCH  29  30
HETATM   30  C2  UNL     1     136.042 105.915 284.887  1.00  0.00     0.026 C 
HETATM   31  C1  UNL     1     136.587 106.904 283.897  1.00  0.00     0.014 C 
BRANCH  30  32
HETATM   32  C3  UNL     1     134.852 105.250 284.279  1.00  0.00     0.121 C 
HETATM   33 CL1  UNL     1     133.870 106.338 283.301  1.00  0.00    -0.130 Cl
ENDBRANCH  30  32
ENDBRANCH  29  30
ENDBRANCH  27  29
ENDBRANCH  25  26
ENDBRANCH   1  24
BRANCH  19  34
HETATM   34  O5  UNL     1     127.060 106.496 287.985  1.00  0.00    -0.389 OA
ATOM     35  H5  UNL     1     126.925 106.872 288.847  1.00  0.00     0.210 HD
ENDBRANCH  19  34
BRANCH  12  36
HETATM   36  O3  UNL     1     122.903 103.051 286.215  1.00  0.00    -0.392 OA
ATOM     37  H3  UNL     1     122.555 103.929 286.122  1.00  0.00     0.210 HD
ENDBRANCH  12  36
TORSDOF 7
ENDMDL
MODEL 3
REMARK VINA RESULT: -8.038104538      0.915      1.083
REMARK  7 active torsions:
REMARK  status: ('A' for Active; 'I' for Inactive)
REMARK    1  A    between atoms: C2_2  and  C3_3 
REMARK    2  A    between atoms: C2_2  and  C4_5 
REMARK    3  A    between atoms: C4_5  and  N1_6 
REMARK       I    between atoms: N1_6  and  C5_7 
REMARK    4  A    between atoms: C5_7  and  C6_9 
REMARK    5  A    between atoms: C7_10  and  C8_11 
REMARK    6  A    between atoms: C18_22  and  O3_23 
REMARK    7  A    between atoms: C23_31  and  O5_32 
ROOT
HETATM    1  C8  UNL     1     131.681 105.680 284.220  1.00  0.00     0.040 C 
HETATM    2  C9  UNL     1     131.619 106.965 283.398  1.00  0.00     0.026 C 
HETATM    3  C10 UNL     1     131.196 104.582 283.287  1.00  0.00     0.078 C 
HETATM    4  C11 UNL     1     132.113 103.467 282.949  1.00  0.00     0.047 C 
HETATM    5  O2  UNL     1     130.387 105.000 282.223  1.00  0.00    -0.378 OA
HETATM    6  C12 UNL     1     129.469 103.933 282.262  1.00  0.00     0.174 C 
HETATM    7  C13 UNL     1     128.966 104.062 283.743  1.00  0.00     0.020 C 
HETATM    8  C14 UNL     1     127.814 104.910 283.677  1.00  0.00     0.015 C 
HETATM    9  C15 UNL     1     126.695 104.993 284.605  1.00  0.00     0.030 C 
HETATM   10  C16 UNL     1     126.024 103.837 285.191  1.00  0.00     0.020 C 
HETATM   11  C17 UNL     1     124.670 103.583 284.518  1.00  0.00     0.013 C 
HETATM   12  C18 UNL     1     125.676 103.977 286.689  1.00  0.00     0.154 C 
HETATM   13  C19 UNL     1     126.435 105.178 287.322  1.00  0.00     0.197 C 
HETATM   14  O4  UNL     1     125.903 106.189 286.569  1.00  0.00    -0.365 OA
HETATM   15  C20 UNL     1     127.022 105.969 285.741  1.00  0.00     0.103 C 
HETATM   16  C21 UNL     1     127.303 107.298 285.201  1.00  0.00     0.050 C 
HETATM   17  C22 UNL     1     127.774 105.261 286.722  1.00  0.00     0.190 C 
HETATM   18  F1  UNL     1     128.081 103.886 286.659  1.00  0.00    -0.234 F 
HETATM   19  C23 UNL     1     128.985 105.922 287.118  1.00  0.00     0.195 C 
HETATM   20  C24 UNL     1     130.124 105.189 286.428  1.00  0.00     0.191 A 
HETATM   21  O6  UNL     1     131.357 105.484 286.409  1.00  0.00    -0.365 OA
HETATM   22  C25 UNL     1     130.606 105.433 285.176  1.00  0.00     0.110 A 
HETATM   23  C26 UNL     1     130.234 104.251 284.397  1.00  0.00     0.066 C 
ENDROOT
BRANCH   1  24
HETATM   24  C7  UNL     1     133.108 105.383 284.439  1.00  0.00    -0.005 C 
HETATM   25  C6  UNL     1     134.194 106.019 284.142  1.00  0.00     0.086 C 
BRANCH  25  26
HETATM   26  C5  UNL     1     135.548 105.457 284.503  1.00  0.00     0.310 C 
HETATM   27  N1  UNL     1     135.731 104.252 285.009  1.00  0.00    -0.411 NA
HETATM   28  O1  UNL     1     136.473 106.320 284.246  1.00  0.00    -0.252 OA
BRANCH  27  29
HETATM   29  C4  UNL     1     135.947 102.951 285.554  1.00  0.00     0.227 C 
BRANCH  29  30
HETATM   30  C2  UNL     1     136.971 102.978 286.666  1.00  0.00     0.026 C 
HETATM   31  C1  UNL     1     138.322 102.521 286.198  1.00  0.00     0.014 C 
BRANCH  30  32
HETATM   32  C3  UNL     1     136.596 102.176 287.868  1.00  0.00     0.121 C 
HETATM   33 CL1  UNL     1     135.454 103.000 288.927  1.00  0.00    -0.130 Cl
ENDBRANCH  30  32
ENDBRANCH  29  30
ENDBRANCH  27  29
ENDBRANCH  25  26
ENDBRANCH   1  24
BRANCH  19  34
HETATM   34  O5  UNL     1     129.092 107.304 287.012  1.00  0.00    -0.389 OA
ATOM     35  H5  UNL     1     128.527 107.781 286.415  1.00  0.00     0.210 HD
ENDBRANCH  19  34
BRANCH  12  36
HETATM   36  O3  UNL     1     124.345 104.183 286.920  1.00  0.00    -0.392 OA
ATOM     37  H3  UNL     1     124.134 104.293 287.839  1.00  0.00     0.210 HD
ENDBRANCH  12  36
TORSDOF 7
ENDMDL
MODEL 4
REMARK VINA RESULT: -7.919622759      1.053      1.172
REMARK  7 active torsions:
REMARK  status: ('A' for Active; 'I' for Inactive)
REMARK    1  A    between atoms: C2_2  and  C3_3 
REMARK    2  A    between atoms: C2_2  and  C4_5 
REMARK    3  A    between atoms: C4_5  and  N1_6 
REMARK       I    between atoms: N1_6  and  C5_7 
REMARK    4  A    between atoms: C5_7  and  C6_9 
REMARK    5  A    between atoms: C7_10  and  C8_11 
REMARK    6  A    between atoms: C18_22  and  O3_23 
REMARK    7  A    between atoms: C23_31  and  O5_32 
ROOT
HETATM    1  C8  UNL     1     131.700 105.990 283.736  1.00  0.00     0.040 C 
HETATM    2  C9  UNL     1     131.339 107.154 282.815  1.00  0.00     0.026 C 
HETATM    3  C10 UNL     1     131.343 104.736 282.955  1.00  0.00     0.078 C 
HETATM    4  C11 UNL     1     132.415 103.764 282.625  1.00  0.00     0.047 C 
HETATM    5  O2  UNL     1     130.386 104.897 281.946  1.00  0.00    -0.378 OA
HETATM    6  C12 UNL     1     129.682 103.699 282.168  1.00  0.00     0.174 C 
HETATM    7  C13 UNL     1     129.289 103.892 283.675  1.00  0.00     0.020 C 
HETATM    8  C14 UNL     1     128.002 104.520 283.652  1.00  0.00     0.015 C 
HETATM    9  C15 UNL     1     126.967 104.506 284.676  1.00  0.00     0.030 C 
HETATM   10  C16 UNL     1     126.566 103.319 285.426  1.00  0.00     0.020 C 
HETATM   11  C17 UNL     1     125.229 102.770 284.915  1.00  0.00     0.013 C 
HETATM   12  C18 UNL     1     126.324 103.552 286.932  1.00  0.00     0.154 C 
HETATM   13  C19 UNL     1     126.906 104.924 287.380  1.00  0.00     0.197 C 
HETATM   14  O4  UNL     1     126.140 105.746 286.599  1.00  0.00    -0.365 OA
HETATM   15  C20 UNL     1     127.208 105.636 285.685  1.00  0.00     0.103 C 
HETATM   16  C21 UNL     1     127.200 106.930 285.006  1.00  0.00     0.050 C 
HETATM   17  C22 UNL     1     128.153 105.172 286.644  1.00  0.00     0.190 C 
HETATM   18  F1  UNL     1     128.696 103.869 286.670  1.00  0.00    -0.234 F 
HETATM   19  C23 UNL     1     129.255 106.067 286.857  1.00  0.00     0.195 C 
HETATM   20  C24 UNL     1     130.446 105.472 286.123  1.00  0.00     0.191 A 
HETATM   21  O6  UNL     1     131.600 105.969 285.954  1.00  0.00    -0.365 OA
HETATM   22  C25 UNL     1     130.770 105.663 284.813  1.00  0.00     0.110 A 
HETATM   23  C26 UNL     1     130.553 104.361 284.180  1.00  0.00     0.066 C 
ENDROOT
BRANCH   1  24
HETATM   24  C7  UNL     1     133.170 105.965 283.835  1.00  0.00    -0.005 C 
HETATM   25  C6  UNL     1     134.101 106.673 283.282  1.00  0.00     0.086 C 
BRANCH  25  26
HETATM   26  C5  UNL     1     135.558 106.414 283.584  1.00  0.00     0.310 C 
HETATM   27  N1  UNL     1     135.976 105.592 284.529  1.00  0.00    -0.411 NA
HETATM   28  O1  UNL     1     136.307 107.105 282.793  1.00  0.00    -0.252 OA
BRANCH  27  29
HETATM   29  C4  UNL     1     136.446 104.706 285.543  1.00  0.00     0.227 C 
BRANCH  29  30
HETATM   30  C2  UNL     1     135.426 104.532 286.645  1.00  0.00     0.026 C 
HETATM   31  C1  UNL     1     134.309 103.614 286.237  1.00  0.00     0.014 C 
BRANCH  30  32
HETATM   32  C3  UNL     1     134.827 105.808 287.137  1.00  0.00     0.121 C 
HETATM   33 CL1  UNL     1     135.971 107.147 287.172  1.00  0.00    -0.130 Cl
ENDBRANCH  30  32
ENDBRANCH  29  30
ENDBRANCH  27  29
ENDBRANCH  25  26
ENDBRANCH   1  24
BRANCH  19  34
HETATM   34  O5  UNL     1     129.103 107.428 286.621  1.00  0.00    -0.389 OA
ATOM     35  H5  UNL     1     129.839 107.944 286.315  1.00  0.00     0.210 HD
ENDBRANCH  19  34
BRANCH  12  36
HETATM   36  O3  UNL     1     125.002 103.550 287.278  1.00  0.00    -0.392 OA
ATOM     37  H3  UNL     1     124.585 104.397 287.180  1.00  0.00     0.210 HD
ENDBRANCH  12  36
TORSDOF 7
ENDMDL
MODEL 5
REMARK VINA RESULT: -7.892507019      2.100      2.890
REMARK  7 active torsions:
REMARK  status: ('A' for Active; 'I' for Inactive)
REMARK    1  A    between atoms: C2_2  and  C3_3 
REMARK    2  A    between atoms: C2_2  and  C4_5 
REMARK    3  A    between atoms: C4_5  and  N1_6 
REMARK       I    between atoms: N1_6  and  C5_7 
REMARK    4  A    between atoms: C5_7  and  C6_9 
REMARK    5  A    between atoms: C7_10  and  C8_11 
REMARK    6  A    between atoms: C18_22  and  O3_23 
REMARK    7  A    between atoms: C23_31  and  O5_32 
ROOT
HETATM    1  C8  UNL     1     130.192 105.705 286.161  1.00  0.00     0.040 C 
HETATM    2  C9  UNL     1     130.135 107.166 285.722  1.00  0.00     0.026 C 
HETATM    3  C10 UNL     1     130.149 104.897 284.874  1.00  0.00     0.078 C 
HETATM    4  C11 UNL     1     131.291 104.011 284.542  1.00  0.00     0.047 C 
HETATM    5  O2  UNL     1     129.585 105.542 283.767  1.00  0.00    -0.378 OA
HETATM    6  C12 UNL     1     128.875 104.440 283.256  1.00  0.00     0.174 C 
HETATM    7  C13 UNL     1     127.993 104.083 284.503  1.00  0.00     0.020 C 
HETATM    8  C14 UNL     1     126.774 104.815 284.326  1.00  0.00     0.015 C 
HETATM    9  C15 UNL     1     125.456 104.527 284.872  1.00  0.00     0.030 C 
HETATM   10  C16 UNL     1     124.853 103.197 284.913  1.00  0.00     0.020 C 
HETATM   11  C17 UNL     1     123.780 103.043 283.830  1.00  0.00     0.013 C 
HETATM   12  C18 UNL     1     124.113 102.859 286.224  1.00  0.00     0.154 C 
HETATM   13  C19 UNL     1     124.477 103.877 287.343  1.00  0.00     0.197 C 
HETATM   14  O4  UNL     1     124.000 105.018 286.757  1.00  0.00    -0.365 OA
HETATM   15  C20 UNL     1     125.315 105.146 286.267  1.00  0.00     0.103 C 
HETATM   16  C21 UNL     1     125.506 106.594 286.199  1.00  0.00     0.050 C 
HETATM   17  C22 UNL     1     125.893 104.244 287.206  1.00  0.00     0.190 C 
HETATM   18  F1  UNL     1     126.426 102.979 286.880  1.00  0.00    -0.234 F 
HETATM   19  C23 UNL     1     126.837 104.856 288.098  1.00  0.00     0.195 C 
HETATM   20  C24 UNL     1     128.220 104.456 287.607  1.00  0.00     0.191 A 
HETATM   21  O6  UNL     1     129.351 104.844 288.028  1.00  0.00    -0.365 OA
HETATM   22  C25 UNL     1     128.961 105.099 286.661  1.00  0.00     0.110 A 
HETATM   23  C26 UNL     1     129.001 104.174 285.527  1.00  0.00     0.066 C 
ENDROOT
BRANCH   1  24
HETATM   24  C7  UNL     1     131.543 105.475 286.704  1.00  0.00    -0.005 C 
HETATM   25  C6  UNL     1     132.015 105.457 287.908  1.00  0.00     0.086 C 
BRANCH  25  26
HETATM   26  C5  UNL     1     133.478 105.184 288.165  1.00  0.00     0.310 C 
HETATM   27  N1  UNL     1     134.456 105.657 287.415  1.00  0.00    -0.411 NA
HETATM   28  O1  UNL     1     133.616 104.435 289.207  1.00  0.00    -0.252 OA
BRANCH  27  29
HETATM   29  C4  UNL     1     135.524 106.162 286.617  1.00  0.00     0.227 C 
BRANCH  29  30
HETATM   30  C2  UNL     1     135.591 105.469 285.275  1.00  0.00     0.026 C 
HETATM   31  C1  UNL     1     134.486 105.911 284.359  1.00  0.00     0.014 C 
BRANCH  30  32
HETATM   32  C3  UNL     1     135.569 103.979 285.350  1.00  0.00     0.121 C 
HETATM   33 CL1  UNL     1     137.039 103.294 286.039  1.00  0.00    -0.130 Cl
ENDBRANCH  30  32
ENDBRANCH  29  30
ENDBRANCH  27  29
ENDBRANCH  25  26
ENDBRANCH   1  24
BRANCH  19  34
HETATM   34  O5  UNL     1     126.741 106.211 288.391  1.00  0.00    -0.389 OA
ATOM     35  H5  UNL     1     127.230 106.845 287.880  1.00  0.00     0.210 HD
ENDBRANCH  19  34
BRANCH  12  36
HETATM   36  O3  UNL     1     122.752 102.876 286.100  1.00  0.00    -0.392 OA
ATOM     37  H3  UNL     1     122.357 103.689 286.390  1.00  0.00     0.210 HD
ENDBRANCH  12  36
TORSDOF 7
ENDMDL
