MODEL 1
REMARK VINA RESULT: -5.587327716      0.000      0.000
REMARK  1 active torsions:
REMARK  status: ('A' for Active; 'I' for Inactive)
REMARK    1  A    between atoms: N4_11  and  N5_13 
ROOT
HETATM    1  N1  UNL     1       0.277   6.367  79.232  1.00  0.00    -0.197 NA
HETATM    2  C1  UNL     1       0.141   5.740  80.113  1.00  0.00     0.064 C 
HETATM    3  C2  UNL     1      -0.053   4.929  81.281  1.00  0.00     0.093 C 
HETATM    4  C3  UNL     1      -1.008   3.755  80.981  1.00  0.00     0.020 C 
HETATM    5  N2  UNL     1      -0.253   2.860  81.876  1.00  0.00     0.000 N 
HETATM    6  C4  UNL     1       0.826   1.742  81.486  1.00  0.00     0.000 A 
HETATM    7  C5  UNL     1      -0.193   1.411  81.506  1.00  0.00     0.000 A 
HETATM    8  N3  UNL     1       0.304   2.795  82.050  1.00  0.00     0.000 N 
HETATM    9  C6  UNL     1       1.105   3.988  81.586  1.00  0.00     0.020 C 
HETATM   10  C7  UNL     1      -0.237   2.887  83.175  1.00  0.00     0.108 A 
HETATM   11  N4  UNL     1      -0.599   2.969  84.428  1.00  0.00    -0.303 N 
ATOM     12  H4  UNL     1      -1.594   3.119  84.596  1.00  0.00     0.186 HD
ENDROOT
BRANCH  11  13
HETATM   13  N5  UNL     1       0.174   2.881  85.517  1.00  0.00    -0.345 N 
ATOM     14  H52 UNL     1      -0.010   3.586  86.231  1.00  0.00     0.176 HD
ATOM     15  H51 UNL     1       0.912   2.203  85.710  1.00  0.00     0.176 HD
ENDBRANCH  11  13
TORSDOF 1
ENDMDL
MODEL 2
REMARK VINA RESULT: -5.407856498      1.491      1.862
REMARK  1 active torsions:
REMARK  status: ('A' for Active; 'I' for Inactive)
REMARK    1  A    between atoms: N4_11  and  N5_13 
ROOT
HETATM    1  N1  UNL     1       3.621   5.520  79.573  1.00  0.00    -0.197 NA
HETATM    2  C1  UNL     1       2.910   5.142  80.309  1.00  0.00     0.064 C 
HETATM    3  C2  UNL     1       1.980   4.663  81.290  1.00  0.00     0.093 C 
HETATM    4  C3  UNL     1       0.543   5.108  80.949  1.00  0.00     0.020 C 
HETATM    5  N2  UNL     1      -0.012   3.842  81.458  1.00  0.00     0.000 N 
HETATM    6  C4  UNL     1      -0.490   2.559  80.626  1.00  0.00     0.000 A 
HETATM    7  C5  UNL     1      -1.238   3.310  80.783  1.00  0.00     0.000 A 
HETATM    8  N3  UNL     1       0.158   3.281  81.496  1.00  0.00     0.000 N 
HETATM    9  C6  UNL     1       1.623   3.190  81.144  1.00  0.00     0.020 C 
HETATM   10  C7  UNL     1      -0.117   3.479  82.701  1.00  0.00     0.108 A 
HETATM   11  N4  UNL     1      -0.335   3.481  83.990  1.00  0.00    -0.303 N 
ATOM     12  H4  UNL     1      -0.659   4.363  84.386  1.00  0.00     0.186 HD
ENDROOT
BRANCH  11  13
HETATM   13  N5  UNL     1      -0.184   2.470  84.853  1.00  0.00    -0.345 N 
ATOM     14  H52 UNL     1       0.774   2.136  84.960  1.00  0.00     0.176 HD
ATOM     15  H51 UNL     1      -0.904   2.003  85.405  1.00  0.00     0.176 HD
ENDBRANCH  11  13
TORSDOF 1
ENDMDL
MODEL 3
REMARK VINA RESULT: -5.298637948      1.704      3.997
REMARK  1 active torsions:
REMARK  status: ('A' for Active; 'I' for Inactive)
REMARK    1  A    between atoms: N4_11  and  N5_13 
ROOT
HETATM    1  N1  UNL     1      -1.517   2.858  86.116  1.00  0.00    -0.197 NA
HETATM    2  C1  UNL     1      -0.888   3.035  85.243  1.00  0.00     0.064 C 
HETATM    3  C2  UNL     1      -0.042   3.259  84.106  1.00  0.00     0.093 C 
HETATM    4  C3  UNL     1      -0.237   2.151  83.050  1.00  0.00     0.020 C 
HETATM    5  N2  UNL     1      -0.052   3.113  81.950  1.00  0.00     0.000 N 
HETATM    6  C4  UNL     1      -1.171   3.814  81.042  1.00  0.00     0.000 A 
HETATM    7  C5  UNL     1      -0.818   2.867  80.688  1.00  0.00     0.000 A 
HETATM    8  N3  UNL     1      -0.158   3.683  81.852  1.00  0.00     0.000 N 
HETATM    9  C6  UNL     1      -0.546   4.337  83.157  1.00  0.00     0.020 C 
HETATM   10  C7  UNL     1       1.063   3.667  81.576  1.00  0.00     0.108 A 
HETATM   11  N4  UNL     1       2.314   3.865  81.256  1.00  0.00    -0.303 N 
ATOM     12  H4  UNL     1       2.924   3.049  81.314  1.00  0.00     0.186 HD
ENDROOT
BRANCH  11  13
HETATM   13  N5  UNL     1       2.894   5.005  80.863  1.00  0.00    -0.345 N 
ATOM     14  H52 UNL     1       2.691   5.280  79.902  1.00  0.00     0.176 HD
ATOM     15  H51 UNL     1       3.504   5.619  81.404  1.00  0.00     0.176 HD
ENDBRANCH  11  13
TORSDOF 1
ENDMDL
MODEL 4
REMARK VINA RESULT: -5.078322522      2.004      3.922
REMARK  1 active torsions:
REMARK  status: ('A' for Active; 'I' for Inactive)
REMARK    1  A    between atoms: N4_11  and  N5_13 
ROOT
HETATM    1  N1  UNL     1       0.699  -0.850  81.460  1.00  0.00    -0.197 NA
HETATM    2  C1  UNL     1       0.916   0.219  81.486  1.00  0.00     0.064 C 
HETATM    3  C2  UNL     1       1.221   1.620  81.513  1.00  0.00     0.093 C 
HETATM    4  C3  UNL     1       0.704   2.320  80.239  1.00  0.00     0.020 C 
HETATM    5  N2  UNL     1       0.367   3.537  80.997  1.00  0.00     0.000 N 
HETATM    6  C4  UNL     1      -1.068   4.014  81.528  1.00  0.00     0.000 A 
HETATM    7  C5  UNL     1      -0.818   4.327  80.534  1.00  0.00     0.000 A 
HETATM    8  N3  UNL     1       0.190   3.671  81.541  1.00  0.00     0.000 N 
HETATM    9  C6  UNL     1       0.305   2.442  82.409  1.00  0.00     0.020 C 
HETATM   10  C7  UNL     1       1.198   4.411  81.481  1.00  0.00     0.108 A 
HETATM   11  N4  UNL     1       2.202   5.235  81.625  1.00  0.00    -0.303 N 
ATOM     12  H4  UNL     1       2.841   5.302  80.833  1.00  0.00     0.186 HD
ENDROOT
BRANCH  11  13
HETATM   13  N5  UNL     1       2.493   6.002  82.682  1.00  0.00    -0.345 N 
ATOM     14  H52 UNL     1       1.816   6.740  82.876  1.00  0.00     0.176 HD
ATOM     15  H51 UNL     1       3.300   5.935  83.304  1.00  0.00     0.176 HD
ENDBRANCH  11  13
TORSDOF 1
ENDMDL
MODEL 5
REMARK VINA RESULT: -5.071712136      3.289      5.433
REMARK  1 active torsions:
REMARK  status: ('A' for Active; 'I' for Inactive)
REMARK    1  A    between atoms: N4_11  and  N5_13 
ROOT
HETATM    1  N1  UNL     1      -2.393   4.433  88.588  1.00  0.00    -0.197 NA
HETATM    2  C1  UNL     1      -2.046   4.393  87.555  1.00  0.00     0.064 C 
HETATM    3  C2  UNL     1      -1.607   4.328  86.191  1.00  0.00     0.093 C 
HETATM    4  C3  UNL     1      -2.114   5.546  85.391  1.00  0.00     0.020 C 
HETATM    5  N2  UNL     1      -0.873   5.592  84.599  1.00  0.00     0.000 N 
HETATM    6  C4  UNL     1       0.389   6.563  84.780  1.00  0.00     0.000 A 
HETATM    7  C5  UNL     1      -0.394   6.938  84.151  1.00  0.00     0.000 A 
HETATM    8  N3  UNL     1      -0.305   5.464  84.679  1.00  0.00     0.000 N 
HETATM    9  C6  UNL     1      -0.151   4.722  85.985  1.00  0.00     0.020 C 
HETATM   10  C7  UNL     1      -0.514   4.767  83.660  1.00  0.00     0.108 A 
HETATM   11  N4  UNL     1      -0.526   3.977  82.620  1.00  0.00    -0.303 N 
ATOM     12  H4  UNL     1      -1.421   3.884  82.140  1.00  0.00     0.186 HD
ENDROOT
BRANCH  11  13
HETATM   13  N5  UNL     1       0.491   3.274  82.107  1.00  0.00    -0.345 N 
ATOM     14  H52 UNL     1       0.527   2.298  82.398  1.00  0.00     0.176 HD
ATOM     15  H51 UNL     1       1.221   3.598  81.471  1.00  0.00     0.176 HD
ENDBRANCH  11  13
TORSDOF 1
ENDMDL
