MODEL 1
REMARK VINA RESULT: -7.463209774      0.000      0.000
REMARK  2 active torsions:
REMARK  status: ('A' for Active; 'I' for Inactive)
REMARK    1  A    between atoms: C3_4  and  N2_5 
REMARK    2  A    between atoms: S1_22  and  O3_23 
ROOT
HETATM    1  N1  UNL     1      10.048 -47.395  35.170  1.00  0.00    -0.192 NA
HETATM    2  C1  UNL     1      10.344 -47.762  34.219  1.00  0.00     0.089 C 
HETATM    3  C2  UNL     1      10.773 -48.303  32.915  1.00  0.00     0.111 C 
HETATM    4  C3  UNL     1      10.003 -48.029  31.766  1.00  0.00     0.105 C 
ENDROOT
BRANCH   4   5
HETATM    5  N2  UNL     1      10.016 -46.632  31.602  1.00  0.00    -0.318 N 
HETATM    6  C4  UNL     1       8.844 -46.069  31.283  1.00  0.00     0.149 A 
HETATM    7  C5  UNL     1       7.778 -46.774  31.587  1.00  0.00     0.280 A 
HETATM    8  C7  UNL     1       8.702 -44.789  30.673  1.00  0.00     0.140 A 
HETATM    9  O1  UNL     1       7.825 -47.897  32.120  1.00  0.00    -0.265 OA
HETATM   10  N3  UNL     1       6.561 -46.229  31.296  1.00  0.00    -0.273 N 
HETATM   11  C6  UNL     1       6.434 -45.025  30.723  1.00  0.00     0.328 A 
ATOM     12  H3  UNL     1       5.718 -46.756  31.523  1.00  0.00     0.173 HD
HETATM   13  O2  UNL     1       5.285 -44.551  30.468  1.00  0.00    -0.247 OA
HETATM   14  N4  UNL     1       7.506 -44.308  30.412  1.00  0.00    -0.293 N 
ATOM     15  H4  UNL     1       7.404 -43.392  29.975  1.00  0.00     0.172 HD
HETATM   16  N5  UNL     1       9.707 -43.984  30.357  1.00  0.00    -0.341 N 
HETATM   17  C8  UNL     1      11.015 -43.848  30.787  1.00  0.00     0.307 A 
ATOM     18  H5  UNL     1       9.460 -43.312  29.630  1.00  0.00     0.164 HD
HETATM   19  N6  UNL     1      11.552 -44.380  31.228  1.00  0.00    -0.222 N 
HETATM   20  S1  UNL     1      12.211 -44.681  31.624  1.00  0.00     0.036 SA
HETATM   21  N7  UNL     1      11.812 -45.713  31.885  1.00  0.00    -0.105 NA
HETATM   22  C9  UNL     1      11.282 -46.116  31.834  1.00  0.00     0.295 A 
BRANCH  20  23
HETATM   23  O3  UNL     1      13.197 -43.675  32.952  1.00  0.00    -0.322 OA
ATOM     24  H3  UNL     1      13.017 -42.744  32.998  1.00  0.00     0.228 HD
ENDBRANCH  20  23
ENDBRANCH   4   5
TORSDOF 2
ENDMDL
MODEL 2
REMARK VINA RESULT: -6.150154512      2.462      3.937
REMARK  2 active torsions:
REMARK  status: ('A' for Active; 'I' for Inactive)
REMARK    1  A    between atoms: C3_4  and  N2_5 
REMARK    2  A    between atoms: S1_22  and  O3_23 
ROOT
HETATM    1  N1  UNL     1      14.430 -43.723  33.589  1.00  0.00    -0.192 NA
HETATM    2  C1  UNL     1      13.921 -43.559  32.671  1.00  0.00     0.089 C 
HETATM    3  C2  UNL     1      13.228 -43.295  31.397  1.00  0.00     0.111 C 
HETATM    4  C3  UNL     1      12.986 -44.361  30.507  1.00  0.00     0.105 C 
ENDROOT
BRANCH   4   5
HETATM    5  N2  UNL     1      12.157 -45.268  31.190  1.00  0.00    -0.318 N 
HETATM    6  C4  UNL     1      10.844 -45.008  31.147  1.00  0.00     0.149 A 
HETATM    7  C5  UNL     1      10.453 -44.242  30.153  1.00  0.00     0.280 A 
HETATM    8  C7  UNL     1       9.888 -45.515  32.075  1.00  0.00     0.140 A 
HETATM    9  O1  UNL     1      11.229 -43.765  29.306  1.00  0.00    -0.265 OA
HETATM   10  N3  UNL     1       9.119 -43.967  30.060  1.00  0.00    -0.273 N 
HETATM   11  C6  UNL     1       8.226 -44.446  30.935  1.00  0.00     0.328 A 
ATOM     12  H3  UNL     1       8.791 -43.375  29.297  1.00  0.00     0.173 HD
HETATM   13  O2  UNL     1       6.994 -44.168  30.816  1.00  0.00    -0.247 OA
HETATM   14  N4  UNL     1       8.614 -45.219  31.942  1.00  0.00    -0.293 N 
ATOM     15  H4  UNL     1       7.929 -45.581  32.606  1.00  0.00     0.172 HD
HETATM   16  N5  UNL     1      10.170 -46.320  33.090  1.00  0.00    -0.341 N 
HETATM   17  C8  UNL     1      11.200 -47.197  33.377  1.00  0.00     0.307 A 
ATOM     18  H5  UNL     1       9.467 -46.283  33.828  1.00  0.00     0.164 HD
HETATM   19  N6  UNL     1      12.008 -47.289  33.052  1.00  0.00    -0.222 N 
HETATM   20  S1  UNL     1      12.771 -47.570  32.907  1.00  0.00     0.036 SA
HETATM   21  N7  UNL     1      13.095 -46.820  32.117  1.00  0.00    -0.105 NA
HETATM   22  C9  UNL     1      12.901 -46.287  31.766  1.00  0.00     0.295 A 
BRANCH  20  23
HETATM   23  O3  UNL     1      13.179 -49.447  32.666  1.00  0.00    -0.322 OA
ATOM     24  H3  UNL     1      12.505 -50.064  32.927  1.00  0.00     0.228 HD
ENDBRANCH  20  23
ENDBRANCH   4   5
TORSDOF 2
ENDMDL
MODEL 3
REMARK VINA RESULT: -6.142327369      2.173      5.128
REMARK  2 active torsions:
REMARK  status: ('A' for Active; 'I' for Inactive)
REMARK    1  A    between atoms: C3_4  and  N2_5 
REMARK    2  A    between atoms: S1_22  and  O3_23 
ROOT
HETATM    1  N1  UNL     1      11.065 -43.960  28.779  1.00  0.00    -0.192 NA
HETATM    2  C1  UNL     1      11.570 -44.317  29.642  1.00  0.00     0.089 C 
HETATM    3  C2  UNL     1      12.305 -44.803  30.824  1.00  0.00     0.111 C 
HETATM    4  C3  UNL     1      11.681 -44.772  32.088  1.00  0.00     0.105 C 
ENDROOT
BRANCH   4   5
HETATM    5  N2  UNL     1      10.552 -45.605  31.995  1.00  0.00    -0.318 N 
HETATM    6  C4  UNL     1      10.752 -46.896  32.288  1.00  0.00     0.149 A 
HETATM    7  C5  UNL     1      11.808 -47.150  33.028  1.00  0.00     0.280 A 
HETATM    8  C7  UNL     1       9.901 -47.961  31.871  1.00  0.00     0.140 A 
HETATM    9  O1  UNL     1      12.594 -46.274  33.429  1.00  0.00    -0.265 OA
HETATM   10  N3  UNL     1      12.038 -48.452  33.367  1.00  0.00    -0.273 N 
HETATM   11  C6  UNL     1      11.235 -49.448  32.971  1.00  0.00     0.328 A 
ATOM     12  H3  UNL     1      12.851 -48.675  33.941  1.00  0.00     0.173 HD
HETATM   13  O2  UNL     1      11.482 -50.647  33.306  1.00  0.00    -0.247 OA
HETATM   14  N4  UNL     1      10.168 -49.199  32.223  1.00  0.00    -0.293 N 
ATOM     15  H4  UNL     1       9.560 -49.962  31.924  1.00  0.00     0.172 HD
HETATM   16  N5  UNL     1       8.796 -47.811  31.153  1.00  0.00    -0.341 N 
HETATM   17  C8  UNL     1       7.922 -46.765  30.923  1.00  0.00     0.307 A 
ATOM     18  H5  UNL     1       8.532 -48.662  30.656  1.00  0.00     0.164 HD
HETATM   19  N6  UNL     1       7.990 -45.900  31.037  1.00  0.00    -0.222 N 
HETATM   20  S1  UNL     1       7.815 -45.093  31.064  1.00  0.00     0.036 SA
HETATM   21  N7  UNL     1       8.814 -44.702  31.439  1.00  0.00    -0.105 NA
HETATM   22  C9  UNL     1       9.429 -44.881  31.627  1.00  0.00     0.295 A 
BRANCH  20  23
HETATM   23  O3  UNL     1       6.173 -44.392  31.814  1.00  0.00    -0.322 OA
ATOM     24  H3  UNL     1       6.243 -43.580  32.302  1.00  0.00     0.228 HD
ENDBRANCH  20  23
ENDBRANCH   4   5
TORSDOF 2
ENDMDL
MODEL 4
REMARK VINA RESULT: -6.076042644      2.289      3.597
REMARK  2 active torsions:
REMARK  status: ('A' for Active; 'I' for Inactive)
REMARK    1  A    between atoms: C3_4  and  N2_5 
REMARK    2  A    between atoms: S1_22  and  O3_23 
ROOT
HETATM    1  N1  UNL     1       9.886 -50.356  32.208  1.00  0.00    -0.192 NA
HETATM    2  C1  UNL     1       9.331 -49.499  31.916  1.00  0.00     0.089 C 
HETATM    3  C2  UNL     1       8.539 -48.332  31.488  1.00  0.00     0.111 C 
HETATM    4  C3  UNL     1       8.400 -47.232  32.359  1.00  0.00     0.105 C 
ENDROOT
BRANCH   4   5
HETATM    5  N2  UNL     1       9.696 -46.731  32.577  1.00  0.00    -0.318 N 
HETATM    6  C4  UNL     1      10.136 -45.839  31.681  1.00  0.00     0.149 A 
HETATM    7  C5  UNL     1       9.202 -45.219  30.995  1.00  0.00     0.280 A 
HETATM    8  C7  UNL     1      11.509 -45.528  31.458  1.00  0.00     0.140 A 
HETATM    9  O1  UNL     1       7.986 -45.438  31.136  1.00  0.00    -0.265 OA
HETATM   10  N3  UNL     1       9.607 -44.287  30.084  1.00  0.00    -0.273 N 
HETATM   11  C6  UNL     1      10.899 -43.999  29.879  1.00  0.00     0.328 A 
ATOM     12  H3  UNL     1       8.901 -43.791  29.540  1.00  0.00     0.173 HD
HETATM   13  O2  UNL     1      11.236 -43.126  29.023  1.00  0.00    -0.247 OA
HETATM   14  N4  UNL     1      11.847 -44.622  30.567  1.00  0.00    -0.293 N 
ATOM     15  H4  UNL     1      12.830 -44.399  30.406  1.00  0.00     0.172 HD
HETATM   16  N5  UNL     1      12.526 -46.068  32.116  1.00  0.00    -0.341 N 
HETATM   17  C8  UNL     1      12.667 -46.692  33.342  1.00  0.00     0.307 A 
ATOM     18  H5  UNL     1      13.404 -46.011  31.600  1.00  0.00     0.164 HD
HETATM   19  N6  UNL     1      12.091 -47.054  33.893  1.00  0.00    -0.222 N 
HETATM   20  S1  UNL     1      11.756 -47.428  34.550  1.00  0.00     0.036 SA
HETATM   21  N7  UNL     1      10.670 -47.444  34.218  1.00  0.00    -0.105 NA
HETATM   22  C9  UNL     1      10.252 -47.272  33.726  1.00  0.00     0.295 A 
BRANCH  20  23
HETATM   23  O3  UNL     1      12.190 -46.945  36.374  1.00  0.00    -0.322 OA
ATOM     24  H3  UNL     1      13.106 -46.779  36.562  1.00  0.00     0.228 HD
ENDBRANCH  20  23
ENDBRANCH   4   5
TORSDOF 2
ENDMDL
MODEL 5
REMARK VINA RESULT: -6.047790204      2.053      5.581
REMARK  2 active torsions:
REMARK  status: ('A' for Active; 'I' for Inactive)
REMARK    1  A    between atoms: C3_4  and  N2_5 
REMARK    2  A    between atoms: S1_22  and  O3_23 
ROOT
HETATM    1  N1  UNL     1      11.082 -44.043  27.611  1.00  0.00    -0.192 NA
HETATM    2  C1  UNL     1      11.653 -43.879  28.491  1.00  0.00     0.089 C 
HETATM    3  C2  UNL     1      12.477 -43.641  29.691  1.00  0.00     0.111 C 
HETATM    4  C3  UNL     1      11.849 -43.271  30.898  1.00  0.00     0.105 C 
ENDROOT
BRANCH   4   5
HETATM    5  N2  UNL     1      10.998 -44.335  31.247  1.00  0.00    -0.318 N 
HETATM    6  C4  UNL     1      11.557 -45.322  31.958  1.00  0.00     0.149 A 
HETATM    7  C5  UNL     1      12.652 -45.000  32.608  1.00  0.00     0.280 A 
HETATM    8  C7  UNL     1      11.032 -46.644  32.056  1.00  0.00     0.140 A 
HETATM    9  O1  UNL     1      13.167 -43.868  32.569  1.00  0.00    -0.265 OA
HETATM   10  N3  UNL     1      13.244 -45.972  33.361  1.00  0.00    -0.273 N 
HETATM   11  C6  UNL     1      12.747 -47.212  33.449  1.00  0.00     0.328 A 
ATOM     12  H3  UNL     1      14.096 -45.747  33.876  1.00  0.00     0.173 HD
HETATM   13  O2  UNL     1      13.325 -48.090  34.160  1.00  0.00    -0.247 OA
HETATM   14  N4  UNL     1      11.641 -47.545  32.795  1.00  0.00    -0.293 N 
ATOM     15  H4  UNL     1      11.267 -48.492  32.865  1.00  0.00     0.172 HD
HETATM   16  N5  UNL     1       9.919 -47.064  31.470  1.00  0.00    -0.341 N 
HETATM   17  C8  UNL     1       8.783 -46.442  30.986  1.00  0.00     0.307 A 
ATOM     18  H5  UNL     1       9.896 -48.076  31.348  1.00  0.00     0.164 HD
HETATM   19  N6  UNL     1       8.607 -45.611  30.773  1.00  0.00    -0.222 N 
HETATM   20  S1  UNL     1       8.213 -44.928  30.529  1.00  0.00     0.036 SA
HETATM   21  N7  UNL     1       9.067 -44.183  30.616  1.00  0.00    -0.105 NA
HETATM   22  C9  UNL     1       9.711 -44.116  30.780  1.00  0.00     0.295 A 
BRANCH  20  23
HETATM   23  O3  UNL     1       6.452 -44.438  31.167  1.00  0.00    -0.322 OA
ATOM     24  H3  UNL     1       6.298 -43.512  31.319  1.00  0.00     0.228 HD
ENDBRANCH  20  23
ENDBRANCH   4   5
TORSDOF 2
ENDMDL
