MODEL 1
REMARK VINA RESULT: -5.717052389      0.000      0.000
REMARK  10 active torsions:
REMARK  status: ('A' for Active; 'I' for Inactive)
REMARK    1  A    between atoms: C3_3  and  O1_5 
REMARK    2  A    between atoms: O1_5  and  C5_6 
REMARK    3  A    between atoms: C10_12  and  C11_13 
REMARK    4  A    between atoms: C11_13  and  O3_14 
REMARK    5  A    between atoms: C14_18  and  O4_19 
REMARK    6  A    between atoms: C16_21  and  O5_22 
REMARK    7  A    between atoms: C18_24  and  C19_25 
REMARK    8  A    between atoms: C19_25  and  O6_26 
REMARK    9  A    between atoms: C24_31  and  O7_32 
REMARK   10  A    between atoms: C26_35  and  C27_36 
ROOT
HETATM    1  C5  UNL     1      58.299   4.209   5.534  1.00  0.00     0.147 C 
HETATM    2  C6  UNL     1      57.533   2.890   5.209  1.00  0.00     0.046 C 
HETATM    3  C7  UNL     1      57.212   2.850   3.832  1.00  0.00     0.001 A 
HETATM    4  C8  UNL     1      57.602   2.560   2.650  1.00  0.00     0.011 A 
HETATM    5  O2  UNL     1      57.069   1.706   1.596  1.00  0.00     0.000 OA
HETATM    6  C9  UNL     1      57.494   1.156   0.560  1.00  0.00     0.007 C 
HETATM    7  C10 UNL     1      58.931   1.195   0.213  1.00  0.00     0.017 C 
HETATM    8  C12 UNL     1      59.360   2.002   1.347  1.00  0.00     0.039 C 
HETATM    9  C13 UNL     1      58.904   1.333   2.689  1.00  0.00     0.073 C 
HETATM   10  C14 UNL     1      59.865   1.717   3.810  1.00  0.00     0.082 C 
HETATM   11  C16 UNL     1      59.953   2.935   4.426  1.00  0.00     0.089 C 
HETATM   12  C18 UNL     1      59.291   4.267   4.350  1.00  0.00     0.064 C 
HETATM   13  C21 UNL     1      58.476   4.749   3.195  1.00  0.00     0.023 C 
HETATM   14  C22 UNL     1      59.105   4.514   1.821  1.00  0.00     0.023 C 
HETATM   15  C23 UNL     1      58.774   5.753   0.989  1.00  0.00     0.013 C 
HETATM   16  C24 UNL     1      58.475   3.285   1.183  1.00  0.00     0.077 C 
HETATM   17  C25 UNL     1      57.173   3.087   1.972  1.00  0.00     0.030 A 
HETATM   18  C26 UNL     1      57.486   1.851   3.034  1.00  0.00     0.071 A 
HETATM   19  C28 UNL     1      57.206   3.872   2.959  1.00  0.00    -0.002 A 
ENDROOT
BRANCH   1  20
HETATM   20  O1  UNL     1      58.936   4.100   6.758  1.00  0.00    -0.350 OA
BRANCH  20  21
HETATM   21  C3  UNL     1      58.221   4.119   7.948  1.00  0.00     0.039 C 
HETATM   22  C2  UNL     1      57.534   5.214   8.230  1.00  0.00     0.001 C 
HETATM   23  C1  UNL     1      56.766   5.258   9.492  1.00  0.00     0.038 C 
HETATM   24  C4  UNL     1      58.179   2.999   8.914  1.00  0.00     0.076 C 
ENDBRANCH  20  21
ENDBRANCH   1  20
BRANCH  12  25
HETATM   25  C19 UNL     1      60.332   5.347   4.533  1.00  0.00     0.186 C 
BRANCH  25  26
HETATM   26  O6  UNL     1      59.904   6.622   4.615  1.00  0.00    -0.395 OA
HETATM   27  C20 UNL     1      60.988   7.491   4.612  1.00  0.00     0.201 C 
ENDBRANCH  25  26
ENDBRANCH  12  25
BRANCH  11  28
HETATM   28  O5  UNL     1      60.926   2.963   5.404  1.00  0.00    -0.357 OA
HETATM   29  C17 UNL     1      62.305   2.908   5.299  1.00  0.00     0.209 C 
ENDBRANCH  11  28
BRANCH  18  30
HETATM   30  C27 UNL     1      56.514   0.950   3.590  1.00  0.00     0.184 C 
HETATM   31  O8  UNL     1      55.294   1.091   3.719  1.00  0.00    -0.647 OA
HETATM   32  O9  UNL     1      56.993  -0.239   4.054  1.00  0.00    -0.647 OA
ENDBRANCH  18  30
BRANCH  10  33
HETATM   33  O4  UNL     1      60.675   0.737   4.188  1.00  0.00    -0.357 OA
HETATM   34  C15 UNL     1      60.557  -0.610   3.845  1.00  0.00     0.209 C 
ENDBRANCH  10  33
BRANCH  16  35
HETATM   35  O7  UNL     1      58.236   3.592  -0.105  1.00  0.00    -0.388 OA
ATOM     36  H7  UNL     1      57.324   3.804  -0.270  1.00  0.00     0.210 HD
ENDBRANCH  16  35
BRANCH   7  37
HETATM   37  C11 UNL     1      59.667  -0.073   0.153  1.00  0.00     0.169 C 
BRANCH  37  38
HETATM   38  O3  UNL     1      58.713  -1.117   0.141  1.00  0.00    -0.400 OA
ATOM     39  H3  UNL     1      58.541  -1.336  -0.768  1.00  0.00     0.209 HD
ENDBRANCH  37  38
ENDBRANCH   7  37
TORSDOF 10
ENDMDL
MODEL 2
REMARK VINA RESULT: -5.660172681      1.418      1.849
REMARK  10 active torsions:
REMARK  status: ('A' for Active; 'I' for Inactive)
REMARK    1  A    between atoms: C3_3  and  O1_5 
REMARK    2  A    between atoms: O1_5  and  C5_6 
REMARK    3  A    between atoms: C10_12  and  C11_13 
REMARK    4  A    between atoms: C11_13  and  O3_14 
REMARK    5  A    between atoms: C14_18  and  O4_19 
REMARK    6  A    between atoms: C16_21  and  O5_22 
REMARK    7  A    between atoms: C18_24  and  C19_25 
REMARK    8  A    between atoms: C19_25  and  O6_26 
REMARK    9  A    between atoms: C24_31  and  O7_32 
REMARK   10  A    between atoms: C26_35  and  C27_36 
ROOT
HETATM    1  C5  UNL     1      57.755   2.806   5.971  1.00  0.00     0.147 C 
HETATM    2  C6  UNL     1      57.430   1.283   5.912  1.00  0.00     0.046 C 
HETATM    3  C7  UNL     1      56.946   0.946   4.627  1.00  0.00     0.001 A 
HETATM    4  C8  UNL     1      57.236   0.623   3.425  1.00  0.00     0.011 A 
HETATM    5  O2  UNL     1      56.871  -0.498   2.567  1.00  0.00     0.000 OA
HETATM    6  C9  UNL     1      57.300  -1.033   1.526  1.00  0.00     0.007 C 
HETATM    7  C10 UNL     1      58.577  -0.599   0.919  1.00  0.00     0.017 C 
HETATM    8  C12 UNL     1      58.873   0.457   1.878  1.00  0.00     0.039 C 
HETATM    9  C13 UNL     1      58.863  -0.119   3.336  1.00  0.00     0.073 C 
HETATM   10  C14 UNL     1      59.793   0.704   4.223  1.00  0.00     0.082 C 
HETATM   11  C16 UNL     1      59.560   1.964   4.699  1.00  0.00     0.089 C 
HETATM   12  C18 UNL     1      58.491   2.998   4.625  1.00  0.00     0.064 C 
HETATM   13  C21 UNL     1      57.405   3.030   3.600  1.00  0.00     0.023 C 
HETATM   14  C22 UNL     1      57.872   2.805   2.161  1.00  0.00     0.023 C 
HETATM   15  C23 UNL     1      57.034   3.746   1.295  1.00  0.00     0.013 C 
HETATM   16  C24 UNL     1      57.600   1.363   1.763  1.00  0.00     0.077 C 
HETATM   17  C25 UNL     1      56.565   0.886   2.792  1.00  0.00     0.030 A 
HETATM   18  C26 UNL     1      57.418  -0.023   3.886  1.00  0.00     0.071 A 
HETATM   19  C28 UNL     1      56.477   1.777   3.681  1.00  0.00    -0.002 A 
ENDROOT
BRANCH   1  20
HETATM   20  O1  UNL     1      58.561   3.080   7.063  1.00  0.00    -0.350 OA
BRANCH  20  21
HETATM   21  C3  UNL     1      58.071   3.761   8.169  1.00  0.00     0.039 C 
HETATM   22  C2  UNL     1      57.712   5.023   7.999  1.00  0.00     0.001 C 
HETATM   23  C1  UNL     1      57.189   5.769   9.162  1.00  0.00     0.038 C 
HETATM   24  C4  UNL     1      57.927   3.169   9.517  1.00  0.00     0.076 C 
ENDBRANCH  20  21
ENDBRANCH   1  20
BRANCH  12  25
HETATM   25  C19 UNL     1      59.131   4.363   4.516  1.00  0.00     0.186 C 
BRANCH  25  26
HETATM   26  O6  UNL     1      58.325   5.413   4.265  1.00  0.00    -0.395 OA
HETATM   27  C20 UNL     1      58.993   6.352   3.488  1.00  0.00     0.201 C 
ENDBRANCH  25  26
ENDBRANCH  12  25
BRANCH  11  28
HETATM   28  O5  UNL     1      60.598   2.435   5.476  1.00  0.00    -0.357 OA
HETATM   29  C17 UNL     1      61.874   2.835   5.120  1.00  0.00     0.209 C 
ENDBRANCH  11  28
BRANCH  18  30
HETATM   30  C27 UNL     1      56.889  -1.092   4.689  1.00  0.00     0.184 C 
HETATM   31  O8  UNL     1      55.731  -1.294   5.066  1.00  0.00    -0.647 OA
HETATM   32  O9  UNL     1      57.788  -2.025   5.113  1.00  0.00    -0.647 OA
ENDBRANCH  18  30
BRANCH  10  33
HETATM   33  O4  UNL     1      60.927   0.089   4.533  1.00  0.00    -0.357 OA
HETATM   34  C15 UNL     1      61.227  -1.254   4.306  1.00  0.00     0.209 C 
ENDBRANCH  10  33
BRANCH  16  35
HETATM   35  O7  UNL     1      57.090   1.390   0.519  1.00  0.00    -0.388 OA
ATOM     36  H7  UNL     1      57.577   1.958  -0.067  1.00  0.00     0.210 HD
ENDBRANCH  16  35
BRANCH   7  37
HETATM   37  C11 UNL     1      59.675  -1.569   0.840  1.00  0.00     0.169 C 
BRANCH  37  38
HETATM   38  O3  UNL     1      60.857  -0.848   0.549  1.00  0.00    -0.400 OA
ATOM     39  H3  UNL     1      61.568  -1.477   0.496  1.00  0.00     0.209 HD
ENDBRANCH  37  38
ENDBRANCH   7  37
TORSDOF 10
ENDMDL
MODEL 3
REMARK VINA RESULT: -5.540913387      1.933      4.480
REMARK  10 active torsions:
REMARK  status: ('A' for Active; 'I' for Inactive)
REMARK    1  A    between atoms: C3_3  and  O1_5 
REMARK    2  A    between atoms: O1_5  and  C5_6 
REMARK    3  A    between atoms: C10_12  and  C11_13 
REMARK    4  A    between atoms: C11_13  and  O3_14 
REMARK    5  A    between atoms: C14_18  and  O4_19 
REMARK    6  A    between atoms: C16_21  and  O5_22 
REMARK    7  A    between atoms: C18_24  and  C19_25 
REMARK    8  A    between atoms: C19_25  and  O6_26 
REMARK    9  A    between atoms: C24_31  and  O7_32 
REMARK   10  A    between atoms: C26_35  and  C27_36 
ROOT
HETATM    1  C5  UNL     1      59.653   5.189   4.353  1.00  0.00     0.147 C 
HETATM    2  C6  UNL     1      59.330   4.776   5.822  1.00  0.00     0.046 C 
HETATM    3  C7  UNL     1      58.415   3.699   5.826  1.00  0.00     0.001 A 
HETATM    4  C8  UNL     1      58.250   2.434   5.753  1.00  0.00     0.011 A 
HETATM    5  O2  UNL     1      57.600   1.452   6.612  1.00  0.00     0.000 OA
HETATM    6  C9  UNL     1      57.624   0.215   6.772  1.00  0.00     0.007 C 
HETATM    7  C10 UNL     1      58.595  -0.627   6.041  1.00  0.00     0.017 C 
HETATM    8  C12 UNL     1      59.217   0.448   5.280  1.00  0.00     0.039 C 
HETATM    9  C13 UNL     1      59.735   1.566   6.250  1.00  0.00     0.073 C 
HETATM   10  C14 UNL     1      60.922   2.287   5.619  1.00  0.00     0.082 C 
HETATM   11  C16 UNL     1      60.877   3.180   4.584  1.00  0.00     0.089 C 
HETATM   12  C18 UNL     1      59.853   3.802   3.700  1.00  0.00     0.064 C 
HETATM   13  C21 UNL     1      58.469   3.277   3.496  1.00  0.00     0.023 C 
HETATM   14  C22 UNL     1      58.385   1.771   3.242  1.00  0.00     0.023 C 
HETATM   15  C23 UNL     1      57.289   1.583   2.192  1.00  0.00     0.013 C 
HETATM   16  C24 UNL     1      57.988   1.065   4.530  1.00  0.00     0.077 C 
HETATM   17  C25 UNL     1      57.395   2.185   5.396  1.00  0.00     0.030 A 
HETATM   18  C26 UNL     1      58.587   2.580   6.480  1.00  0.00     0.071 A 
HETATM   19  C28 UNL     1      57.634   3.279   4.815  1.00  0.00    -0.002 A 
ENDROOT
BRANCH   1  20
HETATM   20  O1  UNL     1      60.800   5.964   4.318  1.00  0.00    -0.350 OA
BRANCH  20  21
HETATM   21  C3  UNL     1      60.736   7.349   4.381  1.00  0.00     0.039 C 
HETATM   22  C2  UNL     1      59.678   7.937   3.846  1.00  0.00     0.001 C 
HETATM   23  C1  UNL     1      59.589   9.411   3.900  1.00  0.00     0.038 C 
HETATM   24  C4  UNL     1      61.771   8.205   5.004  1.00  0.00     0.076 C 
ENDBRANCH  20  21
ENDBRANCH   1  20
BRANCH  12  25
HETATM   25  C19 UNL     1      60.409   3.908   2.298  1.00  0.00     0.186 C 
BRANCH  25  26
HETATM   26  O6  UNL     1      59.710   4.631   1.401  1.00  0.00    -0.395 OA
HETATM   27  C20 UNL     1      60.546   5.543   0.768  1.00  0.00     0.201 C 
ENDBRANCH  25  26
ENDBRANCH  12  25
BRANCH  11  28
HETATM   28  O5  UNL     1      62.125   3.657   4.243  1.00  0.00    -0.357 OA
HETATM   29  C17 UNL     1      63.181   3.031   3.605  1.00  0.00     0.209 C 
ENDBRANCH  11  28
BRANCH  18  30
HETATM   30  C27 UNL     1      58.386   3.143   7.787  1.00  0.00     0.184 C 
HETATM   31  O8  UNL     1      57.480   3.875   8.198  1.00  0.00    -0.647 OA
HETATM   32  O9  UNL     1      59.329   2.839   8.724  1.00  0.00    -0.647 OA
ENDBRANCH  18  30
BRANCH  10  33
HETATM   33  O4  UNL     1      62.092   1.982   6.165  1.00  0.00    -0.357 OA
HETATM   34  C15 UNL     1      62.318   1.023   7.152  1.00  0.00     0.209 C 
ENDBRANCH  10  33
BRANCH  16  35
HETATM   35  O7  UNL     1      57.062   0.145   4.202  1.00  0.00    -0.388 OA
ATOM     36  H7  UNL     1      56.353   0.505   3.681  1.00  0.00     0.210 HD
ENDBRANCH  16  35
BRANCH   7  37
HETATM   37  C11 UNL     1      59.590  -1.375   6.817  1.00  0.00     0.169 C 
BRANCH  37  38
HETATM   38  O3  UNL     1      59.299  -1.173   8.187  1.00  0.00    -0.400 OA
ATOM     39  H3  UNL     1      60.109  -1.291   8.671  1.00  0.00     0.209 HD
ENDBRANCH  37  38
ENDBRANCH   7  37
TORSDOF 10
ENDMDL
MODEL 4
REMARK VINA RESULT: -5.481308201      2.318      5.126
REMARK  10 active torsions:
REMARK  status: ('A' for Active; 'I' for Inactive)
REMARK    1  A    between atoms: C3_3  and  O1_5 
REMARK    2  A    between atoms: O1_5  and  C5_6 
REMARK    3  A    between atoms: C10_12  and  C11_13 
REMARK    4  A    between atoms: C11_13  and  O3_14 
REMARK    5  A    between atoms: C14_18  and  O4_19 
REMARK    6  A    between atoms: C16_21  and  O5_22 
REMARK    7  A    between atoms: C18_24  and  C19_25 
REMARK    8  A    between atoms: C19_25  and  O6_26 
REMARK    9  A    between atoms: C24_31  and  O7_32 
REMARK   10  A    between atoms: C26_35  and  C27_36 
ROOT
HETATM    1  C5  UNL     1      58.324   2.459   8.531  1.00  0.00     0.147 C 
HETATM    2  C6  UNL     1      58.331   3.522   7.391  1.00  0.00     0.046 C 
HETATM    3  C7  UNL     1      59.508   3.388   6.619  1.00  0.00     0.001 A 
HETATM    4  C8  UNL     1      60.092   2.789   5.654  1.00  0.00     0.011 A 
HETATM    5  O2  UNL     1      60.755   3.245   4.438  1.00  0.00     0.000 OA
HETATM    6  C9  UNL     1      61.094   2.759   3.341  1.00  0.00     0.007 C 
HETATM    7  C10 UNL     1      60.705   1.382   2.967  1.00  0.00     0.017 C 
HETATM    8  C12 UNL     1      60.010   1.058   4.205  1.00  0.00     0.039 C 
HETATM    9  C13 UNL     1      58.899   2.125   4.495  1.00  0.00     0.073 C 
HETATM   10  C14 UNL     1      57.773   1.491   5.308  1.00  0.00     0.082 C 
HETATM   11  C16 UNL     1      57.817   1.149   6.631  1.00  0.00     0.089 C 
HETATM   12  C18 UNL     1      58.787   1.202   7.759  1.00  0.00     0.064 C 
HETATM   13  C21 UNL     1      60.263   1.373   7.608  1.00  0.00     0.023 C 
HETATM   14  C22 UNL     1      60.906   0.484   6.542  1.00  0.00     0.023 C 
HETATM   15  C23 UNL     1      62.255   0.048   7.117  1.00  0.00     0.013 C 
HETATM   16  C24 UNL     1      61.128   1.297   5.276  1.00  0.00     0.077 C 
HETATM   17  C25 UNL     1      61.046   2.753   5.754  1.00  0.00     0.030 A 
HETATM   18  C26 UNL     1      59.533   3.276   5.316  1.00  0.00     0.071 A 
HETATM   19  C28 UNL     1      60.637   2.737   6.947  1.00  0.00    -0.002 A 
ENDROOT
BRANCH   1  20
HETATM   20  O1  UNL     1      57.047   2.325   9.050  1.00  0.00    -0.350 OA
BRANCH  20  21
HETATM   21  C3  UNL     1      56.688   2.930  10.247  1.00  0.00     0.039 C 
HETATM   22  C2  UNL     1      55.511   3.533  10.298  1.00  0.00     0.001 C 
HETATM   23  C1  UNL     1      55.107   4.185  11.560  1.00  0.00     0.038 C 
HETATM   24  C4  UNL     1      57.534   2.945  11.462  1.00  0.00     0.076 C 
ENDBRANCH  20  21
ENDBRANCH   1  20
BRANCH  12  25
HETATM   25  C19 UNL     1      58.652  -0.055   8.587  1.00  0.00     0.186 C 
BRANCH  25  26
HETATM   26  O6  UNL     1      59.124  -0.028   9.848  1.00  0.00    -0.395 OA
HETATM   27  C20 UNL     1      58.205  -0.607  10.715  1.00  0.00     0.201 C 
ENDBRANCH  25  26
ENDBRANCH  12  25
BRANCH  11  28
HETATM   28  O5  UNL     1      56.633   0.594   7.071  1.00  0.00    -0.357 OA
HETATM   29  C17 UNL     1      55.935  -0.510   6.614  1.00  0.00     0.209 C 
ENDBRANCH  11  28
BRANCH  18  30
HETATM   30  C27 UNL     1      59.156   4.636   5.045  1.00  0.00     0.184 C 
HETATM   31  O8  UNL     1      59.700   5.688   5.395  1.00  0.00    -0.647 OA
HETATM   32  O9  UNL     1      58.030   4.809   4.297  1.00  0.00    -0.647 OA
ENDBRANCH  18  30
BRANCH  10  33
HETATM   33  O4  UNL     1      56.665   1.270   4.614  1.00  0.00    -0.357 OA
HETATM   34  C15 UNL     1      56.420   1.668   3.300  1.00  0.00     0.209 C 
ENDBRANCH  10  33
BRANCH  16  35
HETATM   35  O7  UNL     1      62.357   0.989   4.824  1.00  0.00    -0.388 OA
ATOM     36  H7  UNL     1      62.648   0.129   5.103  1.00  0.00     0.210 HD
ENDBRANCH  16  35
BRANCH   7  37
HETATM   37  C11 UNL     1      59.834   1.197   1.802  1.00  0.00     0.169 C 
BRANCH  37  38
HETATM   38  O3  UNL     1      59.778   2.432   1.113  1.00  0.00    -0.400 OA
ATOM     39  H3  UNL     1      60.061   2.273   0.220  1.00  0.00     0.209 HD
ENDBRANCH  37  38
ENDBRANCH   7  37
TORSDOF 10
ENDMDL
MODEL 5
REMARK VINA RESULT: -5.470629549      1.977      4.169
REMARK  10 active torsions:
REMARK  status: ('A' for Active; 'I' for Inactive)
REMARK    1  A    between atoms: C3_3  and  O1_5 
REMARK    2  A    between atoms: O1_5  and  C5_6 
REMARK    3  A    between atoms: C10_12  and  C11_13 
REMARK    4  A    between atoms: C11_13  and  O3_14 
REMARK    5  A    between atoms: C14_18  and  O4_19 
REMARK    6  A    between atoms: C16_21  and  O5_22 
REMARK    7  A    between atoms: C18_24  and  C19_25 
REMARK    8  A    between atoms: C19_25  and  O6_26 
REMARK    9  A    between atoms: C24_31  and  O7_32 
REMARK   10  A    between atoms: C26_35  and  C27_36 
ROOT
HETATM    1  C5  UNL     1      60.110   7.046   4.181  1.00  0.00     0.147 C 
HETATM    2  C6  UNL     1      59.672   6.144   5.375  1.00  0.00     0.046 C 
HETATM    3  C7  UNL     1      58.726   5.191   4.932  1.00  0.00     0.001 A 
HETATM    4  C8  UNL     1      58.529   4.051   4.390  1.00  0.00     0.011 A 
HETATM    5  O2  UNL     1      57.790   2.859   4.790  1.00  0.00     0.000 OA
HETATM    6  C9  UNL     1      57.765   1.650   4.485  1.00  0.00     0.007 C 
HETATM    7  C10 UNL     1      58.759   1.082   3.549  1.00  0.00     0.017 C 
HETATM    8  C12 UNL     1      59.465   2.326   3.272  1.00  0.00     0.039 C 
HETATM    9  C13 UNL     1      59.948   2.982   4.612  1.00  0.00     0.073 C 
HETATM   10  C14 UNL     1      61.198   3.819   4.356  1.00  0.00     0.082 C 
HETATM   11  C16 UNL     1      61.252   5.029   3.722  1.00  0.00     0.089 C 
HETATM   12  C18 UNL     1      60.312   5.985   3.075  1.00  0.00     0.064 C 
HETATM   13  C21 UNL     1      58.931   5.647   2.617  1.00  0.00     0.023 C 
HETATM   14  C22 UNL     1      58.820   4.345   1.822  1.00  0.00     0.023 C 
HETATM   15  C23 UNL     1      57.795   4.613   0.719  1.00  0.00     0.013 C 
HETATM   16  C24 UNL     1      58.311   3.240   2.736  1.00  0.00     0.077 C 
HETATM   17  C25 UNL     1      57.694   3.996   3.920  1.00  0.00     0.030 A 
HETATM   18  C26 UNL     1      58.818   3.902   5.137  1.00  0.00     0.071 A 
HETATM   19  C28 UNL     1      58.006   5.212   3.797  1.00  0.00    -0.002 A 
ENDROOT
BRANCH   1  20
HETATM   20  O1  UNL     1      61.279   7.718   4.496  1.00  0.00    -0.350 OA
BRANCH  20  21
HETATM   21  C3  UNL     1      61.328   9.105   4.525  1.00  0.00     0.039 C 
HETATM   22  C2  UNL     1      62.512   9.670   4.699  1.00  0.00     0.001 C 
HETATM   23  C1  UNL     1      62.589  11.145   4.735  1.00  0.00     0.038 C 
HETATM   24  C4  UNL     1      60.148   9.985   4.376  1.00  0.00     0.076 C 
ENDBRANCH  20  21
ENDBRANCH   1  20
BRANCH  12  25
HETATM   25  C19 UNL     1      60.969   6.567   1.843  1.00  0.00     0.186 C 
BRANCH  25  26
HETATM   26  O6  UNL     1      60.384   7.635   1.268  1.00  0.00    -0.395 OA
HETATM   27  C20 UNL     1      61.348   8.569   0.906  1.00  0.00     0.201 C 
ENDBRANCH  25  26
ENDBRANCH  12  25
BRANCH  11  28
HETATM   28  O5  UNL     1      62.536   5.530   3.649  1.00  0.00    -0.357 OA
HETATM   29  C17 UNL     1      63.618   5.117   2.892  1.00  0.00     0.209 C 
ENDBRANCH  11  28
BRANCH  18  30
HETATM   30  C27 UNL     1      58.542   3.959   6.546  1.00  0.00     0.184 C 
HETATM   31  O8  UNL     1      57.640   4.549   7.149  1.00  0.00    -0.647 OA
HETATM   32  O9  UNL     1      59.398   3.269   7.353  1.00  0.00    -0.647 OA
ENDBRANCH  18  30
BRANCH  10  33
HETATM   33  O4  UNL     1      62.317   3.272   4.814  1.00  0.00    -0.357 OA
HETATM   34  C15 UNL     1      62.410   2.163   5.654  1.00  0.00     0.209 C 
ENDBRANCH  10  33
BRANCH  16  35
HETATM   35  O7  UNL     1      57.383   2.555   2.042  1.00  0.00    -0.388 OA
ATOM     36  H7  UNL     1      56.910   3.099   1.424  1.00  0.00     0.210 HD
ENDBRANCH  16  35
BRANCH   7  37
HETATM   37  C11 UNL     1      59.674   0.050   4.047  1.00  0.00     0.169 C 
BRANCH  37  38
HETATM   38  O3  UNL     1      59.194  -0.367   5.311  1.00  0.00    -0.400 OA
ATOM     39  H3  UNL     1      58.876  -1.258   5.216  1.00  0.00     0.209 HD
ENDBRANCH  37  38
ENDBRANCH   7  37
TORSDOF 10
ENDMDL
