MODEL 1
REMARK VINA RESULT: -6.347016613      0.000      0.000
REMARK  7 active torsions:
REMARK  status: ('A' for Active; 'I' for Inactive)
REMARK    1  A    between atoms: C2_2  and  C3_3 
REMARK    2  A    between atoms: C7_7  and  O1_8 
REMARK    3  A    between atoms: C8_11  and  O3_12 
REMARK    4  A    between atoms: C10_15  and  O4_16 
REMARK    5  A    between atoms: C16_23  and  O6_24 
REMARK    6  A    between atoms: C18_26  and  C19_27 
REMARK    7  A    between atoms: C21_29  and  C22_30 
ROOT
HETATM    1  C3  UNL     1      86.033  45.113 268.310  1.00  0.00    -0.022 C 
HETATM    2  C4  UNL     1      85.479  46.558 268.504  1.00  0.00     0.020 C 
HETATM    3  C5  UNL     1      86.257  45.016 266.868  1.00  0.00     0.057 C 
HETATM    4  C6  UNL     1      87.542  45.580 266.422  1.00  0.00     0.018 A 
HETATM    5  C7  UNL     1      87.655  46.371 265.296  1.00  0.00     0.192 A 
HETATM    6  O2  UNL     1      88.899  46.687 265.201  1.00  0.00    -0.264 OA
HETATM    7  C8  UNL     1      89.613  46.175 266.164  1.00  0.00     0.198 A 
HETATM    8  C9  UNL     1      88.779  45.446 266.987  1.00  0.00     0.074 A 
HETATM    9  C10 UNL     1      89.345  44.746 268.170  1.00  0.00     0.209 C 
HETATM   10  O5  UNL     1      90.034  43.660 267.488  1.00  0.00    -0.349 OA
HETATM   11  C12 UNL     1      88.989  42.718 267.291  1.00  0.00     0.183 C 
HETATM   12  C13 UNL     1      88.435  42.696 268.562  1.00  0.00     0.005 C 
HETATM   13  C14 UNL     1      87.191  42.190 269.105  1.00  0.00     0.016 C 
HETATM   14  C15 UNL     1      87.247  42.674 270.361  1.00  0.00     0.040 C 
HETATM   15  C16 UNL     1      88.603  43.426 270.310  1.00  0.00     0.079 C 
HETATM   16  C18 UNL     1      89.345  42.283 269.662  1.00  0.00     0.042 C 
HETATM   17  C27 UNL     1      88.343  44.129 269.034  1.00  0.00     0.064 C 
HETATM   18  C28 UNL     1      87.128  44.900 269.238  1.00  0.00     0.032 C 
ENDROOT
BRANCH  16  19
HETATM   19  C19 UNL     1      90.780  42.176 269.710  1.00  0.00     0.040 C 
HETATM   20  C20 UNL     1      91.165  42.340 271.150  1.00  0.00    -0.014 C 
HETATM   21  C21 UNL     1      91.498  41.333 271.936  1.00  0.00    -0.056 C 
HETATM   22  C25 UNL     1      91.513  39.969 271.324  1.00  0.00     0.202 C 
HETATM   23  O7  UNL     1      92.186  40.205 270.090  1.00  0.00    -0.386 OA
HETATM   24  C26 UNL     1      91.220  40.790 269.299  1.00  0.00     0.177 C 
BRANCH  21  25
HETATM   25  C22 UNL     1      91.882  41.438 273.363  1.00  0.00     0.008 C 
HETATM   26  C23 UNL     1      93.030  40.509 273.616  1.00  0.00     0.014 C 
HETATM   27  C24 UNL     1      92.149  42.846 273.795  1.00  0.00     0.014 C 
ENDBRANCH  21  25
ENDBRANCH  16  19
BRANCH  15  28
HETATM   28  O6  UNL     1      89.116  43.831 271.402  1.00  0.00    -0.384 OA
HETATM   29  C17 UNL     1      88.644  43.839 272.635  1.00  0.00     0.202 C 
ENDBRANCH  15  28
BRANCH   9  30
HETATM   30  O4  UNL     1      90.284  45.571 268.673  1.00  0.00    -0.355 OA
HETATM   31  C11 UNL     1      91.499  45.272 269.041  1.00  0.00     0.206 C 
ENDBRANCH   9  30
BRANCH   1  32
HETATM   32  C2  UNL     1      84.770  44.332 268.628  1.00  0.00    -0.027 C 
HETATM   33  C1  UNL     1      84.128  43.622 267.746  1.00  0.00     0.007 C 
ENDBRANCH   1  32
BRANCH   7  34
HETATM   34  O3  UNL     1      90.992  46.374 266.280  1.00  0.00    -0.340 OA
ATOM     35  H3  UNL     1      91.497  46.078 267.029  1.00  0.00     0.220 HD
ENDBRANCH   7  34
BRANCH   5  36
HETATM   36  O1  UNL     1      86.568  46.701 264.490  1.00  0.00    -0.340 OA
ATOM     37  H1  UNL     1      86.286  47.596 264.342  1.00  0.00     0.220 HD
ENDBRANCH   5  36
TORSDOF 7
ENDMDL
MODEL 2
REMARK VINA RESULT: -6.087210408      4.142      8.083
REMARK  7 active torsions:
REMARK  status: ('A' for Active; 'I' for Inactive)
REMARK    1  A    between atoms: C2_2  and  C3_3 
REMARK    2  A    between atoms: C7_7  and  O1_8 
REMARK    3  A    between atoms: C8_11  and  O3_12 
REMARK    4  A    between atoms: C10_15  and  O4_16 
REMARK    5  A    between atoms: C16_23  and  O6_24 
REMARK    6  A    between atoms: C18_26  and  C19_27 
REMARK    7  A    between atoms: C21_29  and  C22_30 
ROOT
HETATM    1  C3  UNL     1      86.646  43.482 268.825  1.00  0.00    -0.022 C 
HETATM    2  C4  UNL     1      87.733  43.042 267.797  1.00  0.00     0.020 C 
HETATM    3  C5  UNL     1      86.700  44.943 268.786  1.00  0.00     0.057 C 
HETATM    4  C6  UNL     1      85.921  45.542 267.688  1.00  0.00     0.018 A 
HETATM    5  C7  UNL     1      86.404  46.579 266.916  1.00  0.00     0.192 A 
HETATM    6  O2  UNL     1      85.478  46.854 266.064  1.00  0.00    -0.264 OA
HETATM    7  C8  UNL     1      84.432  46.090 266.208  1.00  0.00     0.198 A 
HETATM    8  C9  UNL     1      84.668  45.218 267.251  1.00  0.00     0.074 A 
HETATM    9  C10 UNL     1      83.623  44.232 267.634  1.00  0.00     0.209 C 
HETATM   10  O5  UNL     1      82.676  45.136 268.273  1.00  0.00    -0.349 OA
HETATM   11  C12 UNL     1      83.208  45.248 269.585  1.00  0.00     0.183 C 
HETATM   12  C13 UNL     1      83.424  43.910 269.878  1.00  0.00     0.005 C 
HETATM   13  C14 UNL     1      84.173  43.217 270.906  1.00  0.00     0.016 C 
HETATM   14  C15 UNL     1      84.085  41.946 270.471  1.00  0.00     0.040 C 
HETATM   15  C16 UNL     1      83.247  42.150 269.181  1.00  0.00     0.079 C 
HETATM   16  C18 UNL     1      82.223  43.035 269.847  1.00  0.00     0.042 C 
HETATM   17  C27 UNL     1      84.046  43.279 268.654  1.00  0.00     0.064 C 
HETATM   18  C28 UNL     1      85.408  42.786 268.528  1.00  0.00     0.032 C 
ENDROOT
BRANCH  16  19
HETATM   19  C19 UNL     1      80.914  43.249 269.286  1.00  0.00     0.040 C 
HETATM   20  C20 UNL     1      80.233  41.913 269.292  1.00  0.00    -0.014 C 
HETATM   21  C21 UNL     1      79.320  41.562 270.179  1.00  0.00    -0.056 C 
HETATM   22  C25 UNL     1      78.940  42.583 271.204  1.00  0.00     0.202 C 
HETATM   23  O7  UNL     1      78.798  43.759 270.412  1.00  0.00    -0.386 OA
HETATM   24  C26 UNL     1      80.099  44.155 270.179  1.00  0.00     0.177 C 
BRANCH  21  25
HETATM   25  C22 UNL     1      78.619  40.258 270.232  1.00  0.00     0.008 C 
HETATM   26  C23 UNL     1      77.239  40.437 269.678  1.00  0.00     0.014 C 
HETATM   27  C24 UNL     1      79.387  39.154 269.575  1.00  0.00     0.014 C 
ENDBRANCH  21  25
ENDBRANCH  16  19
BRANCH  15  28
HETATM   28  O6  UNL     1      82.759  41.126 268.604  1.00  0.00    -0.384 OA
HETATM   29  C17 UNL     1      83.155  39.867 268.583  1.00  0.00     0.202 C 
ENDBRANCH  15  28
BRANCH   9  30
HETATM   30  O4  UNL     1      83.069  43.814 266.479  1.00  0.00    -0.355 OA
HETATM   31  C11 UNL     1      81.850  43.395 266.280  1.00  0.00     0.206 C 
ENDBRANCH   9  30
BRANCH   1  32
HETATM   32  C2  UNL     1      87.335  43.036 270.103  1.00  0.00    -0.027 C 
HETATM   33  C1  UNL     1      88.401  43.613 270.579  1.00  0.00     0.007 C 
ENDBRANCH   1  32
BRANCH   7  34
HETATM   34  O3  UNL     1      83.295  46.194 265.402  1.00  0.00    -0.340 OA
ATOM     35  H3  UNL     1      82.414  46.256 265.754  1.00  0.00     0.220 HD
ENDBRANCH   7  34
BRANCH   5  36
HETATM   36  O1  UNL     1      87.662  47.145 267.107  1.00  0.00    -0.340 OA
ATOM     37  H1  UNL     1      87.865  47.723 267.833  1.00  0.00     0.220 HD
ENDBRANCH   5  36
TORSDOF 7
ENDMDL
MODEL 3
REMARK VINA RESULT: -5.879044482      1.245      1.551
REMARK  7 active torsions:
REMARK  status: ('A' for Active; 'I' for Inactive)
REMARK    1  A    between atoms: C2_2  and  C3_3 
REMARK    2  A    between atoms: C7_7  and  O1_8 
REMARK    3  A    between atoms: C8_11  and  O3_12 
REMARK    4  A    between atoms: C10_15  and  O4_16 
REMARK    5  A    between atoms: C16_23  and  O6_24 
REMARK    6  A    between atoms: C18_26  and  C19_27 
REMARK    7  A    between atoms: C21_29  and  C22_30 
ROOT
HETATM    1  C3  UNL     1      87.013  45.441 267.674  1.00  0.00    -0.022 C 
HETATM    2  C4  UNL     1      86.579  46.930 267.836  1.00  0.00     0.020 C 
HETATM    3  C5  UNL     1      87.761  45.430 266.417  1.00  0.00     0.057 C 
HETATM    4  C6  UNL     1      89.169  45.838 266.555  1.00  0.00     0.018 A 
HETATM    5  C7  UNL     1      89.786  46.693 265.663  1.00  0.00     0.192 A 
HETATM    6  O2  UNL     1      90.997  46.831 266.076  1.00  0.00    -0.264 OA
HETATM    7  C8  UNL     1      91.231  46.145 267.160  1.00  0.00     0.198 A 
HETATM    8  C9  UNL     1      90.075  45.480 267.514  1.00  0.00     0.074 A 
HETATM    9  C10 UNL     1      90.069  44.611 268.721  1.00  0.00     0.209 C 
HETATM   10  O5  UNL     1      90.851  43.496 268.206  1.00  0.00    -0.349 OA
HETATM   11  C12 UNL     1      89.870  42.735 267.517  1.00  0.00     0.183 C 
HETATM   12  C13 UNL     1      88.873  42.690 268.478  1.00  0.00     0.005 C 
HETATM   13  C14 UNL     1      87.470  42.327 268.453  1.00  0.00     0.016 C 
HETATM   14  C15 UNL     1      87.090  42.694 269.692  1.00  0.00     0.040 C 
HETATM   15  C16 UNL     1      88.433  43.243 270.244  1.00  0.00     0.079 C 
HETATM   16  C18 UNL     1      89.244  42.061 269.773  1.00  0.00     0.042 C 
HETATM   17  C27 UNL     1      88.755  44.078 269.065  1.00  0.00     0.064 C 
HETATM   18  C28 UNL     1      87.641  44.998 268.905  1.00  0.00     0.032 C 
ENDROOT
BRANCH  16  19
HETATM   19  C19 UNL     1      90.532  41.744 270.333  1.00  0.00     0.040 C 
HETATM   20  C20 UNL     1      90.283  41.344 271.756  1.00  0.00    -0.014 C 
HETATM   21  C21 UNL     1      90.277  40.091 272.173  1.00  0.00    -0.056 C 
HETATM   22  C25 UNL     1      90.568  39.035 271.155  1.00  0.00     0.202 C 
HETATM   23  O7  UNL     1      91.687  39.587 270.466  1.00  0.00    -0.386 OA
HETATM   24  C26 UNL     1      91.125  40.539 269.641  1.00  0.00     0.177 C 
BRANCH  21  25
HETATM   25  C22 UNL     1      90.034  39.642 273.563  1.00  0.00     0.008 C 
HETATM   26  C23 UNL     1      91.341  39.216 274.160  1.00  0.00     0.014 C 
HETATM   27  C24 UNL     1      89.305  40.656 274.388  1.00  0.00     0.014 C 
ENDBRANCH  21  25
ENDBRANCH  16  19
BRANCH  15  28
HETATM   28  O6  UNL     1      88.527  43.480 271.491  1.00  0.00    -0.384 OA
HETATM   29  C17 UNL     1      87.628  43.430 272.457  1.00  0.00     0.202 C 
ENDBRANCH  15  28
BRANCH   9  30
HETATM   30  O4  UNL     1      90.823  45.248 269.638  1.00  0.00    -0.355 OA
HETATM   31  C11 UNL     1      91.646  44.723 270.502  1.00  0.00     0.206 C 
ENDBRANCH   9  30
BRANCH   1  32
HETATM   32  C2  UNL     1      85.651  44.828 267.399  1.00  0.00    -0.027 C 
HETATM   33  C1  UNL     1      84.605  45.046 268.143  1.00  0.00     0.007 C 
ENDBRANCH   1  32
BRANCH   7  34
HETATM   34  O3  UNL     1      92.473  46.132 267.802  1.00  0.00    -0.340 OA
ATOM     35  H3  UNL     1      93.280  45.888 267.363  1.00  0.00     0.220 HD
ENDBRANCH   7  34
BRANCH   5  36
HETATM   36  O1  UNL     1      89.131  47.241 264.563  1.00  0.00    -0.340 OA
ATOM     37  H1  UNL     1      88.259  47.615 264.613  1.00  0.00     0.220 HD
ENDBRANCH   5  36
TORSDOF 7
ENDMDL
MODEL 4
REMARK VINA RESULT: -5.816546218      4.487      7.704
REMARK  7 active torsions:
REMARK  status: ('A' for Active; 'I' for Inactive)
REMARK    1  A    between atoms: C2_2  and  C3_3 
REMARK    2  A    between atoms: C7_7  and  O1_8 
REMARK    3  A    between atoms: C8_11  and  O3_12 
REMARK    4  A    between atoms: C10_15  and  O4_16 
REMARK    5  A    between atoms: C16_23  and  O6_24 
REMARK    6  A    between atoms: C18_26  and  C19_27 
REMARK    7  A    between atoms: C21_29  and  C22_30 
ROOT
HETATM    1  C3  UNL     1      80.194  43.024 269.318  1.00  0.00    -0.022 C 
HETATM    2  C4  UNL     1      78.863  42.885 268.519  1.00  0.00     0.020 C 
HETATM    3  C5  UNL     1      80.285  41.771 270.067  1.00  0.00     0.057 C 
HETATM    4  C6  UNL     1      80.851  40.652 269.295  1.00  0.00     0.018 A 
HETATM    5  C7  UNL     1      80.316  39.380 269.330  1.00  0.00     0.192 A 
HETATM    6  O2  UNL     1      81.047  38.660 268.552  1.00  0.00    -0.264 OA
HETATM    7  C8  UNL     1      82.013  39.346 268.009  1.00  0.00     0.198 A 
HETATM    8  C9  UNL     1      81.932  40.648 268.459  1.00  0.00     0.074 A 
HETATM    9  C10 UNL     1      82.928  41.648 267.994  1.00  0.00     0.209 C 
HETATM   10  O5  UNL     1      84.084  41.193 268.754  1.00  0.00    -0.349 OA
HETATM   11  C12 UNL     1      83.879  41.818 270.013  1.00  0.00     0.183 C 
HETATM   12  C13 UNL     1      83.598  43.112 269.603  1.00  0.00     0.005 C 
HETATM   13  C14 UNL     1      83.035  44.273 270.261  1.00  0.00     0.016 C 
HETATM   14  C15 UNL     1      82.889  45.111 269.218  1.00  0.00     0.040 C 
HETATM   15  C16 UNL     1      83.428  44.220 268.067  1.00  0.00     0.079 C 
HETATM   16  C18 UNL     1      84.663  43.793 268.821  1.00  0.00     0.042 C 
HETATM   17  C27 UNL     1      82.652  43.013 268.429  1.00  0.00     0.064 C 
HETATM   18  C28 UNL     1      81.254  43.410 268.404  1.00  0.00     0.032 C 
ENDROOT
BRANCH  16  19
HETATM   19  C19 UNL     1      85.825  43.267 268.152  1.00  0.00     0.040 C 
HETATM   20  C20 UNL     1      86.490  44.435 267.488  1.00  0.00    -0.014 C 
HETATM   21  C21 UNL     1      87.569  45.029 267.964  1.00  0.00    -0.056 C 
HETATM   22  C25 UNL     1      88.157  44.467 269.218  1.00  0.00     0.202 C 
HETATM   23  O7  UNL     1      88.131  43.066 268.957  1.00  0.00    -0.386 OA
HETATM   24  C26 UNL     1      86.811  42.721 269.159  1.00  0.00     0.177 C 
BRANCH  21  25
HETATM   25  C22 UNL     1      88.263  46.185 267.351  1.00  0.00     0.008 C 
HETATM   26  C23 UNL     1      89.736  45.908 267.348  1.00  0.00     0.014 C 
HETATM   27  C24 UNL     1      87.723  46.545 266.003  1.00  0.00     0.014 C 
ENDBRANCH  21  25
ENDBRANCH  16  19
BRANCH  15  28
HETATM   28  O6  UNL     1      83.664  44.759 266.938  1.00  0.00    -0.384 OA
HETATM   29  C17 UNL     1      83.268  45.909 266.423  1.00  0.00     0.202 C 
ENDBRANCH  15  28
BRANCH   9  30
HETATM   30  O4  UNL     1      83.159  41.365 266.697  1.00  0.00    -0.355 OA
HETATM   31  C11 UNL     1      82.421  41.674 265.667  1.00  0.00     0.206 C 
ENDBRANCH   9  30
BRANCH   1  32
HETATM   32  C2  UNL     1      79.772  44.108 270.294  1.00  0.00    -0.027 C 
HETATM   33  C1  UNL     1      78.617  44.117 270.896  1.00  0.00     0.007 C 
ENDBRANCH   1  32
BRANCH   7  34
HETATM   34  O3  UNL     1      82.942  38.787 267.126  1.00  0.00    -0.340 OA
ATOM     35  H3  UNL     1      83.808  38.505 267.395  1.00  0.00     0.220 HD
ENDBRANCH   7  34
BRANCH   5  36
HETATM   36  O1  UNL     1      79.200  39.048 270.095  1.00  0.00    -0.340 OA
ATOM     37  H1  UNL     1      79.257  38.771 271.002  1.00  0.00     0.220 HD
ENDBRANCH   5  36
TORSDOF 7
ENDMDL
MODEL 5
REMARK VINA RESULT: -5.794309038      3.420      7.535
REMARK  7 active torsions:
REMARK  status: ('A' for Active; 'I' for Inactive)
REMARK    1  A    between atoms: C2_2  and  C3_3 
REMARK    2  A    between atoms: C7_7  and  O1_8 
REMARK    3  A    between atoms: C8_11  and  O3_12 
REMARK    4  A    between atoms: C10_15  and  O4_16 
REMARK    5  A    between atoms: C16_23  and  O6_24 
REMARK    6  A    between atoms: C18_26  and  C19_27 
REMARK    7  A    between atoms: C21_29  and  C22_30 
ROOT
HETATM    1  C3  UNL     1      87.029  45.716 267.133  1.00  0.00    -0.022 C 
HETATM    2  C4  UNL     1      88.254  46.539 267.636  1.00  0.00     0.020 C 
HETATM    3  C5  UNL     1      87.622  44.474 266.638  1.00  0.00     0.057 C 
HETATM    4  C6  UNL     1      87.877  43.473 267.687  1.00  0.00     0.018 A 
HETATM    5  C7  UNL     1      89.047  42.742 267.747  1.00  0.00     0.192 A 
HETATM    6  O2  UNL     1      88.938  41.971 268.772  1.00  0.00    -0.264 OA
HETATM    7  C8  UNL     1      87.802  42.131 269.391  1.00  0.00     0.198 A 
HETATM    8  C9  UNL     1      87.074  43.097 268.727  1.00  0.00     0.074 A 
HETATM    9  C10 UNL     1      85.724  43.471 269.225  1.00  0.00     0.209 C 
HETATM   10  O5  UNL     1      84.990  42.281 268.818  1.00  0.00    -0.349 OA
HETATM   11  C12 UNL     1      84.689  42.565 267.459  1.00  0.00     0.183 C 
HETATM   12  C13 UNL     1      84.198  43.856 267.580  1.00  0.00     0.005 C 
HETATM   13  C14 UNL     1      83.926  44.918 266.634  1.00  0.00     0.016 C 
HETATM   14  C15 UNL     1      83.643  45.936 267.469  1.00  0.00     0.040 C 
HETATM   15  C16 UNL     1      83.819  45.229 268.839  1.00  0.00     0.079 C 
HETATM   16  C18 UNL     1      83.005  44.020 268.451  1.00  0.00     0.042 C 
HETATM   17  C27 UNL     1      85.119  44.597 268.522  1.00  0.00     0.064 C 
HETATM   18  C28 UNL     1      86.023  45.682 268.178  1.00  0.00     0.032 C 
ENDROOT
BRANCH  16  19
HETATM   19  C19 UNL     1      82.425  43.139 269.433  1.00  0.00     0.040 C 
HETATM   20  C20 UNL     1      81.213  43.845 269.963  1.00  0.00    -0.014 C 
HETATM   21  C21 UNL     1      79.978  43.548 269.601  1.00  0.00    -0.056 C 
HETATM   22  C25 UNL     1      79.806  42.422 268.633  1.00  0.00     0.202 C 
HETATM   23  O7  UNL     1      80.685  41.435 269.165  1.00  0.00    -0.386 OA
HETATM   24  C26 UNL     1      81.935  41.869 268.778  1.00  0.00     0.177 C 
BRANCH  21  25
HETATM   25  C22 UNL     1      78.749  44.213 270.091  1.00  0.00     0.008 C 
HETATM   26  C23 UNL     1      77.705  44.133 269.018  1.00  0.00     0.014 C 
HETATM   27  C24 UNL     1      78.285  43.686 271.413  1.00  0.00     0.014 C 
ENDBRANCH  21  25
ENDBRANCH  16  19
BRANCH  15  28
HETATM   28  O6  UNL     1      83.408  45.823 269.888  1.00  0.00    -0.384 OA
HETATM   29  C17 UNL     1      83.241  47.106 270.153  1.00  0.00     0.202 C 
ENDBRANCH  15  28
BRANCH   9  30
HETATM   30  O4  UNL     1      85.809  43.455 270.570  1.00  0.00    -0.355 OA
HETATM   31  C11 UNL     1      84.996  42.889 271.417  1.00  0.00     0.206 C 
ENDBRANCH   9  30
BRANCH   1  32
HETATM   32  C2  UNL     1      86.661  46.558 265.924  1.00  0.00    -0.027 C 
HETATM   33  C1  UNL     1      87.115  46.325 264.726  1.00  0.00     0.007 C 
ENDBRANCH   1  32
BRANCH   7  34
HETATM   34  O3  UNL     1      87.447  41.408 270.534  1.00  0.00    -0.340 OA
ATOM     35  H3  UNL     1      87.888  40.609 270.800  1.00  0.00     0.220 HD
ENDBRANCH   7  34
BRANCH   5  36
HETATM   36  O1  UNL     1      90.081  42.888 266.825  1.00  0.00    -0.340 OA
ATOM     37  H1  UNL     1      90.896  42.403 266.880  1.00  0.00     0.220 HD
ENDBRANCH   5  36
TORSDOF 7
ENDMDL
