MODEL 1
REMARK VINA RESULT: -8.311447732      0.000      0.000
REMARK  19 active torsions:
REMARK  status: ('A' for Active; 'I' for Inactive)
REMARK    1  A    between atoms: C10_10  and  O1_11 
REMARK    2  A    between atoms: C20_22  and  C21_23 
REMARK    3  A    between atoms: C21_23  and  C22_24 
REMARK    4  A    between atoms: C22_24  and  N1_25 
REMARK    5  A    between atoms: N1_25  and  C23_26 
REMARK    6  A    between atoms: N1_25  and  C25_30 
REMARK    7  A    between atoms: C23_26  and  C24_27 
REMARK    8  A    between atoms: C24_27  and  O2_28 
REMARK    9  A    between atoms: C25_30  and  C26_31 
REMARK   10  A    between atoms: C26_31  and  O3_32 
REMARK   11  A    between atoms: C29_36  and  C30_37 
REMARK   12  A    between atoms: C30_37  and  O4_38 
REMARK   13  A    between atoms: O4_38  and  C31_39 
REMARK   14  A    between atoms: C31_39  and  C32_41 
REMARK   15  A    between atoms: C32_41  and  N2_42 
REMARK   16  A    between atoms: N2_42  and  C33_44 
REMARK   17  A    between atoms: C33_44  and  C34_45 
REMARK   18  A    between atoms: C34_45  and  C35_46 
REMARK   19  A    between atoms: C35_46  and  N3_47 
ROOT
HETATM    1  C1  UNL     1       1.264 -44.854  11.974  1.00  0.00     0.049 C 
HETATM    2  C2  UNL     1       0.073 -44.880  12.855  1.00  0.00    -0.050 C 
HETATM    3  C3  UNL     1      -0.995 -45.812  12.444  1.00  0.00    -0.070 C 
HETATM    4  C4  UNL     1      -0.952 -46.733  11.289  1.00  0.00     0.035 C 
HETATM    5  C5  UNL     1      -1.557 -48.085  11.723  1.00  0.00     0.009 C 
HETATM    6  C6  UNL     1      -2.592 -48.064  12.781  1.00  0.00    -0.007 C 
HETATM    7  C7  UNL     1      -2.213 -48.250  14.212  1.00  0.00     0.039 C 
HETATM    8  C8  UNL     1      -2.201 -47.009  15.115  1.00  0.00    -0.070 C 
HETATM    9  C9  UNL     1      -3.006 -45.881  14.654  1.00  0.00     0.072 C 
HETATM   10  C10 UNL     1      -3.387 -45.818  13.200  1.00  0.00     0.065 C 
HETATM   11  C11 UNL     1      -3.733 -47.101  12.571  1.00  0.00     0.043 C 
HETATM   12  C12 UNL     1      -2.308 -45.157  12.442  1.00  0.00     0.072 C 
HETATM   13  C13 UNL     1      -0.831 -46.734  15.710  1.00  0.00    -0.046 C 
HETATM   14  C14 UNL     1      -0.486 -47.245  16.877  1.00  0.00    -0.018 C 
HETATM   15  C15 UNL     1       0.869 -46.898  17.337  1.00  0.00     0.034 C 
HETATM   16  C16 UNL     1       1.136 -45.681  16.473  1.00  0.00     0.015 C 
HETATM   17  C17 UNL     1       2.607 -45.723  16.248  1.00  0.00    -0.039 C 
HETATM   18  C18 UNL     1       3.220 -46.199  17.602  1.00  0.00     0.015 C 
HETATM   19  C19 UNL     1       3.360 -44.478  15.995  1.00  0.00     0.015 C 
HETATM   20  C20 UNL     1       2.680 -46.828  15.290  1.00  0.00    -0.003 C 
HETATM   21  C27 UNL     1       1.355 -47.019  14.663  1.00  0.00     0.025 C 
HETATM   22  C28 UNL     1       0.327 -45.983  15.233  1.00  0.00     0.021 C 
HETATM   23  C29 UNL     1       0.319 -44.801  14.378  1.00  0.00    -0.016 C 
ENDROOT
BRANCH  23  24
HETATM   24  C30 UNL     1      -0.009 -43.442  14.838  1.00  0.00     0.154 C 
BRANCH  24  25
HETATM   25  O4  UNL     1      -0.857 -43.130  15.836  1.00  0.00    -0.289 OA
BRANCH  25  26
HETATM   26  C31 UNL     1      -2.114 -42.624  15.571  1.00  0.00     0.280 C 
HETATM   27  O5  UNL     1      -2.971 -42.669  16.462  1.00  0.00    -0.263 OA
BRANCH  26  28
HETATM   28  C32 UNL     1      -2.430 -42.039  14.245  1.00  0.00     0.225 C 
BRANCH  28  29
HETATM   29  N2  UNL     1      -3.814 -42.148  13.949  1.00  0.00    -0.413 N 
ATOM     30  H2  UNL     1      -4.284 -43.052  13.904  1.00  0.00     0.153 HD
BRANCH  29  31
HETATM   31  C33 UNL     1      -4.513 -40.922  13.716  1.00  0.00     0.116 C 
BRANCH  31  32
HETATM   32  C34 UNL     1      -3.600 -39.735  14.045  1.00  0.00     0.049 C 
BRANCH  32  33
HETATM   33  C35 UNL     1      -4.169 -38.957  15.222  1.00  0.00     0.273 C 
BRANCH  33  34
HETATM   34  N3  UNL     1      -3.142 -38.184  15.889  1.00  0.00     0.080 N 
HETATM   35  C36 UNL     1      -2.098 -39.021  16.436  1.00  0.00     0.309 C 
HETATM   36  C37 UNL     1      -3.768 -37.490  16.997  1.00  0.00     0.309 C 
ENDBRANCH  33  34
ENDBRANCH  32  33
ENDBRANCH  31  32
ENDBRANCH  29  31
ENDBRANCH  28  29
ENDBRANCH  26  28
ENDBRANCH  25  26
ENDBRANCH  24  25
ENDBRANCH  23  24
BRANCH  20  37
HETATM   37  C21 UNL     1       3.842 -46.718  14.289  1.00  0.00     0.036 C 
BRANCH  37  38
HETATM   38  C22 UNL     1       4.640 -47.967  14.217  1.00  0.00     0.273 C 
BRANCH  38  39
HETATM   39  N1  UNL     1       5.287 -48.375  15.414  1.00  0.00     0.092 N 
BRANCH  39  40
HETATM   40  C23 UNL     1       6.340 -47.586  15.892  1.00  0.00     0.298 C 
BRANCH  40  41
HETATM   41  C24 UNL     1       7.376 -47.399  14.805  1.00  0.00     0.194 C 
BRANCH  41  42
HETATM   42  O2  UNL     1       7.914 -46.099  14.858  1.00  0.00    -0.399 OA
ATOM     43  H2  UNL     1       8.667 -46.074  15.437  1.00  0.00     0.209 HD
ENDBRANCH  41  42
ENDBRANCH  40  41
ENDBRANCH  39  40
BRANCH  39  44
HETATM   44  C25 UNL     1       5.697 -49.749  15.279  1.00  0.00     0.298 C 
BRANCH  44  45
HETATM   45  C26 UNL     1       4.665 -50.561  14.499  1.00  0.00     0.194 C 
BRANCH  45  46
HETATM   46  O3  UNL     1       5.272 -51.733  14.009  1.00  0.00    -0.399 OA
ATOM     47  H3  UNL     1       5.211 -52.415  14.668  1.00  0.00     0.209 HD
ENDBRANCH  45  46
ENDBRANCH  44  45
ENDBRANCH  39  44
ENDBRANCH  38  39
ENDBRANCH  37  38
ENDBRANCH  20  37
BRANCH  10  48
HETATM   48  O1  UNL     1      -4.511 -44.964  13.043  1.00  0.00    -0.389 OA
ATOM     49  H1  UNL     1      -5.066 -45.298  12.348  1.00  0.00     0.210 HD
ENDBRANCH  10  48
TORSDOF 19
ENDMDL
MODEL 2
REMARK VINA RESULT: -8.215481249      1.128      1.500
REMARK  19 active torsions:
REMARK  status: ('A' for Active; 'I' for Inactive)
REMARK    1  A    between atoms: C10_10  and  O1_11 
REMARK    2  A    between atoms: C20_22  and  C21_23 
REMARK    3  A    between atoms: C21_23  and  C22_24 
REMARK    4  A    between atoms: C22_24  and  N1_25 
REMARK    5  A    between atoms: N1_25  and  C23_26 
REMARK    6  A    between atoms: N1_25  and  C25_30 
REMARK    7  A    between atoms: C23_26  and  C24_27 
REMARK    8  A    between atoms: C24_27  and  O2_28 
REMARK    9  A    between atoms: C25_30  and  C26_31 
REMARK   10  A    between atoms: C26_31  and  O3_32 
REMARK   11  A    between atoms: C29_36  and  C30_37 
REMARK   12  A    between atoms: C30_37  and  O4_38 
REMARK   13  A    between atoms: O4_38  and  C31_39 
REMARK   14  A    between atoms: C31_39  and  C32_41 
REMARK   15  A    between atoms: C32_41  and  N2_42 
REMARK   16  A    between atoms: N2_42  and  C33_44 
REMARK   17  A    between atoms: C33_44  and  C34_45 
REMARK   18  A    between atoms: C34_45  and  C35_46 
REMARK   19  A    between atoms: C35_46  and  N3_47 
ROOT
HETATM    1  C1  UNL     1       1.283 -44.754  11.880  1.00  0.00     0.049 C 
HETATM    2  C2  UNL     1       0.102 -44.743  12.774  1.00  0.00    -0.050 C 
HETATM    3  C3  UNL     1      -0.953 -45.718  12.438  1.00  0.00    -0.070 C 
HETATM    4  C4  UNL     1      -0.905 -46.713  11.346  1.00  0.00     0.035 C 
HETATM    5  C5  UNL     1      -1.481 -48.043  11.875  1.00  0.00     0.009 C 
HETATM    6  C6  UNL     1      -2.506 -47.970  12.941  1.00  0.00    -0.007 C 
HETATM    7  C7  UNL     1      -2.109 -48.055  14.377  1.00  0.00     0.039 C 
HETATM    8  C8  UNL     1      -2.110 -46.756  15.196  1.00  0.00    -0.070 C 
HETATM    9  C9  UNL     1      -2.940 -45.675  14.671  1.00  0.00     0.072 C 
HETATM   10  C10 UNL     1      -3.337 -45.715  13.220  1.00  0.00     0.065 C 
HETATM   11  C11 UNL     1      -3.666 -47.043  12.681  1.00  0.00     0.043 C 
HETATM   12  C12 UNL     1      -2.278 -45.088  12.408  1.00  0.00     0.072 C 
HETATM   13  C13 UNL     1      -0.739 -46.418  15.756  1.00  0.00    -0.046 C 
HETATM   14  C14 UNL     1      -0.372 -46.845  16.950  1.00  0.00    -0.018 C 
HETATM   15  C15 UNL     1       0.980 -46.444  17.370  1.00  0.00     0.034 C 
HETATM   16  C16 UNL     1       1.217 -45.283  16.425  1.00  0.00     0.015 C 
HETATM   17  C17 UNL     1       2.685 -45.314  16.186  1.00  0.00    -0.039 C 
HETATM   18  C18 UNL     1       3.321 -45.688  17.561  1.00  0.00     0.015 C 
HETATM   19  C19 UNL     1       3.413 -44.076  15.843  1.00  0.00     0.015 C 
HETATM   20  C20 UNL     1       2.769 -46.479  15.302  1.00  0.00    -0.003 C 
HETATM   21  C27 UNL     1       1.440 -46.734  14.705  1.00  0.00     0.025 C 
HETATM   22  C28 UNL     1       0.400 -45.681  15.216  1.00  0.00     0.021 C 
HETATM   23  C29 UNL     1       0.362 -44.559  14.286  1.00  0.00    -0.016 C 
ENDROOT
BRANCH  23  24
HETATM   24  C30 UNL     1       0.014 -43.177  14.659  1.00  0.00     0.154 C 
BRANCH  24  25
HETATM   25  O4  UNL     1      -0.894 -42.399  14.041  1.00  0.00    -0.289 OA
BRANCH  25  26
HETATM   26  C31 UNL     1      -2.041 -41.990  14.691  1.00  0.00     0.280 C 
HETATM   27  O5  UNL     1      -3.136 -42.217  14.161  1.00  0.00    -0.263 OA
BRANCH  26  28
HETATM   28  C32 UNL     1      -1.963 -41.292  15.998  1.00  0.00     0.225 C 
BRANCH  28  29
HETATM   29  N2  UNL     1      -1.494 -39.961  15.846  1.00  0.00    -0.413 N 
ATOM     30  H2  UNL     1      -0.862 -39.697  15.090  1.00  0.00     0.153 HD
BRANCH  29  31
HETATM   31  C33 UNL     1      -1.954 -39.011  16.811  1.00  0.00     0.116 C 
BRANCH  31  32
HETATM   32  C34 UNL     1      -2.679 -37.862  16.101  1.00  0.00     0.049 C 
BRANCH  32  33
HETATM   33  C35 UNL     1      -3.321 -36.943  17.129  1.00  0.00     0.273 C 
BRANCH  33  34
HETATM   34  N3  UNL     1      -2.991 -35.555  16.876  1.00  0.00     0.080 N 
HETATM   35  C36 UNL     1      -1.573 -35.302  16.998  1.00  0.00     0.309 C 
HETATM   36  C37 UNL     1      -3.664 -34.756  17.880  1.00  0.00     0.309 C 
ENDBRANCH  33  34
ENDBRANCH  32  33
ENDBRANCH  31  32
ENDBRANCH  29  31
ENDBRANCH  28  29
ENDBRANCH  26  28
ENDBRANCH  25  26
ENDBRANCH  24  25
ENDBRANCH  23  24
BRANCH  20  37
HETATM   37  C21 UNL     1       3.918 -46.415  14.283  1.00  0.00     0.036 C 
BRANCH  37  38
HETATM   38  C22 UNL     1       4.656 -47.700  14.188  1.00  0.00     0.273 C 
BRANCH  38  39
HETATM   39  N1  UNL     1       5.146 -48.239  15.408  1.00  0.00     0.092 N 
BRANCH  39  40
HETATM   40  C23 UNL     1       6.374 -47.766  15.886  1.00  0.00     0.298 C 
BRANCH  40  41
HETATM   41  C24 UNL     1       7.298 -47.468  14.726  1.00  0.00     0.194 C 
BRANCH  41  42
HETATM   42  O2  UNL     1       7.896 -46.204  14.887  1.00  0.00    -0.399 OA
ATOM     43  H2  UNL     1       8.634 -46.108  14.296  1.00  0.00     0.209 HD
ENDBRANCH  41  42
ENDBRANCH  40  41
ENDBRANCH  39  40
BRANCH  39  44
HETATM   44  C25 UNL     1       5.153 -49.676  15.314  1.00  0.00     0.298 C 
BRANCH  44  45
HETATM   45  C26 UNL     1       3.794 -50.207  14.860  1.00  0.00     0.194 C 
BRANCH  45  46
HETATM   46  O3  UNL     1       3.988 -51.167  13.848  1.00  0.00    -0.399 OA
ATOM     47  H3  UNL     1       3.991 -50.732  13.003  1.00  0.00     0.209 HD
ENDBRANCH  45  46
ENDBRANCH  44  45
ENDBRANCH  39  44
ENDBRANCH  38  39
ENDBRANCH  37  38
ENDBRANCH  20  37
BRANCH  10  48
HETATM   48  O1  UNL     1      -4.478 -44.893  13.020  1.00  0.00    -0.389 OA
ATOM     49  H1  UNL     1      -5.260 -45.432  13.028  1.00  0.00     0.210 HD
ENDBRANCH  10  48
TORSDOF 19
ENDMDL
MODEL 3
REMARK VINA RESULT: -8.099884932      1.239      2.328
REMARK  19 active torsions:
REMARK  status: ('A' for Active; 'I' for Inactive)
REMARK    1  A    between atoms: C10_10  and  O1_11 
REMARK    2  A    between atoms: C20_22  and  C21_23 
REMARK    3  A    between atoms: C21_23  and  C22_24 
REMARK    4  A    between atoms: C22_24  and  N1_25 
REMARK    5  A    between atoms: N1_25  and  C23_26 
REMARK    6  A    between atoms: N1_25  and  C25_30 
REMARK    7  A    between atoms: C23_26  and  C24_27 
REMARK    8  A    between atoms: C24_27  and  O2_28 
REMARK    9  A    between atoms: C25_30  and  C26_31 
REMARK   10  A    between atoms: C26_31  and  O3_32 
REMARK   11  A    between atoms: C29_36  and  C30_37 
REMARK   12  A    between atoms: C30_37  and  O4_38 
REMARK   13  A    between atoms: O4_38  and  C31_39 
REMARK   14  A    between atoms: C31_39  and  C32_41 
REMARK   15  A    between atoms: C32_41  and  N2_42 
REMARK   16  A    between atoms: N2_42  and  C33_44 
REMARK   17  A    between atoms: C33_44  and  C34_45 
REMARK   18  A    between atoms: C34_45  and  C35_46 
REMARK   19  A    between atoms: C35_46  and  N3_47 
ROOT
HETATM    1  C1  UNL     1       1.314 -44.832  11.964  1.00  0.00     0.049 C 
HETATM    2  C2  UNL     1       0.115 -44.766  12.831  1.00  0.00    -0.050 C 
HETATM    3  C3  UNL     1      -0.963 -45.715  12.489  1.00  0.00    -0.070 C 
HETATM    4  C4  UNL     1      -0.922 -46.732  11.418  1.00  0.00     0.035 C 
HETATM    5  C5  UNL     1      -1.552 -48.033  11.959  1.00  0.00     0.009 C 
HETATM    6  C6  UNL     1      -2.597 -47.907  13.000  1.00  0.00    -0.007 C 
HETATM    7  C7  UNL     1      -2.235 -47.975  14.446  1.00  0.00     0.039 C 
HETATM    8  C8  UNL     1      -2.213 -46.662  15.240  1.00  0.00    -0.070 C 
HETATM    9  C9  UNL     1      -2.996 -45.565  14.675  1.00  0.00     0.072 C 
HETATM   10  C10 UNL     1      -3.362 -45.622  13.217  1.00  0.00     0.065 C 
HETATM   11  C11 UNL     1      -3.721 -46.949  12.696  1.00  0.00     0.043 C 
HETATM   12  C12 UNL     1      -2.266 -45.044  12.417  1.00  0.00     0.072 C 
HETATM   13  C13 UNL     1      -0.845 -46.355  15.824  1.00  0.00    -0.046 C 
HETATM   14  C14 UNL     1      -0.519 -46.770  17.034  1.00  0.00    -0.018 C 
HETATM   15  C15 UNL     1       0.836 -46.403  17.477  1.00  0.00     0.034 C 
HETATM   16  C16 UNL     1       1.130 -45.269  16.516  1.00  0.00     0.015 C 
HETATM   17  C17 UNL     1       2.602 -45.350  16.312  1.00  0.00    -0.039 C 
HETATM   18  C18 UNL     1       3.195 -45.718  17.707  1.00  0.00     0.015 C 
HETATM   19  C19 UNL     1       3.377 -44.143  15.961  1.00  0.00     0.015 C 
HETATM   20  C20 UNL     1       2.669 -46.534  15.452  1.00  0.00    -0.003 C 
HETATM   21  C27 UNL     1       1.346 -46.760  14.830  1.00  0.00     0.025 C 
HETATM   22  C28 UNL     1       0.328 -45.665  15.297  1.00  0.00     0.021 C 
HETATM   23  C29 UNL     1       0.347 -44.561  14.344  1.00  0.00    -0.016 C 
ENDROOT
BRANCH  23  24
HETATM   24  C30 UNL     1       0.035 -43.162  14.683  1.00  0.00     0.154 C 
BRANCH  24  25
HETATM   25  O4  UNL     1      -0.858 -42.378  14.050  1.00  0.00    -0.289 OA
BRANCH  25  26
HETATM   26  C31 UNL     1      -1.980 -41.907  14.703  1.00  0.00     0.280 C 
HETATM   27  O5  UNL     1      -3.090 -42.103  14.191  1.00  0.00    -0.263 OA
BRANCH  26  28
HETATM   28  C32 UNL     1      -1.858 -41.180  15.990  1.00  0.00     0.225 C 
BRANCH  28  29
HETATM   29  N2  UNL     1      -1.601 -39.800  15.781  1.00  0.00    -0.413 N 
ATOM     30  H2  UNL     1      -0.657 -39.446  15.626  1.00  0.00     0.153 HD
BRANCH  29  31
HETATM   31  C33 UNL     1      -2.739 -38.932  15.801  1.00  0.00     0.116 C 
BRANCH  31  32
HETATM   32  C34 UNL     1      -2.380 -37.624  16.517  1.00  0.00     0.049 C 
BRANCH  32  33
HETATM   33  C35 UNL     1      -2.517 -37.804  18.021  1.00  0.00     0.273 C 
BRANCH  33  34
HETATM   34  N3  UNL     1      -1.658 -36.889  18.743  1.00  0.00     0.080 N 
HETATM   35  C36 UNL     1      -0.755 -36.181  17.864  1.00  0.00     0.309 C 
HETATM   36  C37 UNL     1      -0.853 -37.673  19.656  1.00  0.00     0.309 C 
ENDBRANCH  33  34
ENDBRANCH  32  33
ENDBRANCH  31  32
ENDBRANCH  29  31
ENDBRANCH  28  29
ENDBRANCH  26  28
ENDBRANCH  25  26
ENDBRANCH  24  25
ENDBRANCH  23  24
BRANCH  20  37
HETATM   37  C21 UNL     1       3.841 -46.527  14.458  1.00  0.00     0.036 C 
BRANCH  37  38
HETATM   38  C22 UNL     1       4.084 -47.867  13.866  1.00  0.00     0.273 C 
BRANCH  38  39
HETATM   39  N1  UNL     1       5.224 -48.570  14.340  1.00  0.00     0.092 N 
BRANCH  39  40
HETATM   40  C23 UNL     1       5.015 -49.787  15.001  1.00  0.00     0.298 C 
BRANCH  40  41
HETATM   41  C24 UNL     1       3.640 -50.324  14.670  1.00  0.00     0.194 C 
BRANCH  41  42
HETATM   42  O2  UNL     1       3.737 -51.409  13.779  1.00  0.00    -0.399 OA
ATOM     43  H2  UNL     1       2.905 -51.864  13.719  1.00  0.00     0.209 HD
ENDBRANCH  41  42
ENDBRANCH  40  41
ENDBRANCH  39  40
BRANCH  39  44
HETATM   44  C25 UNL     1       6.020 -47.681  15.146  1.00  0.00     0.298 C 
BRANCH  44  45
HETATM   45  C26 UNL     1       7.411 -47.487  14.546  1.00  0.00     0.194 C 
BRANCH  45  46
HETATM   46  O3  UNL     1       7.890 -46.209  14.891  1.00  0.00    -0.399 OA
ATOM     47  H3  UNL     1       8.753 -46.087  14.515  1.00  0.00     0.209 HD
ENDBRANCH  45  46
ENDBRANCH  44  45
ENDBRANCH  39  44
ENDBRANCH  38  39
ENDBRANCH  37  38
ENDBRANCH  20  37
BRANCH  10  48
HETATM   48  O1  UNL     1      -4.472 -44.769  12.975  1.00  0.00    -0.389 OA
ATOM     49  H1  UNL     1      -4.906 -45.036  12.173  1.00  0.00     0.210 HD
ENDBRANCH  10  48
TORSDOF 19
ENDMDL
MODEL 4
REMARK VINA RESULT: -8.030656712      1.310      2.235
REMARK  19 active torsions:
REMARK  status: ('A' for Active; 'I' for Inactive)
REMARK    1  A    between atoms: C10_10  and  O1_11 
REMARK    2  A    between atoms: C20_22  and  C21_23 
REMARK    3  A    between atoms: C21_23  and  C22_24 
REMARK    4  A    between atoms: C22_24  and  N1_25 
REMARK    5  A    between atoms: N1_25  and  C23_26 
REMARK    6  A    between atoms: N1_25  and  C25_30 
REMARK    7  A    between atoms: C23_26  and  C24_27 
REMARK    8  A    between atoms: C24_27  and  O2_28 
REMARK    9  A    between atoms: C25_30  and  C26_31 
REMARK   10  A    between atoms: C26_31  and  O3_32 
REMARK   11  A    between atoms: C29_36  and  C30_37 
REMARK   12  A    between atoms: C30_37  and  O4_38 
REMARK   13  A    between atoms: O4_38  and  C31_39 
REMARK   14  A    between atoms: C31_39  and  C32_41 
REMARK   15  A    between atoms: C32_41  and  N2_42 
REMARK   16  A    between atoms: N2_42  and  C33_44 
REMARK   17  A    between atoms: C33_44  and  C34_45 
REMARK   18  A    between atoms: C34_45  and  C35_46 
REMARK   19  A    between atoms: C35_46  and  N3_47 
ROOT
HETATM    1  C1  UNL     1       1.289 -44.857  11.937  1.00  0.00     0.049 C 
HETATM    2  C2  UNL     1       0.093 -44.792  12.809  1.00  0.00    -0.050 C 
HETATM    3  C3  UNL     1      -0.990 -45.734  12.465  1.00  0.00    -0.070 C 
HETATM    4  C4  UNL     1      -0.958 -46.744  11.387  1.00  0.00     0.035 C 
HETATM    5  C5  UNL     1      -1.590 -48.046  11.922  1.00  0.00     0.009 C 
HETATM    6  C6  UNL     1      -2.631 -47.922  12.967  1.00  0.00    -0.007 C 
HETATM    7  C7  UNL     1      -2.263 -48.002  14.412  1.00  0.00     0.039 C 
HETATM    8  C8  UNL     1      -2.233 -46.694  15.214  1.00  0.00    -0.070 C 
HETATM    9  C9  UNL     1      -3.014 -45.590  14.659  1.00  0.00     0.072 C 
HETATM   10  C10 UNL     1      -3.386 -45.636  13.202  1.00  0.00     0.065 C 
HETATM   11  C11 UNL     1      -3.752 -46.958  12.674  1.00  0.00     0.043 C 
HETATM   12  C12 UNL     1      -2.291 -45.057  12.402  1.00  0.00     0.072 C 
HETATM   13  C13 UNL     1      -0.862 -46.396  15.795  1.00  0.00    -0.046 C 
HETATM   14  C14 UNL     1      -0.533 -46.820  17.001  1.00  0.00    -0.018 C 
HETATM   15  C15 UNL     1       0.825 -46.462  17.442  1.00  0.00     0.034 C 
HETATM   16  C16 UNL     1       1.121 -45.323  16.486  1.00  0.00     0.015 C 
HETATM   17  C17 UNL     1       2.592 -45.409  16.276  1.00  0.00    -0.039 C 
HETATM   18  C18 UNL     1       3.188 -45.788  17.667  1.00  0.00     0.015 C 
HETATM   19  C19 UNL     1       3.369 -44.202  15.930  1.00  0.00     0.015 C 
HETATM   20  C20 UNL     1       2.650 -46.588  15.408  1.00  0.00    -0.003 C 
HETATM   21  C27 UNL     1       1.324 -46.804  14.789  1.00  0.00     0.025 C 
HETATM   22  C28 UNL     1       0.312 -45.708  15.268  1.00  0.00     0.021 C 
HETATM   23  C29 UNL     1       0.332 -44.597  14.322  1.00  0.00    -0.016 C 
ENDROOT
BRANCH  23  24
HETATM   24  C30 UNL     1       0.027 -43.200  14.671  1.00  0.00     0.154 C 
BRANCH  24  25
HETATM   25  O4  UNL     1      -0.849 -42.401  14.033  1.00  0.00    -0.289 OA
BRANCH  25  26
HETATM   26  C31 UNL     1      -1.974 -41.922  14.675  1.00  0.00     0.280 C 
HETATM   27  O5  UNL     1      -3.083 -42.147  14.175  1.00  0.00    -0.263 OA
BRANCH  26  28
HETATM   28  C32 UNL     1      -1.855 -41.151  15.937  1.00  0.00     0.225 C 
BRANCH  28  29
HETATM   29  N2  UNL     1      -1.813 -39.755  15.688  1.00  0.00    -0.413 N 
ATOM     30  H2  UNL     1      -1.877 -39.375  14.743  1.00  0.00     0.153 HD
BRANCH  29  31
HETATM   31  C33 UNL     1      -1.676 -38.908  16.833  1.00  0.00     0.116 C 
BRANCH  31  32
HETATM   32  C34 UNL     1      -2.684 -37.757  16.751  1.00  0.00     0.049 C 
BRANCH  32  33
HETATM   33  C35 UNL     1      -1.982 -36.488  16.293  1.00  0.00     0.273 C 
BRANCH  33  34
HETATM   34  N3  UNL     1      -2.036 -35.459  17.311  1.00  0.00     0.080 N 
HETATM   35  C36 UNL     1      -0.966 -35.589  18.274  1.00  0.00     0.309 C 
HETATM   36  C37 UNL     1      -3.286 -35.615  18.026  1.00  0.00     0.309 C 
ENDBRANCH  33  34
ENDBRANCH  32  33
ENDBRANCH  31  32
ENDBRANCH  29  31
ENDBRANCH  28  29
ENDBRANCH  26  28
ENDBRANCH  25  26
ENDBRANCH  24  25
ENDBRANCH  23  24
BRANCH  20  37
HETATM   37  C21 UNL     1       3.818 -46.579  14.410  1.00  0.00     0.036 C 
BRANCH  37  38
HETATM   38  C22 UNL     1       4.184 -47.946  13.962  1.00  0.00     0.273 C 
BRANCH  38  39
HETATM   39  N1  UNL     1       5.328 -48.527  14.572  1.00  0.00     0.092 N 
BRANCH  39  40
HETATM   40  C23 UNL     1       5.136 -49.643  15.396  1.00  0.00     0.298 C 
BRANCH  40  41
HETATM   41  C24 UNL     1       4.997 -49.201  16.837  1.00  0.00     0.194 C 
BRANCH  41  42
HETATM   42  O2  UNL     1       3.662 -49.330  17.264  1.00  0.00    -0.399 OA
ATOM     43  H2  UNL     1       3.484 -48.733  17.981  1.00  0.00     0.209 HD
ENDBRANCH  41  42
ENDBRANCH  40  41
ENDBRANCH  39  40
BRANCH  39  44
HETATM   44  C25 UNL     1       6.059 -47.499  15.267  1.00  0.00     0.298 C 
BRANCH  44  45
HETATM   45  C26 UNL     1       7.486 -47.378  14.733  1.00  0.00     0.194 C 
BRANCH  45  46
HETATM   46  O3  UNL     1       7.902 -46.036  14.828  1.00  0.00    -0.399 OA
ATOM     47  H3  UNL     1       7.217 -45.472  14.489  1.00  0.00     0.209 HD
ENDBRANCH  45  46
ENDBRANCH  44  45
ENDBRANCH  39  44
ENDBRANCH  38  39
ENDBRANCH  37  38
ENDBRANCH  20  37
BRANCH  10  48
HETATM   48  O1  UNL     1      -4.493 -44.777  12.970  1.00  0.00    -0.389 OA
ATOM     49  H1  UNL     1      -5.228 -45.058  13.501  1.00  0.00     0.210 HD
ENDBRANCH  10  48
TORSDOF 19
ENDMDL
MODEL 5
REMARK VINA RESULT: -8.012842768      1.111      1.411
REMARK  19 active torsions:
REMARK  status: ('A' for Active; 'I' for Inactive)
REMARK    1  A    between atoms: C10_10  and  O1_11 
REMARK    2  A    between atoms: C20_22  and  C21_23 
REMARK    3  A    between atoms: C21_23  and  C22_24 
REMARK    4  A    between atoms: C22_24  and  N1_25 
REMARK    5  A    between atoms: N1_25  and  C23_26 
REMARK    6  A    between atoms: N1_25  and  C25_30 
REMARK    7  A    between atoms: C23_26  and  C24_27 
REMARK    8  A    between atoms: C24_27  and  O2_28 
REMARK    9  A    between atoms: C25_30  and  C26_31 
REMARK   10  A    between atoms: C26_31  and  O3_32 
REMARK   11  A    between atoms: C29_36  and  C30_37 
REMARK   12  A    between atoms: C30_37  and  O4_38 
REMARK   13  A    between atoms: O4_38  and  C31_39 
REMARK   14  A    between atoms: C31_39  and  C32_41 
REMARK   15  A    between atoms: C32_41  and  N2_42 
REMARK   16  A    between atoms: N2_42  and  C33_44 
REMARK   17  A    between atoms: C33_44  and  C34_45 
REMARK   18  A    between atoms: C34_45  and  C35_46 
REMARK   19  A    between atoms: C35_46  and  N3_47 
ROOT
HETATM    1  C1  UNL     1       1.234 -44.748  11.868  1.00  0.00     0.049 C 
HETATM    2  C2  UNL     1       0.059 -44.751  12.771  1.00  0.00    -0.050 C 
HETATM    3  C3  UNL     1      -0.992 -45.731  12.434  1.00  0.00    -0.070 C 
HETATM    4  C4  UNL     1      -0.945 -46.717  11.334  1.00  0.00     0.035 C 
HETATM    5  C5  UNL     1      -1.508 -48.055  11.856  1.00  0.00     0.009 C 
HETATM    6  C6  UNL     1      -2.526 -47.997  12.929  1.00  0.00    -0.007 C 
HETATM    7  C7  UNL     1      -2.119 -48.090  14.362  1.00  0.00     0.039 C 
HETATM    8  C8  UNL     1      -2.123 -46.799  15.191  1.00  0.00    -0.070 C 
HETATM    9  C9  UNL     1      -2.964 -45.719  14.680  1.00  0.00     0.072 C 
HETATM   10  C10 UNL     1      -3.370 -45.750  13.232  1.00  0.00     0.065 C 
HETATM   11  C11 UNL     1      -3.694 -47.076  12.684  1.00  0.00     0.043 C 
HETATM   12  C12 UNL     1      -2.321 -45.109  12.417  1.00  0.00     0.072 C 
HETATM   13  C13 UNL     1      -0.752 -46.455  15.745  1.00  0.00    -0.046 C 
HETATM   14  C14 UNL     1      -0.374 -46.889  16.932  1.00  0.00    -0.018 C 
HETATM   15  C15 UNL     1       0.979 -46.483  17.347  1.00  0.00     0.034 C 
HETATM   16  C16 UNL     1       1.201 -45.313  16.410  1.00  0.00     0.015 C 
HETATM   17  C17 UNL     1       2.669 -45.332  16.161  1.00  0.00    -0.039 C 
HETATM   18  C18 UNL     1       3.316 -45.713  17.528  1.00  0.00     0.015 C 
HETATM   19  C19 UNL     1       3.386 -44.086  15.822  1.00  0.00     0.015 C 
HETATM   20  C20 UNL     1       2.754 -46.489  15.267  1.00  0.00    -0.003 C 
HETATM   21  C27 UNL     1       1.423 -46.749  14.677  1.00  0.00     0.025 C 
HETATM   22  C28 UNL     1       0.379 -45.707  15.203  1.00  0.00     0.021 C 
HETATM   23  C29 UNL     1       0.327 -44.577  14.282  1.00  0.00    -0.016 C 
ENDROOT
BRANCH  23  24
HETATM   24  C30 UNL     1      -0.027 -43.201  14.668  1.00  0.00     0.154 C 
BRANCH  24  25
HETATM   25  O4  UNL     1      -0.962 -42.433  14.079  1.00  0.00    -0.289 OA
BRANCH  25  26
HETATM   26  C31 UNL     1      -2.073 -42.003  14.776  1.00  0.00     0.280 C 
HETATM   27  O5  UNL     1      -3.195 -42.253  14.317  1.00  0.00    -0.263 OA
BRANCH  26  28
HETATM   28  C32 UNL     1      -1.926 -41.256  16.050  1.00  0.00     0.225 C 
BRANCH  28  29
HETATM   29  N2  UNL     1      -1.466 -39.933  15.822  1.00  0.00    -0.413 N 
ATOM     30  H2  UNL     1      -0.935 -39.685  14.987  1.00  0.00     0.153 HD
BRANCH  29  31
HETATM   31  C33 UNL     1      -1.787 -38.967  16.827  1.00  0.00     0.116 C 
BRANCH  31  32
HETATM   32  C34 UNL     1      -2.612 -37.832  16.210  1.00  0.00     0.049 C 
BRANCH  32  33
HETATM   33  C35 UNL     1      -3.959 -37.734  16.909  1.00  0.00     0.273 C 
BRANCH  33  34
HETATM   34  N3  UNL     1      -4.199 -38.884  17.756  1.00  0.00     0.080 N 
HETATM   35  C36 UNL     1      -5.226 -39.750  17.222  1.00  0.00     0.309 C 
HETATM   36  C37 UNL     1      -4.667 -38.393  19.037  1.00  0.00     0.309 C 
ENDBRANCH  33  34
ENDBRANCH  32  33
ENDBRANCH  31  32
ENDBRANCH  29  31
ENDBRANCH  28  29
ENDBRANCH  26  28
ENDBRANCH  25  26
ENDBRANCH  24  25
ENDBRANCH  23  24
BRANCH  20  37
HETATM   37  C21 UNL     1       3.895 -46.410  14.241  1.00  0.00     0.036 C 
BRANCH  37  38
HETATM   38  C22 UNL     1       4.651 -47.684  14.142  1.00  0.00     0.273 C 
BRANCH  38  39
HETATM   39  N1  UNL     1       5.123 -48.236  15.363  1.00  0.00     0.092 N 
BRANCH  39  40
HETATM   40  C23 UNL     1       6.312 -47.724  15.898  1.00  0.00     0.298 C 
BRANCH  40  41
HETATM   41  C24 UNL     1       7.328 -47.524  14.795  1.00  0.00     0.194 C 
BRANCH  41  42
HETATM   42  O2  UNL     1       7.877 -46.230  14.861  1.00  0.00    -0.399 OA
ATOM     43  H2  UNL     1       8.769 -46.263  15.187  1.00  0.00     0.209 HD
ENDBRANCH  41  42
ENDBRANCH  40  41
ENDBRANCH  39  40
BRANCH  39  44
HETATM   44  C25 UNL     1       5.198 -49.668  15.231  1.00  0.00     0.298 C 
BRANCH  44  45
HETATM   45  C26 UNL     1       3.822 -50.270  14.949  1.00  0.00     0.194 C 
BRANCH  45  46
HETATM   46  O3  UNL     1       3.913 -51.127  13.835  1.00  0.00    -0.399 OA
ATOM     47  H3  UNL     1       4.335 -50.665  13.120  1.00  0.00     0.209 HD
ENDBRANCH  45  46
ENDBRANCH  44  45
ENDBRANCH  39  44
ENDBRANCH  38  39
ENDBRANCH  37  38
ENDBRANCH  20  37
BRANCH  10  48
HETATM   48  O1  UNL     1      -4.518 -44.934  13.045  1.00  0.00    -0.389 OA
ATOM     49  H1  UNL     1      -5.236 -45.275  13.565  1.00  0.00     0.210 HD
ENDBRANCH  10  48
TORSDOF 19
ENDMDL
