REMARK  1 active torsions:
REMARK  status: ('A' for Active; 'I' for Inactive)
REMARK    1  A    between atoms: O1_1  and  C1_3 
ROOT
HETATM    1  C1  UNL     1       1.151   0.782   0.199  1.00  0.00     0.040 C 
HETATM    2  C2  UNL     1       0.107   1.877   0.388  1.00  0.00     0.075 C 
HETATM    3  C3  UNL     1      -1.327   1.303   0.079  1.00  0.00     0.086 C 
HETATM    4  C4  UNL     1      -1.127  -0.059  -0.195  1.00  0.00    -0.182 C 
HETATM    5  C5  UNL     1      -0.959  -1.425  -0.453  1.00  0.00     0.083 C 
HETATM    6  C6  UNL     1       0.584  -1.682  -0.382  1.00  0.00     0.041 C 
HETATM    7  C7  UNL     1       1.314  -0.628   0.398  1.00  0.00     0.006 C 
ENDROOT
BRANCH   1   8
HETATM    8  O1  UNL     1       2.275   1.423  -0.334  1.00  0.00    -0.365 OA
ATOM      9  H1  UNL     1       2.925   0.741  -0.452  1.00  0.00     0.217 HD
ENDBRANCH   1   8
TORSDOF 1
