REMARK  0 active torsions:
REMARK  status: ('A' for Active; 'I' for Inactive)
ROOT
HETATM    1  C1  UNL     1       1.151  -0.305   0.447  1.00  0.00     0.016 C 
HETATM    2  C2  UNL     1       0.509   1.081   0.282  1.00  0.00     0.016 C 
HETATM    3  C3  UNL     1      -0.927   0.682   0.175  1.00  0.00     0.049 C 
HETATM    4  C4  UNL     1      -0.825  -0.364  -0.948  1.00  0.00     0.030 C 
HETATM    5  C5  UNL     1       0.003  -1.165   0.025  1.00  0.00     0.049 C 
HETATM    6  S1  UNL     1      -1.228  -0.691   1.286  1.00  0.00    -0.159 SA
ENDROOT
TORSDOF 0
