REMARK  1 active torsions:
REMARK  status: ('A' for Active; 'I' for Inactive)
REMARK    1  A    between atoms: C4_5  and  C5_6 
ROOT
HETATM    1  O1  UNL     1       1.749  -2.948  -0.377  1.00  0.00    -0.267 OA
HETATM    2  C1  UNL     1       1.998  -1.708  -0.285  1.00  0.00     0.265 A 
HETATM    3  C2  UNL     1       0.922  -0.739  -0.120  1.00  0.00     0.061 A 
HETATM    4  C3  UNL     1      -0.392  -1.117  -0.058  1.00  0.00     0.032 A 
HETATM    5  C4  UNL     1      -1.424  -0.183   0.101  1.00  0.00    -0.014 A 
HETATM    6  C11 UNL     1      -1.142   1.161   0.201  1.00  0.00    -0.013 A 
HETATM    7  C12 UNL     1      -2.110   2.129   0.373  1.00  0.00     0.013 A 
HETATM    8  C13 UNL     1      -1.740   3.457   0.475  1.00  0.00     0.001 A 
HETATM    9  C14 UNL     1      -0.420   3.839   0.410  1.00  0.00     0.001 A 
HETATM   10  C15 UNL     1       0.532   2.858   0.240  1.00  0.00     0.014 A 
HETATM   11  C16 UNL     1       0.211   1.520   0.133  1.00  0.00     0.003 A 
HETATM   12  C17 UNL     1       1.237   0.612  -0.024  1.00  0.00     0.060 A 
HETATM   13  N1  UNL     1       2.600   1.019  -0.089  1.00  0.00    -0.340 N 
ATOM     14  H1  UNL     1       2.809   2.015  -0.017  1.00  0.00     0.167 HD
HETATM   15  C18 UNL     1       3.574   0.210  -0.232  1.00  0.00     0.114 A 
HETATM   16  C19 UNL     1       4.969   0.638  -0.297  1.00  0.00     0.049 A 
HETATM   17  C20 UNL     1       5.919  -0.244  -0.445  1.00  0.00     0.005 A 
HETATM   18  C21 UNL     1       5.618  -1.673  -0.549  1.00  0.00     0.018 A 
HETATM   19  C22 UNL     1       4.379  -2.121  -0.497  1.00  0.00     0.102 A 
HETATM   20  N2  UNL     1       3.324  -1.200  -0.338  1.00  0.00    -0.274 N 
ENDROOT
BRANCH   5  21
HETATM   21  C5  UNL     1      -2.808  -0.636   0.113  1.00  0.00    -0.025 A 
HETATM   22  C6  UNL     1      -3.209  -1.542   1.079  1.00  0.00     0.012 A 
HETATM   23  C7  UNL     1      -4.493  -2.054   1.127  1.00  0.00     0.001 A 
HETATM   24  C8  UNL     1      -5.396  -1.643   0.178  1.00  0.00     0.000 A 
HETATM   25  C9  UNL     1      -5.000  -0.746  -0.778  1.00  0.00     0.001 A 
HETATM   26  C10 UNL     1      -3.727  -0.242  -0.821  1.00  0.00     0.012 A 
ENDBRANCH   5  21
TORSDOF 1
