REMARK  1 active torsions:
REMARK  status: ('A' for Active; 'I' for Inactive)
REMARK    1  A    between atoms: C15_17  and  C16_18 
ROOT
HETATM    1  O1  UNL     1       0.374  -2.972  -0.114  1.00  0.00    -0.252 OA
HETATM    2  S1  UNL     1      -0.164  -1.447  -0.561  1.00  0.00     0.064 S 
HETATM    3  C1  UNL     1      -1.868  -1.326  -0.135  1.00  0.00     0.042 A 
HETATM    4  C2  UNL     1      -2.280  -2.636   0.091  1.00  0.00     0.022 A 
HETATM    5  C3  UNL     1      -3.597  -2.839   0.448  1.00  0.00     0.001 A 
HETATM    6  C4  UNL     1      -4.482  -1.771   0.577  1.00  0.00     0.001 A 
HETATM    7  C5  UNL     1      -4.033  -0.496   0.344  1.00  0.00     0.013 A 
HETATM    8  C6  UNL     1      -2.707  -0.238  -0.020  1.00  0.00    -0.017 A 
HETATM    9  C7  UNL     1      -2.645   1.215  -0.171  1.00  0.00     0.013 C 
HETATM   10  C8  UNL     1      -1.658   2.052  -0.410  1.00  0.00     0.013 C 
HETATM   11  C9  UNL     1      -0.223   1.999  -0.636  1.00  0.00    -0.028 A 
HETATM   12  C10 UNL     1       0.088   3.163  -1.296  1.00  0.00     0.012 A 
HETATM   13  C11 UNL     1       1.373   3.467  -1.685  1.00  0.00     0.001 A 
HETATM   14  C12 UNL     1       2.349   2.569  -1.395  1.00  0.00     0.001 A 
HETATM   15  C13 UNL     1       2.048   1.380  -0.725  1.00  0.00     0.009 A 
HETATM   16  C14 UNL     1       0.783   1.064  -0.332  1.00  0.00    -0.026 A 
HETATM   17  C15 UNL     1       0.790  -0.238   0.341  1.00  0.00     0.158 C 
ENDROOT
BRANCH  17  18
HETATM   18  C16 UNL     1       2.142  -0.808   0.541  1.00  0.00     0.003 A 
HETATM   19  C17 UNL     1       2.998  -0.640   1.610  1.00  0.00     0.016 A 
HETATM   20  C18 UNL     1       4.166  -1.280   1.575  1.00  0.00     0.008 A 
HETATM   21  C19 UNL     1       4.442  -2.058   0.489  1.00  0.00     0.050 A 
HETATM   22  S2  UNL     1       3.050  -1.878  -0.472  1.00  0.00    -0.105 SA
ENDBRANCH  17  18
TORSDOF 1
