REMARK  11 active torsions:
REMARK  status: ('A' for Active; 'I' for Inactive)
REMARK    1  A    between atoms: C4_6  and  C5_7 
REMARK    2  A    between atoms: C5_7  and  O1_8 
REMARK    3  A    between atoms: C5_7  and  O2_10 
REMARK    4  A    between atoms: C6_14  and  N3_15 
REMARK    5  A    between atoms: N3_15  and  C7_16 
REMARK    6  A    between atoms: N3_15  and  C12_34 
REMARK    7  A    between atoms: C8_19  and  N5_20 
REMARK    8  A    between atoms: N7_27  and  N8_28 
REMARK    9  A    between atoms: N8_28  and  C10_30 
REMARK   10  A    between atoms: C10_30  and  O3_32 
REMARK   11  A    between atoms: C14_43  and  N12_44 
ROOT
HETATM    1  N3  UNL     1      -0.140  -0.589   0.703  1.00  0.00     0.044 N 
ENDROOT
BRANCH   1   2
HETATM    2  C6  UNL     1       1.102   0.125   0.312  1.00  0.00     0.707 A 
HETATM    3  N2  UNL     1       1.668  -0.070  -0.875  1.00  0.00    -0.189 N 
HETATM    4  C4  UNL     1       2.789   0.609  -1.197  1.00  0.00     0.084 A 
ATOM      5  H2  UNL     1       1.258  -0.728  -1.538  1.00  0.00     0.184 HD
HETATM    6  C3  UNL     1       3.317   1.489  -0.280  1.00  0.00     0.079 A 
HETATM    7  C2  UNL     1       2.741   1.700   0.950  1.00  0.00     0.118 A 
HETATM    8  N1  UNL     1       3.216   2.508   1.780  1.00  0.00    -0.380 N 
HETATM    9  N13 UNL     1       1.605   0.978   1.214  1.00  0.00    -0.176 N 
HETATM   10  C1  UNL     1       4.362   3.324   1.660  1.00  0.00     0.147 C 
ATOM     11  H1  UNL     1       2.707   2.587   2.660  1.00  0.00     0.160 HD
ATOM     12  H13 UNL     1       1.135   1.093   2.112  1.00  0.00     0.186 HD
BRANCH   4  13
HETATM   13  C5  UNL     1       3.441   0.414  -2.491  1.00  0.00     0.305 C 
BRANCH  13  14
HETATM   14  O1  UNL     1       4.831   0.310  -2.324  1.00  0.00    -0.366 OA
ATOM     15  H1  UNL     1       5.255   0.183  -3.165  1.00  0.00     0.213 HD
ENDBRANCH  13  14
BRANCH  13  16
HETATM   16  O2  UNL     1       3.187   1.504  -3.307  1.00  0.00    -0.366 OA
ATOM     17  H2  UNL     1       3.611   1.377  -4.148  1.00  0.00     0.213 HD
ENDBRANCH  13  16
ENDBRANCH   4  13
ENDBRANCH   1   2
BRANCH   1  18
HETATM   18  C7  UNL     1      -1.173   0.339   0.846  1.00  0.00     0.726 A 
HETATM   19  N4  UNL     1      -1.428   0.921   1.974  1.00  0.00    -0.177 N 
HETATM   20  C8  UNL     1      -2.417   1.872   2.288  1.00  0.00     0.402 A 
ATOM     21  H4  UNL     1      -0.823   0.651   2.749  1.00  0.00     0.181 HD
HETATM   22  N6  UNL     1      -3.186   2.244   1.144  1.00  0.00    -0.341 N 
HETATM   23  C9  UNL     1      -3.011   1.748  -0.007  1.00  0.00     0.223 A 
ATOM     24  H6  UNL     1      -3.916   2.947   1.261  1.00  0.00     0.164 HD
HETATM   25  N7  UNL     1      -2.024   0.779  -0.249  1.00  0.00    -0.083 N 
BRANCH  20  26
HETATM   26  N5  UNL     1      -3.375   1.413   3.288  1.00  0.00    -0.040 N 
ATOM     27  H53 UNL     1      -3.801   0.532   3.001  1.00  0.00     0.279 HD
ATOM     28  H52 UNL     1      -2.894   1.102   4.132  1.00  0.00     0.279 HD
ATOM     29  H51 UNL     1      -4.092   2.102   3.516  1.00  0.00     0.279 HD
ENDBRANCH  20  26
BRANCH  25  30
HETATM   30  N8  UNL     1      -1.813   0.199  -1.471  1.00  0.00    -0.286 N 
ATOM     31  H8  UNL     1      -0.895  -0.169  -1.721  1.00  0.00     0.184 HD
BRANCH  30  32
HETATM   32  C10 UNL     1      -2.896   0.121  -2.382  1.00  0.00     0.230 C 
HETATM   33  C11 UNL     1      -4.120  -0.609  -1.878  1.00  0.00     0.064 C 
BRANCH  32  34
HETATM   34  O3  UNL     1      -3.285   1.287  -2.994  1.00  0.00    -0.376 OA
ATOM     35  H3  UNL     1      -4.011   1.235  -3.605  1.00  0.00     0.212 HD
ENDBRANCH  32  34
ENDBRANCH  30  32
ENDBRANCH  25  30
ENDBRANCH   1  18
BRANCH   1  36
HETATM   36  C12 UNL     1      -0.010  -1.959   0.843  1.00  0.00     0.213 A 
HETATM   37  N9  UNL     1       1.194  -2.619   0.712  1.00  0.00    -0.171 N 
HETATM   38  C13 UNL     1       1.040  -3.930   0.873  1.00  0.00     0.679 A 
ATOM     39  H9  UNL     1       2.085  -2.162   0.517  1.00  0.00     0.186 HD
HETATM   40  N10 UNL     1       1.971  -4.818   0.807  1.00  0.00    -0.234 N 
HETATM   41  N11 UNL     1      -0.233  -4.171   1.110  1.00  0.00    -0.167 N 
ATOM     42 2H10 UNL     1       2.957  -4.631   0.623  1.00  0.00     0.174 HD
ATOM     43 1H10 UNL     1       1.853  -5.824   0.930  1.00  0.00     0.174 HD
HETATM   44  C14 UNL     1      -0.909  -2.961   1.098  1.00  0.00     0.234 A 
ATOM     45  H11 UNL     1      -0.649  -5.088   1.274  1.00  0.00     0.186 HD
BRANCH  44  46
HETATM   46  N12 UNL     1      -2.282  -2.943   1.331  1.00  0.00    -0.093 N 
HETATM   47  O4  UNL     1      -2.868  -4.069   1.533  1.00  0.00    -0.530 OA
HETATM   48  O5  UNL     1      -3.124  -1.898   1.377  1.00  0.00    -0.530 OA
ENDBRANCH  44  46
ENDBRANCH   1  36
TORSDOF 11
