REMARK  15 active torsions:
REMARK  status: ('A' for Active; 'I' for Inactive)
REMARK    1  A    between atoms: C2_2  and  C3_3 
REMARK    2  A    between atoms: C3_3  and  C4_4 
REMARK    3  A    between atoms: C4_4  and  N1_5 
REMARK       I    between atoms: N1_5  and  C6_7 
REMARK    4  A    between atoms: C6_7  and  C7_9 
REMARK    5  A    between atoms: C8_12  and  O2_13 
REMARK    6  A    between atoms: C9_15  and  C10_16 
REMARK    7  A    between atoms: C10_16  and  C11_17 
REMARK    8  A    between atoms: C11_17  and  S1_18 
REMARK    9  A    between atoms: C13_22  and  O3_23 
REMARK   10  A    between atoms: C14_25  and  C15_26 
REMARK   11  A    between atoms: C15_26  and  C16_27 
REMARK   12  A    between atoms: C18_31  and  O4_32 
REMARK   13  A    between atoms: C19_34  and  C20_35 
REMARK   14  A    between atoms: C24_41  and  C25_42 
REMARK   15  A    between atoms: C25_42  and  C27_44 
ROOT
HETATM    1  C7  UNL     1       1.173  -1.059   0.364  1.00  0.00     0.208 C 
HETATM    2  N2  UNL     1       0.628  -1.569   1.618  1.00  0.00    -0.354 N 
ATOM      3  H2  UNL     1       0.965  -1.087   2.452  1.00  0.00     0.162 HD
HETATM    4  C8  UNL     1      -0.277  -2.605   1.874  1.00  0.00     0.160 C 
HETATM    5  C9  UNL     1      -1.716  -2.773   1.746  1.00  0.00     0.062 C 
HETATM    6  N3  UNL     1      -2.285  -3.120   0.483  1.00  0.00    -0.339 N 
ATOM      7  H3  UNL     1      -3.152  -3.646   0.594  1.00  0.00     0.167 HD
HETATM    8  C13 UNL     1      -1.973  -2.933  -0.843  1.00  0.00     0.139 C 
HETATM    9  C14 UNL     1      -2.040  -1.764  -1.759  1.00  0.00     0.158 C 
HETATM   10  N4  UNL     1      -2.384  -0.521  -1.135  1.00  0.00    -0.357 N 
ATOM     11  H4  UNL     1      -3.064  -0.620  -0.381  1.00  0.00     0.162 HD
HETATM   12  C18 UNL     1      -1.987   0.772  -1.344  1.00  0.00     0.160 C 
HETATM   13  C19 UNL     1      -0.633   1.428  -1.261  1.00  0.00     0.069 C 
HETATM   14  N5  UNL     1       0.029   1.132  -0.032  1.00  0.00    -0.299 N 
HETATM   15  C23 UNL     1      -0.695   1.649   1.131  1.00  0.00     0.248 C 
HETATM   16  O5  UNL     1      -1.892   1.974   0.966  1.00  0.00    -0.271 OA
HETATM   17  C24 UNL     1      -0.136   1.818   2.471  1.00  0.00     0.181 C 
HETATM   18  N6  UNL     1       1.224   1.405   2.587  1.00  0.00    -0.346 N 
ATOM     19  H6  UNL     1       1.664   1.349   3.505  1.00  0.00     0.163 HD
HETATM   20  C29 UNL     1       1.953   1.077   1.441  1.00  0.00     0.244 C 
HETATM   21  O6  UNL     1       3.209   1.325   1.419  1.00  0.00    -0.271 OA
HETATM   22  C30 UNL     1       1.239   0.448   0.276  1.00  0.00     0.216 C 
ENDROOT
BRANCH   1  23
HETATM   23  C6  UNL     1       2.592  -1.544   0.234  1.00  0.00     0.244 C 
HETATM   24  N1  UNL     1       3.070  -2.050  -0.977  1.00  0.00    -0.355 N 
HETATM   25  C5  UNL     1       2.175  -2.134  -2.128  1.00  0.00     0.152 C 
HETATM   26  O1  UNL     1       3.326  -1.492   1.236  1.00  0.00    -0.271 OA
BRANCH  24  27
HETATM   27  C4  UNL     1       4.418  -2.529  -1.192  1.00  0.00     0.125 C 
BRANCH  27  28
HETATM   28  C3  UNL     1       5.360  -1.516  -1.748  1.00  0.00     0.019 C 
BRANCH  28  29
HETATM   29  C2  UNL     1       5.516  -0.303  -0.886  1.00  0.00    -0.003 C 
HETATM   30  C1  UNL     1       6.504   0.675  -1.510  1.00  0.00     0.005 C 
ENDBRANCH  28  29
ENDBRANCH  27  28
ENDBRANCH  24  27
ENDBRANCH   1  23
BRANCH   4  31
HETATM   31  O2  UNL     1       0.313  -3.691   2.347  1.00  0.00    -0.345 OA
ATOM     32  H2  UNL     1      -0.301  -4.394   2.521  1.00  0.00     0.219 HD
ENDBRANCH   4  31
BRANCH   5  33
HETATM   33  C10 UNL     1      -2.551  -1.730   2.509  1.00  0.00     0.072 C 
BRANCH  33  34
HETATM   34  C11 UNL     1      -4.008  -2.068   2.277  1.00  0.00     0.079 C 
BRANCH  34  35
HETATM   35  S1  UNL     1      -5.080  -0.874   3.164  1.00  0.00    -0.173 SA
HETATM   36  C12 UNL     1      -4.897  -1.042   4.943  1.00  0.00     0.089 C 
ENDBRANCH  34  35
ENDBRANCH  33  34
ENDBRANCH   5  33
BRANCH  13  37
HETATM   37  C20 UNL     1       0.086   1.363  -2.557  1.00  0.00     0.032 C 
HETATM   38  C21 UNL     1       1.426   2.039  -2.618  1.00  0.00     0.016 C 
HETATM   39  C22 UNL     1      -0.789   2.154  -3.565  1.00  0.00     0.016 C 
ENDBRANCH  13  37
BRANCH  12  40
HETATM   40  O4  UNL     1      -2.933   1.601  -1.675  1.00  0.00    -0.345 OA
ATOM     41  H4  UNL     1      -2.657   2.499  -1.820  1.00  0.00     0.219 HD
ENDBRANCH  12  40
BRANCH  17  42
HETATM   42  C25 UNL     1      -0.221   3.316   2.789  1.00  0.00     0.013 C 
HETATM   43  C26 UNL     1       0.558   4.119   1.797  1.00  0.00     0.012 C 
BRANCH  42  44
HETATM   44  C27 UNL     1       0.198   3.585   4.216  1.00  0.00     0.002 C 
HETATM   45  C28 UNL     1       0.110   5.053   4.509  1.00  0.00     0.005 C 
ENDBRANCH  42  44
ENDBRANCH  17  42
BRANCH   8  46
HETATM   46  O3  UNL     1      -1.518  -3.978  -1.473  1.00  0.00    -0.348 OA
ATOM     47  H3  UNL     1      -1.302  -3.849  -2.389  1.00  0.00     0.219 HD
ENDBRANCH   8  46
BRANCH   9  48
HETATM   48  C15 UNL     1      -2.928  -2.173  -2.903  1.00  0.00     0.033 C 
BRANCH  48  49
HETATM   49  C16 UNL     1      -3.166  -1.188  -3.969  1.00  0.00    -0.002 C 
HETATM   50  C17 UNL     1      -4.088  -1.874  -4.995  1.00  0.00     0.005 C 
ENDBRANCH  48  49
ENDBRANCH   9  48
TORSDOF 15
