REMARK  7 active torsions:
REMARK  status: ('A' for Active; 'I' for Inactive)
REMARK    1  A    between atoms: N1_2  and  C2_4 
REMARK    2  A    between atoms: C3_7  and  N3_8 
REMARK    3  A    between atoms: N3_8  and  N4_10 
REMARK    4  A    between atoms: C7_19  and  N7_20 
REMARK    5  A    between atoms: N8_23  and  C8_24 
REMARK    6  A    between atoms: C8_24  and  C9_25 
REMARK    7  A    between atoms: C9_25  and  O1_27 
ROOT
HETATM    1  C2  UNL     1      -1.975   0.255  -0.375  1.00  0.00     0.148 A 
HETATM    2  N2  UNL     1      -2.301  -0.522   0.672  1.00  0.00    -0.173 N 
ATOM      3  H2  UNL     1      -3.271  -0.813   0.790  1.00  0.00     0.186 HD
HETATM    4  C3  UNL     1      -1.379  -0.929   1.573  1.00  0.00     0.699 A 
HETATM    5  N5  UNL     1      -0.084  -0.558   1.441  1.00  0.00    -0.172 N 
ATOM      6  H5  UNL     1       0.598  -0.875   2.130  1.00  0.00     0.186 HD
HETATM    7  C4  UNL     1       0.326   0.220   0.421  1.00  0.00     0.170 A 
HETATM    8  C5  UNL     1      -0.647   0.617  -0.483  1.00  0.00     0.140 A 
HETATM    9  N6  UNL     1      -0.029   1.373  -1.399  1.00  0.00    -0.180 N 
HETATM   10  C6  UNL     1      -0.693   2.003  -2.544  1.00  0.00     0.176 C 
HETATM   11  C7  UNL     1       1.255   1.436  -1.075  1.00  0.00     0.682 A 
HETATM   12  N8  UNL     1       1.507   0.732   0.046  1.00  0.00    -0.163 N 
ENDROOT
BRANCH   4  13
HETATM   13  N3  UNL     1      -1.679  -1.675   2.583  1.00  0.00    -0.138 N 
ATOM     14  H3  UNL     1      -0.965  -1.968   3.250  1.00  0.00     0.205 HD
BRANCH  13  15
HETATM   15  N4  UNL     1      -3.011  -2.069   2.736  1.00  0.00    -0.331 N 
ATOM     16  H42 UNL     1      -3.713  -1.767   2.061  1.00  0.00     0.177 HD
ATOM     17  H41 UNL     1      -3.248  -2.658   3.534  1.00  0.00     0.177 HD
ENDBRANCH  13  15
ENDBRANCH   4  13
BRANCH   1  18
HETATM   18  N1  UNL     1      -2.839   0.640  -1.225  1.00  0.00    -0.378 N 
HETATM   19  C1  UNL     1      -4.238   0.279  -1.142  1.00  0.00     0.147 C 
ATOM     20  H1  UNL     1      -2.533   1.229  -1.999  1.00  0.00     0.160 HD
ENDBRANCH   1  18
BRANCH  12  21
HETATM   21  C8  UNL     1       2.779   0.567   0.685  1.00  0.00     0.180 C 
BRANCH  21  22
HETATM   22  C9  UNL     1       3.604  -0.570   0.205  1.00  0.00     0.133 C 
HETATM   23  C10 UNL     1       2.972  -1.931   0.361  1.00  0.00     0.041 C 
BRANCH  22  24
HETATM   24  O1  UNL     1       4.762  -0.596   1.023  1.00  0.00    -0.394 OA
ATOM     25  H1  UNL     1       5.290  -1.324   0.716  1.00  0.00     0.210 HD
ENDBRANCH  22  24
ENDBRANCH  21  22
ENDBRANCH  12  21
BRANCH  11  26
HETATM   26  N7  UNL     1       2.168   2.071  -1.716  1.00  0.00    -0.234 N 
ATOM     27  H72 UNL     1       1.977   2.604  -2.565  1.00  0.00     0.174 HD
ATOM     28  H71 UNL     1       3.156   2.119  -1.467  1.00  0.00     0.174 HD
ENDBRANCH  11  26
TORSDOF 7
