REMARK  3 active torsions:
REMARK  status: ('A' for Active; 'I' for Inactive)
REMARK    1  A    between atoms: O1_2  and  C2_3 
REMARK    2  A    between atoms: C11_18  and  N5_19 
REMARK    3  A    between atoms: N5_19  and  N6_21 
ROOT
HETATM    1  C2  UNL     1       2.711   0.553  -0.402  1.00  0.00     0.114 A 
HETATM    2  C3  UNL     1       2.396   1.836  -0.798  1.00  0.00     0.149 A 
HETATM    3  C4  UNL     1       3.499   2.699  -1.175  1.00  0.00     0.120 C 
HETATM    4  N1  UNL     1       4.369   3.396  -1.490  1.00  0.00    -0.190 NA
HETATM    5  N2  UNL     1       1.123   2.272  -0.835  1.00  0.00    -0.330 N 
ATOM      6  H2  UNL     1       0.905   3.224  -1.131  1.00  0.00     0.168 HD
HETATM    7  C5  UNL     1       0.131   1.410  -0.467  1.00  0.00     0.132 A 
HETATM    8  C6  UNL     1       0.399   0.121  -0.065  1.00  0.00     0.085 A 
HETATM    9  C7  UNL     1       1.714  -0.331  -0.026  1.00  0.00     0.005 A 
HETATM   10  C8  UNL     1       2.003  -1.701   0.400  1.00  0.00     0.054 C 
HETATM   11  N3  UNL     1      -0.803  -0.552   0.256  1.00  0.00    -0.348 N 
HETATM   12  C9  UNL     1      -1.090  -1.978   0.441  1.00  0.00     0.145 C 
HETATM   13  C10 UNL     1      -2.575  -2.118   0.732  1.00  0.00     0.141 C 
HETATM   14  N4  UNL     1      -3.366  -1.264  -0.122  1.00  0.00    -0.374 N 
ATOM     15  H4  UNL     1      -4.193  -1.640  -0.586  1.00  0.00     0.161 HD
HETATM   16  C11 UNL     1      -3.039  -0.034  -0.303  1.00  0.00     0.135 C 
HETATM   17  C12 UNL     1      -1.831   0.457   0.394  1.00  0.00     0.256 C 
HETATM   18  N7  UNL     1      -1.284   1.554  -0.394  1.00  0.00    -0.347 N 
ATOM     19  H7  UNL     1      -1.827   2.303  -0.824  1.00  0.00     0.163 HD
ENDROOT
BRANCH   1  20
HETATM   20  O1  UNL     1       4.052   0.125  -0.373  1.00  0.00    -0.352 OA
HETATM   21  C1  UNL     1       4.733   0.340   0.856  1.00  0.00     0.210 C 
ENDBRANCH   1  20
BRANCH  16  22
HETATM   22  N5  UNL     1      -3.807   0.811  -1.137  1.00  0.00    -0.293 N 
ATOM     23  H5  UNL     1      -3.384   1.127  -2.010  1.00  0.00     0.187 HD
BRANCH  22  24
HETATM   24  N6  UNL     1      -5.091   1.240  -0.853  1.00  0.00    -0.344 N 
ATOM     25  H62 UNL     1      -5.498   0.915   0.024  1.00  0.00     0.176 HD
ATOM     26  H61 UNL     1      -5.645   1.850  -1.455  1.00  0.00     0.176 HD
ENDBRANCH  22  24
ENDBRANCH  16  22
TORSDOF 3
