REMARK  13 active torsions:
REMARK  status: ('A' for Active; 'I' for Inactive)
REMARK    1  A    between atoms: C2_2  and  C3_3 
REMARK    2  A    between atoms: C3_3  and  O1_4 
REMARK    3  A    between atoms: C6_7  and  N1_8 
REMARK    4  A    between atoms: C7_12  and  O2_13 
REMARK    5  A    between atoms: O2_13  and  C8_14 
REMARK    6  A    between atoms: C12_18  and  O3_19 
REMARK    7  A    between atoms: C13_21  and  O4_22 
REMARK    8  A    between atoms: O4_22  and  C14_23 
REMARK    9  A    between atoms: C15_25  and  C16_26 
REMARK   10  A    between atoms: C16_26  and  N2_27 
REMARK   11  A    between atoms: C17_31  and  O6_32 
REMARK   12  A    between atoms: C18_34  and  O7_35 
REMARK   13  A    between atoms: C19_37  and  O8_38 
ROOT
HETATM    1  C8  UNL     1      -0.031   0.715   0.671  1.00  0.00     0.157 C 
HETATM    2  C9  UNL     1       0.361   0.949   2.107  1.00  0.00     0.015 C 
HETATM    3  C10 UNL     1      -0.828   1.458   2.896  1.00  0.00     0.012 C 
HETATM    4  C11 UNL     1       1.393   2.064   2.168  1.00  0.00     0.041 C 
HETATM    5  C12 UNL     1       2.638   1.747   1.419  1.00  0.00     0.150 C 
HETATM    6  C13 UNL     1       2.478   0.453   0.645  1.00  0.00     0.184 C 
HETATM    7  C19 UNL     1       1.191   0.474  -0.169  1.00  0.00     0.179 C 
ENDROOT
BRANCH   1   8
HETATM    8  O2  UNL     1      -1.004  -0.207   0.482  1.00  0.00    -0.376 OA
BRANCH   8   9
HETATM    9  C7  UNL     1      -2.225   0.161   0.019  1.00  0.00     0.153 C 
HETATM   10  C6  UNL     1      -2.530  -0.583  -1.255  1.00  0.00     0.215 C 
HETATM   11  C5  UNL     1      -3.818  -0.018  -1.826  1.00  0.00     0.078 C 
HETATM   12  C3  UNL     1      -4.946   0.017  -0.806  1.00  0.00     0.083 C 
HETATM   13  C21 UNL     1      -4.503  -0.867   0.356  1.00  0.00     0.023 C 
HETATM   14  C20 UNL     1      -3.283  -0.307   1.033  1.00  0.00     0.041 C 
HETATM   15  C22 UNL     1      -5.614  -0.996   1.370  1.00  0.00     0.013 C 
BRANCH  10  16
HETATM   16  N1  UNL     1      -1.479  -0.277  -2.214  1.00  0.00    -0.072 N 
ATOM     17  H13 UNL     1      -1.683  -0.612  -3.156  1.00  0.00     0.274 HD
ATOM     18  H12 UNL     1      -1.418   0.715  -2.441  1.00  0.00     0.274 HD
ATOM     19  H11 UNL     1      -0.614  -0.657  -1.830  1.00  0.00     0.274 HD
ENDBRANCH  10  16
BRANCH  12  20
HETATM   20  C2  UNL     1      -5.225   1.398  -0.358  1.00  0.00     0.001 C 
HETATM   21  C1  UNL     1      -6.352   1.730   0.254  1.00  0.00     0.010 C 
ENDBRANCH  12  20
BRANCH  12  22
HETATM   22  O1  UNL     1      -6.068  -0.597  -1.341  1.00  0.00    -0.381 OA
HETATM   23  C4  UNL     1      -6.612   0.020  -2.435  1.00  0.00     0.203 C 
ENDBRANCH  12  22
ENDBRANCH   8   9
ENDBRANCH   1   8
BRANCH   7  24
HETATM   24  O8  UNL     1       1.367   1.495  -1.118  1.00  0.00    -0.390 OA
ATOM     25  H8  UNL     1       2.140   1.343  -1.649  1.00  0.00     0.210 HD
ENDBRANCH   7  24
BRANCH   6  26
HETATM   26  O4  UNL     1       3.583   0.228  -0.151  1.00  0.00    -0.348 OA
BRANCH  26  27
HETATM   27  C14 UNL     1       4.214  -0.959   0.189  1.00  0.00     0.292 C 
HETATM   28  O5  UNL     1       5.503  -0.766   0.654  1.00  0.00    -0.349 OA
HETATM   29  C15 UNL     1       6.378  -1.426  -0.165  1.00  0.00     0.181 C 
HETATM   30  C17 UNL     1       5.613  -2.530  -0.855  1.00  0.00     0.182 C 
HETATM   31  C18 UNL     1       4.234  -1.954  -0.925  1.00  0.00     0.204 C 
BRANCH  29  32
HETATM   32  C16 UNL     1       6.820  -0.451  -1.248  1.00  0.00     0.264 C 
BRANCH  32  33
HETATM   33  N2  UNL     1       7.470   0.706  -0.684  1.00  0.00    -0.077 N 
ATOM     34  H23 UNL     1       6.881   1.163   0.012  1.00  0.00     0.274 HD
ATOM     35  H22 UNL     1       8.249   0.440  -0.081  1.00  0.00     0.274 HD
ATOM     36  H21 UNL     1       7.766   1.359  -1.409  1.00  0.00     0.274 HD
ENDBRANCH  32  33
ENDBRANCH  29  32
BRANCH  30  37
HETATM   37  O6  UNL     1       5.684  -3.712  -0.121  1.00  0.00    -0.390 OA
ATOM     38  H6  UNL     1       5.203  -4.407  -0.555  1.00  0.00     0.210 HD
ENDBRANCH  30  37
BRANCH  31  39
HETATM   39  O7  UNL     1       3.274  -2.964  -0.721  1.00  0.00    -0.388 OA
ATOM     40  H7  UNL     1       3.287  -3.597  -1.429  1.00  0.00     0.210 HD
ENDBRANCH  31  39
ENDBRANCH  26  27
ENDBRANCH   6  26
BRANCH   5  41
HETATM   41  O3  UNL     1       3.074   2.785   0.601  1.00  0.00    -0.393 OA
ATOM     42  H3  UNL     1       3.869   2.582   0.123  1.00  0.00     0.210 HD
ENDBRANCH   5  41
TORSDOF 13
