REMARK  4 active torsions:
REMARK  status: ('A' for Active; 'I' for Inactive)
REMARK    1  A    between atoms: C2_2  and  C4_4 
REMARK    2  A    between atoms: C5_7  and  C6_8 
REMARK    3  A    between atoms: C6_8  and  N2_9 
REMARK    4  A    between atoms: C9_15  and  N3_16 
ROOT
HETATM    1  C4  UNL     1      -0.829  -0.087  -0.836  1.00  0.00     0.110 C 
HETATM    2  N1  UNL     1       0.259  -0.878  -0.362  1.00  0.00    -0.409 N 
ATOM      3  H1  UNL     1       0.113  -1.706   0.216  1.00  0.00     0.154 HD
HETATM    4  C5  UNL     1       1.555  -0.446  -0.741  1.00  0.00     0.102 C 
HETATM    5  C7  UNL     1       1.839   0.999  -0.492  1.00  0.00     0.028 C 
HETATM    6  C8  UNL     1       0.635   1.806  -0.118  1.00  0.00     0.037 C 
HETATM    7  C9  UNL     1      -0.525   1.374  -0.983  1.00  0.00     0.206 C 
ENDROOT
BRANCH   4   8
HETATM    8  C6  UNL     1       2.556  -1.256   0.093  1.00  0.00     0.254 C 
BRANCH   8   9
HETATM    9  N2  UNL     1       2.273  -0.967   1.481  1.00  0.00    -0.077 N 
ATOM     10  H23 UNL     1       2.286   0.030   1.695  1.00  0.00     0.274 HD
ATOM     11  H22 UNL     1       1.301  -1.141   1.738  1.00  0.00     0.274 HD
ATOM     12  H21 UNL     1       2.939  -1.506   2.035  1.00  0.00     0.274 HD
ENDBRANCH   8   9
ENDBRANCH   4   8
BRANCH   1  13
HETATM   13  C2  UNL     1      -2.017  -0.365   0.064  1.00  0.00     0.002 C 
HETATM   14  C1  UNL     1      -1.723  -0.007   1.506  1.00  0.00     0.011 C 
HETATM   15  C3  UNL     1      -2.213  -1.885   0.040  1.00  0.00     0.011 C 
ENDBRANCH   1  13
BRANCH   7  16
HETATM   16  N3  UNL     1      -1.633   2.236  -0.698  1.00  0.00    -0.073 N 
ATOM     17  H33 UNL     1      -2.440   1.980  -1.267  1.00  0.00     0.274 HD
ATOM     18  H32 UNL     1      -2.007   2.041   0.231  1.00  0.00     0.274 HD
ATOM     19  H31 UNL     1      -1.426   3.230  -0.798  1.00  0.00     0.274 HD
ENDBRANCH   7  16
TORSDOF 4
