REMARK  8 active torsions:
REMARK  status: ('A' for Active; 'I' for Inactive)
REMARK    1  A    between atoms: C2_2  and  C3_3 
REMARK    2  A    between atoms: C3_3  and  C4_4 
REMARK    3  A    between atoms: C6_8  and  N2_9 
REMARK    4  A    between atoms: N5_17  and  C8_18 
REMARK    5  A    between atoms: C8_18  and  C9_19 
REMARK    6  A    between atoms: C9_19  and  N6_20 
REMARK    7  A    between atoms: N6_20  and  C10_21 
REMARK    8  A    between atoms: N6_20  and  C12_23 
ROOT
HETATM    1  C4  UNL     1      -2.129   0.508   0.304  1.00  0.00     0.086 A 
HETATM    2  N1  UNL     1      -3.279   0.006  -0.243  1.00  0.00    -0.340 N 
ATOM      3  H1  UNL     1      -4.153   0.525  -0.329  1.00  0.00     0.167 HD
HETATM    4  C5  UNL     1      -3.103  -1.255  -0.650  1.00  0.00     0.126 A 
HETATM    5  C6  UNL     1      -3.629  -2.397  -1.236  1.00  0.00     0.160 A 
HETATM    6  N3  UNL     1      -2.699  -3.365  -1.298  1.00  0.00    -0.197 N 
HETATM    7  S1  UNL     1      -2.903  -5.008  -1.966  1.00  0.00     0.070 SA
HETATM    8  N4  UNL     1      -1.607  -2.852  -0.764  1.00  0.00    -0.268 N 
ATOM      9  H4  UNL     1      -0.724  -3.355  -0.669  1.00  0.00     0.190 HD
HETATM   10  C7  UNL     1      -1.802  -1.586  -0.361  1.00  0.00     0.156 A 
HETATM   11  N5  UNL     1      -1.245  -0.485   0.219  1.00  0.00    -0.315 N 
ENDROOT
BRANCH  11  12
HETATM   12  C8  UNL     1       0.162  -0.476   0.630  1.00  0.00     0.176 C 
BRANCH  12  13
HETATM   13  C9  UNL     1       0.980  -0.125  -0.569  1.00  0.00     0.083 C 
BRANCH  13  14
HETATM   14  N6  UNL     1       2.369  -0.061  -0.439  1.00  0.00    -0.373 N 
BRANCH  14  15
HETATM   15  C10 UNL     1       3.021  -1.329  -0.191  1.00  0.00     0.122 C 
HETATM   16  C11 UNL     1       4.535  -1.198  -0.109  1.00  0.00     0.027 C 
ENDBRANCH  14  15
BRANCH  14  17
HETATM   17  C12 UNL     1       2.998   1.070   0.103  1.00  0.00     0.058 C 
HETATM   18  C13 UNL     1       2.765   1.304   1.583  1.00  0.00     0.055 C 
ENDBRANCH  14  17
ENDBRANCH  13  14
ENDBRANCH  12  13
ENDBRANCH  11  12
BRANCH   1  19
HETATM   19  C3  UNL     1      -1.991   1.887   0.884  1.00  0.00     0.076 C 
BRANCH  19  20
HETATM   20  C2  UNL     1      -1.589   2.924  -0.100  1.00  0.00     0.003 C 
HETATM   21  C1  UNL     1      -1.513   4.278   0.581  1.00  0.00     0.005 C 
ENDBRANCH  19  20
ENDBRANCH   1  19
BRANCH   5  22
HETATM   22  N2  UNL     1      -4.840  -2.499  -1.659  1.00  0.00    -0.382 N 
ATOM     23  H22 UNL     1      -5.546  -1.764  -1.612  1.00  0.00     0.157 HD
ATOM     24  H21 UNL     1      -5.227  -3.339  -2.090  1.00  0.00     0.157 HD
ENDBRANCH   5  22
TORSDOF 8
