REMARK  9 active torsions:
REMARK  status: ('A' for Active; 'I' for Inactive)
REMARK    1  A    between atoms: O1_2  and  C2_3 
REMARK    2  A    between atoms: C2_3  and  C4_5 
REMARK    3  A    between atoms: C4_5  and  C5_6 
REMARK    4  A    between atoms: C5_6  and  C6_7 
REMARK    5  A    between atoms: C6_7  and  N1_8 
REMARK    6  A    between atoms: N1_8  and  C7_10 
REMARK    7  A    between atoms: C7_10  and  C9_12 
REMARK    8  A    between atoms: C9_12  and  N2_13 
REMARK    9  A    between atoms: N2_13  and  C10_15 
ROOT
HETATM    1  C7  UNL     1      -1.244  -1.884   0.579  1.00  0.00     0.090 C 
HETATM    2  C8  UNL     1      -2.298  -3.006   0.604  1.00  0.00     0.033 C 
ENDROOT
BRANCH   1   3
HETATM    3  N1  UNL     1       0.007  -2.521   0.831  1.00  0.00    -0.416 N 
ATOM      4  H1  UNL     1       0.082  -3.538   0.868  1.00  0.00     0.153 HD
BRANCH   3   5
HETATM    5  C6  UNL     1       1.139  -1.700   1.027  1.00  0.00     0.114 C 
BRANCH   5   6
HETATM    6  C5  UNL     1       1.633  -0.937  -0.163  1.00  0.00     0.022 C 
BRANCH   6   7
HETATM    7  C4  UNL     1       2.836  -0.140   0.307  1.00  0.00     0.033 C 
BRANCH   7   8
HETATM    8  C2  UNL     1       3.464   0.695  -0.770  1.00  0.00     0.116 C 
HETATM    9  C3  UNL     1       4.004  -0.206  -1.839  1.00  0.00     0.039 C 
BRANCH   8  10
HETATM   10  O1  UNL     1       4.553   1.364  -0.180  1.00  0.00    -0.391 OA
HETATM   11  C1  UNL     1       4.439   2.742  -0.342  1.00  0.00     0.202 C 
ENDBRANCH   8  10
ENDBRANCH   7   8
ENDBRANCH   6   7
ENDBRANCH   5   6
ENDBRANCH   3   5
ENDBRANCH   1   3
BRANCH   1  12
HETATM   12  C9  UNL     1      -1.586  -0.975   1.728  1.00  0.00     0.144 C 
BRANCH  12  13
HETATM   13  N2  UNL     1      -2.832  -0.284   1.597  1.00  0.00    -0.388 N 
ATOM     14  H2  UNL     1      -3.553  -0.516   2.281  1.00  0.00     0.159 HD
BRANCH  13  15
HETATM   15  C10 UNL     1      -3.174   0.678   0.632  1.00  0.00     0.028 A 
HETATM   16  C11 UNL     1      -4.486   1.149   0.523  1.00  0.00     0.029 A 
HETATM   17  C12 UNL     1      -4.865   2.095  -0.400  1.00  0.00     0.002 A 
HETATM   18  C13 UNL     1      -3.923   2.611  -1.259  1.00  0.00     0.000 A 
HETATM   19  C14 UNL     1      -2.617   2.179  -1.190  1.00  0.00     0.002 A 
HETATM   20  C15 UNL     1      -2.264   1.213  -0.238  1.00  0.00     0.029 A 
ENDBRANCH  13  15
ENDBRANCH  12  13
ENDBRANCH   1  12
TORSDOF 9
