REMARK  8 active torsions:
REMARK  status: ('A' for Active; 'I' for Inactive)
REMARK    1  A    between atoms: S1_2  and  C2_3 
REMARK    2  A    between atoms: C2_3  and  C3_4 
REMARK    3  A    between atoms: C3_4  and  C4_5 
REMARK    4  A    between atoms: C4_5  and  N1_6 
REMARK    5  A    between atoms: N1_6  and  C5_8 
REMARK    6  A    between atoms: C5_8  and  C7_10 
REMARK    7  A    between atoms: N2_11  and  C8_13 
REMARK    8  A    between atoms: C8_13  and  C9_14 
ROOT
HETATM    1  C7  UNL     1      -0.069   1.086  -0.167  1.00  0.00     0.080 C 
HETATM    2  N2  UNL     1      -1.320   0.588  -0.049  1.00  0.00    -0.400 N 
ATOM      3  H2  UNL     1      -1.998   1.164   0.450  1.00  0.00     0.158 HD
ENDROOT
BRANCH   1   4
HETATM    4  C5  UNL     1       1.143   0.520   0.518  1.00  0.00     0.114 C 
HETATM    5  C6  UNL     1       1.528  -0.871   0.189  1.00  0.00     0.038 C 
BRANCH   4   6
HETATM    6  N1  UNL     1       2.221   1.421   0.160  1.00  0.00    -0.394 N 
ATOM      7  H1  UNL     1       2.082   2.109  -0.580  1.00  0.00     0.159 HD
BRANCH   6   8
HETATM    8  C4  UNL     1       3.440   1.353   0.817  1.00  0.00     0.057 C 
BRANCH   8   9
HETATM    9  C3  UNL     1       4.431   0.286   0.560  1.00  0.00     0.054 C 
BRANCH   9  10
HETATM   10  C2  UNL     1       4.937   0.356  -0.892  1.00  0.00     0.078 C 
BRANCH  10  11
HETATM   11  S1  UNL     1       6.168  -0.959  -1.185  1.00  0.00    -0.173 SA
HETATM   12  C1  UNL     1       7.636  -0.576  -0.160  1.00  0.00     0.089 C 
ENDBRANCH  10  11
ENDBRANCH   9  10
ENDBRANCH   8   9
ENDBRANCH   6   8
ENDBRANCH   4   6
ENDBRANCH   1   4
BRANCH   2  13
HETATM   13  C8  UNL     1      -1.770  -0.618  -0.535  1.00  0.00     0.123 C 
BRANCH  13  14
HETATM   14  C9  UNL     1      -3.304  -0.774  -0.400  1.00  0.00     0.003 C 
HETATM   15  C10 UNL     1      -3.731  -0.697   1.020  1.00  0.00     0.006 C 
HETATM   16  C11 UNL     1      -5.181  -1.045   1.114  1.00  0.00     0.000 C 
HETATM   17  C12 UNL     1      -6.048  -0.227   0.190  1.00  0.00     0.000 C 
HETATM   18  C13 UNL     1      -5.503  -0.167  -1.216  1.00  0.00     0.000 C 
HETATM   19  C14 UNL     1      -4.044   0.240  -1.201  1.00  0.00     0.006 C 
ENDBRANCH  13  14
ENDBRANCH   2  13
TORSDOF 8
