REMARK  3 active torsions:
REMARK  status: ('A' for Active; 'I' for Inactive)
REMARK    1  A    between atoms: C1_1  and  C7_10 
REMARK    2  A    between atoms: C2_2  and  C3_3 
REMARK    3  A    between atoms: C7_10  and  N2_11 
ROOT
HETATM    1  C1  UNL     1      -0.028  -0.514   0.082  1.00  0.00    -0.001 C 
HETATM    2  C2  UNL     1       1.207  -0.330  -0.359  1.00  0.00    -0.023 C 
ENDROOT
BRANCH   2   3
HETATM    3  C3  UNL     1       2.396  -0.376   0.556  1.00  0.00     0.035 C 
HETATM    4  C4  UNL     1       3.199   0.901   0.373  1.00  0.00     0.037 C 
HETATM    5  C5  UNL     1       4.571   0.473  -0.062  1.00  0.00     0.233 C 
HETATM    6  N1  UNL     1       4.700  -0.914   0.321  1.00  0.00    -0.074 N 
HETATM    7  C6  UNL     1       3.349  -1.457   0.156  1.00  0.00     0.240 C 
ATOM      8  H12 UNL     1       5.421  -1.424  -0.189  1.00  0.00     0.277 HD
ATOM      9  H11 UNL     1       5.098  -1.057   1.249  1.00  0.00     0.277 HD
ENDBRANCH   2   3
BRANCH   1  10
HETATM   10  C7  UNL     1      -1.205  -0.470  -0.814  1.00  0.00     0.299 C 
BRANCH  10  11
HETATM   11  N2  UNL     1      -2.088   0.586  -0.339  1.00  0.00     0.091 N 
HETATM   12  C8  UNL     1      -3.200   0.785  -1.243  1.00  0.00     0.273 C 
HETATM   13  C9  UNL     1      -4.438   0.865  -0.412  1.00  0.00     0.032 C 
HETATM   14  C10 UNL     1      -4.123  -0.104   0.711  1.00  0.00     0.032 C 
HETATM   15  C11 UNL     1      -2.653   0.242   0.955  1.00  0.00     0.273 C 
ENDBRANCH  10  11
ENDBRANCH   1  10
TORSDOF 3
