REMARK  5 active torsions:
REMARK  status: ('A' for Active; 'I' for Inactive)
REMARK    1  A    between atoms: C2_2  and  N1_3 
REMARK    2  A    between atoms: C2_2  and  C3_7 
REMARK    3  A    between atoms: C3_7  and  N2_8 
REMARK    4  A    between atoms: C3_7  and  N3_12 
REMARK    5  A    between atoms: N3_12  and  C4_14 
ROOT
HETATM    1  C3  UNL     1      -0.719   0.860   0.109  1.00  0.00     0.327 C 
ENDROOT
BRANCH   1   2
HETATM    2  C2  UNL     1      -1.470  -0.258  -0.516  1.00  0.00     0.229 C 
HETATM    3  C1  UNL     1      -2.802  -0.509   0.205  1.00  0.00     0.043 C 
BRANCH   2   4
HETATM    4  N1  UNL     1      -0.782  -1.516  -0.498  1.00  0.00    -0.072 N 
ATOM      5  H13 UNL     1      -0.675  -1.911   0.436  1.00  0.00     0.274 HD
ATOM      6  H12 UNL     1      -1.323  -2.285  -0.893  1.00  0.00     0.274 HD
ATOM      7  H11 UNL     1       0.103  -1.349  -0.977  1.00  0.00     0.274 HD
ENDBRANCH   2   4
ENDBRANCH   1   2
BRANCH   1   8
HETATM    8  N2  UNL     1      -1.469   2.112   0.080  1.00  0.00    -0.056 N 
ATOM      9  H23 UNL     1      -1.758   2.347  -0.869  1.00  0.00     0.276 HD
ATOM     10  H22 UNL     1      -2.389   2.001   0.507  1.00  0.00     0.276 HD
ATOM     11  H21 UNL     1      -0.953   2.880   0.509  1.00  0.00     0.276 HD
ENDBRANCH   1   8
BRANCH   1  12
HETATM   12  N3  UNL     1       0.568   1.103  -0.468  1.00  0.00    -0.193 N 
ATOM     13  H3  UNL     1       0.654   1.908  -1.089  1.00  0.00     0.180 HD
BRANCH  12  14
HETATM   14  C4  UNL     1       1.722   0.334  -0.256  1.00  0.00     0.695 A 
HETATM   15  N4  UNL     1       1.953  -0.747   0.489  1.00  0.00    -0.185 N 
HETATM   16  C5  UNL     1       3.225  -1.161   0.394  1.00  0.00     0.215 A 
ATOM     17  H4  UNL     1       1.246  -1.205   1.064  1.00  0.00     0.185 HD
HETATM   18  N5  UNL     1       3.811  -0.293  -0.452  1.00  0.00    -0.281 N 
HETATM   19  N6  UNL     1       2.926   0.605  -0.848  1.00  0.00    -0.131 N 
ATOM     20  H5  UNL     1       4.788  -0.324  -0.743  1.00  0.00     0.188 HD
ATOM     21  H6  UNL     1       3.110   1.375  -1.491  1.00  0.00     0.205 HD
ENDBRANCH  12  14
ENDBRANCH   1  12
TORSDOF 5
