REMARK  9 active torsions:
REMARK  status: ('A' for Active; 'I' for Inactive)
REMARK    1  A    between atoms: C1_2  and  C2_4 
REMARK    2  A    between atoms: C2_4  and  C3_5 
REMARK    3  A    between atoms: C3_5  and  C4_6 
REMARK    4  A    between atoms: C4_6  and  C5_7 
REMARK    5  A    between atoms: C5_7  and  C6_8 
REMARK    6  A    between atoms: C6_8  and  C7_9 
REMARK    7  A    between atoms: N2_15  and  C11_16 
REMARK    8  A    between atoms: C11_16  and  C12_17 
REMARK    9  A    between atoms: C12_17  and  C13_18 
ROOT
HETATM    1  C7  UNL     1       1.836  -0.732   1.088  1.00  0.00     0.109 C 
HETATM    2  N1  UNL     1       2.154  -1.847   0.256  1.00  0.00    -0.413 N 
ATOM      3  H1  UNL     1       3.112  -2.174   0.133  1.00  0.00     0.153 HD
HETATM    4  C8  UNL     1       1.048  -2.478  -0.394  1.00  0.00     0.149 C 
HETATM    5  C9  UNL     1      -0.190  -2.623   0.429  1.00  0.00     0.232 C 
HETATM    6  C10 UNL     1      -1.386  -2.074  -0.320  1.00  0.00     0.307 C 
HETATM    7  N2  UNL     1      -1.440  -0.647  -0.385  1.00  0.00     0.092 N 
HETATM    8  C18 UNL     1      -0.295   0.036   0.124  1.00  0.00     0.307 C 
HETATM    9  C19 UNL     1       0.351  -0.557   1.312  1.00  0.00     0.236 C 
HETATM   10  N3  UNL     1      -0.140  -1.870   1.672  1.00  0.00    -0.060 N 
ATOM     11  H31 UNL     1       0.405  -2.324   2.404  1.00  0.00     0.278 HD
ATOM     12  H32 UNL     1      -1.027  -1.852   2.176  1.00  0.00     0.278 HD
ENDROOT
BRANCH   1  13
HETATM   13  C6  UNL     1       2.527   0.558   0.695  1.00  0.00     0.027 C 
BRANCH  13  14
HETATM   14  C5  UNL     1       4.040   0.365   0.777  1.00  0.00     0.002 C 
BRANCH  14  15
HETATM   15  C4  UNL     1       4.749   1.658   0.385  1.00  0.00     0.001 C 
BRANCH  15  16
HETATM   16  C3  UNL     1       6.229   1.527   0.452  1.00  0.00     0.010 C 
BRANCH  16  17
HETATM   17  C2  UNL     1       6.846   0.487  -0.414  1.00  0.00     0.113 C 
BRANCH  17  18
HETATM   18  C1  UNL     1       6.643   0.663  -1.861  1.00  0.00     0.172 C 
HETATM   19  O1  UNL     1       6.041   1.630  -2.337  1.00  0.00    -0.648 OA
HETATM   20  O2  UNL     1       7.147  -0.294  -2.724  1.00  0.00    -0.648 OA
ENDBRANCH  17  18
ENDBRANCH  16  17
ENDBRANCH  15  16
ENDBRANCH  14  15
ENDBRANCH  13  14
ENDBRANCH   1  13
BRANCH   7  21
HETATM   21  C11 UNL     1      -2.667  -0.090   0.145  1.00  0.00     0.273 C 
BRANCH  21  22
HETATM   22  C12 UNL     1      -3.877  -0.417  -0.702  1.00  0.00     0.034 C 
BRANCH  22  23
HETATM   23  C13 UNL     1      -5.105   0.194  -0.074  1.00  0.00    -0.013 C 
HETATM   24  C14 UNL     1      -6.371  -0.062  -0.822  1.00  0.00     0.005 C 
HETATM   25  C15 UNL     1      -7.291   1.002  -0.219  1.00  0.00     0.000 C 
HETATM   26  C16 UNL     1      -6.403   2.228  -0.340  1.00  0.00     0.000 C 
HETATM   27  C17 UNL     1      -5.009   1.697   0.018  1.00  0.00     0.005 C 
ENDBRANCH  22  23
ENDBRANCH  21  22
ENDBRANCH   7  21
TORSDOF 9
