REMARK  12 active torsions:
REMARK  status: ('A' for Active; 'I' for Inactive)
REMARK    1  A    between atoms: C2_2  and  C3_3 
REMARK    2  A    between atoms: C3_3  and  C4_4 
REMARK    3  A    between atoms: C4_4  and  C5_5 
REMARK    4  A    between atoms: C5_5  and  C6_6 
REMARK    5  A    between atoms: C6_6  and  C7_7 
REMARK    6  A    between atoms: C7_7  and  C8_8 
REMARK    7  A    between atoms: C11_11  and  C12_12 
REMARK    8  A    between atoms: C16_17  and  O2_18 
REMARK    9  A    between atoms: C17_20  and  C18_21 
REMARK   10  A    between atoms: C17_20  and  C19_24 
REMARK   11  A    between atoms: C18_21  and  O3_22 
REMARK   12  A    between atoms: C19_24  and  O4_25 
ROOT
HETATM    1  C8  UNL     1      -0.275  -0.223  -0.276  1.00  0.00    -0.005 C 
HETATM    2  C9  UNL     1      -0.125  -1.712  -0.495  1.00  0.00     0.033 C 
HETATM    3  C10 UNL     1      -1.321  -2.333  -1.177  1.00  0.00    -0.015 C 
HETATM    4  C11 UNL     1      -2.558  -1.954  -0.921  1.00  0.00    -0.015 C 
HETATM    5  C13 UNL     1      -2.608  -0.880   0.103  1.00  0.00    -0.007 C 
HETATM    6  C14 UNL     1      -2.203  -1.499   1.389  1.00  0.00     0.021 C 
HETATM    7  C15 UNL     1      -3.903  -0.144   0.173  1.00  0.00     0.047 C 
HETATM    8  C16 UNL     1      -3.486   1.175   0.791  1.00  0.00     0.132 C 
HETATM    9  C17 UNL     1      -2.145   1.511   0.063  1.00  0.00     0.033 C 
HETATM   10  C20 UNL     1      -1.672   0.210  -0.426  1.00  0.00     0.018 C 
ENDROOT
BRANCH   1  11
HETATM   11  C7  UNL     1       0.806   0.484  -1.015  1.00  0.00     0.005 C 
BRANCH  11  12
HETATM   12  C6  UNL     1       2.216   0.305  -0.591  1.00  0.00     0.000 C 
BRANCH  12  13
HETATM   13  C5  UNL     1       2.898  -0.979  -0.563  1.00  0.00     0.000 C 
BRANCH  13  14
HETATM   14  C4  UNL     1       4.365  -0.866  -0.128  1.00  0.00     0.004 C 
BRANCH  14  15
HETATM   15  C3  UNL     1       4.519  -0.296   1.229  1.00  0.00     0.026 C 
BRANCH  15  16
HETATM   16  C2  UNL     1       5.960  -0.231   1.586  1.00  0.00    -0.037 C 
HETATM   17  C1  UNL     1       6.852  -0.688   0.728  1.00  0.00     0.007 C 
ENDBRANCH  15  16
ENDBRANCH  14  15
ENDBRANCH  13  14
ENDBRANCH  12  13
ENDBRANCH  11  12
ENDBRANCH   1  11
BRANCH   9  18
HETATM   18  C18 UNL     1      -1.271   2.284   0.991  1.00  0.00     0.178 C 
BRANCH  18  19
HETATM   19  O3  UNL     1      -1.885   3.475   1.405  1.00  0.00    -0.400 OA
ATOM     20  H3  UNL     1      -1.328   3.968   1.996  1.00  0.00     0.209 HD
ENDBRANCH  18  19
ENDBRANCH   9  18
BRANCH   9  21
HETATM   21  C19 UNL     1      -2.611   2.467  -1.039  1.00  0.00     0.178 C 
BRANCH  21  22
HETATM   22  O4  UNL     1      -1.638   2.950  -1.859  1.00  0.00    -0.400 OA
ATOM     23  H4  UNL     1      -1.927   3.543  -2.543  1.00  0.00     0.209 HD
ENDBRANCH  21  22
ENDBRANCH   9  21
BRANCH   4  24
HETATM   24  C12 UNL     1      -3.748  -2.500  -1.534  1.00  0.00     0.266 C 
HETATM   25  O1  UNL     1      -3.671  -3.412  -2.387  1.00  0.00    -0.302 OA
ENDBRANCH   4  24
BRANCH   8  26
HETATM   26  O2  UNL     1      -3.380   1.184   2.140  1.00  0.00    -0.395 OA
ATOM     27  H2  UNL     1      -3.119   2.011   2.527  1.00  0.00     0.210 HD
ENDBRANCH   8  26
TORSDOF 12
