REMARK  9 active torsions:
REMARK  status: ('A' for Active; 'I' for Inactive)
REMARK    1  A    between atoms: C2_2  and  O1_3 
REMARK    2  A    between atoms: C2_2  and  C3_5 
REMARK    3  A    between atoms: C3_5  and  N1_6 
REMARK    4  A    between atoms: C3_5  and  C7_20 
REMARK    5  A    between atoms: N1_6  and  C4_8 
REMARK    6  A    between atoms: C8_25  and  C9_26 
REMARK    7  A    between atoms: C10_34  and  C11_35 
REMARK    8  A    between atoms: C11_35  and  N13_37 
REMARK    9  A    between atoms: C11_35  and  O2_41 
ROOT
HETATM    1  C4  UNL     1      -4.654   0.970  -0.124  1.00  0.00     0.724 A 
HETATM    2  N2  UNL     1      -4.676   1.398   1.151  1.00  0.00    -0.116 N 
ATOM      3  H2  UNL     1      -4.343   0.866   1.955  1.00  0.00     0.206 HD
HETATM    4  N3  UNL     1      -5.190   2.602   1.204  1.00  0.00    -0.116 N 
ATOM      5  H3  UNL     1      -5.326   3.162   2.045  1.00  0.00     0.206 HD
HETATM    6  C5  UNL     1      -5.510   2.970  -0.069  1.00  0.00     0.721 A 
HETATM    7  N4  UNL     1      -6.010   4.047  -0.448  1.00  0.00    -0.232 N 
ATOM      8  H41 UNL     1      -6.249   4.322  -1.400  1.00  0.00     0.174 HD
ATOM      9  H42 UNL     1      -6.263   4.817   0.171  1.00  0.00     0.174 HD
HETATM   10  N5  UNL     1      -5.168   1.930  -0.905  1.00  0.00     0.095 N 
HETATM   11  C6  UNL     1      -5.338   1.975  -2.305  1.00  0.00     0.221 C 
HETATM   12  N6  UNL     1      -5.464   1.999  -3.473  1.00  0.00    -0.170 NA
ENDROOT
BRANCH   1  13
HETATM   13  N1  UNL     1      -4.160  -0.247  -0.625  1.00  0.00    -0.209 N 
ATOM     14  H1  UNL     1      -4.292  -0.488  -1.607  1.00  0.00     0.178 HD
BRANCH  13  15
HETATM   15  C3  UNL     1      -3.467  -1.152   0.256  1.00  0.00     0.197 C 
BRANCH  15  16
HETATM   16  C2  UNL     1      -3.776  -2.603  -0.041  1.00  0.00     0.144 C 
HETATM   17  C1  UNL     1      -5.168  -3.009   0.367  1.00  0.00     0.042 C 
BRANCH  16  18
HETATM   18  O1  UNL     1      -3.421  -2.946  -1.323  1.00  0.00    -0.393 OA
ATOM     19  H1  UNL     1      -2.543  -2.690  -1.580  1.00  0.00     0.210 HD
ENDBRANCH  16  18
ENDBRANCH  15  16
BRANCH  15  20
HETATM   20  C7  UNL     1      -1.984  -1.036  -0.036  1.00  0.00     0.123 A 
HETATM   21  N7  UNL     1      -1.529  -0.578  -1.214  1.00  0.00    -0.286 N 
HETATM   22  N8  UNL     1      -0.184  -0.654  -1.170  1.00  0.00    -0.284 N 
ATOM     23  H7  UNL     1      -2.093  -0.238  -1.993  1.00  0.00     0.188 HD
HETATM   24  C8  UNL     1       0.209  -1.149   0.008  1.00  0.00     0.142 A 
ATOM     25  H8  UNL     1       0.442  -0.375  -1.925  1.00  0.00     0.188 HD
HETATM   26  N16 UNL     1      -0.932  -1.378   0.705  1.00  0.00    -0.328 N 
ATOM     27  H16 UNL     1      -0.977  -1.755   1.652  1.00  0.00     0.168 HD
BRANCH  24  28
HETATM   28  C9  UNL     1       1.603  -1.428   0.437  1.00  0.00     0.285 A 
HETATM   29  N9  UNL     1       1.930  -1.037   1.732  1.00  0.00    -0.289 N 
HETATM   30  N10 UNL     1       2.977  -0.397   2.065  1.00  0.00    -0.208 N 
ATOM     31  H9  UNL     1       1.276  -1.284   2.475  1.00  0.00     0.184 HD
HETATM   32  N11 UNL     1       3.923  -0.014   1.115  1.00  0.00    -0.004 N 
ATOM     33  H10 UNL     1       3.128  -0.159   3.045  1.00  0.00     0.210 HD
HETATM   34  N12 UNL     1       5.070   0.626   1.210  1.00  0.00    -0.247 N 
HETATM   35  C13 UNL     1       3.713  -0.321  -0.188  1.00  0.00     0.719 A 
HETATM   36  C10 UNL     1       5.652   0.770   0.018  1.00  0.00     0.177 A 
ATOM     37  H12 UNL     1       5.464   0.969   2.086  1.00  0.00     0.191 HD
HETATM   38  N14 UNL     1       4.786   0.168  -0.858  1.00  0.00    -0.171 N 
ATOM     39  H14 UNL     1       4.928   0.098  -1.866  1.00  0.00     0.186 HD
HETATM   40  N15 UNL     1       2.533  -1.014  -0.563  1.00  0.00    -0.193 N 
ATOM     41  H15 UNL     1       2.350  -1.216  -1.546  1.00  0.00     0.180 HD
BRANCH  36  42
HETATM   42  C11 UNL     1       6.937   1.420  -0.362  1.00  0.00     0.279 C 
HETATM   43  C12 UNL     1       7.970   1.114   0.707  1.00  0.00     0.087 C 
BRANCH  42  44
HETATM   44  N13 UNL     1       7.431   0.957  -1.628  1.00  0.00    -0.040 N 
ATOM     45 3H13 UNL     1       7.515  -0.059  -1.640  1.00  0.00     0.278 HD
ATOM     46 2H13 UNL     1       6.730   1.072  -2.360  1.00  0.00     0.278 HD
ATOM     47 1H13 UNL     1       8.311   1.402  -1.888  1.00  0.00     0.278 HD
ENDBRANCH  42  44
BRANCH  42  48
HETATM   48  O2  UNL     1       6.793   2.814  -0.435  1.00  0.00    -0.359 OA
ATOM     49  H2  UNL     1       7.613   3.229  -0.677  1.00  0.00     0.213 HD
ENDBRANCH  42  48
ENDBRANCH  36  42
ENDBRANCH  24  28
ENDBRANCH  15  20
ENDBRANCH  13  15
ENDBRANCH   1  13
TORSDOF 9
