REMARK  11 active torsions:
REMARK  status: ('A' for Active; 'I' for Inactive)
REMARK    1  A    between atoms: O1_2  and  C2_3 
REMARK    2  A    between atoms: C2_3  and  C3_4 
REMARK    3  A    between atoms: C3_4  and  C4_5 
REMARK    4  A    between atoms: C3_4  and  N8_23 
REMARK    5  A    between atoms: C4_5  and  N1_6 
REMARK    6  A    between atoms: C5_10  and  C6_11 
REMARK    7  A    between atoms: C8_24  and  C9_25 
REMARK    8  A    between atoms: C9_25  and  N9_26 
REMARK    9  A    between atoms: C9_25  and  N10_30 
REMARK   10  A    between atoms: C11_37  and  O2_38 
REMARK   11  A    between atoms: C12_42  and  N13_43 
ROOT
HETATM    1  N8  UNL     1      -1.566   0.429   0.091  1.00  0.00    -0.285 N 
HETATM    2  C8  UNL     1      -2.414   1.393  -0.276  1.00  0.00     0.149 A 
HETATM    3  N11 UNL     1      -3.465   1.405   0.607  1.00  0.00    -0.336 N 
ATOM      4  H11 UNL     1      -4.262   2.040   0.568  1.00  0.00     0.167 HD
HETATM    5  C10 UNL     1      -3.280   0.466   1.513  1.00  0.00     0.131 A 
HETATM    6  C11 UNL     1      -4.044   0.071   2.612  1.00  0.00     0.186 A 
HETATM    7  N12 UNL     1      -3.540  -0.945   3.332  1.00  0.00    -0.168 N 
ATOM      8  H12 UNL     1      -4.071  -1.261   4.143  1.00  0.00     0.186 HD
HETATM    9  C12 UNL     1      -2.384  -1.574   3.057  1.00  0.00     0.679 A 
HETATM   10  N14 UNL     1      -1.677  -1.158   1.982  1.00  0.00    -0.174 N 
ATOM     11  H14 UNL     1      -0.797  -1.620   1.752  1.00  0.00     0.186 HD
HETATM   12  C13 UNL     1      -2.113  -0.148   1.212  1.00  0.00     0.160 A 
ENDROOT
BRANCH   1  13
HETATM   13  C3  UNL     1      -0.344   0.069  -0.540  1.00  0.00     0.042 C 
BRANCH  13  14
HETATM   14  C2  UNL     1      -0.444  -0.939  -1.628  1.00  0.00     0.221 C 
BRANCH  14  15
HETATM   15  O1  UNL     1      -0.822  -0.521  -2.862  1.00  0.00    -0.390 OA
HETATM   16  C1  UNL     1      -0.850  -1.615  -3.714  1.00  0.00     0.201 C 
ENDBRANCH  14  15
ENDBRANCH  13  14
BRANCH  13  17
HETATM   17  C4  UNL     1       0.638   1.171  -0.798  1.00  0.00     0.222 C 
BRANCH  17  18
HETATM   18  N1  UNL     1       1.957   0.542  -0.961  1.00  0.00    -0.211 N 
HETATM   19  N2  UNL     1       2.473   0.123  -2.104  1.00  0.00    -0.002 NA
HETATM   20  N3  UNL     1       3.688  -0.390  -1.840  1.00  0.00    -0.265 N 
HETATM   21  C5  UNL     1       3.924  -0.291  -0.546  1.00  0.00     0.170 A 
ATOM     22  H3  UNL     1       4.324  -0.791  -2.529  1.00  0.00     0.186 HD
HETATM   23  N7  UNL     1       2.853   0.287   0.008  1.00  0.00    -0.267 N 
ATOM     24  H7  UNL     1       2.736   0.499   0.999  1.00  0.00     0.190 HD
BRANCH  21  25
HETATM   25  C6  UNL     1       5.135  -0.736   0.129  1.00  0.00     0.139 A 
HETATM   26  N4  UNL     1       6.223  -1.311  -0.359  1.00  0.00    -0.289 N 
HETATM   27  N5  UNL     1       7.185  -1.630   0.398  1.00  0.00    -0.279 N 
ATOM     28  H4  UNL     1       6.287  -1.499  -1.359  1.00  0.00     0.188 HD
HETATM   29  C7  UNL     1       7.087  -1.376   1.708  1.00  0.00     0.159 A 
ATOM     30  H5  UNL     1       8.021  -2.073   0.016  1.00  0.00     0.189 HD
HETATM   31  N6  UNL     1       7.978  -1.633   2.640  1.00  0.00    -0.379 N 
HETATM   32  S1  UNL     1       5.541  -0.654   1.803  1.00  0.00    -0.030 SA
ATOM     33  H62 UNL     1       8.901  -2.064   2.583  1.00  0.00     0.158 HD
ATOM     34  H61 UNL     1       7.903  -1.439   3.639  1.00  0.00     0.158 HD
ENDBRANCH  21  25
ENDBRANCH  17  18
ENDBRANCH  13  17
ENDBRANCH   1  13
BRANCH   2  35
HETATM   35  C9  UNL     1      -2.371   2.330  -1.380  1.00  0.00     0.445 C 
BRANCH  35  36
HETATM   36  N9  UNL     1      -3.732   2.386  -1.971  1.00  0.00    -0.043 N 
ATOM     37  H93 UNL     1      -4.086   1.469  -2.242  1.00  0.00     0.277 HD
ATOM     38  H92 UNL     1      -4.454   2.611  -1.286  1.00  0.00     0.277 HD
ATOM     39  H91 UNL     1      -3.702   3.046  -2.748  1.00  0.00     0.277 HD
ENDBRANCH  35  36
BRANCH  35  40
HETATM   40  N10 UNL     1      -2.150   3.718  -0.933  1.00  0.00    -0.043 N 
ATOM     41 3H10 UNL     1      -2.846   3.997  -0.242  1.00  0.00     0.277 HD
ATOM     42 2H10 UNL     1      -1.311   3.789  -0.358  1.00  0.00     0.277 HD
ATOM     43 1H10 UNL     1      -2.120   4.378  -1.710  1.00  0.00     0.277 HD
ENDBRANCH  35  40
ENDBRANCH   2  35
BRANCH   6  44
HETATM   44  O2  UNL     1      -5.244   0.690   2.936  1.00  0.00    -0.344 OA
ATOM     45  H2  UNL     1      -5.764   0.421   3.684  1.00  0.00     0.219 HD
ENDBRANCH   6  44
BRANCH   9  46
HETATM   46  N13 UNL     1      -1.944  -2.561   3.800  1.00  0.00    -0.234 N 
ATOM     47 2H13 UNL     1      -2.477  -2.875   4.611  1.00  0.00     0.174 HD
ATOM     48 1H13 UNL     1      -1.067  -3.038   3.591  1.00  0.00     0.174 HD
ENDBRANCH   9  46
TORSDOF 11
