REMARK  10 active torsions:
REMARK  status: ('A' for Active; 'I' for Inactive)
REMARK    1  A    between atoms: C7_7  and  S1_8 
REMARK    2  A    between atoms: S1_8  and  N1_11 
REMARK    3  A    between atoms: C8_13  and  N2_14 
REMARK    4  A    between atoms: C8_13  and  C12_33 
REMARK    5  A    between atoms: N2_14  and  N3_16 
REMARK    6  A    between atoms: C9_18  and  N4_20 
REMARK    7  A    between atoms: N4_20  and  N5_22 
REMARK       I    between atoms: N5_22  and  C10_24 
REMARK    8  A    between atoms: C10_24  and  C11_26 
REMARK    9  A    between atoms: C11_26  and  N6_27 
REMARK   10  A    between atoms: N6_27  and  N7_28 
ROOT
HETATM    1  N1  UNL     1      -2.147   1.205  -0.739  1.00  0.00    -0.264 N 
ATOM      2  H1  UNL     1      -2.506   0.836   0.141  1.00  0.00     0.180 HD
HETATM    3  C8  UNL     1      -1.424   0.328  -1.103  1.00  0.00     0.146 C 
ENDROOT
BRANCH   3   4
HETATM    4  N2  UNL     1      -0.627   0.320  -2.333  1.00  0.00    -0.282 N 
ATOM      5  H2  UNL     1      -0.991   0.560  -3.255  1.00  0.00     0.188 HD
BRANCH   4   6
HETATM    6  N3  UNL     1       0.733  -0.069  -2.074  1.00  0.00    -0.277 N 
HETATM    7  C9  UNL     1       1.732   0.722  -1.870  1.00  0.00     0.185 C 
HETATM    8  S2  UNL     1       1.202   2.413  -2.213  1.00  0.00    -0.010 SA
ATOM      9  H3  UNL     1       0.927  -1.070  -2.049  1.00  0.00     0.189 HD
BRANCH   7  10
HETATM   10  N4  UNL     1       3.119   0.862  -1.565  1.00  0.00    -0.276 N 
ATOM     11  H4  UNL     1       3.551   1.783  -1.488  1.00  0.00     0.189 HD
BRANCH  10  12
HETATM   12  N5  UNL     1       3.865  -0.300  -1.376  1.00  0.00    -0.267 N 
HETATM   13  C10 UNL     1       5.049  -0.421  -0.582  1.00  0.00     0.252 C 
HETATM   14  O3  UNL     1       5.479   0.595  -0.022  1.00  0.00    -0.270 OA
ATOM     15  H5  UNL     1       3.536  -1.143  -1.848  1.00  0.00     0.190 HD
BRANCH  13  16
HETATM   16  C11 UNL     1       5.668  -1.739  -0.477  1.00  0.00     0.240 C 
BRANCH  16  17
HETATM   17  N6  UNL     1       6.816  -1.898   0.347  1.00  0.00    -0.117 NA
BRANCH  17  18
HETATM   18  N7  UNL     1       7.196  -3.259   0.582  1.00  0.00    -0.253 N 
HETATM   19  N8  UNL     1       6.899  -3.794   1.663  1.00  0.00    -0.334 N 
ATOM     20  H82 UNL     1       6.390  -3.256   2.365  1.00  0.00     0.177 HD
ATOM     21  H81 UNL     1       7.170  -4.763   1.830  1.00  0.00     0.177 HD
ATOM     22  H7  UNL     1       7.705  -3.783  -0.130  1.00  0.00     0.203 HD
ENDBRANCH  17  18
ENDBRANCH  16  17
ENDBRANCH  13  16
ENDBRANCH  10  12
ENDBRANCH   7  10
ENDBRANCH   4   6
ENDBRANCH   3   4
BRANCH   3  23
HETATM   23  C12 UNL     1      -1.433  -1.013  -0.405  1.00  0.00     0.083 A 
HETATM   24  C13 UNL     1      -1.333  -1.152   0.961  1.00  0.00     0.025 A 
HETATM   25  C14 UNL     1      -1.102   0.052   1.759  1.00  0.00     0.069 C 
HETATM   26  N9  UNL     1      -1.482  -2.404   1.496  1.00  0.00    -0.353 N 
HETATM   27  C15 UNL     1      -1.385  -2.603   2.900  1.00  0.00     0.156 C 
HETATM   28  C16 UNL     1      -1.723  -3.482   0.709  1.00  0.00     0.048 A 
HETATM   29  C17 UNL     1      -1.907  -4.729   1.298  1.00  0.00     0.030 A 
HETATM   30  C21 UNL     1      -1.824  -3.363  -0.644  1.00  0.00     0.042 A 
HETATM   31  C18 UNL     1      -2.178  -5.790   0.481  1.00  0.00     0.002 A 
HETATM   32  C19 UNL     1      -2.276  -5.672  -0.888  1.00  0.00     0.001 A 
HETATM   33  C20 UNL     1      -2.100  -4.445  -1.493  1.00  0.00     0.018 A 
HETATM   34  C22 UNL     1      -1.675  -2.109  -1.193  1.00  0.00     0.200 A 
HETATM   35  O4  UNL     1      -1.778  -2.031  -2.465  1.00  0.00    -0.286 OA
ENDBRANCH   3  23
BRANCH   1  36
HETATM   36  S1  UNL     1      -2.896   2.658  -0.835  1.00  0.00     0.264 S 
HETATM   37  O1  UNL     1      -4.284   2.526  -0.181  1.00  0.00    -0.200 OA
HETATM   38  O2  UNL     1      -3.049   3.137  -2.260  1.00  0.00    -0.200 OA
BRANCH  36  39
HETATM   39  C7  UNL     1      -2.111   3.954   0.024  1.00  0.00     0.085 A 
HETATM   40  C2  UNL     1      -2.677   5.174   0.130  1.00  0.00    -0.039 A 
HETATM   41  C1  UNL     1      -3.966   5.566  -0.485  1.00  0.00     0.050 C 
HETATM   42  C3  UNL     1      -2.029   6.189   0.844  1.00  0.00     0.008 A 
HETATM   43  C4  UNL     1      -0.803   5.973   1.452  1.00  0.00     0.001 A 
HETATM   44  C5  UNL     1      -0.243   4.735   1.332  1.00  0.00     0.002 A 
HETATM   45  C6  UNL     1      -0.874   3.746   0.638  1.00  0.00     0.026 A 
ENDBRANCH  36  39
ENDBRANCH   1  36
TORSDOF 10
