REMARK  7 active torsions:
REMARK  status: ('A' for Active; 'I' for Inactive)
REMARK       I    between atoms: C2_5  and  N3_6 
REMARK       I    between atoms: C2_5  and  N7_17 
REMARK    1  A    between atoms: N3_6  and  N4_8 
REMARK    2  A    between atoms: N4_8  and  C3_10 
REMARK    3  A    between atoms: C3_10  and  N5_12 
REMARK    4  A    between atoms: N5_12  and  N6_14 
REMARK    5  A    between atoms: N7_17  and  C4_19 
REMARK    6  A    between atoms: C7_22  and  O1_23 
REMARK    7  A    between atoms: C7_22  and  C8_25 
ROOT
HETATM    1  N1  UNL     1      -0.668   0.576  -4.414  1.00  0.00    -0.171 NA
HETATM    2  C1  UNL     1       0.095   0.225  -3.589  1.00  0.00     0.196 C 
HETATM    3  N2  UNL     1       1.009  -0.172  -2.628  1.00  0.00    -0.125 N 
ATOM      4  H2  UNL     1       1.940  -0.481  -2.908  1.00  0.00     0.197 HD
HETATM    5  C2  UNL     1       0.686  -0.152  -1.381  1.00  0.00     0.702 C 
HETATM    6  N3  UNL     1       1.657  -0.568  -0.433  1.00  0.00    -0.129 N 
ATOM      7  H3  UNL     1       1.869  -1.564  -0.368  1.00  0.00     0.205 HD
HETATM    8  N7  UNL     1      -0.612   0.277  -0.968  1.00  0.00    -0.216 N 
ATOM      9  H7  UNL     1      -1.166   0.909  -1.546  1.00  0.00     0.178 HD
ENDROOT
BRANCH   6  10
HETATM   10  N4  UNL     1       2.338   0.304   0.415  1.00  0.00    -0.261 N 
ATOM     11  H4  UNL     1       1.835   0.891   1.080  1.00  0.00     0.190 HD
BRANCH  10  12
HETATM   12  C3  UNL     1       3.764   0.349   0.322  1.00  0.00     0.205 C 
HETATM   13  S1  UNL     1       4.550  -0.596  -0.747  1.00  0.00    -0.038 SA
BRANCH  12  14
HETATM   14  N5  UNL     1       4.517   1.212   1.154  1.00  0.00    -0.282 N 
ATOM     15  H5  UNL     1       4.046   1.813   1.831  1.00  0.00     0.189 HD
BRANCH  14  16
HETATM   16  N6  UNL     1       5.906   1.235   1.042  1.00  0.00    -0.343 N 
ATOM     17  H62 UNL     1       6.361   0.628   0.360  1.00  0.00     0.176 HD
ATOM     18  H61 UNL     1       6.449   1.857   1.641  1.00  0.00     0.176 HD
ENDBRANCH  14  16
ENDBRANCH  12  14
ENDBRANCH  10  12
ENDBRANCH   6  10
BRANCH   8  19
HETATM   19  C4  UNL     1      -1.108  -0.204   0.275  1.00  0.00     0.143 C 
HETATM   20  C5  UNL     1      -1.165  -1.751   0.247  1.00  0.00     0.033 C 
HETATM   21  C6  UNL     1      -2.577  -1.534  -0.324  1.00  0.00     0.052 C 
HETATM   22  C7  UNL     1      -2.577  -0.254   0.526  1.00  0.00     0.156 C 
BRANCH  22  23
HETATM   23  O1  UNL     1      -2.829  -0.604   1.870  1.00  0.00    -0.378 OA
ATOM     24  H1  UNL     1      -3.765  -0.636   2.030  1.00  0.00     0.211 HD
ENDBRANCH  22  23
BRANCH  22  25
HETATM   25  C8  UNL     1      -3.438   0.821   0.066  1.00  0.00     0.267 C 
HETATM   26  N8  UNL     1      -4.337   1.446   0.966  1.00  0.00    -0.059 NA
HETATM   27  O2  UNL     1      -3.415   1.223  -1.110  1.00  0.00    -0.273 OA
ENDBRANCH  22  25
ENDBRANCH   8  19
TORSDOF 7
