REMARK  3 active torsions:
REMARK  status: ('A' for Active; 'I' for Inactive)
REMARK    1  A    between atoms: C2_2  and  N1_4 
REMARK       I    between atoms: C4_6  and  N3_8 
REMARK       I    between atoms: N3_8  and  C5_10 
REMARK       I    between atoms: C5_10  and  N4_12 
REMARK    2  A    between atoms: N4_12  and  N5_14 
REMARK    3  A    between atoms: N5_14  and  C6_16 
REMARK       I    between atoms: N7_20  and  C8_21 
ROOT
HETATM    1  N1  UNL     1      -4.586  -0.900   0.121  1.00  0.00    -0.360 N 
ATOM      2  H1  UNL     1      -5.322  -1.606   0.095  1.00  0.00     0.162 HD
HETATM    3  C4  UNL     1      -3.461  -1.315  -0.250  1.00  0.00     0.192 C 
HETATM    4  N2  UNL     1      -3.274  -2.683  -0.668  1.00  0.00    -0.063 NA
HETATM    5  N3  UNL     1      -2.334  -0.436  -0.266  1.00  0.00    -0.282 N 
ATOM      6  H3  UNL     1      -2.456   0.533   0.027  1.00  0.00     0.173 HD
HETATM    7  C5  UNL     1      -1.053  -0.874  -0.678  1.00  0.00     0.341 C 
HETATM    8  O1  UNL     1      -0.882  -2.052  -1.041  1.00  0.00    -0.245 OA
HETATM    9  N4  UNL     1       0.014   0.034  -0.673  1.00  0.00    -0.250 N 
ATOM     10  H4  UNL     1      -0.127   1.000  -0.376  1.00  0.00     0.192 HD
ENDROOT
BRANCH   9  11
HETATM   11  N5  UNL     1       1.273  -0.407  -1.082  1.00  0.00    -0.284 N 
ATOM     12  H5  UNL     1       1.376  -1.148  -1.775  1.00  0.00     0.188 HD
BRANCH  11  13
HETATM   13  C6  UNL     1       2.404   0.216  -0.496  1.00  0.00     0.111 C 
HETATM   14  N6  UNL     1       2.771   1.407  -0.688  1.00  0.00    -0.361 N 
HETATM   15  C7  UNL     1       3.953   1.699   0.063  1.00  0.00     0.250 C 
ATOM     16  H6  UNL     1       2.291   2.071  -1.295  1.00  0.00     0.162 HD
HETATM   17  N7  UNL     1       4.472   0.417   0.480  1.00  0.00    -0.333 N 
HETATM   18  C8  UNL     1       5.784   0.026   0.861  1.00  0.00     0.185 C 
HETATM   19  C9  UNL     1       3.320  -0.458   0.432  1.00  0.00     0.204 C 
HETATM   20  N8  UNL     1       6.640   0.894   1.338  1.00  0.00    -0.374 N 
HETATM   21  N9  UNL     1       6.163  -1.323   0.719  1.00  0.00    -0.064 NA
ATOM     22  H82 UNL     1       6.366   1.871   1.441  1.00  0.00     0.158 HD
ATOM     23  H81 UNL     1       7.582   0.613   1.611  1.00  0.00     0.158 HD
ENDBRANCH  11  13
ENDBRANCH   9  11
BRANCH   1  24
HETATM   24  C2  UNL     1      -5.017   0.371   0.569  1.00  0.00     0.076 C 
HETATM   25  C1  UNL     1      -4.895   1.400  -0.550  1.00  0.00     0.032 C 
HETATM   26  C3  UNL     1      -4.366   0.865   1.838  1.00  0.00     0.032 C 
ENDBRANCH   1  24
TORSDOF 3
