REMARK  6 active torsions:
REMARK  status: ('A' for Active; 'I' for Inactive)
REMARK    1  A    between atoms: C2_2  and  N1_3 
REMARK    2  A    between atoms: N3_18  and  C13_19 
REMARK    3  A    between atoms: C13_19  and  C14_20 
REMARK    4  A    between atoms: C14_20  and  C15_21 
REMARK    5  A    between atoms: C15_21  and  C17_23 
REMARK    6  A    between atoms: C17_23  and  C18_24 
ROOT
HETATM    1  N1  UNL     1      -4.777  -0.206  -0.141  1.00  0.00    -0.318 N 
HETATM    2  C3  UNL     1      -5.252  -1.555  -0.277  1.00  0.00     0.224 C 
HETATM    3  O1  UNL     1      -6.503  -1.721  -0.166  1.00  0.00    -0.273 OA
HETATM    4  C4  UNL     1      -4.373  -2.699  -0.528  1.00  0.00     0.108 C 
HETATM    5  C5  UNL     1      -2.999  -2.551   0.025  1.00  0.00     0.050 C 
HETATM    6  C6  UNL     1      -2.542  -1.157   0.156  1.00  0.00    -0.028 A 
HETATM    7  C7  UNL     1      -1.190  -0.950   0.368  1.00  0.00     0.041 A 
HETATM    8  C8  UNL     1      -0.695   0.332   0.500  1.00  0.00     0.066 A 
HETATM    9  C9  UNL     1      -1.519   1.434   0.425  1.00  0.00     0.065 A 
HETATM   10  C10 UNL     1      -2.865   1.241   0.214  1.00  0.00     0.062 A 
HETATM   11  C11 UNL     1      -3.384  -0.046   0.079  1.00  0.00     0.045 A 
HETATM   12  N2  UNL     1      -0.786   2.565   0.586  1.00  0.00    -0.306 N 
ATOM     13  H2  UNL     1      -1.134   3.524   0.577  1.00  0.00     0.171 HD
HETATM   14  C12 UNL     1       0.493   2.173   0.760  1.00  0.00     0.327 A 
HETATM   15  O2  UNL     1       1.441   2.981   0.939  1.00  0.00    -0.246 OA
HETATM   16  N3  UNL     1       0.547   0.818   0.708  1.00  0.00    -0.297 N 
ENDROOT
BRANCH  16  17
HETATM   17  C13 UNL     1       1.710  -0.008   0.846  1.00  0.00     0.134 C 
BRANCH  17  18
HETATM   18  C14 UNL     1       2.390  -0.282  -0.482  1.00  0.00     0.025 C 
BRANCH  18  19
HETATM   19  C15 UNL     1       3.592  -1.148  -0.263  1.00  0.00    -0.011 C 
HETATM   20  C16 UNL     1       3.243  -2.481   0.362  1.00  0.00     0.010 C 
BRANCH  19  21
HETATM   21  C17 UNL     1       4.656  -0.495   0.589  1.00  0.00     0.062 C 
BRANCH  21  22
HETATM   22  C18 UNL     1       5.181   0.749   0.021  1.00  0.00     0.025 A 
HETATM   23  C19 UNL     1       6.274   0.842  -0.844  1.00  0.00     0.114 A 
HETATM   24  N4  UNL     1       6.488   2.120  -1.174  1.00  0.00    -0.360 N 
HETATM   25  C20 UNL     1       5.559   2.846  -0.541  1.00  0.00     0.180 A 
ATOM     26  H4  UNL     1       7.220   2.474  -1.790  1.00  0.00     0.166 HD
HETATM   27  N5  UNL     1       4.771   2.018   0.180  1.00  0.00    -0.355 N 
ATOM     28  H5  UNL     1       3.984   2.312   0.758  1.00  0.00     0.166 HD
ENDBRANCH  21  22
ENDBRANCH  19  21
ENDBRANCH  18  19
ENDBRANCH  17  18
ENDBRANCH  16  17
BRANCH   1  29
HETATM   29  C2  UNL     1      -5.653   0.929  -0.222  1.00  0.00     0.128 C 
HETATM   30  C1  UNL     1      -5.798   1.467  -1.633  1.00  0.00     0.027 C 
ENDBRANCH   1  29
TORSDOF 6
