REMARK  7 active torsions:
REMARK  status: ('A' for Active; 'I' for Inactive)
REMARK    1  A    between atoms: C2_2  and  C3_3 
REMARK    2  A    between atoms: C3_3  and  C4_4 
REMARK    3  A    between atoms: C4_4  and  C5_5 
REMARK    4  A    between atoms: C6_8  and  C7_9 
REMARK    5  A    between atoms: N4_24  and  C17_25 
REMARK    6  A    between atoms: C17_25  and  C18_26 
REMARK    7  A    between atoms: C18_26  and  C19_27 
ROOT
HETATM    1  C5  UNL     1      -1.100   1.092  -0.857  1.00  0.00     0.104 A 
HETATM    2  N1  UNL     1       0.185   1.249  -0.812  1.00  0.00    -0.340 N 
ATOM      3  H1  UNL     1       0.659   2.152  -0.837  1.00  0.00     0.167 HD
HETATM    4  C6  UNL     1       0.827   0.028  -0.725  1.00  0.00     0.072 A 
HETATM    5  C14 UNL     1      -0.152  -0.931  -0.725  1.00  0.00     0.087 A 
HETATM    6  C15 UNL     1       0.063  -2.218  -0.833  1.00  0.00     0.117 C 
HETATM    7  S1  UNL     1      -1.097  -3.635  -0.833  1.00  0.00     0.008 SA
HETATM    8  N2  UNL     1       0.078  -4.830  -0.275  1.00  0.00    -0.058 NA
HETATM    9  N3  UNL     1       1.295  -4.156  -0.337  1.00  0.00    -0.258 N 
ATOM     10  H3  UNL     1       2.132  -4.468   0.156  1.00  0.00     0.186 HD
HETATM   11  C16 UNL     1       1.261  -2.992  -1.153  1.00  0.00     0.278 C 
HETATM   12  O1  UNL     1       2.137  -2.712  -2.009  1.00  0.00    -0.266 OA
HETATM   13  N4  UNL     1      -1.331  -0.264  -0.798  1.00  0.00    -0.330 N 
ENDROOT
BRANCH   4  14
HETATM   14  C7  UNL     1       2.280  -0.009  -0.579  1.00  0.00    -0.007 A 
HETATM   15  C8  UNL     1       2.953  -0.656   0.440  1.00  0.00     0.014 A 
HETATM   16  C9  UNL     1       4.327  -0.639   0.549  1.00  0.00     0.007 A 
HETATM   17  C10 UNL     1       5.103   0.035  -0.367  1.00  0.00    -0.062 A 
HETATM   18  C11 UNL     1       6.580   0.026  -0.210  1.00  0.00     0.048 C 
HETATM   19  C12 UNL     1       4.462   0.690  -1.394  1.00  0.00     0.007 A 
HETATM   20  C13 UNL     1       3.086   0.671  -1.500  1.00  0.00     0.014 A 
ENDBRANCH   4  14
BRANCH   1  21
HETATM   21  C4  UNL     1      -2.017   2.063  -0.947  1.00  0.00     0.022 C 
BRANCH  21  22
HETATM   22  C3  UNL     1      -1.612   3.492  -1.007  1.00  0.00     0.030 C 
BRANCH  22  23
HETATM   23  C2  UNL     1      -2.377   4.300   0.019  1.00  0.00    -0.001 C 
HETATM   24  C1  UNL     1      -2.088   3.766   1.401  1.00  0.00     0.005 C 
ENDBRANCH  22  23
ENDBRANCH  21  22
ENDBRANCH   1  21
BRANCH  13  25
HETATM   25  C17 UNL     1      -2.659  -0.770  -0.826  1.00  0.00     0.131 C 
BRANCH  25  26
HETATM   26  C18 UNL     1      -3.426  -0.730   0.442  1.00  0.00     0.020 C 
BRANCH  26  27
HETATM   27  C19 UNL     1      -2.905  -1.420   1.640  1.00  0.00    -0.003 C 
HETATM   28  C20 UNL     1      -3.841  -1.222   2.847  1.00  0.00     0.005 C 
ENDBRANCH  26  27
ENDBRANCH  25  26
ENDBRANCH  13  25
TORSDOF 7
