REMARK  1 active torsions:
REMARK  status: ('A' for Active; 'I' for Inactive)
REMARK    1  A    between atoms: C2_5  and  C3_6 
ROOT
HETATM    1  C1  UNL     1      -1.950  -0.059   0.222  1.00  0.00     0.179 C 
HETATM    2  N1  UNL     1      -0.778  -0.094  -0.643  1.00  0.00    -0.280 N 
HETATM    3  N2  UNL     1      -0.020  -0.170  -1.775  1.00  0.00    -0.282 N 
ATOM      4  H2  UNL     1       0.004  -0.264  -2.790  1.00  0.00     0.188 HD
HETATM    5  C2  UNL     1       0.642  -0.041  -0.682  1.00  0.00     0.146 A 
ENDROOT
BRANCH   5   6
HETATM    6  C3  UNL     1       1.948   0.079   0.043  1.00  0.00     0.248 C 
HETATM    7 CL1  UNL     1       2.166  -1.242   1.210  1.00  0.00    -0.100 Cl
HETATM    8 CL2  UNL     1       2.005   1.640   0.933  1.00  0.00    -0.100 Cl
ENDBRANCH   5   6
TORSDOF 1
