REMARK  15 active torsions:
REMARK  status: ('A' for Active; 'I' for Inactive)
REMARK    1  A    between atoms: C2_2  and  C3_3 
REMARK    2  A    between atoms: C3_3  and  C4_4 
REMARK    3  A    between atoms: C12_12  and  C13_13 
REMARK    4  A    between atoms: C16_16  and  O1_17 
REMARK    5  A    between atoms: C19_21  and  C20_22 
REMARK    6  A    between atoms: C20_22  and  C21_24 
REMARK    7  A    between atoms: C21_24  and  C22_25 
REMARK    8  A    between atoms: C22_25  and  C23_26 
REMARK    9  A    between atoms: C23_26  and  C24_27 
REMARK   10  A    between atoms: C24_27  and  C25_28 
REMARK   11  A    between atoms: C25_28  and  C26_29 
REMARK   12  A    between atoms: C26_29  and  C27_30 
REMARK   13  A    between atoms: C27_30  and  O3_31 
REMARK   14  A    between atoms: C27_30  and  O4_33 
REMARK   15  A    between atoms: O4_33  and  S1_34 
ROOT
HETATM    1  C13 UNL     1      -1.497  -0.221   0.135  1.00  0.00     0.006 C 
HETATM    2  C14 UNL     1      -2.078  -1.402  -0.559  1.00  0.00     0.009 C 
HETATM    3  C15 UNL     1      -1.755  -1.202  -2.019  1.00  0.00     0.039 C 
HETATM    4  C16 UNL     1      -1.042   0.098  -2.172  1.00  0.00     0.066 C 
HETATM    5  C17 UNL     1       0.220  -0.146  -2.935  1.00  0.00     0.039 C 
HETATM    6  C18 UNL     1       1.284   0.483  -2.082  1.00  0.00     0.016 C 
HETATM    7  C19 UNL     1       0.815   0.388  -0.658  1.00  0.00     0.067 C 
HETATM    8  C28 UNL     1      -0.666   0.565  -0.775  1.00  0.00     0.002 C 
HETATM    9  C29 UNL     1      -0.896   2.071  -0.765  1.00  0.00     0.019 C 
ENDROOT
BRANCH   7  10
HETATM   10  C20 UNL     1       1.354  -0.707   0.129  1.00  0.00     0.132 C 
HETATM   11  O2  UNL     1       1.830  -0.407   1.241  1.00  0.00    -0.298 OA
BRANCH  10  12
HETATM   12  C21 UNL     1       1.423  -2.132  -0.185  1.00  0.00     0.079 C 
BRANCH  12  13
HETATM   13  C22 UNL     1       2.677  -2.888   0.025  1.00  0.00     0.007 C 
BRANCH  13  14
HETATM   14  C23 UNL     1       3.878  -2.522  -0.736  1.00  0.00     0.000 C 
BRANCH  14  15
HETATM   15  C24 UNL     1       4.564  -1.224  -0.497  1.00  0.00     0.000 C 
BRANCH  15  16
HETATM   16  C25 UNL     1       5.187  -1.126   0.859  1.00  0.00     0.005 C 
BRANCH  16  17
HETATM   17  C26 UNL     1       5.827   0.149   1.233  1.00  0.00     0.062 C 
BRANCH  17  18
HETATM   18  C27 UNL     1       6.948   0.567   0.358  1.00  0.00     0.278 C 
BRANCH  18  19
HETATM   19  O3  UNL     1       6.564   0.778  -0.961  1.00  0.00    -0.370 OA
ATOM     20  H3  UNL     1       7.282   1.046  -1.522  1.00  0.00     0.212 HD
ENDBRANCH  18  19
BRANCH  18  21
HETATM   21  O4  UNL     1       7.522   1.783   0.783  1.00  0.00    -0.224 OA
BRANCH  21  22
HETATM   22  S1  UNL     1       9.133   1.520   1.132  1.00  0.00     0.254 S 
HETATM   23  O5  UNL     1       9.313   1.139   2.592  1.00  0.00    -0.572 OA
HETATM   24  O6  UNL     1       9.729   0.399   0.330  1.00  0.00    -0.572 OA
HETATM   25  O7  UNL     1      10.028   2.905   0.765  1.00  0.00    -0.572 OA
ENDBRANCH  21  22
ENDBRANCH  18  21
ENDBRANCH  17  18
ENDBRANCH  16  17
ENDBRANCH  15  16
ENDBRANCH  14  15
ENDBRANCH  13  14
ENDBRANCH  12  13
ENDBRANCH  10  12
ENDBRANCH   7  10
BRANCH   1  26
HETATM   26  C12 UNL     1      -2.394   0.426   1.125  1.00  0.00     0.024 C 
HETATM   27  C7  UNL     1      -3.764   0.740   0.770  1.00  0.00    -0.047 A 
HETATM   28  C6  UNL     1      -4.406   1.688   0.033  1.00  0.00     0.009 A 
HETATM   29  C8  UNL     1      -4.629  -0.201   1.367  1.00  0.00    -0.051 A 
HETATM   30  C5  UNL     1      -5.776   1.762  -0.146  1.00  0.00     0.008 A 
HETATM   31  C4  UNL     1      -6.594   0.832   0.446  1.00  0.00    -0.054 A 
HETATM   32  C9  UNL     1      -5.995  -0.140   1.198  1.00  0.00     0.015 A 
HETATM   33  C10 UNL     1      -3.863  -1.184   2.160  1.00  0.00     0.040 C 
HETATM   34  C11 UNL     1      -2.559  -0.494   2.352  1.00  0.00     0.014 C 
BRANCH  31  35
HETATM   35  C3  UNL     1      -8.057   0.949   0.224  1.00  0.00     0.064 C 
BRANCH  35  36
HETATM   36  C2  UNL     1      -8.717   1.832   1.232  1.00  0.00    -0.032 C 
HETATM   37  C1  UNL     1      -9.659   1.303   1.991  1.00  0.00     0.007 C 
ENDBRANCH  35  36
ENDBRANCH  31  35
ENDBRANCH   1  26
BRANCH   4  38
HETATM   38  O1  UNL     1      -1.781   1.044  -2.878  1.00  0.00    -0.389 OA
ATOM     39  H1  UNL     1      -1.327   1.873  -2.976  1.00  0.00     0.210 HD
ENDBRANCH   4  38
TORSDOF 15
