REMARK  14 active torsions:
REMARK  status: ('A' for Active; 'I' for Inactive)
REMARK    1  A    between atoms: C2_2  and  C3_3 
REMARK    2  A    between atoms: C3_3  and  C4_4 
REMARK    3  A    between atoms: C5_5  and  C6_6 
REMARK    4  A    between atoms: C5_5  and  C33_40 
REMARK    5  A    between atoms: C7_7  and  C8_8 
REMARK    6  A    between atoms: C9_9  and  C10_10 
REMARK    7  A    between atoms: C19_19  and  N1_20 
REMARK    8  A    between atoms: N1_20  and  C20_21 
REMARK    9  A    between atoms: N1_20  and  C23_24 
REMARK   10  A    between atoms: C20_21  and  C21_22 
REMARK   11  A    between atoms: C23_24  and  C24_25 
REMARK   12  A    between atoms: C27_28  and  O1_29 
REMARK   13  A    between atoms: C28_31  and  O2_32 
REMARK   14  A    between atoms: C30_35  and  O3_36 
ROOT
HETATM    1  C10 UNL     1       0.438   0.149   0.848  1.00  0.00     0.044 C 
HETATM    2  C11 UNL     1       0.079  -0.522  -0.424  1.00  0.00     0.050 C 
HETATM    3  C12 UNL     1      -1.201  -1.286  -0.320  1.00  0.00    -0.051 A 
HETATM    4  C13 UNL     1      -0.852  -2.597  -0.662  1.00  0.00     0.015 A 
HETATM    5  C14 UNL     1      -1.785  -3.579  -0.670  1.00  0.00    -0.051 A 
HETATM    6  C15 UNL     1      -3.079  -3.265  -0.338  1.00  0.00    -0.049 A 
HETATM    7  C16 UNL     1      -3.412  -1.976  -0.004  1.00  0.00     0.015 A 
HETATM    8  C17 UNL     1      -2.473  -0.929   0.017  1.00  0.00    -0.049 A 
HETATM    9  C18 UNL     1      -3.316   0.189   0.424  1.00  0.00     0.067 C 
HETATM   10  C19 UNL     1      -2.667   1.517   0.579  1.00  0.00     0.119 C 
HETATM   11  C27 UNL     1      -1.542   1.545   1.543  1.00  0.00     0.170 C 
HETATM   12  C28 UNL     1      -0.175   1.558   0.883  1.00  0.00     0.157 C 
HETATM   13  C29 UNL     1      -4.091  -4.346  -0.347  1.00  0.00     0.070 C 
HETATM   14  C30 UNL     1      -3.575  -5.607   0.307  1.00  0.00     0.122 C 
HETATM   15  C31 UNL     1      -2.151  -5.925  -0.005  1.00  0.00     0.036 C 
HETATM   16  C32 UNL     1      -1.514  -4.998  -1.017  1.00  0.00     0.041 C 
ENDROOT
BRANCH   1  17
HETATM   17  C9  UNL     1       1.841   0.164   1.231  1.00  0.00    -0.019 C 
HETATM   18  C8  UNL     1       2.843  -0.217   0.486  1.00  0.00    -0.004 C 
BRANCH  18  19
HETATM   19  C7  UNL     1       4.248  -0.152   1.001  1.00  0.00     0.001 C 
HETATM   20  C6  UNL     1       5.228  -0.535   0.251  1.00  0.00     0.018 C 
BRANCH  20  21
HETATM   21  C5  UNL     1       6.668  -0.562   0.536  1.00  0.00     0.037 C 
HETATM   22  C4  UNL     1       7.479  -1.013  -0.428  1.00  0.00    -0.008 C 
BRANCH  22  23
HETATM   23  C3  UNL     1       8.920  -1.165  -0.457  1.00  0.00     0.028 C 
BRANCH  23  24
HETATM   24  C2  UNL     1       9.489  -0.241  -1.535  1.00  0.00    -0.001 C 
HETATM   25  C1  UNL     1      10.985  -0.363  -1.608  1.00  0.00     0.005 C 
ENDBRANCH  23  24
ENDBRANCH  22  23
BRANCH  21  26
HETATM   26  C33 UNL     1       7.225  -0.107   1.776  1.00  0.00     0.209 C 
HETATM   27  O4  UNL     1       8.443  -0.078   2.077  1.00  0.00    -0.644 OA
HETATM   28  O5  UNL     1       6.396   0.364   2.800  1.00  0.00    -0.644 OA
ENDBRANCH  21  26
ENDBRANCH  20  21
ENDBRANCH  18  19
ENDBRANCH   1  17
BRANCH  12  29
HETATM   29  O2  UNL     1      -0.186   1.985  -0.423  1.00  0.00    -0.392 OA
ATOM     30  H2  UNL     1      -0.565   2.856  -0.401  1.00  0.00     0.210 HD
ENDBRANCH  12  29
BRANCH  11  31
HETATM   31  O1  UNL     1      -1.558   2.537   2.490  1.00  0.00    -0.391 OA
ATOM     32  H1  UNL     1      -0.837   2.555   3.108  1.00  0.00     0.210 HD
ENDBRANCH  11  31
BRANCH  10  33
HETATM   33  N1  UNL     1      -3.689   2.508   0.741  1.00  0.00    -0.385 N 
BRANCH  33  34
HETATM   34  C20 UNL     1      -4.535   2.380   1.859  1.00  0.00     0.058 C 
BRANCH  34  35
HETATM   35  C21 UNL     1      -5.602   3.421   2.039  1.00  0.00     0.040 C 
HETATM   36  C22 UNL     1      -6.564   3.527   0.910  1.00  0.00     0.010 C 
ENDBRANCH  34  35
ENDBRANCH  33  34
BRANCH  33  37
HETATM   37  C23 UNL     1      -3.333   3.829   0.380  1.00  0.00     0.127 C 
BRANCH  37  38
HETATM   38  C24 UNL     1      -3.101   4.033  -1.105  1.00  0.00     0.003 A 
HETATM   39  C25 UNL     1      -4.128   3.799  -2.117  1.00  0.00     0.007 A 
HETATM   40  C26 UNL     1      -3.875   5.211  -1.731  1.00  0.00     0.007 A 
ENDBRANCH  37  38
ENDBRANCH  33  37
ENDBRANCH  10  33
BRANCH  14  41
HETATM   41  O3  UNL     1      -4.448  -6.636  -0.003  1.00  0.00    -0.395 OA
ATOM     42  H3  UNL     1      -4.124  -7.429   0.408  1.00  0.00     0.210 HD
ENDBRANCH  14  41
TORSDOF 14
