REMARK  7 active torsions:
REMARK  status: ('A' for Active; 'I' for Inactive)
REMARK    1  A    between atoms: C2_2  and  C3_3 
REMARK    2  A    between atoms: C3_3  and  C4_4 
REMARK    3  A    between atoms: C4_4  and  N1_5 
REMARK       I    between atoms: C5_7  and  N2_8 
REMARK       I    between atoms: C5_7  and  N3_11 
REMARK    4  A    between atoms: N3_11  and  C7_13 
REMARK    5  A    between atoms: C7_13  and  C8_14 
REMARK    6  A    between atoms: C15_21  and  N4_22 
REMARK    7  A    between atoms: N4_22  and  C16_24 
ROOT
HETATM    1  C8  UNL     1      -1.320  -1.017  -0.495  1.00  0.00    -0.021 C 
HETATM    2  C9  UNL     1      -2.317  -1.317  -1.622  1.00  0.00     0.016 C 
HETATM    3  C10 UNL     1      -3.723  -1.191  -1.134  1.00  0.00    -0.011 C 
HETATM    4  C11 UNL     1      -3.930  -2.221  -0.038  1.00  0.00     0.009 C 
HETATM    5  C12 UNL     1      -2.980  -1.909   1.073  1.00  0.00    -0.011 C 
HETATM    6  C13 UNL     1      -1.560  -2.069   0.567  1.00  0.00     0.016 C 
HETATM    7  C14 UNL     1      -3.200  -0.542   1.606  1.00  0.00     0.035 C 
HETATM    8  C15 UNL     1      -2.979   0.511   0.503  1.00  0.00     0.033 C 
HETATM    9  C17 UNL     1      -3.996   0.170  -0.560  1.00  0.00     0.035 C 
HETATM   10  C18 UNL     1      -1.556   0.363   0.035  1.00  0.00     0.042 C 
ENDROOT
BRANCH   1  11
HETATM   11  C7  UNL     1       0.056  -1.168  -1.087  1.00  0.00     0.147 C 
BRANCH  11  12
HETATM   12  N3  UNL     1       1.104  -0.916  -0.143  1.00  0.00    -0.226 N 
HETATM   13  C5  UNL     1       2.477  -1.000  -0.476  1.00  0.00     0.669 C 
HETATM   14  N1  UNL     1       3.305  -0.029  -0.346  1.00  0.00    -0.227 N 
HETATM   15  N2  UNL     1       3.011  -2.222  -0.987  1.00  0.00    -0.231 N 
ATOM     16  H1  UNL     1       4.279  -0.179  -0.609  1.00  0.00     0.177 HD
HETATM   17  C6  UNL     1       3.460  -3.200  -0.017  1.00  0.00     0.165 C 
ATOM     18  H2  UNL     1       3.073  -2.398  -1.990  1.00  0.00     0.177 HD
ATOM     19  H3  UNL     1       0.849  -0.665   0.812  1.00  0.00     0.177 HD
BRANCH  14  20
HETATM   20  C4  UNL     1       2.913   1.279   0.162  1.00  0.00     0.138 C 
BRANCH  20  21
HETATM   21  C3  UNL     1       4.010   2.301  -0.083  1.00  0.00     0.020 C 
BRANCH  21  22
HETATM   22  C2  UNL     1       5.267   1.849   0.628  1.00  0.00    -0.003 C 
HETATM   23  C1  UNL     1       6.407   2.796   0.444  1.00  0.00     0.005 C 
ENDBRANCH  21  22
ENDBRANCH  20  21
ENDBRANCH  14  20
ENDBRANCH  11  12
ENDBRANCH   1  11
BRANCH   8  24
HETATM   24  N4  UNL     1      -3.296   1.782   1.061  1.00  0.00    -0.360 N 
ATOM     25  H4  UNL     1      -3.612   1.774   2.031  1.00  0.00     0.162 HD
BRANCH  24  26
HETATM   26  C16 UNL     1      -3.231   3.045   0.452  1.00  0.00     0.181 C 
HETATM   27  N5  UNL     1      -2.817   3.220  -0.873  1.00  0.00    -0.070 NA
HETATM   28  S1  UNL     1      -3.643   4.429   1.261  1.00  0.00    -0.044 SA
ENDBRANCH  24  26
ENDBRANCH   8  24
TORSDOF 7
