REMARK  5 active torsions:
REMARK  status: ('A' for Active; 'I' for Inactive)
REMARK    1  A    between atoms: O1_2  and  C2_3 
REMARK    2  A    between atoms: C6_9  and  C7_10 
REMARK    3  A    between atoms: C7_10  and  C8_11 
REMARK    4  A    between atoms: C9_12  and  C10_13 
REMARK    5  A    between atoms: C10_13  and  N1_14 
REMARK       I    between atoms: N1_14  and  C12_16 
ROOT
HETATM    1  C2  UNL     1      -3.112   1.576  -0.215  1.00  0.00     0.162 C 
HETATM    2  C3  UNL     1      -1.646   1.653  -0.051  1.00  0.00     0.075 C 
HETATM    3  C4  UNL     1      -1.161   2.410   1.154  1.00  0.00     0.188 C 
HETATM    4  O2  UNL     1       0.072   1.884   1.659  1.00  0.00    -0.321 OA
HETATM    5  C5  UNL     1       0.828   0.938   1.000  1.00  0.00     0.265 C 
HETATM    6  O3  UNL     1       1.996   0.746   1.347  1.00  0.00    -0.265 OA
HETATM    7  C6  UNL     1       0.227   0.181  -0.102  1.00  0.00     0.123 C 
HETATM    8  C13 UNL     1      -1.258   0.204   0.173  1.00  0.00     0.246 C 
HETATM    9  N4  UNL     1      -2.085  -0.516  -0.715  1.00  0.00     0.101 N 
HETATM   10  C14 UNL     1      -2.419  -1.810  -0.140  1.00  0.00     0.273 C 
HETATM   11  C15 UNL     1      -3.507  -2.529  -0.890  1.00  0.00     0.030 C 
HETATM   12  C16 UNL     1      -4.793  -1.728  -0.897  1.00  0.00     0.004 C 
HETATM   13  C17 UNL     1      -4.500  -0.416  -0.228  1.00  0.00     0.038 C 
HETATM   14  C18 UNL     1      -3.307   0.235  -0.890  1.00  0.00     0.252 C 
ENDROOT
BRANCH   7  15
HETATM   15  C7  UNL     1       0.774  -1.155  -0.392  1.00  0.00     0.043 C 
BRANCH  15  16
HETATM   16  C8  UNL     1       2.211  -1.050  -0.748  1.00  0.00    -0.028 C 
HETATM   17  C9  UNL     1       3.194  -1.637  -0.116  1.00  0.00    -0.011 C 
BRANCH  17  18
HETATM   18  C10 UNL     1       4.588  -1.443  -0.585  1.00  0.00     0.152 C 
BRANCH  18  19
HETATM   19  N1  UNL     1       5.429  -0.852   0.419  1.00  0.00    -0.357 N 
HETATM   20  C11 UNL     1       5.767  -1.592   1.601  1.00  0.00     0.152 C 
HETATM   21  C12 UNL     1       5.914   0.461   0.223  1.00  0.00     0.183 C 
HETATM   22  N2  UNL     1       7.147   0.790   0.533  1.00  0.00    -0.374 N 
HETATM   23  N3  UNL     1       5.128   1.523  -0.316  1.00  0.00    -0.064 NA
ATOM     24  H22 UNL     1       7.709   0.031   0.918  1.00  0.00     0.158 HD
ATOM     25  H21 UNL     1       7.497   1.738   0.392  1.00  0.00     0.158 HD
ENDBRANCH  18  19
ENDBRANCH  17  18
ENDBRANCH  15  16
ENDBRANCH   7  15
BRANCH   1  26
HETATM   26  O1  UNL     1      -3.588   2.597  -1.057  1.00  0.00    -0.388 OA
HETATM   27  C1  UNL     1      -4.537   3.374  -0.406  1.00  0.00     0.202 C 
ENDBRANCH   1  26
TORSDOF 5
