REMARK  6 active torsions:
REMARK  status: ('A' for Active; 'I' for Inactive)
REMARK    1  A    between atoms: O1_2  and  C2_3 
REMARK    2  A    between atoms: C2_3  and  C3_5 
REMARK    3  A    between atoms: C3_5  and  C4_6 
REMARK    4  A    between atoms: C4_6  and  C5_7 
REMARK    5  A    between atoms: C5_7  and  N1_8 
REMARK    6  A    between atoms: C15_19  and  C16_20 
ROOT
HETATM    1  N1  UNL     1       1.491  -0.428   0.075  1.00  0.00    -0.365 N 
HETATM    2  C6  UNL     1       2.138  -0.359  -1.156  1.00  0.00     0.066 C 
HETATM    3  C7  UNL     1       1.784   0.952  -1.825  1.00  0.00     0.079 C 
HETATM    4  C8  UNL     1       0.484   1.318  -1.146  1.00  0.00     0.151 C 
HETATM    5  O3  UNL     1      -0.576   1.207  -1.997  1.00  0.00    -0.383 OA
HETATM    6  C9  UNL     1      -1.074  -0.047  -2.197  1.00  0.00     0.175 C 
HETATM    7  C10 UNL     1      -1.282  -0.883  -0.987  1.00  0.00     0.035 C 
HETATM    8  C11 UNL     1      -2.669  -1.452  -0.867  1.00  0.00     0.020 C 
HETATM    9  C12 UNL     1      -3.696  -0.512  -0.333  1.00  0.00    -0.019 C 
HETATM   10  C13 UNL     1      -4.718  -0.321  -1.453  1.00  0.00     0.017 C 
HETATM   11  C14 UNL     1      -4.470  -1.177   0.795  1.00  0.00     0.017 C 
HETATM   12  C15 UNL     1      -3.169   0.823   0.038  1.00  0.00     0.174 C 
HETATM   13  N3  UNL     1      -1.883   0.847   0.637  1.00  0.00    -0.402 N 
ATOM     14  H3  UNL     1      -1.635   1.567   1.316  1.00  0.00     0.154 HD
HETATM   15  C17 UNL     1      -0.950  -0.157   0.266  1.00  0.00     0.109 C 
HETATM   16  C18 UNL     1       0.403   0.507   0.114  1.00  0.00     0.140 C 
ENDROOT
BRANCH   1  17
HETATM   17  C5  UNL     1       2.158  -0.658   1.274  1.00  0.00     0.064 C 
BRANCH  17  18
HETATM   18  C4  UNL     1       3.048   0.338   1.875  1.00  0.00     0.054 C 
BRANCH  18  19
HETATM   19  C3  UNL     1       4.270   0.779   1.179  1.00  0.00     0.116 C 
BRANCH  19  20
HETATM   20  C2  UNL     1       5.298  -0.261   0.947  1.00  0.00     0.258 C 
HETATM   21  O2  UNL     1       5.146  -1.433   1.316  1.00  0.00    -0.265 OA
BRANCH  20  22
HETATM   22  O1  UNL     1       6.486   0.076   0.291  1.00  0.00    -0.326 OA
HETATM   23  C1  UNL     1       7.497  -0.886   0.050  1.00  0.00     0.213 C 
ENDBRANCH  20  22
ENDBRANCH  19  20
ENDBRANCH  18  19
ENDBRANCH  17  18
ENDBRANCH   1  17
BRANCH  12  24
HETATM   24  C16 UNL     1      -4.081   1.517   1.019  1.00  0.00     0.254 C 
HETATM   25  N2  UNL     1      -5.435   1.623   0.628  1.00  0.00    -0.060 NA
HETATM   26  O4  UNL     1      -3.703   1.979   2.111  1.00  0.00    -0.275 OA
ENDBRANCH  12  24
TORSDOF 6
