REMARK  5 active torsions:
REMARK  status: ('A' for Active; 'I' for Inactive)
REMARK    1  A    between atoms: C2_2  and  N1_3 
REMARK    2  A    between atoms: N2_7  and  C6_8 
REMARK    3  A    between atoms: C6_8  and  C7_9 
REMARK    4  A    between atoms: N4_13  and  C9_14 
REMARK    5  A    between atoms: C14_22  and  C15_23 
ROOT
HETATM    1  C7  UNL     1      -0.643  -0.707  -0.112  1.00  0.00     0.022 A 
HETATM    2  C8  UNL     1      -0.972   0.623  -0.127  1.00  0.00     0.118 A 
HETATM    3  N3  UNL     1      -2.287   0.742   0.016  1.00  0.00    -0.308 N 
ATOM      4  H3  UNL     1      -2.812   1.616   0.040  1.00  0.00     0.186 HD
HETATM    5  N4  UNL     1      -2.805  -0.496   0.124  1.00  0.00    -0.279 N 
HETATM    6  C14 UNL     1      -1.849  -1.414   0.051  1.00  0.00     0.137 A 
ENDROOT
BRANCH   1   7
HETATM    7  C6  UNL     1       0.678  -1.341  -0.261  1.00  0.00     0.315 C 
BRANCH   7   8
HETATM    8  N2  UNL     1       1.738  -0.393  -0.367  1.00  0.00     0.094 N 
HETATM    9  C5  UNL     1       2.026   0.319   0.830  1.00  0.00     0.274 C 
HETATM   10  C4  UNL     1       2.641   1.699   0.604  1.00  0.00     0.050 C 
HETATM   11  C3  UNL     1       4.139   1.536   0.703  1.00  0.00     0.123 C 
HETATM   12  N1  UNL     1       4.544   0.461  -0.116  1.00  0.00    -0.392 N 
HETATM   13  C17 UNL     1       3.858   0.221  -1.324  1.00  0.00     0.152 C 
HETATM   14  C16 UNL     1       2.870  -0.920  -1.069  1.00  0.00     0.292 C 
BRANCH  12  15
HETATM   15  C2  UNL     1       5.875   0.013   0.008  1.00  0.00     0.054 C 
HETATM   16  C1  UNL     1       6.926   0.978  -0.473  1.00  0.00     0.054 C 
ENDBRANCH  12  15
ENDBRANCH   7   8
ENDBRANCH   1   7
BRANCH   6  17
HETATM   17  C15 UNL     1      -1.984  -2.863   0.106  1.00  0.00     0.229 C 
HETATM   18  O1  UNL     1      -3.046  -3.474   0.257  1.00  0.00    -0.643 OA
HETATM   19  O2  UNL     1      -0.826  -3.651  -0.020  1.00  0.00    -0.643 OA
ENDBRANCH   6  17
BRANCH   5  20
HETATM   20  C9  UNL     1      -4.231  -0.658   0.297  1.00  0.00     0.134 C 
HETATM   21  C10 UNL     1      -4.919  -0.261  -0.989  1.00  0.00     0.030 C 
HETATM   22  C11 UNL     1      -6.297   0.249  -0.657  1.00  0.00     0.029 C 
HETATM   23  C12 UNL     1      -6.147   1.563   0.079  1.00  0.00     0.232 C 
HETATM   24  N5  UNL     1      -4.931   1.581   0.880  1.00  0.00    -0.073 N 
HETATM   25  C13 UNL     1      -4.676   0.259   1.434  1.00  0.00     0.259 C 
ATOM     26  H52 UNL     1      -4.132   1.934   0.353  1.00  0.00     0.277 HD
ATOM     27  H51 UNL     1      -4.962   2.299   1.604  1.00  0.00     0.277 HD
ENDBRANCH   5  20
TORSDOF 5
