REMARK  1 active torsions:
REMARK  status: ('A' for Active; 'I' for Inactive)
REMARK    1  A    between atoms: C5_6  and  C6_7 
ROOT
HETATM    1  C1  UNL     1      -2.318   1.160  -0.260  1.00  0.00     0.054 C 
HETATM    2  C2  UNL     1      -1.758  -0.157   0.119  1.00  0.00     0.054 C 
HETATM    3  N1  UNL     1      -0.535  -0.438   0.187  1.00  0.00    -0.384 N 
HETATM    4  C3  UNL     1       0.240  -1.588   0.514  1.00  0.00     0.125 C 
HETATM    5  C4  UNL     1       1.346  -1.053  -0.355  1.00  0.00     0.050 C 
HETATM    6  C5  UNL     1       0.689   0.266  -0.033  1.00  0.00     0.122 C 
ENDROOT
BRANCH   6   7
HETATM    7  C6  UNL     1       1.288   0.879   1.179  1.00  0.00     0.078 C 
HETATM    8  N2  UNL     1       2.522   1.209   1.189  1.00  0.00    -0.409 N 
ATOM      9  H22 UNL     1       3.083   1.044   0.354  1.00  0.00     0.155 HD
ATOM     10  H21 UNL     1       2.934   1.630   2.022  1.00  0.00     0.155 HD
ENDBRANCH   6   7
TORSDOF 1
