REMARK  11 active torsions:
REMARK  status: ('A' for Active; 'I' for Inactive)
REMARK    1  A    between atoms: N1_1  and  C1_4 
REMARK    2  A    between atoms: C2_7  and  C3_8 
REMARK    3  A    between atoms: C8_13  and  C9_14 
REMARK    4  A    between atoms: C12_17  and  C13_18 
REMARK    5  A    between atoms: C13_18  and  N3_19 
REMARK    6  A    between atoms: C14_20  and  C15_21 
REMARK    7  A    between atoms: C15_21  and  C16_22 
REMARK    8  A    between atoms: C16_22  and  C17_23 
REMARK    9  A    between atoms: C19_25  and  N4_26 
REMARK   10  A    between atoms: N4_26  and  S1_28 
REMARK   11  A    between atoms: S1_28  and  C20_31 
ROOT
HETATM    1  N3  UNL     1       0.457  -0.492  -2.169  1.00  0.00    -0.299 N 
HETATM    2  C14 UNL     1      -0.661   0.178  -1.866  1.00  0.00     0.022 A 
HETATM    3  C24 UNL     1      -1.082   1.242  -2.669  1.00  0.00     0.099 A 
HETATM    4  C25 UNL     1      -0.350   1.600  -3.773  1.00  0.00     0.251 A 
HETATM    5  O4  UNL     1      -0.734   2.566  -4.499  1.00  0.00    -0.268 OA
HETATM    6  N9  UNL     1       0.754   0.921  -4.057  1.00  0.00    -0.275 N 
ATOM      7  H9  UNL     1       1.308   1.175  -4.875  1.00  0.00     0.173 HD
HETATM    8  C26 UNL     1       1.143  -0.089  -3.282  1.00  0.00     0.329 A 
HETATM    9  O5  UNL     1       2.199  -0.747  -3.548  1.00  0.00    -0.246 OA
ENDROOT
BRANCH   2  10
HETATM   10  C15 UNL     1      -1.569  -0.178  -0.773  1.00  0.00     0.062 C 
BRANCH  10  11
HETATM   11  C16 UNL     1      -2.660  -1.098  -1.316  1.00  0.00     0.050 C 
BRANCH  11  12
HETATM   12  C17 UNL     1      -3.557  -1.431  -0.188  1.00  0.00     0.015 A 
HETATM   13  C18 UNL     1      -4.768  -0.821  -0.048  1.00  0.00     0.063 A 
HETATM   14  C19 UNL     1      -5.585  -1.140   1.013  1.00  0.00     0.130 A 
HETATM   15  N7  UNL     1      -5.155  -2.062   1.896  1.00  0.00    -0.282 N 
HETATM   16  N8  UNL     1      -4.011  -2.659   1.791  1.00  0.00    -0.264 N 
ATOM     17  H7  UNL     1      -5.758  -2.301   2.683  1.00  0.00     0.188 HD
HETATM   18  C23 UNL     1      -3.197  -2.356   0.754  1.00  0.00     0.266 A 
ATOM     19  H8  UNL     1      -3.726  -3.351   2.484  1.00  0.00     0.190 HD
HETATM   20  O3  UNL     1      -2.104  -2.977   0.720  1.00  0.00    -0.266 OA
BRANCH  14  21
HETATM   21  N4  UNL     1      -6.720  -0.584   1.183  1.00  0.00    -0.263 N 
ATOM     22  H4  UNL     1      -7.268  -0.875   1.993  1.00  0.00     0.180 HD
BRANCH  21  23
HETATM   23  S1  UNL     1      -7.395   0.607   0.165  1.00  0.00     0.281 S 
HETATM   24  O1  UNL     1      -6.417   1.756   0.090  1.00  0.00    -0.199 OA
HETATM   25  O2  UNL     1      -7.678   0.121  -1.229  1.00  0.00    -0.199 OA
BRANCH  23  26
HETATM   26  C20 UNL     1      -8.865   1.251   0.872  1.00  0.00     0.165 A 
HETATM   27  C21 UNL     1     -10.132   1.237   0.366  1.00  0.00     0.132 A 
HETATM   28  N5  UNL     1     -10.942   1.838   1.236  1.00  0.00    -0.359 N 
HETATM   29  C22 UNL     1     -10.189   2.222   2.272  1.00  0.00     0.181 A 
ATOM     30  H5  UNL     1     -11.947   1.979   1.132  1.00  0.00     0.166 HD
HETATM   31  N6  UNL     1      -8.912   1.867   2.059  1.00  0.00    -0.341 N 
ATOM     32  H6  UNL     1      -8.125   2.035   2.685  1.00  0.00     0.167 HD
ENDBRANCH  23  26
ENDBRANCH  21  23
ENDBRANCH  14  21
ENDBRANCH  11  12
ENDBRANCH  10  11
ENDBRANCH   2  10
BRANCH   1  33
HETATM   33  C13 UNL     1       0.981  -1.542  -1.348  1.00  0.00     0.172 C 
BRANCH  33  34
HETATM   34  C12 UNL     1       2.097  -1.122  -0.453  1.00  0.00    -0.040 A 
HETATM   35  C11 UNL     1       1.888  -0.327   0.634  1.00  0.00     0.010 A 
HETATM   36  C10 UNL     1       2.979   0.004   1.429  1.00  0.00     0.013 A 
HETATM   37  C9  UNL     1       4.253  -0.428   1.175  1.00  0.00    -0.025 A 
HETATM   38  C28 UNL     1       4.467  -1.230   0.079  1.00  0.00     0.013 A 
HETATM   39  C27 UNL     1       3.398  -1.566  -0.714  1.00  0.00     0.010 A 
BRANCH  37  40
HETATM   40  C8  UNL     1       5.365  -0.054   2.027  1.00  0.00    -0.013 A 
HETATM   41  C3  UNL     1       6.451   0.630   1.539  1.00  0.00     0.002 A 
HETATM   42  C4  UNL     1       7.527   1.007   2.327  1.00  0.00     0.014 A 
HETATM   43  C5  UNL     1       7.538   0.699   3.662  1.00  0.00     0.001 A 
HETATM   44  C6  UNL     1       6.442   0.008   4.161  1.00  0.00     0.001 A 
HETATM   45  C7  UNL     1       5.373  -0.366   3.374  1.00  0.00     0.013 A 
BRANCH  41  46
HETATM   46  C2  UNL     1       6.564   1.025   0.109  1.00  0.00     0.051 A 
HETATM   47  N2  UNL     1       7.528   0.570  -0.659  1.00  0.00    -0.336 N 
HETATM   48  C1  UNL     1       7.566   0.972  -1.928  1.00  0.00     0.142 A 
ATOM     49  H2  UNL     1       8.229  -0.074  -0.293  1.00  0.00     0.168 HD
HETATM   50  S2  UNL     1       6.216   2.013  -2.046  1.00  0.00    -0.064 SA
HETATM   51  C29 UNL     1       5.660   1.881  -0.439  1.00  0.00     0.083 A 
BRANCH  48  52
HETATM   52  N1  UNL     1       8.433   0.643  -2.863  1.00  0.00    -0.380 N 
ATOM     53  H12 UNL     1       9.239   0.022  -2.793  1.00  0.00     0.158 HD
ATOM     54  H11 UNL     1       8.462   0.951  -3.835  1.00  0.00     0.158 HD
ENDBRANCH  48  52
ENDBRANCH  41  46
ENDBRANCH  37  40
ENDBRANCH  33  34
ENDBRANCH   1  33
TORSDOF 11
