REMARK  13 active torsions:
REMARK  status: ('A' for Active; 'I' for Inactive)
REMARK    1  A    between atoms: N1_1  and  C1_4 
REMARK    2  A    between atoms: C4_11  and  N5_12 
REMARK    3  A    between atoms: C6_17  and  C7_18 
REMARK    4  A    between atoms: C8_21  and  N9_22 
REMARK    5  A    between atoms: C10_27  and  N12_28 
REMARK    6  A    between atoms: C13_34  and  N13_35 
REMARK    7  A    between atoms: N13_35  and  O1_37 
REMARK    8  A    between atoms: O1_37  and  C14_38 
REMARK    9  A    between atoms: C14_38  and  C15_39 
REMARK   10  A    between atoms: C15_39  and  O2_40 
REMARK   11  A    between atoms: C15_39  and  C16_42 
REMARK   12  A    between atoms: C16_42  and  O3_43 
REMARK   13  A    between atoms: N14_46  and  O4_48 
ROOT
HETATM    1  C7  UNL     1      -1.407  -0.221   0.256  1.00  0.00     0.070 A 
HETATM    2  N8  UNL     1      -0.855  -1.484   0.177  1.00  0.00    -0.342 N 
ATOM      3  H8  UNL     1       0.157  -1.587   0.102  1.00  0.00     0.167 HD
HETATM    4  C8  UNL     1      -1.630  -2.573   0.197  1.00  0.00     0.113 A 
HETATM    5  C11 UNL     1      -2.997  -2.419   0.298  1.00  0.00     0.051 A 
HETATM    6  C12 UNL     1      -3.602  -1.192   0.378  1.00  0.00     0.037 A 
HETATM    7  C13 UNL     1      -2.758  -0.054   0.353  1.00  0.00     0.079 A 
ENDROOT
BRANCH   1   8
HETATM    8  C6  UNL     1      -0.499   0.939   0.316  1.00  0.00     0.207 A 
HETATM    9  N7  UNL     1       0.004   1.259  -0.981  1.00  0.00    -0.347 N 
HETATM   10  C5  UNL     1       1.278   1.165  -1.053  1.00  0.00     0.199 A 
ATOM     11  H7  UNL     1      -0.588   1.533  -1.765  1.00  0.00     0.163 HD
HETATM   12  N5  UNL     1       1.822   0.765   0.197  1.00  0.00    -0.254 N 
HETATM   13  N6  UNL     1       2.110   1.417  -2.207  1.00  0.00    -0.063 NA
HETATM   14  C17 UNL     1       0.744   0.607   1.096  1.00  0.00     0.141 A 
HETATM   15  N14 UNL     1       0.800   0.253   2.332  1.00  0.00    -0.254 N 
ATOM     16  H14 UNL     1      -0.049   0.171   2.891  1.00  0.00     0.195 HD
BRANCH  12  17
HETATM   17  C4  UNL     1       3.227   0.565   0.479  1.00  0.00     0.159 A 
HETATM   18  C3  UNL     1       3.756  -0.681   0.257  1.00  0.00     0.133 A 
HETATM   19  C2  UNL     1       5.108  -0.948   0.506  1.00  0.00     0.159 A 
HETATM   20  N4  UNL     1       2.925  -1.710  -0.231  1.00  0.00    -0.095 NA
HETATM   21  N2  UNL     1       5.874   0.045   0.967  1.00  0.00    -0.177 N 
HETATM   22  N3  UNL     1       5.646  -2.230   0.275  1.00  0.00    -0.080 NA
HETATM   23  C1  UNL     1       5.357   1.272   1.186  1.00  0.00     0.678 A 
ATOM     24  H2  UNL     1       6.862  -0.127   1.156  1.00  0.00     0.185 HD
HETATM   25  N15 UNL     1       4.037   1.524   0.941  1.00  0.00    -0.174 N 
ATOM     26  H15 UNL     1       3.663   2.457   1.113  1.00  0.00     0.186 HD
BRANCH  23  27
HETATM   27  N1  UNL     1       6.083   2.250   1.633  1.00  0.00    -0.234 N 
ATOM     28  H12 UNL     1       7.069   2.062   1.816  1.00  0.00     0.174 HD
ATOM     29  H11 UNL     1       5.692   3.178   1.799  1.00  0.00     0.174 HD
ENDBRANCH  23  27
ENDBRANCH  12  17
BRANCH  15  30
HETATM   30  O4  UNL     1       2.031  -0.012   2.880  1.00  0.00    -0.288 OA
ATOM     31  H4  UNL     1       2.072  -0.273   3.792  1.00  0.00     0.244 HD
ENDBRANCH  15  30
ENDBRANCH   1   8
BRANCH   7  32
HETATM   32  N13 UNL     1      -3.419   1.202   0.349  1.00  0.00    -0.265 N 
ATOM     33  H13 UNL     1      -4.402   1.191   0.621  1.00  0.00     0.194 HD
BRANCH  32  34
HETATM   34  O1  UNL     1      -2.913   2.393   0.034  1.00  0.00    -0.277 OA
BRANCH  34  35
HETATM   35  C14 UNL     1      -3.903   3.152  -0.577  1.00  0.00     0.235 C 
BRANCH  35  36
HETATM   36  C15 UNL     1      -3.361   4.500  -0.947  1.00  0.00     0.167 C 
BRANCH  36  37
HETATM   37  O2  UNL     1      -4.325   5.289  -1.559  1.00  0.00    -0.391 OA
ATOM     38  H2  UNL     1      -3.982   6.143  -1.793  1.00  0.00     0.210 HD
ENDBRANCH  36  37
BRANCH  36  39
HETATM   39  C16 UNL     1      -2.724   5.172   0.247  1.00  0.00     0.198 C 
BRANCH  39  40
HETATM   40  O3  UNL     1      -2.098   6.361  -0.124  1.00  0.00    -0.398 OA
ATOM     41  H3  UNL     1      -1.697   6.784   0.627  1.00  0.00     0.209 HD
ENDBRANCH  39  40
ENDBRANCH  36  39
ENDBRANCH  35  36
ENDBRANCH  34  35
ENDBRANCH  32  34
ENDBRANCH   7  32
BRANCH   4  42
HETATM   42  N9  UNL     1      -1.085  -3.882   0.121  1.00  0.00    -0.261 N 
HETATM   43  C9  UNL     1      -0.634  -4.840   1.072  1.00  0.00     0.198 A 
HETATM   44  N10 UNL     1      -0.564  -4.845   2.503  1.00  0.00    -0.063 NA
HETATM   45  N11 UNL     1      -0.287  -5.758   0.229  1.00  0.00    -0.320 N 
HETATM   46  C10 UNL     1      -0.715  -4.868  -0.832  1.00  0.00     0.399 A 
ATOM     47  H11 UNL     1       0.112  -6.695   0.286  1.00  0.00     0.166 HD
BRANCH  46  48
HETATM   48  N12 UNL     1      -1.769  -5.485  -1.595  1.00  0.00    -0.040 N 
ATOM     49 3H12 UNL     1      -2.462  -5.876  -0.957  1.00  0.00     0.279 HD
ATOM     50 2H12 UNL     1      -2.320  -4.761  -2.056  1.00  0.00     0.279 HD
ATOM     51 1H12 UNL     1      -1.503  -6.193  -2.279  1.00  0.00     0.279 HD
ENDBRANCH  46  48
ENDBRANCH   4  42
TORSDOF 13
