REMARK  14 active torsions:
REMARK  status: ('A' for Active; 'I' for Inactive)
REMARK    1  A    between atoms: C2_2  and  C3_3 
REMARK    2  A    between atoms: C3_3  and  C4_4 
REMARK    3  A    between atoms: C4_4  and  C5_5 
REMARK    4  A    between atoms: C6_6  and  C7_7 
REMARK    5  A    between atoms: C8_10  and  N2_11 
REMARK    6  A    between atoms: C9_16  and  N4_17 
REMARK    7  A    between atoms: N4_17  and  C10_19 
REMARK    8  A    between atoms: C10_19  and  C11_20 
REMARK    9  A    between atoms: C11_20  and  C12_21 
REMARK   10  A    between atoms: C12_21  and  O1_22 
REMARK   11  A    between atoms: C13_24  and  C14_25 
REMARK   12  A    between atoms: C14_25  and  C18_37 
REMARK   13  A    between atoms: N5_26  and  N6_28 
REMARK   14  A    between atoms: N6_28  and  C15_30 
ROOT
HETATM    1  C7  UNL     1       1.297  -1.347  -0.144  1.00  0.00     0.119 A 
HETATM    2  N1  UNL     1       1.433  -2.694   0.107  1.00  0.00    -0.183 N 
ATOM      3  H1  UNL     1       2.253  -3.181  -0.255  1.00  0.00     0.185 HD
HETATM    4  C8  UNL     1       0.540  -3.378   0.800  1.00  0.00     0.678 A 
HETATM    5  N3  UNL     1      -0.523  -2.732   1.268  1.00  0.00    -0.176 N 
ATOM      6  H3  UNL     1      -1.221  -3.244   1.807  1.00  0.00     0.186 HD
HETATM    7  C9  UNL     1      -0.695  -1.443   1.050  1.00  0.00     0.132 A 
HETATM    8  C13 UNL     1       0.239  -0.665   0.305  1.00  0.00     0.072 A 
ENDROOT
BRANCH   8   9
HETATM    9  C14 UNL     1      -0.126   0.718   0.004  1.00  0.00     0.081 C 
HETATM   10  N5  UNL     1      -1.201   1.055   0.685  1.00  0.00    -0.298 N 
ATOM     11  H5  UNL     1      -1.547   0.291   1.266  1.00  0.00     0.187 HD
BRANCH  10  12
HETATM   12  N6  UNL     1      -1.933   2.134   0.796  1.00  0.00    -0.271 N 
ATOM     13  H6  UNL     1      -1.516   2.946   1.252  1.00  0.00     0.190 HD
BRANCH  12  14
HETATM   14  C15 UNL     1      -3.300   2.255   0.314  1.00  0.00     0.190 C 
HETATM   15  N7  UNL     1      -3.935   1.398  -0.392  1.00  0.00    -0.360 N 
HETATM   16  C16 UNL     1      -5.270   1.812  -0.704  1.00  0.00     0.142 C 
ATOM     17  H7  UNL     1      -3.533   0.513  -0.700  1.00  0.00     0.162 HD
HETATM   18  C17 UNL     1      -5.522   2.926   0.280  1.00  0.00     0.142 C 
HETATM   19  N8  UNL     1      -4.155   3.351   0.552  1.00  0.00    -0.360 N 
ATOM     20  H8  UNL     1      -3.867   4.279   0.861  1.00  0.00     0.162 HD
ENDBRANCH  12  14
ENDBRANCH  10  12
BRANCH   9  21
HETATM   21  C18 UNL     1       0.356   1.736  -0.891  1.00  0.00     0.140 C 
HETATM   22  C19 UNL     1       0.347   1.269  -2.330  1.00  0.00     0.058 C 
HETATM   23  C20 UNL     1       1.590   2.485  -0.548  1.00  0.00     0.058 C 
HETATM   24  F1  UNL     1      -0.682   2.779  -0.941  1.00  0.00    -0.237 F 
ENDBRANCH   9  21
ENDBRANCH   8   9
BRANCH   1  25
HETATM   25  C6  UNL     1       2.414  -0.728  -0.791  1.00  0.00    -0.047 C 
HETATM   26  C5  UNL     1       3.390  -0.270  -1.302  1.00  0.00    -0.100 C 
BRANCH  26  27
HETATM   27  C4  UNL     1       4.592   0.293  -1.918  1.00  0.00     0.094 C 
BRANCH  27  28
HETATM   28  C3  UNL     1       5.794   0.050  -1.004  1.00  0.00     0.012 C 
BRANCH  28  29
HETATM   29  C2  UNL     1       7.034   0.621  -1.630  1.00  0.00    -0.004 C 
HETATM   30  C1  UNL     1       7.323  -0.022  -2.976  1.00  0.00     0.005 C 
ENDBRANCH  28  29
ENDBRANCH  27  28
ENDBRANCH  26  27
ENDBRANCH   1  25
BRANCH   7  31
HETATM   31  N4  UNL     1      -1.755  -0.874   1.519  1.00  0.00    -0.375 N 
ATOM     32  H4  UNL     1      -1.880   0.123   1.346  1.00  0.00     0.161 HD
BRANCH  31  33
HETATM   33  C10 UNL     1      -2.760  -1.554   2.263  1.00  0.00     0.123 C 
BRANCH  33  34
HETATM   34  C11 UNL     1      -3.727  -2.316   1.394  1.00  0.00     0.045 C 
BRANCH  34  35
HETATM   35  C12 UNL     1      -4.747  -3.006   2.262  1.00  0.00     0.165 C 
BRANCH  35  36
HETATM   36  O1  UNL     1      -5.474  -2.098   3.022  1.00  0.00    -0.401 OA
ATOM     37  H1  UNL     1      -6.117  -2.533   3.569  1.00  0.00     0.209 HD
ENDBRANCH  35  36
ENDBRANCH  34  35
ENDBRANCH  33  34
ENDBRANCH  31  33
ENDBRANCH   7  31
BRANCH   4  38
HETATM   38  N2  UNL     1       0.699  -4.659   1.018  1.00  0.00    -0.234 N 
ATOM     39  H22 UNL     1       1.515  -5.155   0.659  1.00  0.00     0.174 HD
ATOM     40  H21 UNL     1       0.010  -5.187   1.553  1.00  0.00     0.174 HD
ENDBRANCH   4  38
TORSDOF 14
