REMARK  4 active torsions:
REMARK  status: ('A' for Active; 'I' for Inactive)
REMARK    1  A    between atoms: N1_1  and  C1_4 
REMARK    2  A    between atoms: N5_16  and  C5_17 
REMARK    3  A    between atoms: C5_17  and  C6_18 
REMARK    4  A    between atoms: C6_18  and  C7_19 
ROOT
HETATM    1  C1  UNL     1       2.914   2.080   0.617  1.00  0.00     0.679 A 
HETATM    2  N2  UNL     1       4.164   1.727   0.232  1.00  0.00    -0.175 N 
ATOM      3  H2  UNL     1       4.915   2.414   0.161  1.00  0.00     0.186 HD
HETATM    4  C2  UNL     1       4.368   0.429  -0.052  1.00  0.00     0.145 A 
HETATM    5  N3  UNL     1       5.550   0.072  -0.419  1.00  0.00    -0.383 N 
ATOM      6  H31 UNL     1       5.705  -0.913  -0.634  1.00  0.00     0.157 HD
ATOM      7  H32 UNL     1       6.298   0.762  -0.488  1.00  0.00     0.157 HD
HETATM    8  C3  UNL     1       3.354  -0.507   0.042  1.00  0.00     0.124 A 
HETATM    9  N4  UNL     1       3.253  -1.831  -0.168  1.00  0.00    -0.326 N 
ATOM     10  H4  UNL     1       4.023  -2.427  -0.472  1.00  0.00     0.168 HD
HETATM   11  C4  UNL     1       1.995  -2.271   0.076  1.00  0.00     0.183 A 
HETATM   12 CL1  UNL     1       1.413  -3.932  -0.070  1.00  0.00    -0.044 Cl
HETATM   13  N5  UNL     1       1.281  -1.198   0.452  1.00  0.00    -0.307 N 
HETATM   14  C12 UNL     1       2.077  -0.116   0.440  1.00  0.00     0.156 A 
HETATM   15  N6  UNL     1       1.912   1.192   0.716  1.00  0.00    -0.174 N 
ATOM     16  H6  UNL     1       0.992   1.520   1.011  1.00  0.00     0.186 HD
ENDROOT
BRANCH  13  17
HETATM   17  C5  UNL     1      -0.116  -1.234   0.804  1.00  0.00     0.133 C 
BRANCH  17  18
HETATM   18  C6  UNL     1      -1.017  -1.013  -0.380  1.00  0.00     0.025 C 
BRANCH  18  19
HETATM   19  C7  UNL     1      -2.466  -1.045  -0.047  1.00  0.00    -0.010 C 
HETATM   20  C8  UNL     1      -2.905  -0.023   0.941  1.00  0.00     0.007 C 
HETATM   21  C9  UNL     1      -3.797   0.961   0.253  1.00  0.00     0.037 C 
HETATM   22  C10 UNL     1      -3.650   0.710  -1.232  1.00  0.00     0.170 C 
HETATM   23  F1  UNL     1      -2.743   1.580  -1.801  1.00  0.00    -0.249 F 
HETATM   24  C11 UNL     1      -3.237  -0.727  -1.327  1.00  0.00     0.042 C 
ENDBRANCH  18  19
ENDBRANCH  17  18
ENDBRANCH  13  17
BRANCH   1  25
HETATM   25  N1  UNL     1       2.722   3.326   0.888  1.00  0.00    -0.234 N 
ATOM     26  H12 UNL     1       3.483   4.001   0.813  1.00  0.00     0.174 HD
ATOM     27  H11 UNL     1       1.781   3.592   1.178  1.00  0.00     0.174 HD
ENDBRANCH   1  25
TORSDOF 4
