REMARK  0 active torsions:
REMARK  status: ('A' for Active; 'I' for Inactive)
ROOT
HETATM    1  C1  UNL     1       2.558   0.719  -0.607  1.00  0.00     0.012 C 
HETATM    2  C2  UNL     1       1.839  -0.182   0.383  1.00  0.00     0.013 A 
HETATM    3  C3  UNL     1       1.224  -1.453  -0.077  1.00  0.00     0.038 A 
HETATM    4  C4  UNL     1       0.312  -0.280   0.263  1.00  0.00     0.047 A 
HETATM    5  C5  UNL     1      -0.292   0.405  -0.884  1.00  0.00     0.052 C 
HETATM    6  C6  UNL     1      -1.666   0.916  -0.742  1.00  0.00     0.136 C 
HETATM    7  N1  UNL     1      -2.601   0.069  -0.091  1.00  0.00    -0.303 N 
ATOM      8  H1  UNL     1      -3.535  -0.106  -0.460  1.00  0.00     0.173 HD
HETATM    9  S1  UNL     1      -2.037  -0.633   1.359  1.00  0.00     0.315 S 
HETATM   10  O1  UNL     1      -2.319  -2.084   1.457  1.00  0.00    -0.183 OA
HETATM   11  O2  UNL     1      -2.747   0.054   2.512  1.00  0.00    -0.183 OA
HETATM   12  N2  UNL     1      -0.373  -0.241   1.494  1.00  0.00    -0.292 N 
ATOM     13  H2  UNL     1       0.077  -0.003   2.378  1.00  0.00     0.174 HD
ENDROOT
TORSDOF 0
