REMARK  7 active torsions:
REMARK  status: ('A' for Active; 'I' for Inactive)
REMARK    1  A    between atoms: N1_1  and  N2_4 
REMARK    2  A    between atoms: N2_4  and  C1_5 
REMARK    3  A    between atoms: C9_16  and  C10_17 
REMARK    4  A    between atoms: C11_18  and  C12_19 
REMARK    5  A    between atoms: C13_20  and  C14_21 
REMARK    6  A    between atoms: C15_22  and  C16_23 
REMARK    7  A    between atoms: C16_23  and  C17_24 
ROOT
HETATM    1  N2  UNL     1      -2.123  -1.310  -0.595  1.00  0.00     0.026 N 
HETATM    2  C6  UNL     1      -3.388  -1.955  -0.395  1.00  0.00     0.266 C 
HETATM    3  C7  UNL     1      -3.297  -2.796   0.841  1.00  0.00     0.033 C 
HETATM    4  C8  UNL     1      -1.877  -2.508   1.349  1.00  0.00     0.050 C 
HETATM    5  C9  UNL     1      -1.197  -2.224   0.023  1.00  0.00     0.294 C 
ENDROOT
BRANCH   1   6
HETATM    6  N1  UNL     1      -1.834  -1.304  -1.974  1.00  0.00    -0.260 N 
ATOM      7  H12 UNL     1      -1.609  -0.459  -2.500  1.00  0.00     0.183 HD
ATOM      8  H11 UNL     1      -1.881  -2.245  -2.364  1.00  0.00     0.183 HD
ENDBRANCH   1   6
BRANCH   1   9
HETATM    9  C1  UNL     1      -2.057   0.018  -0.045  1.00  0.00     0.219 C 
HETATM   10  C2  UNL     1      -1.672   1.053  -1.099  1.00  0.00     0.063 C 
HETATM   11  C3  UNL     1      -1.426   2.352  -0.378  1.00  0.00     0.234 C 
HETATM   12  N3  UNL     1      -2.582   2.786   0.378  1.00  0.00    -0.075 N 
HETATM   13  C4  UNL     1      -3.032   1.788   1.315  1.00  0.00     0.234 C 
ATOM     14  H32 UNL     1      -2.403   3.675   0.845  1.00  0.00     0.277 HD
ATOM     15  H31 UNL     1      -3.339   3.076  -0.241  1.00  0.00     0.277 HD
HETATM   16  C5  UNL     1      -3.341   0.483   0.573  1.00  0.00     0.063 C 
ENDBRANCH   1   9
BRANCH   5  17
HETATM   17  C10 UNL     1       0.097  -1.606   0.165  1.00  0.00    -0.056 C 
HETATM   18  C11 UNL     1       1.192  -1.106   0.280  1.00  0.00    -0.012 C 
BRANCH  18  19
HETATM   19  C12 UNL     1       2.484  -0.536   0.400  1.00  0.00    -0.001 C 
HETATM   20  C13 UNL     1       3.591  -0.055   0.483  1.00  0.00    -0.001 C 
BRANCH  20  21
HETATM   21  C14 UNL     1       4.890   0.498   0.557  1.00  0.00    -0.014 C 
HETATM   22  C15 UNL     1       6.001   0.966   0.600  1.00  0.00    -0.091 C 
BRANCH  22  23
HETATM   23  C16 UNL     1       7.369   1.534   0.629  1.00  0.00     0.110 C 
BRANCH  23  24
HETATM   24  C17 UNL     1       7.939   1.320  -0.756  1.00  0.00     0.126 C 
HETATM   25 CL1  UNL     1       9.579   1.937  -0.921  1.00  0.00    -0.130 Cl
ENDBRANCH  23  24
ENDBRANCH  22  23
ENDBRANCH  20  21
ENDBRANCH  18  19
ENDBRANCH   5  17
TORSDOF 7
