REMARK  3 active torsions:
REMARK  status: ('A' for Active; 'I' for Inactive)
REMARK    1  A    between atoms: C2_2  and  O1_3 
REMARK    2  A    between atoms: C7_10  and  C8_11 
REMARK    3  A    between atoms: C8_11  and  O2_12 
ROOT
HETATM    1  C1  UNL     1      -2.639   0.705   1.057  1.00  0.00     0.047 C 
HETATM    2  C2  UNL     1      -1.968  -0.208   0.054  1.00  0.00     0.080 C 
HETATM    3  C3  UNL     1      -1.231  -1.294   0.804  1.00  0.00     0.067 C 
HETATM    4  C4  UNL     1       0.218  -0.782   0.785  1.00  0.00     0.241 C 
HETATM    5  N1  UNL     1       0.354  -0.081  -0.443  1.00  0.00    -0.058 N 
HETATM    6  C5  UNL     1       0.803  -1.013  -1.495  1.00  0.00     0.240 C 
HETATM    7  C6  UNL     1       2.206  -0.627  -1.084  1.00  0.00     0.063 C 
HETATM    8  C7  UNL     1       1.495   0.690  -0.735  1.00  0.00     0.215 C 
HETATM    9  C9  UNL     1      -0.925   0.526  -0.739  1.00  0.00     0.275 C 
ENDROOT
BRANCH   8  10
HETATM   10  C8  UNL     1       2.178   1.494   0.305  1.00  0.00     0.197 C 
BRANCH  10  11
HETATM   11  O2  UNL     1       2.644   0.673   1.328  1.00  0.00    -0.399 OA
ATOM     12  H2  UNL     1       3.082   1.189   1.995  1.00  0.00     0.209 HD
ENDBRANCH  10  11
ENDBRANCH   8  10
BRANCH   2  13
HETATM   13  O1  UNL     1      -2.926  -0.779  -0.778  1.00  0.00    -0.388 OA
ATOM     14  H1  UNL     1      -2.505  -1.352  -1.408  1.00  0.00     0.210 HD
ENDBRANCH   2  13
TORSDOF 3
