REMARK  3 active torsions:
REMARK  status: ('A' for Active; 'I' for Inactive)
REMARK    1  A    between atoms: C3_3  and  C4_4 
REMARK    2  A    between atoms: C10_10  and  C11_11 
REMARK    3  A    between atoms: C13_20  and  N4_21 
ROOT
HETATM    1  C1  UNL     1      -1.716   2.407  -0.917  1.00  0.00     0.013 C 
HETATM    2  C2  UNL     1      -1.501   1.319  -0.500  1.00  0.00    -0.106 C 
HETATM    3  C3  UNL     1      -1.263  -0.020   0.016  1.00  0.00     0.033 C 
HETATM    4  C6  UNL     1      -2.503  -0.895  -0.256  1.00  0.00     0.023 C 
HETATM    5  C7  UNL     1      -2.653  -1.126  -1.759  1.00  0.00     0.002 C 
HETATM    6  C8  UNL     1      -1.458  -1.767  -2.369  1.00  0.00     0.001 C 
HETATM    7  C9  UNL     1      -0.273  -0.838  -2.139  1.00  0.00     0.014 C 
HETATM    8  C10 UNL     1      -0.125  -0.746  -0.615  1.00  0.00     0.074 C 
ENDROOT
BRANCH   3   9
HETATM    9  C4  UNL     1      -1.071  -0.015   1.500  1.00  0.00     0.019 C 
HETATM   10  C5  UNL     1      -2.223   0.508   2.280  1.00  0.00     0.007 C 
ENDBRANCH   3   9
BRANCH   8  11
HETATM   11  C11 UNL     1       1.225  -0.334  -0.209  1.00  0.00     0.102 C 
HETATM   12  N1  UNL     1       2.052  -1.150   0.380  1.00  0.00    -0.181 N 
HETATM   13  C12 UNL     1       3.365  -0.798   0.791  1.00  0.00     0.676 C 
ATOM     14  H1  UNL     1       1.736  -2.103   0.558  1.00  0.00     0.185 HD
HETATM   15  N2  UNL     1       4.161  -1.638   1.375  1.00  0.00    -0.235 N 
HETATM   16  N3  UNL     1       3.859   0.515   0.570  1.00  0.00    -0.180 N 
ATOM     17  H22 UNL     1       3.806  -2.581   1.534  1.00  0.00     0.174 HD
ATOM     18  H21 UNL     1       5.104  -1.385   1.670  1.00  0.00     0.174 HD
HETATM   19  C13 UNL     1       2.840   1.537   0.319  1.00  0.00     0.402 C 
ATOM     20  H3  UNL     1       4.856   0.732   0.585  1.00  0.00     0.181 HD
HETATM   21  N5  UNL     1       1.729   0.981  -0.426  1.00  0.00    -0.335 N 
ATOM     22  H5  UNL     1       1.286   1.559  -1.140  1.00  0.00     0.164 HD
BRANCH  19  23
HETATM   23  N4  UNL     1       2.459   2.087   1.589  1.00  0.00    -0.040 N 
ATOM     24  H43 UNL     1       2.155   1.377   2.255  1.00  0.00     0.279 HD
ATOM     25  H42 UNL     1       3.253   2.440   2.124  1.00  0.00     0.279 HD
ATOM     26  H41 UNL     1       1.749   2.799   1.414  1.00  0.00     0.279 HD
ENDBRANCH  19  23
ENDBRANCH   8  11
TORSDOF 3
