REMARK  2 active torsions:
REMARK  status: ('A' for Active; 'I' for Inactive)
REMARK    1  A    between atoms: C10_13  and  C11_14 
REMARK    2  A    between atoms: C11_14  and  C12_15 
ROOT
HETATM    1  C1  UNL     1       3.512  -1.286   0.245  1.00  0.00     0.022 C 
HETATM    2  C2  UNL     1       2.527  -0.450  -0.523  1.00  0.00     0.110 C 
HETATM    3  C3  UNL     1       3.132   0.861  -0.852  1.00  0.00     0.223 C 
HETATM    4  O1  UNL     1       3.450   1.178  -2.021  1.00  0.00    -0.273 OA
HETATM    5  N1  UNL     1       3.345   1.771   0.237  1.00  0.00    -0.361 N 
ATOM      6  H1  UNL     1       4.071   2.487   0.210  1.00  0.00     0.162 HD
HETATM    7  C4  UNL     1       2.466   1.612   1.378  1.00  0.00     0.125 C 
HETATM    8  C5  UNL     1       1.139   1.111   0.859  1.00  0.00     0.059 C 
HETATM    9  C6  UNL     1       1.229  -0.230   0.203  1.00  0.00     0.139 C 
HETATM   10  C7  UNL     1       0.950  -1.354   1.200  1.00  0.00     0.040 C 
HETATM   11  C8  UNL     1      -0.375  -2.051   0.866  1.00  0.00     0.004 C 
HETATM   12  C9  UNL     1      -1.479  -1.034   0.780  1.00  0.00     0.033 C 
HETATM   13  C10 UNL     1      -1.100   0.016  -0.213  1.00  0.00     0.192 C 
HETATM   14  N5  UNL     1       0.170  -0.304  -0.787  1.00  0.00    -0.061 N 
ATOM     15  H51 UNL     1       0.153  -1.212  -1.250  1.00  0.00     0.278 HD
ATOM     16  H52 UNL     1       0.373   0.281  -1.597  1.00  0.00     0.278 HD
ENDROOT
BRANCH  13  17
HETATM   17  C11 UNL     1      -2.198   0.125  -1.250  1.00  0.00     0.093 C 
BRANCH  17  18
HETATM   18  C12 UNL     1      -3.451   0.499  -0.551  1.00  0.00     0.046 A 
HETATM   19  C13 UNL     1      -4.702   0.699  -1.148  1.00  0.00     0.135 A 
HETATM   20  N2  UNL     1      -5.559   1.023  -0.167  1.00  0.00    -0.296 N 
HETATM   21  N3  UNL     1      -4.931   1.038   0.983  1.00  0.00    -0.243 N 
ATOM     22  H2  UNL     1      -6.550   1.227  -0.297  1.00  0.00     0.187 HD
HETATM   23  N4  UNL     1      -3.685   0.728   0.754  1.00  0.00    -0.289 N 
ATOM     24  H3  UNL     1      -5.342   1.253   1.892  1.00  0.00     0.208 HD
ATOM     25  H4  UNL     1      -2.971   0.666   1.480  1.00  0.00     0.188 HD
ENDBRANCH  17  18
ENDBRANCH  13  17
TORSDOF 2
