REMARK  2 active torsions:
REMARK  status: ('A' for Active; 'I' for Inactive)
REMARK    1  A    between atoms: N3_4  and  C2_6 
REMARK    2  A    between atoms: C2_6  and  C3_7 
ROOT
HETATM    1  C2  UNL     1      -0.466  -0.165  -0.631  1.00  0.00     0.251 A 
HETATM    2  C9  UNL     1      -0.817  -1.298  -1.393  1.00  0.00     0.302 A 
HETATM    3  N4  UNL     1      -0.634  -0.001  -2.067  1.00  0.00    -0.038 N 
ATOM      4  H41 UNL     1      -0.074   0.357  -2.840  1.00  0.00     0.280 HD
ATOM      5  H42 UNL     1      -1.186   0.596  -2.683  1.00  0.00     0.280 HD
ENDROOT
BRANCH   1   6
HETATM    6  N3  UNL     1      -1.359   0.632   0.146  1.00  0.00    -0.329 N 
HETATM    7  C1  UNL     1      -2.613   0.395   0.255  1.00  0.00     0.199 C 
HETATM    8  N1  UNL     1      -3.217  -0.712  -0.413  1.00  0.00    -0.067 NA
HETATM    9  N2  UNL     1      -3.457   1.230   1.048  1.00  0.00    -0.067 NA
ATOM     10  H3  UNL     1      -0.977   1.437   0.643  1.00  0.00     0.164 HD
ENDBRANCH   1   6
BRANCH   1  11
HETATM   11  C3  UNL     1       0.982  -0.034  -0.242  1.00  0.00    -0.001 A 
HETATM   12  C4  UNL     1       1.691  -1.113   0.250  1.00  0.00     0.011 A 
HETATM   13  C5  UNL     1       3.023  -0.998   0.609  1.00  0.00     0.001 A 
HETATM   14  C6  UNL     1       3.666   0.227   0.475  1.00  0.00     0.000 A 
HETATM   15  C7  UNL     1       2.977   1.321  -0.014  1.00  0.00     0.001 A 
HETATM   16  C8  UNL     1       1.662   1.161  -0.357  1.00  0.00     0.011 A 
ENDBRANCH   1  11
TORSDOF 2
