REMARK  8 active torsions:
REMARK  status: ('A' for Active; 'I' for Inactive)
REMARK       I    between atoms: C2_2  and  N1_4 
REMARK    1  A    between atoms: N1_4  and  C3_6 
REMARK    2  A    between atoms: C3_6  and  C4_7 
REMARK    3  A    between atoms: C6_9  and  C7_10 
REMARK    4  A    between atoms: C7_10  and  C8_11 
REMARK    5  A    between atoms: C8_11  and  C9_12 
REMARK    6  A    between atoms: C9_12  and  C10_13 
REMARK    7  A    between atoms: C10_13  and  C11_14 
REMARK    8  A    between atoms: C11_14  and  C12_15 
ROOT
HETATM    1  C4  UNL     1      -1.769   0.589  -1.176  1.00  0.00     0.008 C 
HETATM    2  C5  UNL     1      -0.307   0.381  -0.910  1.00  0.00     0.011 C 
HETATM    3  C6  UNL     1       0.034  -0.833  -0.110  1.00  0.00    -0.010 C 
HETATM    4  C13 UNL     1      -0.693  -2.072  -0.505  1.00  0.00    -0.010 C 
HETATM    5  C14 UNL     1      -1.460  -2.618   0.683  1.00  0.00     0.005 C 
HETATM    6  C15 UNL     1      -2.934  -2.545   0.380  1.00  0.00     0.001 C 
HETATM    7  C16 UNL     1      -3.236  -1.074   0.051  1.00  0.00     0.005 C 
HETATM    8  C17 UNL     1      -2.556  -0.683  -1.217  1.00  0.00    -0.009 C 
HETATM    9  C18 UNL     1      -1.598  -1.781  -1.693  1.00  0.00     0.010 C 
ENDROOT
BRANCH   3  10
HETATM   10  C7  UNL     1       1.512  -1.115  -0.229  1.00  0.00     0.005 C 
BRANCH  10  11
HETATM   11  C8  UNL     1       2.369   0.016   0.281  1.00  0.00     0.000 C 
BRANCH  11  12
HETATM   12  C9  UNL     1       3.805  -0.410   0.066  1.00  0.00     0.001 C 
BRANCH  12  13
HETATM   13  C10 UNL     1       4.784   0.631   0.542  1.00  0.00     0.010 C 
BRANCH  13  14
HETATM   14  C11 UNL     1       6.182   0.097   0.246  1.00  0.00     0.113 C 
BRANCH  14  15
HETATM   15  C12 UNL     1       7.222   1.047   0.674  1.00  0.00     0.172 C 
HETATM   16  O2  UNL     1       7.209   1.466   1.877  1.00  0.00    -0.648 OA
HETATM   17  O3  UNL     1       8.188   1.472  -0.226  1.00  0.00    -0.648 OA
ENDBRANCH  14  15
ENDBRANCH  13  14
ENDBRANCH  12  13
ENDBRANCH  11  12
ENDBRANCH  10  11
ENDBRANCH   3  10
BRANCH   1  18
HETATM   18  C3  UNL     1      -2.375   1.654  -0.298  1.00  0.00     0.127 C 
BRANCH  18  19
HETATM   19  N1  UNL     1      -3.768   1.817  -0.602  1.00  0.00    -0.361 N 
HETATM   20  C2  UNL     1      -4.532   2.759   0.108  1.00  0.00     0.213 C 
HETATM   21  C1  UNL     1      -5.965   2.945  -0.194  1.00  0.00     0.117 C 
HETATM   22  O1  UNL     1      -4.005   3.453   1.007  1.00  0.00    -0.274 OA
ATOM     23  H1  UNL     1      -4.202   1.251  -1.331  1.00  0.00     0.162 HD
ENDBRANCH  18  19
ENDBRANCH   1  18
TORSDOF 8
