REMARK  6 active torsions:
REMARK  status: ('A' for Active; 'I' for Inactive)
REMARK    1  A    between atoms: C3_3  and  C4_4 
REMARK    2  A    between atoms: C4_4  and  C5_5 
REMARK    3  A    between atoms: C6_6  and  O1_7 
REMARK    4  A    between atoms: C8_15  and  N3_16 
REMARK    5  A    between atoms: N4_22  and  C12_23 
REMARK    6  A    between atoms: C14_25  and  C15_26 
ROOT
HETATM    1  C1  UNL     1       1.776  -0.703   0.981  1.00  0.00     0.044 C 
HETATM    2  C2  UNL     1       1.555  -0.136  -0.179  1.00  0.00     0.040 A 
HETATM    3  C3  UNL     1       2.419   0.635  -0.917  1.00  0.00    -0.007 A 
HETATM    4  C9  UNL     1       1.692   0.995  -2.077  1.00  0.00     0.039 A 
HETATM    5  C10 UNL     1       0.465   0.432  -1.970  1.00  0.00     0.014 A 
HETATM    6  C11 UNL     1      -0.673   0.539  -2.981  1.00  0.00     0.068 C 
HETATM    7  N4  UNL     1       0.350  -0.255  -0.838  1.00  0.00    -0.315 N 
ENDROOT
BRANCH   7   8
HETATM    8  C12 UNL     1      -0.804  -0.978  -0.395  1.00  0.00     0.046 A 
HETATM    9  C13 UNL     1      -1.901  -0.355   0.164  1.00  0.00     0.043 A 
HETATM   10  C14 UNL     1      -3.001  -1.078   0.582  1.00  0.00    -0.018 A 
HETATM   11  C21 UNL     1      -2.950  -2.450   0.416  1.00  0.00     0.013 A 
HETATM   12  C22 UNL     1      -1.865  -3.099  -0.139  1.00  0.00     0.010 A 
HETATM   13  C23 UNL     1      -0.781  -2.346  -0.548  1.00  0.00    -0.035 A 
HETATM   14  C24 UNL     1       0.411  -2.994  -1.152  1.00  0.00     0.050 C 
BRANCH  10  15
HETATM   15  C15 UNL     1      -4.157  -0.411   1.171  1.00  0.00     0.037 A 
HETATM   16  C16 UNL     1      -4.866  -0.775   2.298  1.00  0.00     0.123 A 
HETATM   17  N5  UNL     1      -5.855   0.128   2.472  1.00  0.00    -0.303 N 
HETATM   18  N6  UNL     1      -5.806   1.042   1.515  1.00  0.00    -0.251 N 
ATOM     19  H5  UNL     1      -6.539   0.109   3.229  1.00  0.00     0.186 HD
HETATM   20  C17 UNL     1      -6.568   2.123   1.267  1.00  0.00     0.119 A 
HETATM   21  C20 UNL     1      -4.767   0.732   0.698  1.00  0.00     0.139 A 
HETATM   22  C18 UNL     1      -6.257   2.900   0.160  1.00  0.00     0.036 A 
HETATM   23  C19 UNL     1      -5.202   2.586  -0.669  1.00  0.00     0.091 A 
HETATM   24  N7  UNL     1      -4.465   1.487  -0.377  1.00  0.00    -0.350 N 
ATOM     25  H7  UNL     1      -3.678   1.230  -0.973  1.00  0.00     0.166 HD
ENDBRANCH  10  15
ENDBRANCH   7   8
BRANCH   3  26
HETATM   26  C4  UNL     1       3.657   1.027  -0.715  1.00  0.00     0.033 C 
BRANCH  26  27
HETATM   27  C5  UNL     1       4.552   0.779   0.371  1.00  0.00     0.059 A 
HETATM   28  C6  UNL     1       5.414  -0.329   0.332  1.00  0.00     0.158 A 
HETATM   29  N1  UNL     1       6.277  -0.535   1.337  1.00  0.00    -0.288 N 
HETATM   30  C7  UNL     1       6.309   0.325   2.377  1.00  0.00     0.327 A 
ATOM     31  H1  UNL     1       6.906  -1.337   1.316  1.00  0.00     0.172 HD
HETATM   32  O2  UNL     1       7.142   0.077   3.289  1.00  0.00    -0.247 OA
HETATM   33  N2  UNL     1       5.489   1.397   2.433  1.00  0.00    -0.294 N 
HETATM   34  C8  UNL     1       4.601   1.661   1.460  1.00  0.00     0.117 A 
ATOM     35  H2  UNL     1       5.546   2.023   3.236  1.00  0.00     0.172 HD
BRANCH  28  36
HETATM   36  O1  UNL     1       5.407  -1.231  -0.720  1.00  0.00    -0.345 OA
ATOM     37  H1  UNL     1       5.990  -1.981  -0.746  1.00  0.00     0.219 HD
ENDBRANCH  28  36
BRANCH  34  38
HETATM   38  N3  UNL     1       3.844   2.687   1.554  1.00  0.00    -0.385 N 
ATOM     39  H32 UNL     1       3.170   2.887   0.815  1.00  0.00     0.157 HD
ATOM     40  H31 UNL     1       3.880   3.329   2.346  1.00  0.00     0.157 HD
ENDBRANCH  34  38
ENDBRANCH  26  27
ENDBRANCH   3  26
TORSDOF 6
