REMARK  1 active torsions:
REMARK  status: ('A' for Active; 'I' for Inactive)
REMARK    1  A    between atoms: C1_2  and  C2_3 
ROOT
HETATM    1  C2  UNL     1       1.306   0.215  -0.398  1.00  0.00     0.249 C 
HETATM    2  C3  UNL     1       0.425  -1.011  -0.487  1.00  0.00     0.075 C 
HETATM    3  C4  UNL     1      -0.543  -0.789   0.659  1.00  0.00     0.220 C 
HETATM    4  N1  UNL     1      -1.944  -0.820   0.274  1.00  0.00    -0.067 N 
ATOM      5  H11 UNL     1      -2.655  -1.147   0.928  1.00  0.00     0.277 HD
ATOM      6  H12 UNL     1      -2.279  -1.498  -0.410  1.00  0.00     0.277 HD
HETATM    7  C5  UNL     1      -1.847   0.568  -0.063  1.00  0.00     0.268 C 
HETATM    8  C6  UNL     1      -0.628   0.685   0.802  1.00  0.00     0.242 C 
HETATM    9  N2  UNL     1       0.467   1.279   0.070  1.00  0.00    -0.057 N 
ATOM     10  H21 UNL     1       0.154   1.896  -0.679  1.00  0.00     0.278 HD
ATOM     11  H22 UNL     1       0.976   1.975   0.614  1.00  0.00     0.278 HD
ENDROOT
BRANCH   1  12
HETATM   12  C1  UNL     1       2.381  -0.029   0.594  1.00  0.00     0.264 C 
HETATM   13  O1  UNL     1       2.433   0.638   1.610  1.00  0.00    -0.305 OA
ENDBRANCH   1  12
TORSDOF 1
