REMARK  2 active torsions:
REMARK  status: ('A' for Active; 'I' for Inactive)
REMARK    1  A    between atoms: N2_4  and  N3_6 
REMARK    2  A    between atoms: C4_13  and  O1_14 
ROOT
HETATM    1  N3  UNL     1       1.728  -0.708   0.881  1.00  0.00    -0.273 N 
ATOM      2  H3  UNL     1       1.810  -1.718   0.996  1.00  0.00     0.190 HD
HETATM    3  C1  UNL     1       0.687  -0.235   0.303  1.00  0.00     0.122 C 
HETATM    4  N4  UNL     1       0.430   1.146   0.073  1.00  0.00    -0.376 N 
ATOM      5  H4  UNL     1       1.010   1.929   0.374  1.00  0.00     0.160 HD
HETATM    6  C2  UNL     1      -0.832   1.229  -0.682  1.00  0.00     0.124 C 
HETATM    7  C3  UNL     1      -1.556   0.038  -0.090  1.00  0.00     0.059 C 
HETATM    8  C4  UNL     1      -0.455  -1.015  -0.239  1.00  0.00     0.188 C 
ENDROOT
BRANCH   1   9
HETATM    9  N2  UNL     1       2.756   0.109   1.360  1.00  0.00    -0.248 N 
HETATM   10  N1  UNL     1       3.668   0.576   0.620  1.00  0.00    -0.331 N 
ATOM     11  H12 UNL     1       3.638   0.336  -0.371  1.00  0.00     0.178 HD
ATOM     12  H11 UNL     1       4.418   1.172   0.970  1.00  0.00     0.178 HD
ATOM     13  H2  UNL     1       2.771   0.339   2.354  1.00  0.00     0.207 HD
ENDBRANCH   1   9
BRANCH   8  14
HETATM   14  O1  UNL     1      -0.729  -2.157   0.472  1.00  0.00    -0.388 OA
ATOM     15  H1  UNL     1      -1.459  -2.656   0.125  1.00  0.00     0.210 HD
ENDBRANCH   8  14
TORSDOF 2
