REMARK  2 active torsions:
REMARK  status: ('A' for Active; 'I' for Inactive)
REMARK    1  A    between atoms: N2_4  and  N3_6 
REMARK    2  A    between atoms: C1_8  and  C2_9 
ROOT
HETATM    1  N3  UNL     1       2.250  -0.844   0.394  1.00  0.00    -0.296 N 
ATOM      2  H3  UNL     1       3.035  -1.474   0.560  1.00  0.00     0.187 HD
HETATM    3  C1  UNL     1       1.063  -1.295   0.519  1.00  0.00     0.139 C 
ENDROOT
BRANCH   3   4
HETATM    4  C2  UNL     1      -0.101  -0.428   0.292  1.00  0.00     0.065 A 
HETATM    5  C3  UNL     1      -1.429  -0.777   0.391  1.00  0.00     0.119 A 
HETATM    6  N4  UNL     1      -2.215   0.280   0.112  1.00  0.00    -0.360 N 
HETATM    7  C4  UNL     1      -1.385   1.302  -0.165  1.00  0.00     0.180 A 
ATOM      8  H4  UNL     1      -3.235   0.302   0.111  1.00  0.00     0.166 HD
HETATM    9  N5  UNL     1      -0.103   0.873  -0.056  1.00  0.00    -0.350 N 
ATOM     10  H5  UNL     1       0.727   1.445  -0.213  1.00  0.00     0.166 HD
ENDBRANCH   3   4
BRANCH   1  11
HETATM   11  N2  UNL     1       2.513   0.468   0.042  1.00  0.00    -0.250 N 
HETATM   12  N1  UNL     1       2.957   0.736  -1.109  1.00  0.00    -0.331 N 
ATOM     13  H12 UNL     1       3.116  -0.026  -1.768  1.00  0.00     0.178 HD
ATOM     14  H11 UNL     1       3.151   1.703  -1.368  1.00  0.00     0.178 HD
ATOM     15  H2  UNL     1       2.348   1.219   0.713  1.00  0.00     0.207 HD
ENDBRANCH   1  11
TORSDOF 2
