REMARK  11 active torsions:
REMARK  status: ('A' for Active; 'I' for Inactive)
REMARK    1  A    between atoms: C2_2  and  N1_3 
REMARK    2  A    between atoms: C2_2  and  C13_24 
REMARK       I    between atoms: N1_3  and  C3_5 
REMARK    3  A    between atoms: C3_5  and  C4_7 
REMARK    4  A    between atoms: C4_7  and  C5_9 
REMARK    5  A    between atoms: C5_9  and  C6_10 
REMARK    6  A    between atoms: C5_9  and  N5_18 
REMARK    7  A    between atoms: C6_10  and  C7_11 
REMARK    8  A    between atoms: C7_11  and  C8_12 
REMARK    9  A    between atoms: C8_12  and  N2_13 
REMARK   10  A    between atoms: N5_18  and  C10_19 
REMARK   11  A    between atoms: N5_18  and  C11_21 
REMARK       I    between atoms: C13_24  and  N7_26 
ROOT
HETATM    1  C11 UNL     1      -3.442   1.862  -2.589  1.00  0.00     0.188 C 
HETATM    2  C12 UNL     1      -4.815   1.440  -2.520  1.00  0.00     0.105 C 
HETATM    3  N6  UNL     1      -5.912   1.100  -2.444  1.00  0.00    -0.191 NA
ENDROOT
BRANCH   1   4
HETATM    4  N5  UNL     1      -2.732   1.895  -1.340  1.00  0.00    -0.313 N 
BRANCH   4   5
HETATM    5  C5  UNL     1      -1.959   0.750  -0.893  1.00  0.00     0.172 C 
BRANCH   5   6
HETATM    6  C4  UNL     1      -0.495   1.174  -0.923  1.00  0.00     0.239 C 
HETATM    7  O2  UNL     1      -0.191   2.381  -1.184  1.00  0.00    -0.285 OA
BRANCH   6   8
HETATM    8  C3  UNL     1       0.580   0.250  -0.665  1.00  0.00     0.290 C 
HETATM    9  N1  UNL     1       1.926   0.672  -0.684  1.00  0.00    -0.342 N 
ATOM     10  H1  UNL     1       2.121   1.653  -0.886  1.00  0.00     0.163 HD
HETATM   11  O1  UNL     1       0.370  -0.966  -0.414  1.00  0.00    -0.264 OA
BRANCH   9  12
HETATM   12  C2  UNL     1       3.043  -0.208  -0.433  1.00  0.00     0.173 C 
HETATM   13  C1  UNL     1       3.871  -0.257  -1.716  1.00  0.00     0.042 C 
BRANCH  12  14
HETATM   14  C13 UNL     1       3.865   0.336   0.652  1.00  0.00     0.242 C 
HETATM   15  O4  UNL     1       3.479   1.447   1.160  1.00  0.00    -0.271 OA
HETATM   16  N7  UNL     1       5.035  -0.289   1.152  1.00  0.00    -0.350 N 
HETATM   17  C14 UNL     1       5.642  -1.520   0.738  1.00  0.00     0.126 C 
HETATM   18  C17 UNL     1       5.856   0.233   2.215  1.00  0.00     0.126 C 
HETATM   19  C15 UNL     1       7.120  -1.420   1.138  1.00  0.00     0.021 C 
HETATM   20  C16 UNL     1       7.258   0.015   1.634  1.00  0.00     0.021 C 
ENDBRANCH  12  14
ENDBRANCH   9  12
ENDBRANCH   6   8
ENDBRANCH   5   6
BRANCH   5  21
HETATM   21  C6  UNL     1      -2.273   0.350   0.505  1.00  0.00     0.039 C 
BRANCH  21  22
HETATM   22  C7  UNL     1      -3.668  -0.129   0.757  1.00  0.00     0.047 C 
BRANCH  22  23
HETATM   23  C8  UNL     1      -3.922  -1.355  -0.059  1.00  0.00     0.063 C 
BRANCH  23  24
HETATM   24  N2  UNL     1      -5.197  -1.947   0.048  1.00  0.00    -0.347 N 
HETATM   25  C9  UNL     1      -6.162  -1.715   0.816  1.00  0.00     0.200 C 
HETATM   26  N3  UNL     1      -7.339  -2.528   0.646  1.00  0.00    -0.067 NA
HETATM   27  N4  UNL     1      -6.233  -0.739   1.842  1.00  0.00    -0.067 NA
ATOM     28  H2  UNL     1      -5.366  -2.700  -0.619  1.00  0.00     0.167 HD
ENDBRANCH  23  24
ENDBRANCH  22  23
ENDBRANCH  21  22
ENDBRANCH   5  21
ENDBRANCH   4   5
BRANCH   4  29
HETATM   29  C10 UNL     1      -2.754   3.057  -0.556  1.00  0.00     0.356 C 
HETATM   30  O3  UNL     1      -3.415   4.052  -0.921  1.00  0.00    -0.283 OA
ENDBRANCH   4  29
ENDBRANCH   1   4
TORSDOF 11
