REMARK  14 active torsions:
REMARK  status: ('A' for Active; 'I' for Inactive)
REMARK    1  A    between atoms: C2_2  and  C3_3 
REMARK    2  A    between atoms: C3_3  and  C6_6 
REMARK       I    between atoms: C6_6  and  N1_8 
REMARK    3  A    between atoms: N1_8  and  C7_9 
REMARK    4  A    between atoms: N1_8  and  C17_27 
REMARK    5  A    between atoms: C7_9  and  C8_10 
REMARK       I    between atoms: C8_10  and  N2_12 
REMARK    6  A    between atoms: N2_12  and  C9_14 
REMARK    7  A    between atoms: C9_14  and  C11_16 
REMARK       I    between atoms: C11_16  and  N3_18 
REMARK    8  A    between atoms: N3_18  and  C12_20 
REMARK    9  A    between atoms: C12_20  and  C13_21 
REMARK   10  A    between atoms: C12_20  and  C14_24 
REMARK   11  A    between atoms: C17_27  and  C18_28 
REMARK   12  A    between atoms: C17_27  and  C19_30 
REMARK   13  A    between atoms: C19_30  and  C20_31 
REMARK   14  A    between atoms: C19_30  and  C21_34 
ROOT
HETATM    1  C6  UNL     1      -2.019  -1.249   1.607  1.00  0.00     0.229 C 
HETATM    2  O1  UNL     1      -0.849  -1.561   2.060  1.00  0.00    -0.272 OA
HETATM    3  N1  UNL     1      -2.137   0.108   1.167  1.00  0.00    -0.328 N 
ENDROOT
BRANCH   3   4
HETATM    4  C7  UNL     1      -0.911   0.884   1.269  1.00  0.00     0.229 C 
BRANCH   4   5
HETATM    5  C8  UNL     1       0.001   0.759   0.136  1.00  0.00     0.236 C 
HETATM    6  O2  UNL     1      -0.182   0.010  -0.882  1.00  0.00    -0.272 OA
HETATM    7  N2  UNL     1       1.198   1.524   0.144  1.00  0.00    -0.347 N 
ATOM      8  H2  UNL     1       1.393   2.140   0.933  1.00  0.00     0.163 HD
BRANCH   7   9
HETATM    9  C9  UNL     1       2.133   1.447  -0.931  1.00  0.00     0.172 C 
HETATM   10  C10 UNL     1       2.349   2.779  -1.621  1.00  0.00     0.042 C 
BRANCH   9  11
HETATM   11  C11 UNL     1       3.481   0.995  -0.461  1.00  0.00     0.240 C 
HETATM   12  O3  UNL     1       3.645   0.746   0.760  1.00  0.00    -0.271 OA
HETATM   13  N3  UNL     1       4.566   0.843  -1.347  1.00  0.00    -0.346 N 
ATOM     14  H3  UNL     1       4.438   1.045  -2.339  1.00  0.00     0.163 HD
BRANCH  13  15
HETATM   15  C12 UNL     1       5.850   0.408  -0.873  1.00  0.00     0.177 C 
BRANCH  15  16
HETATM   16  C13 UNL     1       6.868   1.416  -1.241  1.00  0.00     0.254 C 
HETATM   17  N4  UNL     1       8.232   1.263  -0.871  1.00  0.00    -0.060 NA
HETATM   18  O4  UNL     1       6.484   2.430  -1.900  1.00  0.00    -0.275 OA
ENDBRANCH  15  16
BRANCH  15  19
HETATM   19  C14 UNL     1       6.246  -0.919  -1.485  1.00  0.00     0.009 C 
HETATM   20  C15 UNL     1       7.577  -1.437  -1.021  1.00  0.00     0.012 C 
HETATM   21  C16 UNL     1       5.205  -1.987  -1.205  1.00  0.00     0.012 C 
ENDBRANCH  15  19
ENDBRANCH  13  15
ENDBRANCH   9  11
ENDBRANCH   7   9
ENDBRANCH   4   5
ENDBRANCH   3   4
BRANCH   3  22
HETATM   22  C17 UNL     1      -3.400   0.670   0.744  1.00  0.00     0.184 C 
BRANCH  22  23
HETATM   23  C18 UNL     1      -3.844   1.653   1.800  1.00  0.00     0.261 C 
HETATM   24  O5  UNL     1      -4.880   2.257   1.791  1.00  0.00    -0.304 OA
ENDBRANCH  22  23
BRANCH  22  25
HETATM   25  C19 UNL     1      -3.512   1.215  -0.624  1.00  0.00     0.018 C 
BRANCH  25  26
HETATM   26  C20 UNL     1      -2.763   2.354  -1.058  1.00  0.00     0.259 C 
HETATM   27  N5  UNL     1      -2.262   2.458  -2.383  1.00  0.00    -0.058 NA
HETATM   28  O6  UNL     1      -2.497   3.329  -0.330  1.00  0.00    -0.272 OA
ENDBRANCH  25  26
BRANCH  25  29
HETATM   29  C21 UNL     1      -4.982   1.241  -1.023  1.00  0.00     0.022 A 
HETATM   30  C22 UNL     1      -5.395   1.732  -2.370  1.00  0.00     0.010 A 
HETATM   31  C23 UNL     1      -5.770   2.482  -1.095  1.00  0.00     0.010 A 
ENDBRANCH  25  29
ENDBRANCH  22  25
ENDBRANCH   3  22
BRANCH   1  32
HETATM   32  C3  UNL     1      -2.985  -2.322   1.626  1.00  0.00     0.033 C 
HETATM   33  C4  UNL     1      -2.319  -3.589   2.214  1.00  0.00     0.025 C 
HETATM   34  C5  UNL     1      -4.235  -2.126   2.404  1.00  0.00     0.025 C 
BRANCH  32  35
HETATM   35  C2  UNL     1      -3.306  -2.727   0.186  1.00  0.00     0.014 C 
HETATM   36  C1  UNL     1      -4.238  -3.908   0.145  1.00  0.00     0.006 C 
ENDBRANCH  32  35
ENDBRANCH   1  32
TORSDOF 14
