REMARK  13 active torsions:
REMARK  status: ('A' for Active; 'I' for Inactive)
REMARK    1  A    between atoms: C2_2  and  C3_4 
REMARK    2  A    between atoms: C3_4  and  C4_5 
REMARK    3  A    between atoms: C3_4  and  N4_13 
REMARK    4  A    between atoms: C4_5  and  N1_6 
REMARK    5  A    between atoms: N1_6  and  N2_8 
REMARK       I    between atoms: N4_13  and  C5_15 
REMARK    6  A    between atoms: C5_15  and  C6_17 
REMARK    7  A    between atoms: C6_17  and  C7_18 
REMARK    8  A    between atoms: C6_17  and  N5_22 
REMARK    9  A    between atoms: C7_18  and  C8_19 
REMARK       I    between atoms: N5_22  and  C11_24 
REMARK   10  A    between atoms: C11_24  and  C12_26 
REMARK   11  A    between atoms: C12_26  and  C13_27 
REMARK   12  A    between atoms: C13_27  and  C14_28 
REMARK   13  A    between atoms: C13_27  and  N6_31 
REMARK       I    between atoms: N7_35  and  C20_36 
ROOT
HETATM    1  C6  UNL     1      -2.555  -0.981  -0.877  1.00  0.00     0.177 C 
ENDROOT
BRANCH   1   2
HETATM    2  C5  UNL     1      -2.747   0.351  -0.145  1.00  0.00     0.245 C 
HETATM    3  N4  UNL     1      -3.937   0.552   0.544  1.00  0.00    -0.321 N 
ATOM      4  H4  UNL     1      -4.582  -0.237   0.495  1.00  0.00     0.169 HD
HETATM    5  O2  UNL     1      -1.845   1.206  -0.184  1.00  0.00    -0.271 OA
BRANCH   3   6
HETATM    6  C3  UNL     1      -4.425   1.647   1.303  1.00  0.00     0.097 C 
BRANCH   6   7
HETATM    7  C2  UNL     1      -3.845   1.809   2.655  1.00  0.00     0.173 C 
HETATM    8  C1  UNL     1      -4.274   2.858   3.615  1.00  0.00     0.098 C 
HETATM    9  O1  UNL     1      -2.959   1.009   2.969  1.00  0.00    -0.291 OA
ENDBRANCH   6   7
BRANCH   6  10
HETATM   10  C4  UNL     1      -4.548   2.904   0.502  1.00  0.00     0.141 C 
BRANCH  10  11
HETATM   11  N1  UNL     1      -3.373   3.630   0.251  1.00  0.00    -0.296 N 
ATOM     12  H1  UNL     1      -3.075   3.717  -0.721  1.00  0.00     0.187 HD
BRANCH  11  13
HETATM   13  N2  UNL     1      -2.578   4.244   1.224  1.00  0.00    -0.250 N 
HETATM   14  N3  UNL     1      -2.637   5.495   1.469  1.00  0.00    -0.331 N 
ATOM     15  H32 UNL     1      -3.294   6.054   0.925  1.00  0.00     0.178 HD
ATOM     16  H31 UNL     1      -2.057   5.943   2.179  1.00  0.00     0.178 HD
ATOM     17  H2  UNL     1      -1.926   3.670   1.758  1.00  0.00     0.207 HD
ENDBRANCH  11  13
ENDBRANCH  10  11
ENDBRANCH   6  10
ENDBRANCH   3   6
ENDBRANCH   1   2
BRANCH   1  18
HETATM   18  C7  UNL     1      -3.654  -1.076  -1.883  1.00  0.00     0.038 C 
BRANCH  18  19
HETATM   19  C8  UNL     1      -3.700  -2.299  -2.719  1.00  0.00    -0.020 C 
HETATM   20  C9  UNL     1      -2.488  -2.547  -3.569  1.00  0.00     0.009 C 
HETATM   21  C10 UNL     1      -4.038  -3.543  -1.918  1.00  0.00     0.009 C 
ENDBRANCH  18  19
ENDBRANCH   1  18
BRANCH   1  22
HETATM   22  N5  UNL     1      -1.253  -0.899  -1.465  1.00  0.00    -0.344 N 
HETATM   23  C11 UNL     1      -0.097  -1.581  -0.871  1.00  0.00     0.240 C 
HETATM   24  O3  UNL     1      -0.356  -2.205   0.139  1.00  0.00    -0.269 OA
ATOM     25  H5  UNL     1      -1.125  -0.354  -2.317  1.00  0.00     0.163 HD
BRANCH  23  26
HETATM   26  C12 UNL     1       1.201  -1.460  -1.506  1.00  0.00     0.083 C 
BRANCH  26  27
HETATM   27  C13 UNL     1       2.478  -1.631  -0.802  1.00  0.00     0.254 C 
BRANCH  27  28
HETATM   28  C14 UNL     1       3.656  -1.524  -1.738  1.00  0.00     0.014 C 
HETATM   29  C15 UNL     1       4.971  -1.685  -0.987  1.00  0.00     0.012 C 
HETATM   30  C16 UNL     1       3.687  -0.491  -2.775  1.00  0.00     0.012 C 
ENDBRANCH  27  28
BRANCH  27  31
HETATM   31  N6  UNL     1       2.679  -0.921   0.424  1.00  0.00     0.098 N 
HETATM   32  C17 UNL     1       2.082  -1.333   1.624  1.00  0.00     0.275 C 
HETATM   33  C18 UNL     1       3.064  -1.150   2.828  1.00  0.00     0.050 C 
HETATM   34  C19 UNL     1       3.112   0.309   3.211  1.00  0.00     0.127 C 
HETATM   35  N7  UNL     1       3.632   1.016   2.059  1.00  0.00    -0.351 N 
HETATM   36  C20 UNL     1       5.044   1.235   1.968  1.00  0.00     0.215 C 
HETATM   37  C22 UNL     1       2.790   1.510   0.992  1.00  0.00     0.156 C 
HETATM   38  C21 UNL     1       5.623   1.951   0.816  1.00  0.00     0.117 C 
HETATM   39  O4  UNL     1       5.828   0.823   2.866  1.00  0.00    -0.274 OA
HETATM   40  C23 UNL     1       2.169   0.444   0.174  1.00  0.00     0.293 C 
ENDBRANCH  27  31
ENDBRANCH  26  27
ENDBRANCH  23  26
ENDBRANCH   1  22
TORSDOF 13
