REMARK  15 active torsions:
REMARK  status: ('A' for Active; 'I' for Inactive)
REMARK    1  A    between atoms: N1_1  and  C1_5 
REMARK    2  A    between atoms: C3_7  and  O1_8 
REMARK    3  A    between atoms: O1_8  and  C4_9 
REMARK    4  A    between atoms: C7_13  and  O2_14 
REMARK    5  A    between atoms: O2_14  and  C8_15 
REMARK    6  A    between atoms: C8_15  and  C9_18 
REMARK    7  A    between atoms: C11_22  and  N2_23 
REMARK    8  A    between atoms: N2_23  and  C12_25 
REMARK    9  A    between atoms: C12_25  and  C13_26 
REMARK   10  A    between atoms: C12_25  and  C16_32 
REMARK   11  A    between atoms: C13_26  and  O3_27 
REMARK   12  A    between atoms: O3_27  and  C14_28 
REMARK   13  A    between atoms: C16_32  and  C17_33 
REMARK   14  A    between atoms: C27_43  and  O4_44 
REMARK   15  A    between atoms: C28_46  and  O5_47 
ROOT
HETATM    1  C4  UNL     1      -2.064   0.738  -0.676  1.00  0.00     0.100 A 
HETATM    2  C5  UNL     1      -2.803   1.559  -1.551  1.00  0.00     0.066 A 
HETATM    3  C6  UNL     1      -2.641   2.887  -1.598  1.00  0.00     0.073 A 
HETATM    4 CL1  UNL     1      -3.603   3.844  -2.718  1.00  0.00    -0.081 Cl
HETATM    5  C7  UNL     1      -1.725   3.487  -0.771  1.00  0.00     0.138 A 
HETATM    6  C10 UNL     1      -0.990   2.703   0.093  1.00  0.00     0.180 A 
HETATM    7  F4  UNL     1      -0.135   3.343   0.904  1.00  0.00    -0.201 F 
HETATM    8  C11 UNL     1      -1.099   1.348   0.197  1.00  0.00     0.104 A 
ENDROOT
BRANCH   8   9
HETATM    9  N2  UNL     1      -0.411   0.510   1.068  1.00  0.00    -0.378 N 
ATOM     10  H2  UNL     1      -0.849  -0.407   1.154  1.00  0.00     0.160 HD
BRANCH   9  11
HETATM   11  C12 UNL     1       0.744   0.630   1.856  1.00  0.00     0.107 C 
BRANCH  11  12
HETATM   12  C13 UNL     1       0.779  -0.414   2.992  1.00  0.00     0.202 C 
BRANCH  12  13
HETATM   13  O3  UNL     1      -0.361  -0.193   3.861  1.00  0.00    -0.333 OA
BRANCH  13  14
HETATM   14  C14 UNL     1      -0.409   1.059   4.457  1.00  0.00     0.158 A 
HETATM   15  C15 UNL     1      -0.891   2.310   4.585  1.00  0.00     0.146 A 
HETATM   16  N3  UNL     1       0.137   1.908   5.483  1.00  0.00    -0.342 N 
ATOM     17  H3  UNL     1       0.774   2.086   6.260  1.00  0.00     0.167 HD
ENDBRANCH  13  14
ENDBRANCH  12  13
ENDBRANCH  11  12
BRANCH  11  18
HETATM   18  C16 UNL     1       2.067   0.788   1.254  1.00  0.00     0.036 C 
BRANCH  18  19
HETATM   19  C17 UNL     1       2.684  -0.154   0.325  1.00  0.00    -0.037 C 
HETATM   20  C18 UNL     1       2.882  -1.537   0.876  1.00  0.00     0.014 C 
HETATM   21  C19 UNL     1       3.770  -2.412   0.012  1.00  0.00    -0.013 C 
HETATM   22  C20 UNL     1       3.049  -2.550  -1.311  1.00  0.00     0.009 C 
HETATM   23  C24 UNL     1       5.126  -1.823  -0.110  1.00  0.00     0.009 C 
HETATM   24  C21 UNL     1       2.925  -1.169  -1.896  1.00  0.00    -0.013 C 
HETATM   25  C22 UNL     1       4.327  -0.639  -2.107  1.00  0.00     0.009 C 
HETATM   26  C26 UNL     1       2.087  -0.228  -1.054  1.00  0.00     0.014 C 
HETATM   27  C23 UNL     1       4.948  -0.460  -0.763  1.00  0.00    -0.013 C 
HETATM   28  C25 UNL     1       4.109   0.404   0.089  1.00  0.00     0.014 C 
ENDBRANCH  18  19
ENDBRANCH  11  18
ENDBRANCH   9  11
ENDBRANCH   8   9
BRANCH   1  29
HETATM   29  O1  UNL     1      -2.266  -0.535  -0.678  1.00  0.00    -0.341 OA
BRANCH  29  30
HETATM   30  C3  UNL     1      -2.445  -1.790  -0.658  1.00  0.00     0.162 C 
HETATM   31  C2  UNL     1      -2.321  -2.553  -1.993  1.00  0.00     0.070 C 
HETATM   32  C1  UNL     1      -2.888  -3.919  -1.670  1.00  0.00     0.217 C 
HETATM   33  C28 UNL     1      -3.666  -3.783  -0.400  1.00  0.00     0.179 C 
HETATM   34  C27 UNL     1      -3.848  -2.300  -0.251  1.00  0.00     0.178 C 
BRANCH  32  35
HETATM   35  N1  UNL     1      -3.747  -4.398  -2.742  1.00  0.00    -0.072 N 
ATOM     36  H13 UNL     1      -4.484  -3.728  -2.960  1.00  0.00     0.274 HD
ATOM     37  H12 UNL     1      -3.263  -4.395  -3.640  1.00  0.00     0.274 HD
ATOM     38  H11 UNL     1      -4.129  -5.318  -2.524  1.00  0.00     0.274 HD
ENDBRANCH  32  35
BRANCH  33  39
HETATM   39  O5  UNL     1      -4.869  -4.481  -0.420  1.00  0.00    -0.391 OA
ATOM     40  H5  UNL     1      -5.363  -4.395   0.387  1.00  0.00     0.210 HD
ENDBRANCH  33  39
BRANCH  34  41
HETATM   41  O4  UNL     1      -4.820  -1.850  -1.106  1.00  0.00    -0.390 OA
ATOM     42  H4  UNL     1      -5.681  -2.163  -0.856  1.00  0.00     0.210 HD
ENDBRANCH  34  41
ENDBRANCH  29  30
ENDBRANCH   1  29
BRANCH   5  43
HETATM   43  O2  UNL     1      -1.550   4.843  -0.811  1.00  0.00    -0.277 OA
BRANCH  43  44
HETATM   44  C8  UNL     1      -2.237   5.789  -0.046  1.00  0.00     0.385 C 
HETATM   45  F1  UNL     1      -3.598   5.782  -0.241  1.00  0.00    -0.172 F 
HETATM   46  F2  UNL     1      -2.009   5.664   1.306  1.00  0.00    -0.172 F 
BRANCH  44  47
HETATM   47  C9  UNL     1      -1.724   7.177  -0.434  1.00  0.00     0.334 C 
HETATM   48  F3  UNL     1      -1.942   7.423  -1.777  1.00  0.00    -0.246 F 
ENDBRANCH  44  47
ENDBRANCH  43  44
ENDBRANCH   5  43
TORSDOF 15
