REMARK  4 active torsions:
REMARK  status: ('A' for Active; 'I' for Inactive)
REMARK    1  A    between atoms: N2_3  and  C2_5 
REMARK    2  A    between atoms: C2_5  and  N3_7 
REMARK    3  A    between atoms: N3_7  and  N4_9 
REMARK    4  A    between atoms: N4_9  and  C3_11 
ROOT
HETATM    1  N1  UNL     1       5.456   1.800   0.626  1.00  0.00    -0.172 NA
HETATM    2  C1  UNL     1       5.061   0.751   0.275  1.00  0.00     0.184 C 
HETATM    3  N2  UNL     1       4.600  -0.507  -0.124  1.00  0.00    -0.269 N 
ATOM      4  H2  UNL     1       5.274  -1.216  -0.412  1.00  0.00     0.180 HD
ENDROOT
BRANCH   3   5
HETATM    5  C2  UNL     1       3.211  -0.821  -0.137  1.00  0.00     0.199 C 
HETATM    6  S1  UNL     1       2.694  -2.298  -0.607  1.00  0.00    -0.038 SA
BRANCH   5   7
HETATM    7  N3  UNL     1       2.293   0.180   0.268  1.00  0.00    -0.276 N 
ATOM      8  H3  UNL     1       2.633   1.097   0.559  1.00  0.00     0.189 HD
BRANCH   7   9
HETATM    9  N4  UNL     1       0.922  -0.090   0.269  1.00  0.00    -0.309 N 
ATOM     10  H4  UNL     1       0.588  -0.995   0.600  1.00  0.00     0.186 HD
BRANCH   9  11
HETATM   11  C3  UNL     1       0.072   0.789  -0.142  1.00  0.00     0.127 C 
HETATM   12  C4  UNL     1      -1.354   0.543  -0.156  1.00  0.00     0.090 A 
HETATM   13  C5  UNL     1      -1.804  -0.693   0.295  1.00  0.00     0.137 A 
HETATM   14  C7  UNL     1      -2.234   1.508  -0.602  1.00  0.00     0.264 A 
HETATM   15  N5  UNL     1      -0.852  -1.650   0.744  1.00  0.00    -0.081 NA
HETATM   16  N6  UNL     1      -3.131  -0.908   0.277  1.00  0.00    -0.296 N 
HETATM   17  C6  UNL     1      -3.993   0.049  -0.165  1.00  0.00     0.328 A 
ATOM     18  H6  UNL     1      -3.498  -1.803   0.600  1.00  0.00     0.171 HD
HETATM   19  O1  UNL     1      -5.220  -0.255  -0.141  1.00  0.00    -0.247 OA
HETATM   20  N7  UNL     1      -3.552   1.244  -0.600  1.00  0.00    -0.275 N 
ATOM     21  H7  UNL     1      -4.215   1.947  -0.927  1.00  0.00     0.173 HD
HETATM   22  O2  UNL     1      -1.844   2.637  -1.015  1.00  0.00    -0.267 OA
ENDBRANCH   9  11
ENDBRANCH   7   9
ENDBRANCH   5   7
ENDBRANCH   3   5
TORSDOF 4
