REMARK  9 active torsions:
REMARK  status: ('A' for Active; 'I' for Inactive)
REMARK    1  A    between atoms: C2_2  and  C3_3 
REMARK    2  A    between atoms: C3_3  and  O1_4 
REMARK    3  A    between atoms: C3_3  and  C4_6 
REMARK    4  A    between atoms: C5_7  and  C6_8 
REMARK    5  A    between atoms: C7_9  and  O2_10 
REMARK    6  A    between atoms: C10_14  and  O3_15 
REMARK    7  A    between atoms: C11_17  and  C12_18 
REMARK    8  A    between atoms: C12_18  and  C13_19 
REMARK    9  A    between atoms: C14_20  and  C15_21 
ROOT
HETATM    1  C6  UNL     1      -0.676  -0.489  -0.324  1.00  0.00     0.043 C 
HETATM    2  C7  UNL     1      -1.174  -1.893  -0.051  1.00  0.00     0.126 C 
HETATM    3  C8  UNL     1      -0.882  -2.315   1.376  1.00  0.00     0.035 C 
HETATM    4  C9  UNL     1       0.597  -2.381   1.548  1.00  0.00     0.034 C 
HETATM    5  C10 UNL     1       1.337  -1.194   0.992  1.00  0.00     0.123 C 
HETATM    6  C11 UNL     1       0.399  -0.069   0.645  1.00  0.00     0.028 C 
ENDROOT
BRANCH   1   7
HETATM    7  C5  UNL     1      -1.827   0.428  -0.096  1.00  0.00    -0.020 C 
HETATM    8  C4  UNL     1      -2.323   1.218  -1.024  1.00  0.00     0.005 C 
BRANCH   8   9
HETATM    9  C3  UNL     1      -3.466   2.101  -0.723  1.00  0.00     0.163 C 
BRANCH   9  10
HETATM   10  C2  UNL     1      -4.143   1.730   0.552  1.00  0.00    -0.002 C 
HETATM   11  C1  UNL     1      -5.182   0.905   0.535  1.00  0.00     0.010 C 
ENDBRANCH   9  10
BRANCH   9  12
HETATM   12  O1  UNL     1      -4.415   1.963  -1.742  1.00  0.00    -0.388 OA
ATOM     13  H1  UNL     1      -3.984   2.199  -2.555  1.00  0.00     0.210 HD
ENDBRANCH   9  12
ENDBRANCH   8   9
ENDBRANCH   1   7
BRANCH   2  14
HETATM   14  O2  UNL     1      -0.582  -2.823  -0.906  1.00  0.00    -0.395 OA
ATOM     15  H2  UNL     1      -0.894  -3.704  -0.735  1.00  0.00     0.210 HD
ENDBRANCH   2  14
BRANCH   6  16
HETATM   16  C12 UNL     1       1.126   1.135   0.109  1.00  0.00     0.034 C 
BRANCH  16  17
HETATM   17  C13 UNL     1       1.784   0.926  -1.178  1.00  0.00    -0.030 C 
HETATM   18  C14 UNL     1       3.085   1.069  -1.348  1.00  0.00    -0.031 C 
BRANCH  18  19
HETATM   19  C15 UNL     1       4.082   1.447  -0.331  1.00  0.00     0.022 C 
HETATM   20  C16 UNL     1       5.141   0.353  -0.160  1.00  0.00     0.009 C 
ENDBRANCH  18  19
ENDBRANCH  16  17
ENDBRANCH   6  16
BRANCH   5  21
HETATM   21  O3  UNL     1       2.083  -1.626  -0.083  1.00  0.00    -0.395 OA
ATOM     22  H3  UNL     1       2.550  -0.877  -0.434  1.00  0.00     0.210 HD
ENDBRANCH   5  21
TORSDOF 9
