REMARK  8 active torsions:
REMARK  status: ('A' for Active; 'I' for Inactive)
REMARK    1  A    between atoms: N1_2  and  C1_4 
REMARK    2  A    between atoms: C4_7  and  S1_8 
REMARK    3  A    between atoms: S1_8  and  N2_11 
REMARK    4  A    between atoms: N2_11  and  N3_13 
REMARK    5  A    between atoms: N3_13  and  C5_14 
REMARK    6  A    between atoms: N3_13  and  S2_23 
REMARK    7  A    between atoms: C6_20  and  O5_21 
REMARK    8  A    between atoms: S2_23  and  C7_26 
ROOT
HETATM    1  N3  UNL     1      -0.686  -0.085  -0.584  1.00  0.00    -0.178 N 
ENDROOT
BRANCH   1   2
HETATM    2  N2  UNL     1       0.056   0.998  -0.174  1.00  0.00    -0.209 N 
ATOM      3  H2  UNL     1      -0.144   1.532   0.672  1.00  0.00     0.201 HD
BRANCH   2   4
HETATM    4  S1  UNL     1       1.370   1.360  -1.250  1.00  0.00     0.276 S 
HETATM    5  O3  UNL     1       1.044   0.972  -2.665  1.00  0.00    -0.199 OA
HETATM    6  O4  UNL     1       1.711   2.843  -1.175  1.00  0.00    -0.199 OA
BRANCH   4   7
HETATM    7  C4  UNL     1       2.822   0.504  -0.789  1.00  0.00     0.081 A 
HETATM    8  C3  UNL     1       3.748   1.055   0.094  1.00  0.00     0.028 A 
HETATM    9  C2  UNL     1       4.852   0.328   0.404  1.00  0.00     0.037 A 
HETATM   10  C1  UNL     1       5.061  -0.928  -0.137  1.00  0.00     0.102 A 
HETATM   11  C14 UNL     1       4.140  -1.474  -1.014  1.00  0.00     0.037 A 
HETATM   12  C13 UNL     1       3.027  -0.747  -1.330  1.00  0.00     0.028 A 
BRANCH  10  13
HETATM   13  N1  UNL     1       6.211  -1.691   0.183  1.00  0.00    -0.116 N 
HETATM   14  O1  UNL     1       7.037  -1.182   0.980  1.00  0.00    -0.532 OA
HETATM   15  O2  UNL     1       6.392  -2.929  -0.365  1.00  0.00    -0.532 OA
ENDBRANCH  10  13
ENDBRANCH   4   7
ENDBRANCH   2   4
ENDBRANCH   1   2
BRANCH   1  16
HETATM   16  C5  UNL     1      -0.597  -1.245   0.216  1.00  0.00     0.280 C 
HETATM   17  N4  UNL     1      -0.862  -2.435  -0.598  1.00  0.00    -0.095 NA
HETATM   18  N5  UNL     1      -0.887  -3.515   0.291  1.00  0.00    -0.015 NA
HETATM   19  N6  UNL     1      -2.008  -3.522   1.113  1.00  0.00    -0.015 NA
HETATM   20  N7  UNL     1      -2.373  -2.275   1.572  1.00  0.00    -0.290 N 
HETATM   21  C6  UNL     1      -1.344  -1.278   1.497  1.00  0.00     0.273 C 
ATOM     22  H7  UNL     1      -3.304  -2.076   1.937  1.00  0.00     0.180 HD
BRANCH  21  23
HETATM   23  O5  UNL     1      -0.461  -1.568   2.573  1.00  0.00    -0.372 OA
ATOM     24  H5  UNL     1      -0.939  -1.589   3.393  1.00  0.00     0.212 HD
ENDBRANCH  21  23
ENDBRANCH   1  16
BRANCH   1  25
HETATM   25  S2  UNL     1      -2.242   0.260  -1.137  1.00  0.00     0.280 S 
HETATM   26  O6  UNL     1      -2.202   0.460  -2.658  1.00  0.00    -0.199 OA
HETATM   27  O7  UNL     1      -3.189  -0.898  -0.948  1.00  0.00    -0.199 OA
BRANCH  25  28
HETATM   28  C7  UNL     1      -2.920   1.740  -0.510  1.00  0.00     0.081 A 
HETATM   29  C8  UNL     1      -2.632   2.947  -1.097  1.00  0.00     0.025 A 
HETATM   30  C9  UNL     1      -3.195   4.094  -0.592  1.00  0.00     0.002 A 
HETATM   31  C10 UNL     1      -4.048   4.081   0.494  1.00  0.00     0.000 A 
HETATM   32  C11 UNL     1      -4.335   2.867   1.080  1.00  0.00     0.002 A 
HETATM   33  C12 UNL     1      -3.765   1.710   0.567  1.00  0.00     0.025 A 
ENDBRANCH  25  28
ENDBRANCH   1  25
TORSDOF 8
