REMARK  18 active torsions:
REMARK  status: ('A' for Active; 'I' for Inactive)
REMARK    1  A    between atoms: C2_2  and  C4_4 
REMARK    2  A    between atoms: C4_4  and  C5_5 
REMARK    3  A    between atoms: C5_5  and  N1_6 
REMARK    4  A    between atoms: C5_5  and  C11_14 
REMARK       I    between atoms: N1_6  and  C6_7 
REMARK    5  A    between atoms: C6_7  and  O2_9 
REMARK    6  A    between atoms: O2_9  and  C7_10 
REMARK    7  A    between atoms: C11_14  and  O3_15 
REMARK    8  A    between atoms: C11_14  and  N2_17 
REMARK    9  A    between atoms: C17_23  and  C18_24 
REMARK       I    between atoms: C18_24  and  N3_26 
REMARK   10  A    between atoms: N3_26  and  C19_28 
REMARK   11  A    between atoms: C19_28  and  C20_29 
REMARK   12  A    between atoms: C20_29  and  C21_30 
REMARK   13  A    between atoms: C21_30  and  C22_31 
REMARK   14  A    between atoms: C22_31  and  C23_32 
REMARK   15  A    between atoms: C23_32  and  N4_33 
REMARK   16  A    between atoms: C23_32  and  C31_46 
REMARK       I    between atoms: N4_33  and  C24_35 
REMARK   17  A    between atoms: C24_35  and  C25_37 
REMARK   18  A    between atoms: C25_37  and  C26_38 
ROOT
HETATM    1  C18 UNL     1      -0.433  -0.471  -0.262  1.00  0.00     0.264 C 
HETATM    2  O4  UNL     1      -0.164   0.371   0.672  1.00  0.00    -0.266 OA
HETATM    3  N3  UNL     1       0.299  -1.682  -0.240  1.00  0.00    -0.356 N 
ATOM      4  H3  UNL     1       0.038  -2.365  -0.951  1.00  0.00     0.162 HD
ENDROOT
BRANCH   1   5
HETATM    5  C17 UNL     1      -1.389  -0.246  -1.301  1.00  0.00     0.082 C 
HETATM    6  N2  UNL     1      -2.795  -0.424  -1.270  1.00  0.00    -0.324 N 
HETATM    7  C12 UNL     1      -3.546  -0.418  -2.526  1.00  0.00     0.131 C 
HETATM    8  C13 UNL     1      -4.194   0.940  -2.750  1.00  0.00     0.020 C 
HETATM    9  C14 UNL     1      -3.182   2.051  -2.846  1.00  0.00     0.002 C 
HETATM   10  C15 UNL     1      -2.197   2.058  -1.686  1.00  0.00     0.006 C 
HETATM   11  C16 UNL     1      -1.117   1.082  -2.040  1.00  0.00     0.063 C 
BRANCH   6  12
HETATM   12  C11 UNL     1      -3.465  -0.617  -0.088  1.00  0.00     0.180 C 
BRANCH  12  13
HETATM   13  C5  UNL     1      -4.820  -1.054   0.296  1.00  0.00     0.142 C 
BRANCH  13  14
HETATM   14  C4  UNL     1      -5.529  -1.821  -0.792  1.00  0.00     0.081 C 
BRANCH  14  15
HETATM   15  C2  UNL     1      -6.624  -2.753  -0.266  1.00  0.00    -0.016 C 
HETATM   16  C1  UNL     1      -7.737  -2.058   0.448  1.00  0.00     0.010 C 
HETATM   17  C3  UNL     1      -6.041  -3.749   0.724  1.00  0.00     0.010 C 
ENDBRANCH  14  15
ENDBRANCH  13  14
BRANCH  13  18
HETATM   18  N1  UNL     1      -5.522  -0.231   1.094  1.00  0.00    -0.346 NA
HETATM   19  C6  UNL     1      -6.248   0.619   1.935  1.00  0.00     0.441 C 
HETATM   20  O1  UNL     1      -6.278   0.644   3.162  1.00  0.00    -0.221 OA
BRANCH  19  21
HETATM   21  O2  UNL     1      -7.074   1.586   1.296  1.00  0.00    -0.282 OA
BRANCH  21  22
HETATM   22  C7  UNL     1      -7.892   2.503   1.908  1.00  0.00     0.062 C 
HETATM   23  C8  UNL     1      -8.561   3.320   0.753  1.00  0.00     0.046 C 
HETATM   24  C9  UNL     1      -9.057   1.859   2.654  1.00  0.00     0.046 C 
HETATM   25  C10 UNL     1      -7.164   3.486   2.739  1.00  0.00     0.046 C 
ENDBRANCH  21  22
ENDBRANCH  19  21
ENDBRANCH  13  18
ENDBRANCH  12  13
BRANCH  12  26
HETATM   26  O3  UNL     1      -2.766  -0.359   1.037  1.00  0.00    -0.344 OA
ATOM     27  H3  UNL     1      -1.893  -0.077   0.790  1.00  0.00     0.219 HD
ENDBRANCH  12  26
ENDBRANCH   6  12
ENDBRANCH   1   5
BRANCH   3  28
HETATM   28  C19 UNL     1       1.358  -2.083   0.644  1.00  0.00     0.123 C 
BRANCH  28  29
HETATM   29  C20 UNL     1       2.539  -1.069   0.433  1.00  0.00     0.020 C 
BRANCH  29  30
HETATM   30  C21 UNL     1       2.828  -1.034  -1.032  1.00  0.00     0.004 C 
BRANCH  30  31
HETATM   31  C22 UNL     1       3.852  -0.108  -1.494  1.00  0.00     0.036 C 
BRANCH  31  32
HETATM   32  C23 UNL     1       5.264  -0.185  -1.263  1.00  0.00     0.185 C 
BRANCH  32  33
HETATM   33  N4  UNL     1       5.859  -0.219   0.036  1.00  0.00    -0.347 N 
HETATM   34  C24 UNL     1       7.257  -0.523   0.112  1.00  0.00     0.218 C 
HETATM   35  O5  UNL     1       7.868  -0.727  -0.996  1.00  0.00    -0.274 OA
ATOM     36  H4  UNL     1       5.310  -0.034   0.876  1.00  0.00     0.163 HD
BRANCH  34  37
HETATM   37  C25 UNL     1       8.037  -0.619   1.326  1.00  0.00     0.107 C 
BRANCH  37  38
HETATM   38  C26 UNL     1       9.511  -0.520   0.965  1.00  0.00    -0.003 C 
HETATM   39  C27 UNL     1       9.824   0.845   0.336  1.00  0.00     0.032 C 
HETATM   40  C28 UNL     1      11.078   0.693  -0.472  1.00  0.00     0.232 C 
HETATM   41  N5  UNL     1      11.899  -0.406   0.041  1.00  0.00    -0.075 N 
HETATM   42  C29 UNL     1      11.876  -0.529   1.466  1.00  0.00     0.232 C 
ATOM     43  H52 UNL     1      11.635  -1.287  -0.400  1.00  0.00     0.277 HD
ATOM     44  H51 UNL     1      12.858  -0.326  -0.297  1.00  0.00     0.277 HD
HETATM   45  C30 UNL     1      10.490  -0.796   2.044  1.00  0.00     0.032 C 
ENDBRANCH  37  38
ENDBRANCH  34  37
ENDBRANCH  32  33
BRANCH  32  46
HETATM   46  C31 UNL     1       5.803   1.149  -1.908  1.00  0.00     0.196 C 
HETATM   47  O6  UNL     1       6.456   1.950  -1.296  1.00  0.00    -0.646 OA
HETATM   48  O7  UNL     1       5.437   1.283  -3.248  1.00  0.00    -0.646 OA
ENDBRANCH  32  46
ENDBRANCH  31  32
ENDBRANCH  30  31
ENDBRANCH  29  30
ENDBRANCH  28  29
ENDBRANCH   3  28
TORSDOF 18
