REMARK  15 active torsions:
REMARK  status: ('A' for Active; 'I' for Inactive)
REMARK    1  A    between atoms: O1_2  and  C2_3 
REMARK    2  A    between atoms: C4_5  and  S1_6 
REMARK    3  A    between atoms: S1_6  and  C5_7 
REMARK    4  A    between atoms: C8_10  and  C9_11 
REMARK    5  A    between atoms: C9_11  and  O2_12 
REMARK    6  A    between atoms: C9_11  and  C10_14 
REMARK    7  A    between atoms: C10_14  and  C11_15 
REMARK    8  A    between atoms: C11_15  and  C12_16 
REMARK    9  A    between atoms: C15_20  and  C16_21 
REMARK   10  A    between atoms: C24_33  and  C25_34 
REMARK   11  A    between atoms: C25_34  and  O5_35 
REMARK   12  A    between atoms: O5_35  and  C26_36 
REMARK   13  A    between atoms: C26_36  and  C27_38 
REMARK   14  A    between atoms: C27_38  and  C30_41 
REMARK   15  A    between atoms: C30_41  and  O7_42 
ROOT
HETATM    1  C5  UNL     1       1.123  -1.550  -1.061  1.00  0.00     0.011 A 
HETATM    2  C6  UNL     1       2.125  -0.703  -1.597  1.00  0.00     0.020 A 
HETATM    3  C7  UNL     1       3.473  -0.980  -1.408  1.00  0.00     0.015 A 
HETATM    4  C8  UNL     1       3.912  -2.064  -0.715  1.00  0.00    -0.003 A 
HETATM    5  C19 UNL     1       2.943  -2.916  -0.180  1.00  0.00     0.022 A 
HETATM    6  C20 UNL     1       1.594  -2.660  -0.350  1.00  0.00    -0.044 A 
HETATM    7  C21 UNL     1       0.561  -3.514   0.267  1.00  0.00     0.049 C 
ENDROOT
BRANCH   1   8
HETATM    8  S1  UNL     1      -0.488  -1.150  -1.452  1.00  0.00    -0.087 SA
BRANCH   8   9
HETATM    9  C4  UNL     1      -1.733  -0.719  -0.352  1.00  0.00     0.046 A 
HETATM   10  C3  UNL     1      -2.679  -1.693   0.027  1.00  0.00     0.059 A 
HETATM   11  C2  UNL     1      -3.798  -1.481   0.749  1.00  0.00     0.078 A 
HETATM   12  C24 UNL     1      -4.009  -0.137   1.149  1.00  0.00     0.002 A 
HETATM   13  C23 UNL     1      -3.134   0.848   0.826  1.00  0.00     0.055 A 
HETATM   14  C22 UNL     1      -1.985   0.567   0.070  1.00  0.00     0.134 A 
HETATM   15  F2  UNL     1      -1.150   1.587  -0.195  1.00  0.00    -0.205 F 
BRANCH  11  16
HETATM   16  O1  UNL     1      -4.710  -2.451   1.109  1.00  0.00    -0.355 OA
HETATM   17  C1  UNL     1      -4.528  -3.774   0.691  1.00  0.00     0.210 C 
ENDBRANCH  11  16
BRANCH  12  18
HETATM   18  C25 UNL     1      -5.239   0.104   1.983  1.00  0.00     0.220 C 
BRANCH  18  19
HETATM   19  O5  UNL     1      -6.031   0.910   1.220  1.00  0.00    -0.316 OA
BRANCH  19  20
HETATM   20  C26 UNL     1      -7.208   1.535   1.317  1.00  0.00     0.269 C 
HETATM   21  O6  UNL     1      -7.831   1.502   2.385  1.00  0.00    -0.264 OA
BRANCH  20  22
HETATM   22  C27 UNL     1      -7.807   2.269   0.146  1.00  0.00     0.062 C 
HETATM   23  C28 UNL     1      -6.833   3.075  -0.628  1.00  0.00     0.028 C 
HETATM   24  C29 UNL     1      -9.045   2.991   0.568  1.00  0.00     0.028 C 
BRANCH  22  25
HETATM   25  C30 UNL     1      -8.266   1.123  -0.794  1.00  0.00     0.183 C 
BRANCH  25  26
HETATM   26  O7  UNL     1      -9.207   0.312  -0.162  1.00  0.00    -0.400 OA
ATOM     27  H7  UNL     1      -9.488  -0.390  -0.738  1.00  0.00     0.209 HD
ENDBRANCH  25  26
ENDBRANCH  22  25
ENDBRANCH  20  22
ENDBRANCH  19  20
ENDBRANCH  18  19
ENDBRANCH  12  18
ENDBRANCH   8   9
ENDBRANCH   1   8
BRANCH   4  28
HETATM   28  C9  UNL     1       5.331  -2.315  -0.400  1.00  0.00     0.075 C 
BRANCH  28  29
HETATM   29  O2  UNL     1       5.635  -3.568  -0.230  1.00  0.00    -0.360 OA
ATOM     30  H2  UNL     1       6.549  -3.730  -0.027  1.00  0.00     0.217 HD
ENDBRANCH  28  29
BRANCH  28  31
HETATM   31  C10 UNL     1       6.378  -1.366  -0.265  1.00  0.00     0.038 C 
BRANCH  31  32
HETATM   32  C11 UNL     1       6.362  -0.057  -0.318  1.00  0.00     0.016 C 
BRANCH  32  33
HETATM   33  C12 UNL     1       7.626   0.703  -0.146  1.00  0.00    -0.011 A 
HETATM   34  C13 UNL     1       8.812   0.105   0.204  1.00  0.00     0.056 A 
HETATM   35  C14 UNL     1       9.999   0.799   0.337  1.00  0.00     0.134 A 
HETATM   36  F1  UNL     1      11.126   0.129   0.720  1.00  0.00    -0.205 F 
HETATM   37  C15 UNL     1      10.039   2.159   0.117  1.00  0.00     0.081 A 
HETATM   38  C17 UNL     1       8.856   2.746  -0.234  1.00  0.00     0.046 A 
HETATM   39  C18 UNL     1       7.656   2.054  -0.365  1.00  0.00     0.045 A 
HETATM   40 CL1  UNL     1       6.176   2.866  -0.733  1.00  0.00    -0.083 Cl
BRANCH  37  41
HETATM   41  C16 UNL     1      11.288   2.914   0.206  1.00  0.00     0.212 C 
HETATM   42  O3  UNL     1      11.194   4.157   0.057  1.00  0.00    -0.644 OA
HETATM   43  O4  UNL     1      12.503   2.332   0.427  1.00  0.00    -0.644 OA
ENDBRANCH  37  41
ENDBRANCH  32  33
ENDBRANCH  31  32
ENDBRANCH  28  31
ENDBRANCH   4  28
TORSDOF 15
