REMARK  11 active torsions:
REMARK  status: ('A' for Active; 'I' for Inactive)
REMARK    1  A    between atoms: O1_2  and  C2_3 
REMARK    2  A    between atoms: C4_5  and  O2_6 
REMARK    3  A    between atoms: O2_6  and  C5_7 
REMARK    4  A    between atoms: C6_8  and  C7_9 
REMARK    5  A    between atoms: C7_9  and  C8_10 
REMARK    6  A    between atoms: C11_16  and  S1_17 
REMARK    7  A    between atoms: C18_24  and  C19_25 
REMARK       I    between atoms: C19_25  and  N1_27 
REMARK    8  A    between atoms: N1_27  and  C20_29 
REMARK    9  A    between atoms: C20_29  and  C21_30 
REMARK   10  A    between atoms: C21_30  and  C22_31 
REMARK   11  A    between atoms: C21_30  and  N2_39 
ROOT
HETATM    1  C2  UNL     1       0.015  -0.079  -1.183  1.00  0.00     0.086 A 
HETATM    2  C3  UNL     1       1.344   0.218  -1.315  1.00  0.00     0.075 A 
HETATM    3  C4  UNL     1       2.218   0.378  -0.220  1.00  0.00     0.084 A 
HETATM    4  C15 UNL     1       1.651   0.215   1.019  1.00  0.00    -0.027 A 
HETATM    5  C16 UNL     1       2.494   0.326   2.268  1.00  0.00     0.051 C 
HETATM    6  C17 UNL     1       0.328  -0.080   1.123  1.00  0.00     0.029 A 
HETATM    7  C18 UNL     1      -0.571  -0.245   0.057  1.00  0.00     0.066 A 
ENDROOT
BRANCH   7   8
HETATM    8  C19 UNL     1      -1.945  -0.553   0.317  1.00  0.00     0.254 C 
HETATM    9  O5  UNL     1      -2.292  -0.669   1.542  1.00  0.00    -0.268 OA
HETATM   10  N1  UNL     1      -2.955  -0.742  -0.618  1.00  0.00    -0.355 N 
ATOM     11  H1  UNL     1      -2.725  -0.662  -1.608  1.00  0.00     0.162 HD
BRANCH  10  12
HETATM   12  C20 UNL     1      -4.332  -1.050  -0.243  1.00  0.00     0.152 C 
BRANCH  12  13
HETATM   13  C21 UNL     1      -5.038  -0.010   0.548  1.00  0.00     0.129 C 
BRANCH  13  14
HETATM   14  C22 UNL     1      -6.437  -0.477   0.893  1.00  0.00    -0.032 A 
HETATM   15  C23 UNL     1      -7.303   0.414   1.480  1.00  0.00     0.011 A 
HETATM   16  C24 UNL     1      -8.603   0.037   1.817  1.00  0.00     0.026 A 
HETATM   17  C25 UNL     1      -9.041  -1.250   1.563  1.00  0.00     0.055 A 
HETATM   18 CL1  UNL     1     -10.687  -1.715   1.993  1.00  0.00    -0.083 Cl
HETATM   19  C26 UNL     1      -8.172  -2.136   0.977  1.00  0.00     0.056 A 
HETATM   20 CL2  UNL     1      -8.722  -3.760   0.656  1.00  0.00    -0.083 Cl
HETATM   21  C27 UNL     1      -6.864  -1.753   0.639  1.00  0.00     0.035 A 
ENDBRANCH  13  14
BRANCH  13  22
HETATM   22  N2  UNL     1      -5.231   1.254  -0.074  1.00  0.00    -0.411 N 
HETATM   23  C28 UNL     1      -4.093   2.014  -0.404  1.00  0.00     0.143 C 
HETATM   24  C29 UNL     1      -6.282   1.275  -1.057  1.00  0.00     0.143 C 
ENDBRANCH  13  22
ENDBRANCH  12  13
ENDBRANCH  10  12
ENDBRANCH   7   8
BRANCH   1  25
HETATM   25  O1  UNL     1      -0.751  -0.213  -2.331  1.00  0.00    -0.355 OA
HETATM   26  C1  UNL     1      -0.162  -0.046  -3.592  1.00  0.00     0.210 C 
ENDBRANCH   1  25
BRANCH   3  27
HETATM   27  O2  UNL     1       3.510   0.669  -0.477  1.00  0.00    -0.309 OA
BRANCH  27  28
HETATM   28  C5  UNL     1       4.715   0.180  -0.117  1.00  0.00     0.090 A 
HETATM   29  C6  UNL     1       5.112  -1.095  -0.457  1.00  0.00    -0.011 A 
HETATM   30  C9  UNL     1       6.378  -1.529  -0.047  1.00  0.00     0.054 A 
HETATM   31  C10 UNL     1       7.243  -0.742   0.676  1.00  0.00     0.134 A 
HETATM   32  F1  UNL     1       8.463  -1.252   1.034  1.00  0.00    -0.205 F 
HETATM   33  C11 UNL     1       6.864   0.536   1.022  1.00  0.00     0.047 A 
HETATM   34  C13 UNL     1       5.629   0.957   0.621  1.00  0.00    -0.008 A 
HETATM   35  C14 UNL     1       5.249   2.385   0.932  1.00  0.00     0.052 C 
BRANCH  29  36
HETATM   36  C7  UNL     1       4.264  -2.016  -1.263  1.00  0.00     0.154 C 
BRANCH  36  37
HETATM   37  C8  UNL     1       4.364  -1.639  -2.673  1.00  0.00     0.177 C 
HETATM   38  O3  UNL     1       5.084  -0.673  -3.013  1.00  0.00    -0.648 OA
HETATM   39  O4  UNL     1       3.683  -2.315  -3.693  1.00  0.00    -0.648 OA
ENDBRANCH  36  37
ENDBRANCH  29  36
BRANCH  33  40
HETATM   40  S1  UNL     1       7.947   1.599   1.965  1.00  0.00    -0.131 SA
HETATM   41  C12 UNL     1       9.496   0.795   2.371  1.00  0.00     0.095 C 
ENDBRANCH  33  40
ENDBRANCH  27  28
ENDBRANCH   3  27
TORSDOF 11
