REMARK  13 active torsions:
REMARK  status: ('A' for Active; 'I' for Inactive)
REMARK    1  A    between atoms: C3_3  and  C4_4 
REMARK    2  A    between atoms: C4_4  and  C5_5 
REMARK    3  A    between atoms: C9_9  and  O1_10 
REMARK    4  A    between atoms: O1_10  and  C10_11 
REMARK    5  A    between atoms: C12_14  and  C13_15 
REMARK    6  A    between atoms: C14_19  and  C15_20 
REMARK    7  A    between atoms: C18_23  and  O6_24 
REMARK    8  A    between atoms: C18_23  and  C21_28 
REMARK    9  A    between atoms: O6_24  and  C19_25 
REMARK   10  A    between atoms: C21_28  and  O8_29 
REMARK   11  A    between atoms: C21_28  and  O9_31 
REMARK   12  A    between atoms: C24_34  and  O10_35 
REMARK   13  A    between atoms: C25_37  and  O11_39 
ROOT
HETATM    1  C5  UNL     1       2.315   0.280  -0.184  1.00  0.00     0.006 C 
HETATM    2  C6  UNL     1       1.195   0.933   0.634  1.00  0.00     0.032 C 
HETATM    3  C7  UNL     1      -0.028   0.730  -0.066  1.00  0.00     0.013 C 
HETATM    4  C8  UNL     1      -1.360   0.427   0.503  1.00  0.00     0.058 C 
HETATM    5  C9  UNL     1      -2.325   1.630   0.459  1.00  0.00     0.178 C 
HETATM    6  C12 UNL     1      -2.563   1.715  -1.001  1.00  0.00     0.253 C 
HETATM    7  O5  UNL     1      -2.072   0.653  -1.642  1.00  0.00    -0.360 OA
HETATM    8  C14 UNL     1      -1.606  -0.347  -0.737  1.00  0.00     0.075 C 
HETATM    9  C17 UNL     1      -0.182  -0.553  -0.909  1.00  0.00     0.067 C 
HETATM   10  C18 UNL     1       0.677  -1.671  -0.507  1.00  0.00     0.133 C 
HETATM   11  C23 UNL     1       1.949  -1.142   0.047  1.00  0.00     0.063 C 
HETATM   12  C24 UNL     1       2.038  -1.042   1.567  1.00  0.00     0.160 C 
HETATM   13  C25 UNL     1       1.513   0.327   1.954  1.00  0.00     0.085 C 
HETATM   14  C26 UNL     1       2.581   1.191   2.634  1.00  0.00     0.049 C 
ENDROOT
BRANCH  10  15
HETATM   15  O6  UNL     1       0.752  -2.538  -1.583  1.00  0.00    -0.304 OA
BRANCH  15  16
HETATM   16  C19 UNL     1       1.071  -2.717  -2.805  1.00  0.00     0.255 C 
HETATM   17  C20 UNL     1       0.961  -3.960  -3.609  1.00  0.00     0.126 C 
HETATM   18  O7  UNL     1       1.521  -1.699  -3.335  1.00  0.00    -0.266 OA
ENDBRANCH  15  16
ENDBRANCH  10  15
BRANCH  10  19
HETATM   19  C21 UNL     1       0.157  -2.637   0.487  1.00  0.00     0.292 C 
BRANCH  19  20
HETATM   20  O8  UNL     1       0.178  -3.885   0.111  1.00  0.00    -0.368 OA
ATOM     21  H8  UNL     1      -0.156  -4.505   0.749  1.00  0.00     0.212 HD
ENDBRANCH  19  20
BRANCH  19  22
HETATM   22  O9  UNL     1      -0.351  -2.580   1.707  1.00  0.00    -0.363 OA
HETATM   23  C22 UNL     1      -0.818  -3.594   2.539  1.00  0.00     0.204 C 
ENDBRANCH  19  22
ENDBRANCH  10  19
BRANCH   8  24
HETATM   24  C15 UNL     1      -2.624  -1.409  -0.759  1.00  0.00     0.034 C 
HETATM   25  C16 UNL     1      -2.746  -2.103  -2.104  1.00  0.00     0.008 C 
ENDBRANCH   8  24
BRANCH   1  26
HETATM   26  C4  UNL     1       2.702   0.897  -1.405  1.00  0.00     0.032 C 
BRANCH  26  27
HETATM   27  C3  UNL     1       3.199   2.294  -1.165  1.00  0.00    -0.031 C 
HETATM   28  C2  UNL     1       4.407   2.687  -1.469  1.00  0.00    -0.035 C 
HETATM   29  C1  UNL     1       4.814   4.087  -1.196  1.00  0.00     0.036 C 
ENDBRANCH  26  27
ENDBRANCH   1  26
BRANCH  12  30
HETATM   30  O10 UNL     1       3.450  -0.966   1.878  1.00  0.00    -0.392 OA
ATOM     31  H10 UNL     1       3.505  -0.904   2.824  1.00  0.00     0.210 HD
ENDBRANCH  12  30
BRANCH  13  32
HETATM   32  O11 UNL     1       0.503   0.335   2.873  1.00  0.00    -0.387 OA
ATOM     33  H11 UNL     1       0.706  -0.052   3.716  1.00  0.00     0.210 HD
ENDBRANCH  13  32
BRANCH   5  34
HETATM   34  O1  UNL     1      -3.470   1.383   1.231  1.00  0.00    -0.313 OA
BRANCH  34  35
HETATM   35  C10 UNL     1      -3.699   2.178   2.359  1.00  0.00     0.255 C 
HETATM   36  C11 UNL     1      -4.866   2.004   3.235  1.00  0.00     0.126 C 
HETATM   37  O2  UNL     1      -2.866   3.082   2.631  1.00  0.00    -0.266 OA
ENDBRANCH  34  35
ENDBRANCH   5  34
BRANCH   6  38
HETATM   38  C13 UNL     1      -3.999   2.022  -1.341  1.00  0.00     0.205 C 
HETATM   39  O3  UNL     1      -4.603   2.992  -0.817  1.00  0.00    -0.646 OA
HETATM   40  O4  UNL     1      -4.729   1.260  -2.242  1.00  0.00    -0.646 OA
ENDBRANCH   6  38
TORSDOF 13
