REMARK  2 active torsions:
REMARK  status: ('A' for Active; 'I' for Inactive)
REMARK    1  A    between atoms: C3_3  and  O1_4 
REMARK    2  A    between atoms: O1_4  and  C4_5 
ROOT
HETATM    1  O1  UNL     1       0.108  -0.332   0.206  1.00  0.00    -0.372 OA
ENDROOT
BRANCH   1   2
HETATM    2  C3  UNL     1       0.820   0.504  -0.641  1.00  0.00     0.148 A 
HETATM    3  C2  UNL     1       1.821  -0.116  -1.492  1.00  0.00     0.001 A 
HETATM    4  C1  UNL     1       2.834   0.429  -0.890  1.00  0.00    -0.025 A 
HETATM    5  C7  UNL     1       1.975   1.127   0.048  1.00  0.00     0.062 A 
ENDBRANCH   1   2
BRANCH   1   6
HETATM    6  C4  UNL     1      -1.214  -0.062   0.319  1.00  0.00     0.169 C 
HETATM    7  C5  UNL     1      -1.897  -0.300   1.624  1.00  0.00     0.201 C 
HETATM    8  O2  UNL     1      -2.064  -1.647   1.339  1.00  0.00    -0.386 OA
HETATM    9  C6  UNL     1      -2.048  -1.293  -0.022  1.00  0.00     0.201 C 
ENDBRANCH   1   6
TORSDOF 2
