REMARK  7 active torsions:
REMARK  status: ('A' for Active; 'I' for Inactive)
REMARK    1  A    between atoms: C1_4  and  N2_5 
REMARK    2  A    between atoms: C1_4  and  C22_32 
REMARK    3  A    between atoms: N2_5  and  C2_7 
REMARK    4  A    between atoms: C5_10  and  N3_11 
REMARK       I    between atoms: N3_11  and  C6_13 
REMARK    5  A    between atoms: C6_13  and  C7_15 
REMARK    6  A    between atoms: C10_18  and  N4_19 
REMARK    7  A    between atoms: C11_21  and  C12_22 
ROOT
HETATM    1  N3  UNL     1       0.365   0.677   0.245  1.00  0.00    -0.323 N 
ATOM      2  H3  UNL     1      -0.074   1.533  -0.093  1.00  0.00     0.169 HD
HETATM    3  C6  UNL     1      -0.456  -0.455   0.300  1.00  0.00     0.256 C 
HETATM    4  O1  UNL     1      -0.010  -1.549   0.707  1.00  0.00    -0.267 OA
ENDROOT
BRANCH   1   5
HETATM    5  C5  UNL     1       1.727   0.776   0.601  1.00  0.00     0.035 A 
HETATM    6  C4  UNL     1       2.590  -0.274   0.804  1.00  0.00     0.032 A 
HETATM    7  C3  UNL     1       3.930  -0.093   1.179  1.00  0.00     0.032 A 
HETATM    8  C2  UNL     1       4.450   1.164   1.362  1.00  0.00     0.033 A 
HETATM    9  C21 UNL     1       3.602   2.227   1.162  1.00  0.00     0.032 A 
HETATM   10  C20 UNL     1       2.291   2.052   0.796  1.00  0.00     0.032 A 
BRANCH   8  11
HETATM   11  N2  UNL     1       5.815   1.349   1.744  1.00  0.00    -0.342 N 
ATOM     12  H2  UNL     1       6.169   2.297   1.871  1.00  0.00     0.167 HD
BRANCH  11  13
HETATM   13  C1  UNL     1       6.691   0.254   1.951  1.00  0.00     0.109 C 
HETATM   14  N1  UNL     1       6.614  -0.482   2.998  1.00  0.00    -0.385 N 
ATOM     15  H12 UNL     1       5.910  -0.288   3.710  1.00  0.00     0.157 HD
ATOM     16  H11 UNL     1       7.244  -1.270   3.147  1.00  0.00     0.157 HD
BRANCH  13  17
HETATM   17  C22 UNL     1       7.697  -0.023   0.934  1.00  0.00     0.007 A 
HETATM   18  C23 UNL     1       7.813   0.743  -0.204  1.00  0.00     0.015 A 
HETATM   19  C24 UNL     1       8.753   0.508  -1.185  1.00  0.00     0.001 A 
HETATM   20  C25 UNL     1       9.608  -0.554  -0.992  1.00  0.00     0.000 A 
HETATM   21  C26 UNL     1       9.531  -1.350   0.131  1.00  0.00     0.001 A 
HETATM   22  C27 UNL     1       8.572  -1.081   1.095  1.00  0.00     0.015 A 
ENDBRANCH  13  17
ENDBRANCH  11  13
ENDBRANCH   8  11
ENDBRANCH   1   5
BRANCH   3  23
HETATM   23  C7  UNL     1      -1.846  -0.403  -0.110  1.00  0.00     0.032 A 
HETATM   24  C8  UNL     1      -2.438   0.662  -0.753  1.00  0.00     0.019 A 
HETATM   25  C9  UNL     1      -3.795   0.628  -1.109  1.00  0.00     0.030 A 
HETATM   26  C10 UNL     1      -4.575  -0.453  -0.834  1.00  0.00     0.031 A 
HETATM   27  C18 UNL     1      -4.007  -1.530  -0.192  1.00  0.00     0.030 A 
HETATM   28  C19 UNL     1      -2.676  -1.487   0.153  1.00  0.00     0.019 A 
BRANCH  26  29
HETATM   29  N4  UNL     1      -5.947  -0.516  -1.180  1.00  0.00    -0.365 N 
HETATM   30  C11 UNL     1      -6.843   0.144  -0.546  1.00  0.00     0.099 C 
ATOM     31  H4  UNL     1      -6.231  -1.107  -1.961  1.00  0.00     0.165 HD
BRANCH  30  32
HETATM   32  C12 UNL     1      -8.237   0.050  -0.934  1.00  0.00    -0.021 A 
HETATM   33  C13 UNL     1      -8.583  -0.758  -1.992  1.00  0.00     0.013 A 
HETATM   34  C14 UNL     1      -9.932  -0.826  -2.340  1.00  0.00     0.001 A 
HETATM   35  C15 UNL     1     -10.887  -0.114  -1.653  1.00  0.00     0.000 A 
HETATM   36  C16 UNL     1     -10.488   0.681  -0.601  1.00  0.00     0.001 A 
HETATM   37  C17 UNL     1      -9.168   0.770  -0.234  1.00  0.00     0.013 A 
ENDBRANCH  30  32
ENDBRANCH  26  29
ENDBRANCH   3  23
TORSDOF 7
