REMARK  7 active torsions:
REMARK  status: ('A' for Active; 'I' for Inactive)
REMARK    1  A    between atoms: C2_3  and  N2_4 
REMARK    2  A    between atoms: C4_11  and  C5_12 
REMARK    3  A    between atoms: C5_12  and  C6_13 
REMARK    4  A    between atoms: C7_17  and  N7_18 
REMARK    5  A    between atoms: N7_18  and  N8_20 
REMARK    6  A    between atoms: C8_24  and  C9_25 
REMARK       I    between atoms: C9_25  and  N9_27 
REMARK    7  A    between atoms: N9_27  and  O2_29 
ROOT
HETATM    1  C6  UNL     1       0.484   0.205  -1.136  1.00  0.00     0.102 A 
HETATM    2  N5  UNL     1       0.806   1.483  -0.890  1.00  0.00    -0.278 N 
ATOM      3  H5  UNL     1       0.240   2.291  -1.150  1.00  0.00     0.189 HD
HETATM    4  N6  UNL     1       2.001   1.542  -0.241  1.00  0.00    -0.213 N 
HETATM    5  C7  UNL     1       2.743   2.562   0.218  1.00  0.00     0.187 A 
HETATM    6  S1  UNL     1       4.083   1.780   0.900  1.00  0.00    -0.041 SA
HETATM    7  C8  UNL     1       3.624   0.133   0.560  1.00  0.00     0.124 A 
HETATM    8  C10 UNL     1       2.427   0.329  -0.078  1.00  0.00     0.154 A 
HETATM    9  N10 UNL     1       1.480  -0.508  -0.638  1.00  0.00    -0.328 N 
ATOM     10  H10 UNL     1       1.541  -1.526  -0.663  1.00  0.00     0.169 HD
ENDROOT
BRANCH   1  11
HETATM   11  C5  UNL     1      -0.719  -0.321  -1.826  1.00  0.00     0.126 C 
BRANCH  11  12
HETATM   12  C4  UNL     1      -1.897  -0.500  -0.999  1.00  0.00     0.059 A 
HETATM   13  C3  UNL     1      -2.077  -1.594  -0.195  1.00  0.00     0.144 A 
HETATM   14  N3  UNL     1      -3.200  -1.709   0.585  1.00  0.00    -0.178 N 
HETATM   15  N4  UNL     1      -1.138  -2.658  -0.137  1.00  0.00    -0.081 NA
HETATM   16  C2  UNL     1      -4.141  -0.753   0.574  1.00  0.00     0.681 A 
ATOM     17  H3  UNL     1      -3.320  -2.529   1.179  1.00  0.00     0.185 HD
HETATM   18  N1  UNL     1      -3.978   0.326  -0.211  1.00  0.00    -0.152 N 
HETATM   19  C1  UNL     1      -4.987   1.362  -0.226  1.00  0.00     0.179 C 
HETATM   20  C11 UNL     1      -2.895   0.473  -0.985  1.00  0.00     0.271 A 
HETATM   21  O3  UNL     1      -2.804   1.512  -1.698  1.00  0.00    -0.267 OA
BRANCH  16  22
HETATM   22  N2  UNL     1      -5.210  -0.867   1.319  1.00  0.00    -0.234 N 
ATOM     23  H22 UNL     1      -5.925  -0.140   1.311  1.00  0.00     0.174 HD
ATOM     24  H21 UNL     1      -5.334  -1.686   1.915  1.00  0.00     0.174 HD
ENDBRANCH  16  22
ENDBRANCH  11  12
ENDBRANCH   1  11
BRANCH   5  25
HETATM   25  N7  UNL     1       2.467   3.847   0.137  1.00  0.00    -0.285 N 
ATOM     26  H7  UNL     1       1.613   4.181  -0.309  1.00  0.00     0.188 HD
BRANCH  25  27
HETATM   27  N8  UNL     1       3.390   4.729   0.686  1.00  0.00    -0.343 N 
ATOM     28  H82 UNL     1       4.240   4.380   1.129  1.00  0.00     0.176 HD
ATOM     29  H81 UNL     1       3.176   5.724   0.623  1.00  0.00     0.176 HD
ENDBRANCH  25  27
ENDBRANCH   5  25
BRANCH   7  30
HETATM   30  C9  UNL     1       4.396  -1.043   0.930  1.00  0.00     0.285 C 
HETATM   31  O1  UNL     1       5.495  -0.829   1.563  1.00  0.00    -0.265 OA
HETATM   32  N9  UNL     1       4.063  -2.357   0.666  1.00  0.00    -0.233 N 
ATOM     33  H9  UNL     1       3.204  -2.576   0.162  1.00  0.00     0.197 HD
BRANCH  32  34
HETATM   34  O2  UNL     1       4.895  -3.369   1.085  1.00  0.00    -0.287 OA
ATOM     35  H2  UNL     1       4.666  -4.273   0.903  1.00  0.00     0.244 HD
ENDBRANCH  32  34
ENDBRANCH   7  30
TORSDOF 7
