REMARK  5 active torsions:
REMARK  status: ('A' for Active; 'I' for Inactive)
REMARK    1  A    between atoms: O1_2  and  C2_3 
REMARK    2  A    between atoms: C2_3  and  C3_5 
REMARK    3  A    between atoms: N1_7  and  O3_8 
REMARK    4  A    between atoms: C5_14  and  N4_15 
REMARK    5  A    between atoms: N4_15  and  C6_17 
ROOT
HETATM    1  C3  UNL     1      -1.365  -0.807  -0.096  1.00  0.00     0.228 C 
HETATM    2  C4  UNL     1      -1.887  -2.186   0.331  1.00  0.00     0.063 C 
HETATM    3  N1  UNL     1      -0.675  -0.948  -1.337  1.00  0.00    -0.060 NA
HETATM    4  N2  UNL     1       0.547  -1.610  -1.223  1.00  0.00    -0.235 N 
ATOM      5  H2  UNL     1       0.643  -2.529  -1.654  1.00  0.00     0.204 HD
HETATM    6  N3  UNL     1       1.642  -1.076  -0.549  1.00  0.00    -0.266 N 
ATOM      7  H3  UNL     1       2.585  -1.194  -0.920  1.00  0.00     0.190 HD
HETATM    8  C5  UNL     1       1.447  -0.427   0.556  1.00  0.00     0.194 C 
HETATM    9  S1  UNL     1      -0.198  -0.267   1.137  1.00  0.00     0.123 S 
HETATM   10  O4  UNL     1      -0.513   1.067   1.737  1.00  0.00    -0.247 OA
ENDROOT
BRANCH   8  11
HETATM   11  N4  UNL     1       2.561   0.129   1.261  1.00  0.00    -0.324 N 
ATOM     12  H4  UNL     1       2.536   0.247   2.274  1.00  0.00     0.169 HD
BRANCH  11  13
HETATM   13  C6  UNL     1       3.700   0.510   0.510  1.00  0.00     0.072 C 
HETATM   14  C7  UNL     1       3.760   1.764  -0.285  1.00  0.00     0.088 C 
HETATM   15  N5  UNL     1       4.733  -0.260   0.513  1.00  0.00    -0.389 N 
ATOM     16  H52 UNL     1       4.692  -1.121   1.059  1.00  0.00     0.157 HD
ATOM     17  H51 UNL     1       5.553   0.014  -0.028  1.00  0.00     0.157 HD
ENDBRANCH  11  13
ENDBRANCH   8  11
BRANCH   1  18
HETATM   18  C2  UNL     1      -2.530   0.064  -0.232  1.00  0.00     0.299 C 
HETATM   19  O2  UNL     1      -2.779   0.557  -1.358  1.00  0.00    -0.262 OA
BRANCH  18  20
HETATM   20  O1  UNL     1      -3.394   0.392   0.799  1.00  0.00    -0.324 OA
HETATM   21  C1  UNL     1      -4.491   1.247   0.545  1.00  0.00     0.213 C 
ENDBRANCH  18  20
ENDBRANCH   1  18
BRANCH   3  22
HETATM   22  O3  UNL     1      -0.515   0.222  -2.000  1.00  0.00    -0.291 OA
ATOM     23  H3  UNL     1      -0.056   0.128  -2.826  1.00  0.00     0.239 HD
ENDBRANCH   3  22
TORSDOF 5
