REMARK  7 active torsions:
REMARK  status: ('A' for Active; 'I' for Inactive)
REMARK    1  A    between atoms: C2_3  and  N2_4 
REMARK    2  A    between atoms: C4_10  and  C5_11 
REMARK    3  A    between atoms: C4_10  and  C10_17 
REMARK    4  A    between atoms: C5_11  and  O2_12 
REMARK    5  A    between atoms: O2_12  and  C6_13 
REMARK    6  A    between atoms: C6_13  and  C7_14 
REMARK    7  A    between atoms: C10_17  and  C11_18 
ROOT
HETATM    1  N1  UNL     1       1.805   3.966  -0.095  1.00  0.00    -0.196 NA
HETATM    2  C1  UNL     1       1.523   3.161  -0.881  1.00  0.00     0.075 C 
HETATM    3  C2  UNL     1       1.199   2.158  -1.863  1.00  0.00     0.247 C 
ENDROOT
BRANCH   3   4
HETATM    4  N2  UNL     1      -0.048   1.540  -1.699  1.00  0.00    -0.143 NA
HETATM    5  O1  UNL     1      -1.019   2.508  -1.563  1.00  0.00    -0.225 OA
HETATM    6  C3  UNL     1      -1.241   2.615  -0.179  1.00  0.00     0.247 C 
HETATM    7  N3  UNL     1      -1.845   3.782   0.399  1.00  0.00    -0.055 NA
HETATM    8  N4  UNL     1      -0.827   1.548   0.408  1.00  0.00    -0.332 N 
HETATM    9  C4  UNL     1      -0.309   0.687  -0.615  1.00  0.00     0.135 C 
ATOM     10  H4  UNL     1      -0.861   1.352   1.408  1.00  0.00     0.165 HD
BRANCH   9  11
HETATM   11  C5  UNL     1       0.763  -0.231  -0.181  1.00  0.00     0.217 C 
BRANCH  11  12
HETATM   12  O2  UNL     1       1.946   0.314   0.236  1.00  0.00    -0.387 OA
BRANCH  12  13
HETATM   13  C6  UNL     1       2.771  -0.782   0.583  1.00  0.00     0.172 C 
BRANCH  13  14
HETATM   14  C7  UNL     1       4.108  -0.346   1.066  1.00  0.00     0.009 A 
HETATM   15  C8  UNL     1       5.016   0.461   0.173  1.00  0.00     0.007 A 
HETATM   16  C9  UNL     1       5.289  -0.978   0.362  1.00  0.00     0.007 A 
ENDBRANCH  13  14
ENDBRANCH  12  13
ENDBRANCH  11  12
ENDBRANCH   9  11
BRANCH   9  17
HETATM   17  C10 UNL     1      -1.483  -0.175  -1.077  1.00  0.00     0.057 C 
BRANCH  17  18
HETATM   18  C11 UNL     1      -1.960  -1.179  -0.097  1.00  0.00    -0.007 C 
HETATM   19  C12 UNL     1      -2.450  -0.632   1.209  1.00  0.00     0.031 C 
HETATM   20  C13 UNL     1      -3.240  -1.710   1.946  1.00  0.00     0.168 C 
HETATM   21  O3  UNL     1      -4.354  -2.057   1.216  1.00  0.00    -0.391 OA
HETATM   22  C14 UNL     1      -3.909  -2.767   0.099  1.00  0.00     0.168 C 
HETATM   23  C15 UNL     1      -3.086  -1.937  -0.822  1.00  0.00     0.031 C 
ENDBRANCH  17  18
ENDBRANCH   9  17
ENDBRANCH   3   4
TORSDOF 7
