REMARK  12 active torsions:
REMARK  status: ('A' for Active; 'I' for Inactive)
REMARK    1  A    between atoms: C2_2  and  C4_4 
REMARK    2  A    between atoms: C4_4  and  C5_5 
REMARK    3  A    between atoms: C5_5  and  C6_6 
REMARK    4  A    between atoms: C6_6  and  C7_7 
REMARK    5  A    between atoms: C7_7  and  C9_9 
REMARK    6  A    between atoms: C18_18  and  O1_19 
REMARK    7  A    between atoms: C19_21  and  C20_22 
REMARK    8  A    between atoms: C20_22  and  C22_24 
REMARK    9  A    between atoms: C20_22  and  N1_27 
REMARK   10  A    between atoms: C22_24  and  O2_25 
REMARK   11  A    between atoms: N1_27  and  S1_29 
REMARK   12  A    between atoms: C28_37  and  O5_38 
ROOT
HETATM    1  C9  UNL     1       2.761  -0.508   0.087  1.00  0.00     0.000 C 
HETATM    2  C10 UNL     1       2.950  -0.771   1.603  1.00  0.00     0.006 C 
HETATM    3  C11 UNL     1       1.859  -1.802   1.850  1.00  0.00     0.006 C 
HETATM    4  C12 UNL     1       0.781  -1.069   1.153  1.00  0.00     0.001 C 
HETATM    5  C13 UNL     1      -0.586  -1.524   1.277  1.00  0.00    -0.005 C 
HETATM    6  C14 UNL     1      -0.911  -2.901   0.804  1.00  0.00     0.006 C 
HETATM    7  C15 UNL     1      -2.272  -3.188   1.387  1.00  0.00     0.006 C 
HETATM    8  C16 UNL     1      -3.318  -2.272   0.909  1.00  0.00    -0.003 C 
HETATM    9  C17 UNL     1      -3.852  -2.715  -0.390  1.00  0.00     0.037 C 
HETATM   10  C18 UNL     1      -4.485  -1.443  -0.931  1.00  0.00     0.126 C 
HETATM   11  C19 UNL     1      -3.902  -0.290  -0.156  1.00  0.00     0.053 C 
HETATM   12  C24 UNL     1      -2.961  -0.781   0.823  1.00  0.00    -0.028 C 
HETATM   13  C25 UNL     1      -3.108  -0.395   2.285  1.00  0.00     0.016 C 
HETATM   14  C26 UNL     1      -1.503  -0.530   0.558  1.00  0.00     0.001 C 
HETATM   15  C27 UNL     1      -1.018  -0.396  -0.826  1.00  0.00     0.038 C 
HETATM   16  C28 UNL     1       0.452   0.088  -0.839  1.00  0.00     0.127 C 
HETATM   17  C29 UNL     1       1.362  -0.894  -0.231  1.00  0.00    -0.010 C 
HETATM   18  C30 UNL     1       1.386  -2.173  -1.031  1.00  0.00     0.018 C 
ENDROOT
BRANCH  11  19
HETATM   19  C20 UNL     1      -4.985   0.727   0.159  1.00  0.00     0.064 C 
HETATM   20  C21 UNL     1      -6.101   0.145   0.986  1.00  0.00     0.041 C 
BRANCH  19  21
HETATM   21  C22 UNL     1      -4.402   1.990   0.704  1.00  0.00     0.195 C 
BRANCH  21  22
HETATM   22  O2  UNL     1      -3.446   2.439  -0.237  1.00  0.00    -0.398 OA
ATOM     23  H2  UNL     1      -3.075   3.242   0.110  1.00  0.00     0.209 HD
ENDBRANCH  21  22
ENDBRANCH  19  21
BRANCH  19  24
HETATM   24  N1  UNL     1      -5.578   1.056  -1.085  1.00  0.00    -0.308 N 
ATOM     25  H1  UNL     1      -5.155   0.609  -1.898  1.00  0.00     0.173 HD
BRANCH  24  26
HETATM   26  S1  UNL     1      -6.821   2.030  -1.408  1.00  0.00     0.223 S 
HETATM   27  C23 UNL     1      -6.626   3.734  -0.992  1.00  0.00     0.185 C 
HETATM   28  O3  UNL     1      -7.054   2.063  -2.951  1.00  0.00    -0.206 OA
HETATM   29  O4  UNL     1      -8.200   1.644  -0.915  1.00  0.00    -0.206 OA
ENDBRANCH  24  26
ENDBRANCH  19  24
ENDBRANCH  11  19
BRANCH  10  30
HETATM   30  O1  UNL     1      -4.092  -1.469  -2.293  1.00  0.00    -0.395 OA
ATOM     31  H1  UNL     1      -4.488  -0.674  -2.631  1.00  0.00     0.210 HD
ENDBRANCH  10  30
BRANCH  16  32
HETATM   32  O5  UNL     1       0.355   1.266  -0.096  1.00  0.00    -0.395 OA
ATOM     33  H5  UNL     1       1.257   1.563  -0.104  1.00  0.00     0.210 HD
ENDBRANCH  16  32
BRANCH   1  34
HETATM   34  C7  UNL     1       3.258   0.816  -0.294  1.00  0.00    -0.014 C 
HETATM   35  C8  UNL     1       3.191   1.157  -1.758  1.00  0.00     0.010 C 
BRANCH  34  36
HETATM   36  C6  UNL     1       4.761   0.938   0.071  1.00  0.00     0.005 C 
BRANCH  36  37
HETATM   37  C5  UNL     1       5.642   0.056  -0.695  1.00  0.00     0.001 C 
BRANCH  37  38
HETATM   38  C4  UNL     1       7.073   0.129  -0.316  1.00  0.00     0.004 C 
BRANCH  38  39
HETATM   39  C2  UNL     1       7.827   1.394  -0.438  1.00  0.00    -0.023 C 
HETATM   40  C1  UNL     1       7.404   2.565   0.370  1.00  0.00     0.009 C 
HETATM   41  C3  UNL     1       9.314   1.098  -0.115  1.00  0.00     0.009 C 
ENDBRANCH  38  39
ENDBRANCH  37  38
ENDBRANCH  36  37
ENDBRANCH  34  36
ENDBRANCH   1  34
TORSDOF 12
