REMARK  6 active torsions:
REMARK  status: ('A' for Active; 'I' for Inactive)
REMARK    1  A    between atoms: O1_2  and  C2_3 
REMARK    2  A    between atoms: C2_3  and  C3_5 
REMARK    3  A    between atoms: C6_8  and  O3_9 
REMARK    4  A    between atoms: C6_8  and  C7_11 
REMARK       I    between atoms: N1_15  and  C9_16 
REMARK       I    between atoms: C9_16  and  N5_23 
REMARK    5  A    between atoms: N2_17  and  N3_19 
REMARK    6  A    between atoms: N5_23  and  N6_25 
ROOT
HETATM    1  N3  UNL     1      -3.139  -2.179   1.747  1.00  0.00    -0.222 N 
ATOM      2  H3  UNL     1      -3.636  -2.657   0.995  1.00  0.00     0.200 HD
HETATM    3  C10 UNL     1      -3.324  -2.552   3.090  1.00  0.00     0.198 C 
HETATM    4  N4  UNL     1      -3.465  -2.841   4.194  1.00  0.00    -0.170 NA
ENDROOT
BRANCH   1   5
HETATM    5  N2  UNL     1      -2.267  -1.149   1.479  1.00  0.00    -0.120 N 
HETATM    6  C9  UNL     1      -1.471  -1.077   0.481  1.00  0.00     0.733 C 
HETATM    7  N1  UNL     1      -0.636   0.039   0.336  1.00  0.00    -0.117 N 
HETATM    8  N5  UNL     1      -1.436  -2.116  -0.472  1.00  0.00    -0.069 N 
HETATM    9  C8  UNL     1      -1.178   1.320   0.031  1.00  0.00     0.217 C 
HETATM   10  N7  UNL     1       0.754  -0.084   0.492  1.00  0.00    -0.288 N 
HETATM   11  C6  UNL     1      -0.334   2.464   0.545  1.00  0.00     0.169 C 
HETATM   12  C5  UNL     1       1.114   2.358   0.233  1.00  0.00     0.109 C 
HETATM   13  C4  UNL     1       1.586   0.952   0.001  1.00  0.00     0.035 C 
HETATM   14  C3  UNL     1       2.727   0.791  -0.627  1.00  0.00     0.108 C 
ATOM     15  H7  UNL     1       1.156  -0.902   0.949  1.00  0.00     0.187 HD
ATOM     16  H5  UNL     1      -0.862  -2.936  -0.276  1.00  0.00     0.212 HD
ATOM     17  H2  UNL     1      -2.254  -0.370   2.138  1.00  0.00     0.206 HD
BRANCH  11  18
HETATM   18  O3  UNL     1      -0.492   2.578   1.922  1.00  0.00    -0.377 OA
ATOM     19  H3  UNL     1      -1.418   2.646   2.122  1.00  0.00     0.211 HD
ENDBRANCH  11  18
BRANCH  11  20
HETATM   20  C7  UNL     1      -0.834   3.708  -0.083  1.00  0.00     0.211 C 
HETATM   21  O4  UNL     1      -1.290   4.615   0.650  1.00  0.00    -0.646 OA
HETATM   22  O5  UNL     1      -0.805   3.887  -1.468  1.00  0.00    -0.646 OA
ENDBRANCH  11  20
BRANCH  14  23
HETATM   23  C2  UNL     1       3.374  -0.448  -0.961  1.00  0.00     0.284 C 
HETATM   24  O2  UNL     1       4.483  -0.499  -1.567  1.00  0.00    -0.260 OA
BRANCH  23  25
HETATM   25  O1  UNL     1       2.804  -1.652  -0.631  1.00  0.00    -0.323 OA
HETATM   26  C1  UNL     1       3.420  -2.902  -0.949  1.00  0.00     0.213 C 
ENDBRANCH  23  25
ENDBRANCH  14  23
BRANCH   8  27
HETATM   27  N6  UNL     1      -2.154  -2.076  -1.678  1.00  0.00    -0.024 N 
HETATM   28  O6  UNL     1      -2.936  -3.020  -1.901  1.00  0.00    -0.516 OA
HETATM   29  O7  UNL     1      -1.982  -1.044  -2.544  1.00  0.00    -0.516 OA
ENDBRANCH   8  27
ENDBRANCH   1   5
TORSDOF 6
