REMARK  6 active torsions:
REMARK  status: ('A' for Active; 'I' for Inactive)
REMARK    1  A    between atoms: C2_2  and  C3_3 
REMARK    2  A    between atoms: C3_3  and  N1_4 
REMARK       I    between atoms: C4_6  and  N3_8 
REMARK    3  A    between atoms: N3_8  and  C5_10 
REMARK    4  A    between atoms: C6_13  and  C7_14 
REMARK    5  A    between atoms: C8_17  and  O2_18 
REMARK    6  A    between atoms: O2_18  and  C9_19 
ROOT
HETATM    1  C5  UNL     1      -0.316  -0.578  -0.269  1.00  0.00     0.690 C 
HETATM    2  N4  UNL     1      -0.694   0.548  -0.726  1.00  0.00    -0.184 N 
ATOM      3  H4  UNL     1      -0.066   1.087  -1.321  1.00  0.00     0.184 HD
HETATM    4  C6  UNL     1      -2.010   1.073  -0.409  1.00  0.00     0.146 C 
HETATM    5  C8  UNL     1      -2.843   0.404   0.363  1.00  0.00     0.116 C 
HETATM    6  C10 UNL     1      -2.471  -0.871   0.949  1.00  0.00     0.188 C 
HETATM    7  C11 UNL     1      -3.327  -2.073   0.652  1.00  0.00     0.155 C 
HETATM    8  N7  UNL     1      -2.411  -3.181   1.087  1.00  0.00    -0.361 N 
ATOM      9  H7  UNL     1      -2.696  -4.107   1.406  1.00  0.00     0.162 HD
HETATM   10  C12 UNL     1      -1.174  -2.741   0.982  1.00  0.00     0.206 C 
HETATM   11  N8  UNL     1       0.031  -3.429   1.279  1.00  0.00    -0.063 NA
HETATM   12  N9  UNL     1      -1.182  -1.385   0.493  1.00  0.00    -0.142 N 
ENDROOT
BRANCH   1  13
HETATM   13  N3  UNL     1       0.984  -1.085  -0.579  1.00  0.00    -0.163 N 
HETATM   14  C4  UNL     1       2.162  -0.333  -0.375  1.00  0.00     0.202 C 
HETATM   15  N1  UNL     1       3.220  -0.811   0.165  1.00  0.00    -0.364 N 
HETATM   16  N2  UNL     1       2.170   1.026  -0.793  1.00  0.00    -0.063 NA
ATOM     17  H1  UNL     1       3.195  -1.788   0.458  1.00  0.00     0.162 HD
ATOM     18  H3  UNL     1       1.064  -2.027  -0.963  1.00  0.00     0.187 HD
BRANCH  15  19
HETATM   19  C3  UNL     1       4.429  -0.092   0.390  1.00  0.00     0.122 C 
BRANCH  19  20
HETATM   20  C2  UNL     1       5.221   0.165  -0.874  1.00  0.00     0.015 C 
HETATM   21  C1  UNL     1       6.475   0.933  -0.495  1.00  0.00     0.006 C 
ENDBRANCH  19  20
ENDBRANCH  15  19
ENDBRANCH   1  13
BRANCH   4  22
HETATM   22  C7  UNL     1      -2.391   2.366  -0.934  1.00  0.00     0.284 C 
HETATM   23  N5  UNL     1      -1.477   3.072  -1.752  1.00  0.00    -0.056 NA
HETATM   24  O1  UNL     1      -3.481   2.888  -0.702  1.00  0.00    -0.269 OA
ENDBRANCH   4  22
BRANCH   5  25
HETATM   25  O2  UNL     1      -4.100   0.896   0.658  1.00  0.00    -0.263 OA
BRANCH  25  26
HETATM   26  C9  UNL     1      -5.214   0.637  -0.079  1.00  0.00     0.377 C 
HETATM   27  N6  UNL     1      -6.472   1.203   0.346  1.00  0.00    -0.032 NA
HETATM   28  O3  UNL     1      -5.177  -0.060  -1.089  1.00  0.00    -0.242 OA
ENDBRANCH  25  26
ENDBRANCH   5  25
TORSDOF 6
