REMARK  8 active torsions:
REMARK  status: ('A' for Active; 'I' for Inactive)
REMARK    1  A    between atoms: C2_2  and  C3_3 
REMARK    2  A    between atoms: C2_2  and  N7_24 
REMARK    3  A    between atoms: C3_3  and  C4_4 
REMARK    4  A    between atoms: C4_4  and  C5_5 
REMARK    5  A    between atoms: C5_5  and  N1_6 
REMARK    6  A    between atoms: C8_11  and  N3_12 
REMARK    7  A    between atoms: C9_17  and  N5_18 
REMARK       I    between atoms: N12_34  and  C13_35 
REMARK    8  A    between atoms: C14_38  and  N14_39 
ROOT
HETATM    1  C3  UNL     1      -0.740   0.386  -1.638  1.00  0.00     0.028 C 
ENDROOT
BRANCH   1   2
HETATM    2  C2  UNL     1       0.499  -0.002  -2.379  1.00  0.00     0.107 C 
HETATM    3  C1  UNL     1       0.777   0.919  -3.554  1.00  0.00     0.034 C 
BRANCH   2   4
HETATM    4  N7  UNL     1       1.648  -0.042  -1.478  1.00  0.00    -0.256 N 
HETATM    5  N8  UNL     1       2.459   1.000  -1.368  1.00  0.00    -0.237 N 
HETATM    6  N9  UNL     1       3.514   1.053  -0.585  1.00  0.00    -0.267 N 
ATOM      7  H8  UNL     1       2.249   1.823  -1.933  1.00  0.00     0.208 HD
HETATM    8  C11 UNL     1       3.856   0.013   0.189  1.00  0.00     0.177 A 
ATOM      9  H9  UNL     1       4.082   1.900  -0.566  1.00  0.00     0.190 HD
HETATM   10  C12 UNL     1       3.050  -1.097   0.115  1.00  0.00     0.138 A 
HETATM   11  N12 UNL     1       4.857  -0.218   1.070  1.00  0.00    -0.172 N 
HETATM   12  N10 UNL     1       3.589  -1.988   0.967  1.00  0.00    -0.276 N 
HETATM   13  C14 UNL     1       1.927  -1.122  -0.734  1.00  0.00     0.149 A 
HETATM   14  N11 UNL     1       4.677  -1.443   1.534  1.00  0.00    -0.009 NA
ATOM     15  H10 UNL     1       3.230  -2.925   1.152  1.00  0.00     0.184 HD
HETATM   16  C13 UNL     1       5.910   0.700   1.428  1.00  0.00     0.354 C 
HETATM   17  N13 UNL     1       6.876   0.299   2.365  1.00  0.00    -0.038 NA
HETATM   18  O1  UNL     1       5.921   1.833   0.879  1.00  0.00    -0.249 OA
BRANCH  13  19
HETATM   19  N14 UNL     1       1.225  -2.178  -0.754  1.00  0.00    -0.382 N 
ATOM     20 2H14 UNL     1       0.411  -2.196  -1.369  1.00  0.00     0.157 HD
ATOM     21 1H14 UNL     1       1.437  -3.000  -0.188  1.00  0.00     0.157 HD
ENDBRANCH  13  19
ENDBRANCH   2   4
ENDBRANCH   1   2
BRANCH   1  22
HETATM   22  C4  UNL     1      -0.696   1.765  -1.071  1.00  0.00     0.022 C 
BRANCH  22  23
HETATM   23  C5  UNL     1      -1.964   2.120  -0.343  1.00  0.00     0.131 C 
BRANCH  23  24
HETATM   24  N1  UNL     1      -2.290   1.266   0.760  1.00  0.00    -0.327 N 
HETATM   25  C6  UNL     1      -1.852   1.358   2.050  1.00  0.00     0.185 A 
HETATM   26  N2  UNL     1      -2.350   0.371   2.802  1.00  0.00    -0.346 N 
HETATM   27  C7  UNL     1      -3.127  -0.391   2.020  1.00  0.00     0.123 A 
ATOM     28  H2  UNL     1      -2.170   0.224   3.795  1.00  0.00     0.167 HD
HETATM   29  C8  UNL     1      -3.865  -1.520   2.320  1.00  0.00     0.145 A 
HETATM   30  C10 UNL     1      -3.083   0.176   0.749  1.00  0.00     0.155 A 
HETATM   31  N4  UNL     1      -4.563  -2.070   1.312  1.00  0.00    -0.175 N 
HETATM   32  C9  UNL     1      -4.529  -1.525   0.065  1.00  0.00     0.679 A 
ATOM     33  H4  UNL     1      -5.124  -2.904   1.483  1.00  0.00     0.186 HD
HETATM   34  N6  UNL     1      -3.809  -0.427  -0.219  1.00  0.00    -0.174 N 
ATOM     35  H6  UNL     1      -3.810  -0.048  -1.166  1.00  0.00     0.186 HD
BRANCH  29  36
HETATM   36  N3  UNL     1      -3.893  -2.031   3.504  1.00  0.00    -0.383 N 
ATOM     37  H32 UNL     1      -3.363  -1.614   4.269  1.00  0.00     0.157 HD
ATOM     38  H31 UNL     1      -4.438  -2.864   3.725  1.00  0.00     0.157 HD
ENDBRANCH  29  36
BRANCH  32  39
HETATM   39  N5  UNL     1      -5.208  -2.057  -0.920  1.00  0.00    -0.234 N 
ATOM     40  H52 UNL     1      -5.755  -2.891  -0.704  1.00  0.00     0.174 HD
ATOM     41  H51 UNL     1      -5.183  -1.649  -1.854  1.00  0.00     0.174 HD
ENDBRANCH  32  39
ENDBRANCH  23  24
ENDBRANCH  22  23
ENDBRANCH   1  22
TORSDOF 8
