REMARK  12 active torsions:
REMARK  status: ('A' for Active; 'I' for Inactive)
REMARK       I    between atoms: C1_4  and  N3_6 
REMARK    1  A    between atoms: N3_6  and  C2_8 
REMARK    2  A    between atoms: C3_11  and  N5_12 
REMARK    3  A    between atoms: C4_17  and  N7_18 
REMARK    4  A    between atoms: N7_18  and  C5_20 
REMARK    5  A    between atoms: C5_20  and  C6_21 
REMARK    6  A    between atoms: C6_21  and  C7_22 
REMARK    7  A    between atoms: C7_22  and  C8_23 
REMARK    8  A    between atoms: C8_23  and  C9_24 
REMARK    9  A    between atoms: C9_24  and  C10_25 
REMARK   10  A    between atoms: C10_25  and  C11_26 
REMARK   11  A    between atoms: C11_26  and  C12_27 
REMARK   12  A    between atoms: C12_27  and  N8_28 
ROOT
HETATM    1  C2  UNL     1       4.638   0.672  -0.317  1.00  0.00     0.713 A 
HETATM    2  N4  UNL     1       4.616   0.646   1.019  1.00  0.00    -0.021 N 
ATOM      3  H4  UNL     1       5.417   1.021   1.528  1.00  0.00     0.203 HD
HETATM    4  C3  UNL     1       3.585   0.148   1.721  1.00  0.00     0.705 A 
HETATM    5  N6  UNL     1       2.543  -0.340   1.025  1.00  0.00    -0.022 N 
ATOM      6  H6  UNL     1       1.738  -0.729   1.517  1.00  0.00     0.203 HD
HETATM    7  C4  UNL     1       2.562  -0.315  -0.314  1.00  0.00     0.707 A 
HETATM    8  N9  UNL     1       3.592   0.182  -1.017  1.00  0.00    -0.021 N 
ATOM      9  H9  UNL     1       3.585   0.189  -2.037  1.00  0.00     0.203 HD
ENDROOT
BRANCH   7  10
HETATM   10  N7  UNL     1       1.566  -0.781  -0.975  1.00  0.00    -0.225 N 
ATOM     11  H7  UNL     1       1.599  -0.754  -1.994  1.00  0.00     0.177 HD
BRANCH  10  12
HETATM   12  C5  UNL     1       0.395  -1.345  -0.331  1.00  0.00     0.138 C 
BRANCH  12  13
HETATM   13  C6  UNL     1      -0.491  -1.937  -1.382  1.00  0.00     0.020 C 
BRANCH  13  14
HETATM   14  C7  UNL     1      -1.742  -2.558  -0.867  1.00  0.00     0.002 C 
BRANCH  14  15
HETATM   15  C8  UNL     1      -2.651  -1.641  -0.129  1.00  0.00     0.000 C 
BRANCH  15  16
HETATM   16  C9  UNL     1      -3.127  -0.479  -0.968  1.00  0.00     0.000 C 
BRANCH  16  17
HETATM   17  C10 UNL     1      -4.040   0.441  -0.224  1.00  0.00     0.002 C 
BRANCH  17  18
HETATM   18  C11 UNL     1      -5.288  -0.212   0.283  1.00  0.00     0.027 C 
BRANCH  18  19
HETATM   19  C12 UNL     1      -6.091   0.871   1.011  1.00  0.00     0.229 C 
BRANCH  19  20
HETATM   20  N8  UNL     1      -6.433   1.952   0.141  1.00  0.00    -0.079 N 
ATOM     21  H83 UNL     1      -5.605   2.343  -0.309  1.00  0.00     0.274 HD
ATOM     22  H82 UNL     1      -6.924   1.620  -0.689  1.00  0.00     0.274 HD
ATOM     23  H81 UNL     1      -6.968   2.673   0.626  1.00  0.00     0.274 HD
ENDBRANCH  19  20
ENDBRANCH  18  19
ENDBRANCH  17  18
ENDBRANCH  16  17
ENDBRANCH  15  16
ENDBRANCH  14  15
ENDBRANCH  13  14
ENDBRANCH  12  13
ENDBRANCH  10  12
ENDBRANCH   7  10
BRANCH   4  24
HETATM   24  N5  UNL     1       3.593   0.137   3.028  1.00  0.00    -0.234 N 
ATOM     25  H52 UNL     1       4.383   0.507   3.556  1.00  0.00     0.174 HD
ATOM     26  H51 UNL     1       2.810  -0.241   3.561  1.00  0.00     0.174 HD
ENDBRANCH   4  24
BRANCH   1  27
HETATM   27  N3  UNL     1       5.632   1.152  -0.985  1.00  0.00    -0.163 N 
HETATM   28  C1  UNL     1       6.734   1.668  -0.255  1.00  0.00     0.200 C 
HETATM   29  N1  UNL     1       7.763   0.919  -0.077  1.00  0.00    -0.373 N 
HETATM   30  N2  UNL     1       6.696   2.988   0.266  1.00  0.00    -0.063 NA
ATOM     31  H12 UNL     1       8.555   1.290   0.448  1.00  0.00     0.158 HD
ATOM     32  H11 UNL     1       7.790  -0.029  -0.451  1.00  0.00     0.158 HD
ATOM     33  H3  UNL     1       5.626   1.160  -2.005  1.00  0.00     0.187 HD
ENDBRANCH   1  27
TORSDOF 12
