REMARK  5 active torsions:
REMARK  status: ('A' for Active; 'I' for Inactive)
REMARK    1  A    between atoms: C2_3  and  N2_4 
REMARK    2  A    between atoms: C2_3  and  N3_8 
REMARK    3  A    between atoms: N3_8  and  N4_9 
REMARK    4  A    between atoms: N3_8  and  C3_12 
REMARK    5  A    between atoms: C3_12  and  C4_13 
ROOT
HETATM    1  N1  UNL     1      -0.584   1.284   2.401  1.00  0.00    -0.194 NA
HETATM    2  C1  UNL     1      -0.987   0.816   1.425  1.00  0.00     0.110 C 
HETATM    3  C2  UNL     1      -1.520   0.253   0.220  1.00  0.00     0.387 C 
ENDROOT
BRANCH   3   4
HETATM    4  N2  UNL     1      -2.654   1.087  -0.246  1.00  0.00    -0.048 N 
ATOM      5  H23 UNL     1      -3.367   1.209   0.473  1.00  0.00     0.277 HD
ATOM      6  H22 UNL     1      -2.394   2.067  -0.358  1.00  0.00     0.277 HD
ATOM      7  H21 UNL     1      -3.033   0.686  -1.104  1.00  0.00     0.277 HD
ENDBRANCH   3   4
BRANCH   3   8
HETATM    8  N3  UNL     1      -0.650   0.119  -0.861  1.00  0.00    -0.168 NA
BRANCH   8   9
HETATM    9  N4  UNL     1      -1.359  -0.079  -2.052  1.00  0.00    -0.357 NA
ATOM     10  H42 UNL     1      -2.173   0.536  -2.067  1.00  0.00     0.171 HD
ATOM     11  H41 UNL     1      -0.722  -0.177  -2.843  1.00  0.00     0.171 HD
ENDBRANCH   8   9
BRANCH   8  12
HETATM   12  C3  UNL     1       0.464  -0.722  -0.841  1.00  0.00     0.118 C 
BRANCH  12  13
HETATM   13  C4  UNL     1       1.515  -0.461   0.162  1.00  0.00     0.077 A 
HETATM   14  C5  UNL     1       2.482   0.502   0.332  1.00  0.00     0.139 A 
HETATM   15  N5  UNL     1       2.877  -0.143   1.440  1.00  0.00    -0.309 N 
HETATM   16  N6  UNL     1       1.961  -1.054   1.278  1.00  0.00    -0.299 N 
ATOM     17  H5  UNL     1       3.607   0.017   2.135  1.00  0.00     0.186 HD
ATOM     18  H6  UNL     1       1.690  -1.890   1.796  1.00  0.00     0.187 HD
ENDBRANCH  12  13
ENDBRANCH   8  12
ENDBRANCH   3   8
TORSDOF 5
