REMARK  7 active torsions:
REMARK  status: ('A' for Active; 'I' for Inactive)
REMARK    1  A    between atoms: C5_5  and  C6_6 
REMARK    2  A    between atoms: C6_6  and  C7_7 
REMARK    3  A    between atoms: C11_13  and  C12_14 
REMARK    4  A    between atoms: C13_15  and  C14_16 
REMARK    5  A    between atoms: C15_19  and  C16_20 
REMARK    6  A    between atoms: C16_20  and  C17_21 
REMARK    7  A    between atoms: C22_28  and  O1_29 
ROOT
HETATM    1  C1  UNL     1      -6.521   2.196   0.242  1.00  0.00     0.102 C 
HETATM    2  C2  UNL     1      -5.625   1.552   0.779  1.00  0.00    -0.154 C 
HETATM    3  C3  UNL     1      -4.607   0.799   1.423  1.00  0.00    -0.025 C 
HETATM    4  C4  UNL     1      -4.829   0.198   2.785  1.00  0.00     0.057 C 
HETATM    5  C5  UNL     1      -3.448   0.607   0.847  1.00  0.00    -0.007 C 
ENDROOT
BRANCH   5   6
HETATM    6  C6  UNL     1      -3.202   1.189  -0.499  1.00  0.00     0.069 C 
BRANCH   6   7
HETATM    7  C7  UNL     1      -2.899   0.158  -1.520  1.00  0.00    -0.026 A 
HETATM    8  C8  UNL     1      -3.908  -0.302  -2.386  1.00  0.00     0.038 A 
HETATM    9  C9  UNL     1      -3.360  -1.259  -3.184  1.00  0.00     0.023 A 
HETATM   10  C10 UNL     1      -4.005  -1.947  -4.148  1.00  0.00     0.043 C 
HETATM   11  N1  UNL     1      -2.093  -1.380  -2.830  1.00  0.00    -0.356 N 
HETATM   12  C11 UNL     1      -1.761  -0.519  -1.801  1.00  0.00     0.039 A 
ATOM     13  H1  UNL     1      -1.438  -2.031  -3.264  1.00  0.00     0.166 HD
BRANCH  12  14
HETATM   14  C12 UNL     1      -0.548  -0.447  -1.304  1.00  0.00     0.032 C 
HETATM   15  C13 UNL     1      -0.005   0.381  -0.283  1.00  0.00     0.035 C 
BRANCH  15  16
HETATM   16  C14 UNL     1       1.301   0.267   0.068  1.00  0.00     0.066 A 
HETATM   17  N2  UNL     1       2.245  -0.547  -0.409  1.00  0.00    -0.354 N 
HETATM   18  C15 UNL     1       3.418  -0.335   0.224  1.00  0.00     0.036 A 
ATOM     19  H2  UNL     1       2.100  -1.234  -1.149  1.00  0.00     0.166 HD
HETATM   20  C21 UNL     1       3.228   0.661   1.151  1.00  0.00     0.068 A 
HETATM   21  C22 UNL     1       1.908   1.024   1.042  1.00  0.00     0.094 A 
BRANCH  18  22
HETATM   22  C16 UNL     1       4.536  -0.983  -0.025  1.00  0.00     0.042 C 
BRANCH  22  23
HETATM   23  C17 UNL     1       5.771  -0.712   0.688  1.00  0.00    -0.017 A 
HETATM   24  C18 UNL     1       6.015  -0.879   2.050  1.00  0.00     0.030 A 
HETATM   25  C19 UNL     1       7.295  -0.515   2.326  1.00  0.00     0.088 A 
HETATM   26  N3  UNL     1       7.849  -0.126   1.170  1.00  0.00    -0.374 N 
HETATM   27  C20 UNL     1       6.965  -0.230   0.163  1.00  0.00     0.099 A 
ATOM     28  H3  UNL     1       8.809   0.204   1.068  1.00  0.00     0.164 HD
ENDBRANCH  22  23
ENDBRANCH  18  22
BRANCH  21  29
HETATM   29  O1  UNL     1       1.294   2.004   1.802  1.00  0.00    -0.358 OA
ATOM     30  H1  UNL     1       1.713   2.527   2.475  1.00  0.00     0.217 HD
ENDBRANCH  21  29
ENDBRANCH  15  16
ENDBRANCH  12  14
ENDBRANCH   6   7
ENDBRANCH   5   6
TORSDOF 7
