REMARK  13 active torsions:
REMARK  status: ('A' for Active; 'I' for Inactive)
REMARK    1  A    between atoms: C2_2  and  C3_3 
REMARK    2  A    between atoms: C3_3  and  C4_4 
REMARK    3  A    between atoms: C3_3  and  C5_6 
REMARK    4  A    between atoms: C3_3  and  N1_9 
REMARK    5  A    between atoms: C5_6  and  C6_7 
REMARK    6  A    between atoms: N1_9  and  C8_11 
REMARK    7  A    between atoms: N1_9  and  C10_15 
REMARK    8  A    between atoms: C8_11  and  C9_12 
REMARK    9  A    between atoms: C9_12  and  O1_13 
REMARK   10  A    between atoms: C10_15  and  C11_16 
REMARK   11  A    between atoms: C11_16  and  O2_17 
REMARK   12  A    between atoms: O2_17  and  C12_18 
REMARK   13  A    between atoms: C12_18  and  C13_19 
ROOT
HETATM    1  C11 UNL     1       0.374  -1.577  -0.436  1.00  0.00     0.196 C 
ENDROOT
BRANCH   1   2
HETATM    2  C10 UNL     1      -0.666  -0.552  -0.139  1.00  0.00     0.264 C 
BRANCH   2   3
HETATM    3  N1  UNL     1      -2.005  -0.790  -0.530  1.00  0.00    -0.056 N 
HETATM    4  C7  UNL     1      -2.195  -2.259  -0.501  1.00  0.00     0.273 C 
BRANCH   3   5
HETATM    5  C3  UNL     1      -3.008  -0.149   0.338  1.00  0.00     0.155 C 
BRANCH   5   6
HETATM    6  C2  UNL     1      -3.120   1.326  -0.175  1.00  0.00     0.037 C 
HETATM    7  C1  UNL     1      -4.075   2.186   0.515  1.00  0.00     0.007 C 
ENDBRANCH   5   6
BRANCH   5   8
HETATM    8  C4  UNL     1      -4.382  -0.657   0.128  1.00  0.00     0.261 C 
HETATM    9  F1  UNL     1      -4.708  -1.917   0.438  1.00  0.00    -0.253 F 
ENDBRANCH   5   8
BRANCH   5  10
HETATM   10  C5  UNL     1      -2.603   0.067   1.735  1.00  0.00     0.057 C 
BRANCH  10  11
HETATM   11  C6  UNL     1      -2.317  -0.980   2.704  1.00  0.00     0.117 C 
HETATM   12 CL1  UNL     1      -3.562  -2.109   3.188  1.00  0.00    -0.130 Cl
ENDBRANCH  10  11
ENDBRANCH   5  10
ENDBRANCH   3   5
BRANCH   3  13
HETATM   13  C8  UNL     1      -2.205  -0.526  -1.938  1.00  0.00     0.264 C 
BRANCH  13  14
HETATM   14  C9  UNL     1      -1.319   0.454  -2.619  1.00  0.00     0.192 C 
BRANCH  14  15
HETATM   15  O1  UNL     1      -1.740   0.516  -3.976  1.00  0.00    -0.399 OA
ATOM     16  H1  UNL     1      -1.174   1.142  -4.411  1.00  0.00     0.209 HD
ENDBRANCH  14  15
ENDBRANCH  13  14
ENDBRANCH   3  13
ENDBRANCH   2   3
ENDBRANCH   1   2
BRANCH   1  17
HETATM   17  O2  UNL     1       1.600  -1.147   0.031  1.00  0.00    -0.385 OA
BRANCH  17  18
HETATM   18  C12 UNL     1       2.100   0.013  -0.466  1.00  0.00     0.209 C 
BRANCH  18  19
HETATM   19  C13 UNL     1       3.448   0.343   0.080  1.00  0.00     0.007 A 
HETATM   20  C14 UNL     1       4.068   1.495  -0.344  1.00  0.00     0.017 A 
HETATM   21  C15 UNL     1       3.378   2.356  -1.319  1.00  0.00     0.069 C 
HETATM   22  N2  UNL     1       5.304   1.837   0.131  1.00  0.00    -0.344 N 
HETATM   23  C16 UNL     1       5.949   1.077   1.012  1.00  0.00     0.125 A 
ATOM     24  H2  UNL     1       5.743   2.697  -0.199  1.00  0.00     0.167 HD
HETATM   25  N3  UNL     1       7.124   1.379   1.479  1.00  0.00    -0.384 N 
HETATM   26  C17 UNL     1       5.356  -0.081   1.455  1.00  0.00     0.107 A 
ATOM     27  H32 UNL     1       7.564   2.238   1.150  1.00  0.00     0.157 HD
ATOM     28  H31 UNL     1       7.619   0.796   2.154  1.00  0.00     0.157 HD
HETATM   29  N4  UNL     1       6.011  -0.905   2.385  1.00  0.00    -0.097 NA
HETATM   30  C18 UNL     1       4.089  -0.462   0.989  1.00  0.00     0.049 A 
HETATM   31 BR1  UNL     1       3.265  -2.049   1.590  1.00  0.00    -0.048 Br
ENDBRANCH  18  19
ENDBRANCH  17  18
ENDBRANCH   1  17
TORSDOF 13
