REMARK  13 active torsions:
REMARK  status: ('A' for Active; 'I' for Inactive)
REMARK       I    between atoms: C1_2  and  N2_3 
REMARK       I    between atoms: C1_2  and  N5_23 
REMARK    1  A    between atoms: N2_3  and  C2_4 
REMARK    2  A    between atoms: C2_4  and  C3_5 
REMARK    3  A    between atoms: C3_5  and  C4_6 
REMARK    4  A    between atoms: C4_6  and  C5_7 
REMARK    5  A    between atoms: C5_7  and  C6_8 
REMARK    6  A    between atoms: C6_8  and  C7_9 
REMARK       I    between atoms: C7_9  and  N3_11 
REMARK    7  A    between atoms: N3_11  and  C8_13 
REMARK    8  A    between atoms: C8_13  and  C9_14 
REMARK    9  A    between atoms: C9_14  and  C10_15 
REMARK   10  A    between atoms: C10_15  and  C11_16 
REMARK   11  A    between atoms: C11_16  and  C12_17 
REMARK   12  A    between atoms: C12_17  and  N4_18 
REMARK       I    between atoms: N4_18  and  C13_20 
REMARK   13  A    between atoms: N5_23  and  C14_24 
ROOT
HETATM    1  C4  UNL     1       1.289  -2.015   0.175  1.00  0.00     0.003 C 
ENDROOT
BRANCH   1   2
HETATM    2  C3  UNL     1       1.386  -3.480   0.505  1.00  0.00     0.033 C 
BRANCH   2   3
HETATM    3  C2  UNL     1       1.556  -3.552   2.054  1.00  0.00     0.222 C 
BRANCH   3   4
HETATM    4  N2  UNL     1       2.567  -2.875   2.505  1.00  0.00    -0.407 NA
HETATM    5  C1  UNL     1       3.522  -2.411   3.083  1.00  0.00     0.340 C 
HETATM    6  N1  UNL     1       4.023  -3.150   4.235  1.00  0.00    -0.035 NA
HETATM    7  N5  UNL     1       4.122  -1.271   2.757  1.00  0.00    -0.342 NA
BRANCH   7   8
HETATM    8  C14 UNL     1       4.654  -0.259   2.465  1.00  0.00     0.207 A 
HETATM    9  N6  UNL     1       4.774   0.061   1.124  1.00  0.00    -0.338 N 
HETATM   10  C15 UNL     1       5.342   1.205   0.759  1.00  0.00     0.111 A 
ATOM     11  H6  UNL     1       4.425  -0.583   0.414  1.00  0.00     0.168 HD
HETATM   12  C16 UNL     1       5.827   2.102   1.698  1.00  0.00     0.050 A 
HETATM   13 BR1  UNL     1       6.631   3.727   1.109  1.00  0.00    -0.048 Br
HETATM   14  C17 UNL     1       5.720   1.807   3.021  1.00  0.00     0.079 A 
HETATM   15 CL1  UNL     1       6.339   2.936   4.217  1.00  0.00    -0.081 Cl
HETATM   16  C18 UNL     1       5.139   0.639   3.409  1.00  0.00     0.115 A 
HETATM   17 CL2  UNL     1       5.031   0.315   5.124  1.00  0.00    -0.077 Cl
ENDBRANCH   7   8
ENDBRANCH   3   4
ENDBRANCH   2   3
ENDBRANCH   1   2
BRANCH   1  18
HETATM   18  C5  UNL     1       1.092  -1.713  -1.248  1.00  0.00     0.009 C 
BRANCH  18  19
HETATM   19  C6  UNL     1      -0.126  -2.130  -1.957  1.00  0.00     0.103 C 
BRANCH  19  20
HETATM   20  C7  UNL     1      -1.388  -1.480  -1.413  1.00  0.00     0.217 C 
HETATM   21  O1  UNL     1      -1.328  -1.102  -0.227  1.00  0.00    -0.274 OA
HETATM   22  N3  UNL     1      -2.463  -1.351  -2.272  1.00  0.00    -0.361 N 
ATOM     23  H3  UNL     1      -2.385  -1.743  -3.211  1.00  0.00     0.162 HD
BRANCH  22  24
HETATM   24  C8  UNL     1      -3.715  -0.675  -1.896  1.00  0.00     0.122 C 
BRANCH  24  25
HETATM   25  C9  UNL     1      -3.355   0.750  -1.505  1.00  0.00     0.020 C 
BRANCH  25  26
HETATM   26  C10 UNL     1      -4.531   1.623  -1.191  1.00  0.00     0.003 C 
BRANCH  26  27
HETATM   27  C11 UNL     1      -3.931   2.990  -0.797  1.00  0.00     0.020 C 
BRANCH  27  28
HETATM   28  C12 UNL     1      -5.070   3.907  -0.463  1.00  0.00     0.125 C 
BRANCH  28  29
HETATM   29  N4  UNL     1      -5.882   4.000  -1.687  1.00  0.00    -0.335 N 
HETATM   30  C13 UNL     1      -5.355   4.642  -2.817  1.00  0.00     0.283 C 
HETATM   31  O2  UNL     1      -4.153   5.164  -2.719  1.00  0.00    -0.630 OA
HETATM   32  O3  UNL     1      -5.907   4.815  -4.053  1.00  0.00    -0.630 OA
ATOM     33  H4  UNL     1      -6.820   3.601  -1.713  1.00  0.00     0.165 HD
ENDBRANCH  28  29
ENDBRANCH  27  28
ENDBRANCH  26  27
ENDBRANCH  25  26
ENDBRANCH  24  25
ENDBRANCH  22  24
ENDBRANCH  19  20
ENDBRANCH  18  19
ENDBRANCH   1  18
TORSDOF 13
