REMARK  7 active torsions:
REMARK  status: ('A' for Active; 'I' for Inactive)
REMARK    1  A    between atoms: O1_1  and  C1_3 
REMARK    2  A    between atoms: C9_11  and  C10_12 
REMARK    3  A    between atoms: C10_12  and  C11_13 
REMARK    4  A    between atoms: C11_13  and  C12_14 
REMARK    5  A    between atoms: C12_14  and  C13_15 
REMARK    6  A    between atoms: C13_15  and  C14_16 
REMARK    7  A    between atoms: C14_16  and  C15_17 
ROOT
HETATM    1  C1  UNL     1      -4.817   0.696  -0.189  1.00  0.00     0.186 A 
HETATM    2  C2  UNL     1      -3.867   0.961  -1.287  1.00  0.00    -0.014 A 
HETATM    3  C3  UNL     1      -4.123   1.432  -2.581  1.00  0.00     0.011 A 
HETATM    4  C4  UNL     1      -3.078   1.604  -3.446  1.00  0.00     0.001 A 
HETATM    5  C5  UNL     1      -1.808   1.309  -3.019  1.00  0.00     0.001 A 
HETATM    6  C6  UNL     1      -1.558   0.836  -1.721  1.00  0.00     0.013 A 
HETATM    7  C7  UNL     1      -2.598   0.660  -0.844  1.00  0.00    -0.016 A 
HETATM    8  C8  UNL     1      -2.638   0.211   0.559  1.00  0.00    -0.010 A 
HETATM    9  C9  UNL     1      -1.656  -0.173   1.444  1.00  0.00    -0.046 A 
HETATM   10  C21 UNL     1      -2.087  -0.504   2.731  1.00  0.00     0.008 A 
HETATM   11  C22 UNL     1      -3.410  -0.456   3.103  1.00  0.00     0.001 A 
HETATM   12  C23 UNL     1      -4.377  -0.075   2.213  1.00  0.00     0.011 A 
HETATM   13  C24 UNL     1      -3.965   0.261   0.924  1.00  0.00    -0.013 A 
ENDROOT
BRANCH   9  14
HETATM   14  C10 UNL     1      -0.219  -0.300   1.097  1.00  0.00     0.039 C 
BRANCH  14  15
HETATM   15  C11 UNL     1       0.129  -1.607   0.447  1.00  0.00     0.005 C 
BRANCH  15  16
HETATM   16  C12 UNL     1       1.592  -1.623   0.093  1.00  0.00     0.001 C 
BRANCH  16  17
HETATM   17  C13 UNL     1       2.454  -1.466   1.312  1.00  0.00     0.005 C 
BRANCH  17  18
HETATM   18  C14 UNL     1       3.914  -1.531   0.904  1.00  0.00     0.038 C 
BRANCH  18  19
HETATM   19  C15 UNL     1       4.329  -0.503  -0.046  1.00  0.00    -0.058 A 
HETATM   20  C16 UNL     1       4.794   0.734   0.348  1.00  0.00     0.007 A 
HETATM   21  C17 UNL     1       5.168   1.629  -0.605  1.00  0.00     0.001 A 
HETATM   22  C18 UNL     1       5.098   1.335  -1.967  1.00  0.00     0.000 A 
HETATM   23  C19 UNL     1       4.632   0.093  -2.362  1.00  0.00     0.001 A 
HETATM   24  C20 UNL     1       4.258  -0.798  -1.403  1.00  0.00     0.007 A 
ENDBRANCH  18  19
ENDBRANCH  17  18
ENDBRANCH  16  17
ENDBRANCH  15  16
ENDBRANCH  14  15
ENDBRANCH   9  14
BRANCH   1  25
HETATM   25  O1  UNL     1      -5.572   1.821   0.140  1.00  0.00    -0.386 OA
ATOM     26  H1  UNL     1      -6.183   1.650   0.847  1.00  0.00     0.210 HD
ENDBRANCH   1  25
TORSDOF 7
