REMARK  2 active torsions:
REMARK  status: ('A' for Active; 'I' for Inactive)
REMARK    1  A    between atoms: C4_9  and  N3_10 
REMARK    2  A    between atoms: N3_10  and  N4_12 
ROOT
HETATM    1  N1  UNL     1      -2.028   2.160   0.422  1.00  0.00    -0.234 N 
ATOM      2  H11 UNL     1      -1.510   3.001   0.167  1.00  0.00     0.174 HD
ATOM      3  H12 UNL     1      -2.967   2.329   0.782  1.00  0.00     0.174 HD
HETATM    4  C1  UNL     1      -1.473   1.064   0.256  1.00  0.00     0.677 A 
HETATM    5  N2  UNL     1      -2.181  -0.086   0.604  1.00  0.00    -0.202 N 
ATOM      6  H2  UNL     1      -3.129  -0.002   0.970  1.00  0.00     0.183 HD
HETATM    7  C2  UNL     1      -1.639  -1.282   0.465  1.00  0.00     0.110 A 
HETATM    8  C3  UNL     1      -0.353  -1.449  -0.030  1.00  0.00     0.068 A 
HETATM    9  C4  UNL     1       0.363  -0.319  -0.382  1.00  0.00     0.136 A 
HETATM   10  N5  UNL     1      -0.240   0.842  -0.217  1.00  0.00    -0.176 N 
ATOM     11  H5  UNL     1       0.296   1.669  -0.481  1.00  0.00     0.186 HD
ENDROOT
BRANCH   9  12
HETATM   12  N3  UNL     1       1.680  -0.503  -0.867  1.00  0.00    -0.292 N 
ATOM     13  H3  UNL     1       1.860  -0.885  -1.795  1.00  0.00     0.188 HD
BRANCH  12  14
HETATM   14  N4  UNL     1       2.745  -0.127   0.009  1.00  0.00    -0.344 N 
ATOM     15  H42 UNL     1       2.549   0.254   0.935  1.00  0.00     0.176 HD
ATOM     16  H41 UNL     1       3.694  -0.260  -0.340  1.00  0.00     0.176 HD
ENDBRANCH  12  14
ENDBRANCH   9  12
TORSDOF 2
