REMARK  6 active torsions:
REMARK  status: ('A' for Active; 'I' for Inactive)
REMARK       I    between atoms: N1_2  and  C2_4 
REMARK       I    between atoms: C2_4  and  N2_6 
REMARK       I    between atoms: N2_6  and  C3_8 
REMARK    1  A    between atoms: C3_8  and  C4_10 
REMARK       I    between atoms: N3_17  and  C11_18 
REMARK    2  A    between atoms: C11_18  and  C12_20 
REMARK    3  A    between atoms: C12_20  and  C13_21 
REMARK    4  A    between atoms: C12_20  and  N4_25 
REMARK    5  A    between atoms: C13_21  and  C14_22 
REMARK       I    between atoms: N4_25  and  C15_27 
REMARK    6  A    between atoms: C15_27  and  C16_29 
ROOT
HETATM    1  C4  UNL     1       2.828  -0.672   0.732  1.00  0.00     0.101 C 
HETATM    2  C5  UNL     1       3.469  -1.884   1.351  1.00  0.00     0.018 C 
HETATM    3  C6  UNL     1       2.446  -2.833   1.913  1.00  0.00     0.026 C 
HETATM    4  C7  UNL     1       1.119  -2.806   1.252  1.00  0.00     0.087 C 
HETATM    5  C8  UNL     1       1.268  -3.320  -0.161  1.00  0.00     0.027 C 
HETATM    6  C9  UNL     1       1.736  -2.103  -0.922  1.00  0.00     0.028 C 
HETATM    7  C10 UNL     1       1.548  -0.930   0.050  1.00  0.00     0.100 C 
HETATM    8  N3  UNL     1       0.581  -1.462   0.998  1.00  0.00    -0.340 N 
HETATM    9  C11 UNL     1      -0.615  -0.912   1.500  1.00  0.00     0.243 C 
HETATM   10  O3  UNL     1      -1.346  -1.630   2.229  1.00  0.00    -0.271 OA
ENDROOT
BRANCH   9  11
HETATM   11  C12 UNL     1      -1.069   0.451   1.216  1.00  0.00     0.186 C 
BRANCH  11  12
HETATM   12  C13 UNL     1      -0.975   1.270   2.496  1.00  0.00     0.147 C 
BRANCH  12  13
HETATM   13  C14 UNL     1       0.348   1.381   3.086  1.00  0.00     0.175 C 
HETATM   14  O4  UNL     1       0.778   0.457   3.833  1.00  0.00    -0.648 OA
HETATM   15  O5  UNL     1       1.130   2.492   2.831  1.00  0.00    -0.648 OA
ENDBRANCH  12  13
ENDBRANCH  11  12
BRANCH  11  16
HETATM   16  N4  UNL     1      -2.493   0.448   0.818  1.00  0.00    -0.345 N 
HETATM   17  C15 UNL     1      -2.927   1.047  -0.386  1.00  0.00     0.253 C 
HETATM   18  O6  UNL     1      -2.038   1.591  -1.114  1.00  0.00    -0.270 OA
ATOM     19  H4  UNL     1      -3.179   0.003   1.428  1.00  0.00     0.163 HD
BRANCH  17  20
HETATM   20  C16 UNL     1      -4.285   1.095  -0.858  1.00  0.00     0.141 C 
HETATM   21  C17 UNL     1      -5.320   1.537   0.184  1.00  0.00     0.048 C 
HETATM   22  C18 UNL     1      -6.640   1.054  -0.400  1.00  0.00     0.010 C 
HETATM   23  C19 UNL     1      -6.232   0.306  -1.634  1.00  0.00     0.013 C 
HETATM   24  C20 UNL     1      -5.680   1.332  -2.609  1.00  0.00     0.174 C 
HETATM   25  C21 UNL     1      -4.888  -0.288  -1.173  1.00  0.00     0.054 C 
HETATM   26  O7  UNL     1      -4.470   1.748  -2.056  1.00  0.00    -0.370 OA
ENDBRANCH  17  20
ENDBRANCH  11  16
ENDBRANCH   9  11
BRANCH   1  27
HETATM   27  C3  UNL     1       3.717   0.163  -0.083  1.00  0.00     0.231 C 
HETATM   28  N2  UNL     1       4.736  -0.317  -0.934  1.00  0.00    -0.279 N 
HETATM   29  C2  UNL     1       5.560   0.486  -1.730  1.00  0.00     0.322 C 
ATOM     30  H2  UNL     1       4.883  -1.326  -0.971  1.00  0.00     0.173 HD
HETATM   31  N1  UNL     1       5.570   1.882  -1.862  1.00  0.00    -0.347 N 
HETATM   32  O1  UNL     1       6.430  -0.150  -2.437  1.00  0.00    -0.247 OA
HETATM   33  C1  UNL     1       6.551   2.485  -2.777  1.00  0.00     0.151 C 
ATOM     34  H1  UNL     1       4.915   2.463  -1.338  1.00  0.00     0.163 HD
HETATM   35  O2  UNL     1       3.504   1.424   0.023  1.00  0.00    -0.273 OA
ENDBRANCH   1  27
TORSDOF 6
