REMARK  10 active torsions:
REMARK  status: ('A' for Active; 'I' for Inactive)
REMARK    1  A    between atoms: C2_2  and  C3_3 
REMARK    2  A    between atoms: C3_3  and  N1_4 
REMARK       I    between atoms: N1_4  and  C4_6 
REMARK    3  A    between atoms: C4_6  and  C5_8 
REMARK    4  A    between atoms: C12_20  and  N4_21 
REMARK       I    between atoms: N4_21  and  C13_23 
REMARK       I    between atoms: C13_23  and  N5_25 
REMARK    5  A    between atoms: N5_25  and  C14_27 
REMARK    6  A    between atoms: C14_27  and  C15_28 
REMARK    7  A    between atoms: C15_28  and  C16_29 
REMARK    8  A    between atoms: C16_29  and  N6_30 
REMARK    9  A    between atoms: N6_30  and  C19_33 
REMARK   10  A    between atoms: C19_33  and  C20_34 
ROOT
HETATM    1  C5  UNL     1      -4.710  -0.363   0.068  1.00  0.00     0.208 C 
HETATM    2  N2  UNL     1      -4.878   0.914   0.763  1.00  0.00    -0.344 N 
ATOM      3  H2  UNL     1      -4.710   0.935   1.769  1.00  0.00     0.163 HD
HETATM    4  C6  UNL     1      -5.259   2.123   0.129  1.00  0.00     0.241 C 
HETATM    5  O2  UNL     1      -5.310   3.146   0.885  1.00  0.00    -0.271 OA
HETATM    6  C7  UNL     1      -5.601   2.363  -1.269  1.00  0.00     0.179 C 
HETATM    7  C8  UNL     1      -5.381   3.845  -1.557  1.00  0.00     0.037 C 
HETATM    8  C9  UNL     1      -4.771   3.938  -2.918  1.00  0.00     0.022 C 
HETATM    9  C10 UNL     1      -4.899   2.518  -3.459  1.00  0.00     0.127 C 
HETATM   10  N3  UNL     1      -4.759   1.747  -2.233  1.00  0.00    -0.337 N 
HETATM   11  C11 UNL     1      -3.929   0.613  -2.092  1.00  0.00     0.246 C 
HETATM   12  O3  UNL     1      -3.399   0.218  -3.162  1.00  0.00    -0.271 OA
HETATM   13  C12 UNL     1      -3.595  -0.161  -0.915  1.00  0.00     0.210 C 
ENDROOT
BRANCH  13  14
HETATM   14  N4  UNL     1      -2.438   0.442  -0.290  1.00  0.00    -0.327 N 
HETATM   15  C13 UNL     1      -1.203  -0.260  -0.206  1.00  0.00     0.316 C 
HETATM   16  O4  UNL     1      -1.150  -1.420  -0.694  1.00  0.00    -0.247 OA
HETATM   17  N5  UNL     1      -0.050   0.284   0.395  1.00  0.00    -0.343 N 
ATOM     18  H5  UNL     1      -0.073   1.222   0.796  1.00  0.00     0.164 HD
ATOM     19  H4  UNL     1      -2.508   1.384   0.096  1.00  0.00     0.165 HD
BRANCH  17  20
HETATM   20  C14 UNL     1       1.167  -0.497   0.439  1.00  0.00     0.126 C 
BRANCH  20  21
HETATM   21  C15 UNL     1       2.287   0.243   1.117  1.00  0.00     0.048 C 
BRANCH  21  22
HETATM   22  C16 UNL     1       3.550  -0.483   1.205  1.00  0.00     0.238 C 
BRANCH  22  23
HETATM   23  N6  UNL     1       4.303  -0.877   0.081  1.00  0.00    -0.074 N 
HETATM   24  C17 UNL     1       3.856  -0.539  -1.221  1.00  0.00     0.272 C 
HETATM   25  C18 UNL     1       4.167  -2.374   0.052  1.00  0.00     0.272 C 
BRANCH  23  26
HETATM   26  C19 UNL     1       5.732  -0.760   0.255  1.00  0.00     0.244 C 
BRANCH  26  27
HETATM   27  C20 UNL     1       6.467   0.466   0.152  1.00  0.00    -0.027 C 
HETATM   28  C21 UNL     1       6.127   1.606   1.087  1.00  0.00     0.016 C 
HETATM   29  C22 UNL     1       6.722   1.089  -1.191  1.00  0.00     0.016 C 
HETATM   30  C23 UNL     1       7.916   0.092   0.610  1.00  0.00     0.016 C 
ENDBRANCH  26  27
ENDBRANCH  23  26
ENDBRANCH  22  23
ENDBRANCH  21  22
ENDBRANCH  20  21
ENDBRANCH  17  20
ENDBRANCH  13  14
BRANCH   1  31
HETATM   31  C4  UNL     1      -4.367  -1.362   1.081  1.00  0.00     0.243 C 
HETATM   32  N1  UNL     1      -4.149  -2.710   0.686  1.00  0.00    -0.356 N 
ATOM     33  H1  UNL     1      -4.237  -2.953  -0.301  1.00  0.00     0.162 HD
HETATM   34  O1  UNL     1      -4.247  -1.107   2.310  1.00  0.00    -0.271 OA
BRANCH  32  35
HETATM   35  C3  UNL     1      -3.806  -3.753   1.634  1.00  0.00     0.149 C 
BRANCH  35  36
HETATM   36  C2  UNL     1      -4.860  -3.928   2.680  1.00  0.00    -0.018 C 
HETATM   37  C1  UNL     1      -4.563  -3.753   3.955  1.00  0.00     0.008 C 
ENDBRANCH  35  36
ENDBRANCH  32  35
ENDBRANCH   1  31
TORSDOF 10
