REMARK  3 active torsions:
REMARK  status: ('A' for Active; 'I' for Inactive)
REMARK    1  A    between atoms: C2_2  and  C3_3 
REMARK    2  A    between atoms: C3_3  and  N1_4 
REMARK       I    between atoms: N1_4  and  C4_6 
REMARK       I    between atoms: C4_6  and  N2_8 
REMARK    3  A    between atoms: N3_14  and  C10_15 
ROOT
HETATM    1  C10 UNL     1      -4.954  -0.544  -0.446  1.00  0.00     0.395 C 
HETATM    2  C11 UNL     1      -6.162   0.248  -0.380  1.00  0.00     0.089 C 
HETATM    3  N4  UNL     1      -7.115   0.894  -0.320  1.00  0.00    -0.195 NA
ENDROOT
BRANCH   1   4
HETATM    4  N3  UNL     1      -3.932  -0.083   0.472  1.00  0.00     0.102 N 
HETATM    5  C9  UNL     1      -3.385   1.186   0.131  1.00  0.00     0.274 C 
HETATM    6  C8  UNL     1      -1.898   1.079   0.074  1.00  0.00     0.041 C 
HETATM    7  C7  UNL     1      -1.591  -0.384   0.222  1.00  0.00    -0.009 C 
HETATM    8  C6  UNL     1      -1.155  -1.029  -1.057  1.00  0.00     0.031 C 
HETATM    9  C12 UNL     1      -2.874  -1.014   0.681  1.00  0.00     0.283 C 
HETATM   10  C13 UNL     1      -0.539  -0.528   1.309  1.00  0.00     0.031 C 
HETATM   11  C5  UNL     1       0.278  -1.402  -1.116  1.00  0.00     0.128 C 
HETATM   12  N2  UNL     1       1.180  -0.611  -0.322  1.00  0.00    -0.334 N 
HETATM   13  C4  UNL     1       2.562  -0.626  -0.592  1.00  0.00     0.318 C 
HETATM   14  C14 UNL     1       0.692   0.207   0.761  1.00  0.00     0.128 C 
HETATM   15  N1  UNL     1       3.503   0.139   0.138  1.00  0.00    -0.340 N 
HETATM   16  O1  UNL     1       2.980  -1.362  -1.535  1.00  0.00    -0.247 OA
ATOM     17  H1  UNL     1       3.186   0.738   0.900  1.00  0.00     0.164 HD
BRANCH  15  18
HETATM   18  C3  UNL     1       4.931   0.076  -0.194  1.00  0.00     0.150 C 
BRANCH  18  19
HETATM   19  C2  UNL     1       5.719   0.950   0.698  1.00  0.00    -0.018 C 
HETATM   20  C1  UNL     1       6.458   1.949   0.245  1.00  0.00     0.008 C 
ENDBRANCH  18  19
ENDBRANCH  15  18
ENDBRANCH   1   4
TORSDOF 3
