REMARK  1 active torsions:
REMARK  status: ('A' for Active; 'I' for Inactive)
REMARK    1  A    between atoms: N2_6  and  C5_7 
ROOT
HETATM    1  C1  UNL     1      -1.335  -0.674   1.104  1.00  0.00     0.273 C 
HETATM    2  N1  UNL     1      -0.840   0.076  -0.028  1.00  0.00    -0.062 N 
HETATM    3  C2  UNL     1      -1.995   0.288  -0.915  1.00  0.00     0.273 C 
HETATM    4  C3  UNL     1      -0.288   1.353   0.327  1.00  0.00     0.252 C 
HETATM    5  C4  UNL     1       1.155   1.325  -0.138  1.00  0.00     0.126 C 
HETATM    6  N2  UNL     1       1.455  -0.068  -0.386  1.00  0.00    -0.254 NA
HETATM    7  C6  UNL     1       0.188  -0.629  -0.726  1.00  0.00     0.334 C 
ENDROOT
BRANCH   6   8
HETATM    8  C5  UNL     1       2.096  -0.661   0.709  1.00  0.00     0.145 C 
HETATM    9  N3  UNL     1       2.347  -1.897   0.733  1.00  0.00    -0.399 N 
ATOM     10  H32 UNL     1       2.071  -2.462  -0.070  1.00  0.00     0.156 HD
ATOM     11  H31 UNL     1       2.814  -2.329   1.530  1.00  0.00     0.156 HD
ENDBRANCH   6   8
TORSDOF 1
