REMARK  11 active torsions:
REMARK  status: ('A' for Active; 'I' for Inactive)
REMARK    1  A    between atoms: N1_1  and  C1_5 
REMARK    2  A    between atoms: C1_5  and  C2_6 
REMARK    3  A    between atoms: C2_6  and  N2_7 
REMARK    4  A    between atoms: N2_7  and  C3_10 
REMARK    5  A    between atoms: C3_10  and  O1_11 
REMARK    6  A    between atoms: O1_11  and  C4_12 
REMARK    7  A    between atoms: C4_12  and  N3_13 
REMARK    8  A    between atoms: C5_14  and  C6_15 
REMARK    9  A    between atoms: C6_15  and  C7_16 
REMARK   10  A    between atoms: C7_16  and  N4_17 
REMARK   11  A    between atoms: C10_28  and  O3_29 
ROOT
HETATM    1  N3  UNL     1      -1.521  -0.173  -0.715  1.00  0.00    -0.298 N 
HETATM    2  C5  UNL     1      -2.418  -0.870   0.007  1.00  0.00     0.089 A 
HETATM    3  N5  UNL     1      -3.538  -0.129   0.064  1.00  0.00    -0.338 N 
ATOM      4  H5  UNL     1      -4.393  -0.405   0.548  1.00  0.00     0.167 HD
HETATM    5  C8  UNL     1      -3.377   1.020  -0.601  1.00  0.00     0.147 A 
HETATM    6  C9  UNL     1      -4.216   2.103  -0.835  1.00  0.00     0.279 A 
HETATM    7  O2  UNL     1      -5.370   2.093  -0.370  1.00  0.00    -0.265 OA
HETATM    8  N6  UNL     1      -3.718   3.125  -1.568  1.00  0.00    -0.287 N 
ATOM      9  H6  UNL     1      -4.314   3.932  -1.754  1.00  0.00     0.172 HD
HETATM   10  C10 UNL     1      -2.462   3.118  -2.063  1.00  0.00     0.225 A 
HETATM   11  N7  UNL     1      -1.659   2.043  -1.820  1.00  0.00    -0.306 N 
ATOM     12  H7  UNL     1      -0.710   2.034  -2.193  1.00  0.00     0.171 HD
HETATM   13  C11 UNL     1      -2.092   0.999  -1.102  1.00  0.00     0.146 A 
ENDROOT
BRANCH   1  14
HETATM   14  C4  UNL     1      -0.163  -0.586  -1.040  1.00  0.00     0.303 C 
BRANCH  14  15
HETATM   15  O1  UNL     1       0.749  -0.170  -0.095  1.00  0.00    -0.345 OA
BRANCH  15  16
HETATM   16  C3  UNL     1       2.036  -0.578  -0.431  1.00  0.00     0.401 C 
BRANCH  16  17
HETATM   17  N2  UNL     1       2.931  -0.091   0.630  1.00  0.00    -0.053 N 
ATOM     18  H22 UNL     1       2.657  -0.383   1.568  1.00  0.00     0.279 HD
ATOM     19  H21 UNL     1       2.866   0.913   0.796  1.00  0.00     0.279 HD
BRANCH  17  20
HETATM   20  C2  UNL     1       4.272  -0.543   0.235  1.00  0.00     0.262 C 
BRANCH  20  21
HETATM   21  C1  UNL     1       5.221  -0.054   1.314  1.00  0.00     0.257 C 
BRANCH  21  22
HETATM   22  N1  UNL     1       6.549  -0.496   0.932  1.00  0.00    -0.078 N 
ATOM     23  H13 UNL     1       6.608  -1.501   0.769  1.00  0.00     0.274 HD
ATOM     24  H12 UNL     1       6.818  -0.199  -0.006  1.00  0.00     0.274 HD
ATOM     25  H11 UNL     1       7.187  -0.167   1.657  1.00  0.00     0.274 HD
ENDBRANCH  21  22
ENDBRANCH  20  21
ENDBRANCH  17  20
ENDBRANCH  16  17
ENDBRANCH  15  16
ENDBRANCH  14  15
ENDBRANCH   1  14
BRANCH   2  26
HETATM   26  C6  UNL     1      -2.176  -2.214   0.614  1.00  0.00     0.104 C 
BRANCH  26  27
HETATM   27  C7  UNL     1      -1.638  -2.028   1.999  1.00  0.00     0.237 C 
BRANCH  27  28
HETATM   28  N4  UNL     1      -2.625  -1.291   2.771  1.00  0.00    -0.079 N 
ATOM     29  H43 UNL     1      -2.893  -0.411   2.331  1.00  0.00     0.274 HD
ATOM     30  H42 UNL     1      -3.544  -1.734   2.761  1.00  0.00     0.274 HD
ATOM     31  H41 UNL     1      -2.259  -1.164   3.714  1.00  0.00     0.274 HD
ENDBRANCH  27  28
ENDBRANCH  26  27
ENDBRANCH   2  26
BRANCH  10  32
HETATM   32  O3  UNL     1      -1.939   4.145  -2.809  1.00  0.00    -0.332 OA
ATOM     33  H3  UNL     1      -1.055   4.140  -3.157  1.00  0.00     0.221 HD
ENDBRANCH  10  32
TORSDOF 11
