REMARK  4 active torsions:
REMARK  status: ('A' for Active; 'I' for Inactive)
REMARK    1  A    between atoms: C5_5  and  C6_6 
REMARK    2  A    between atoms: C6_6  and  N1_8 
REMARK    3  A    between atoms: N1_8  and  C7_10 
REMARK    4  A    between atoms: C7_10  and  C8_11 
ROOT
HETATM    1  C6  UNL     1       0.027   0.016  -1.154  1.00  0.00     0.103 C 
HETATM    2  S1  UNL     1       0.288   0.441  -2.728  1.00  0.00    -0.060 SA
ENDROOT
BRANCH   1   3
HETATM    3  C5  UNL     1       1.146  -0.471  -0.311  1.00  0.00    -0.017 A 
HETATM    4  C4  UNL     1       1.012  -0.813   1.135  1.00  0.00     0.043 A 
HETATM    5  C3  UNL     1       2.360  -1.300   1.595  1.00  0.00     0.019 A 
HETATM    6  C2  UNL     1       3.258  -1.115   0.470  1.00  0.00    -0.007 A 
HETATM    7  C1  UNL     1       3.761  -2.486   0.013  1.00  0.00     0.021 C 
HETATM    8  C17 UNL     1       2.379  -0.641  -0.661  1.00  0.00    -0.061 A 
HETATM    9  C23 UNL     1       4.451  -0.244   0.646  1.00  0.00     0.063 C 
HETATM   10  C18 UNL     1       3.166  -0.475  -1.942  1.00  0.00     0.036 C 
HETATM   11  C19 UNL     1       4.160   0.631  -1.633  1.00  0.00     0.010 C 
HETATM   12  C20 UNL     1       5.142   0.112  -0.631  1.00  0.00     0.001 C 
HETATM   13  C21 UNL     1       6.074   1.255  -0.288  1.00  0.00     0.016 C 
HETATM   14  C22 UNL     1       5.229   2.383   0.262  1.00  0.00     0.075 C 
HETATM   15  S2  UNL     1       4.005   1.430   1.250  1.00  0.00    -0.163 SA
ENDBRANCH   1   3
BRANCH   1  16
HETATM   16  N1  UNL     1      -1.300   0.131  -0.715  1.00  0.00    -0.380 N 
ATOM     17  H1  UNL     1      -1.949   0.493  -1.413  1.00  0.00     0.160 HD
BRANCH  16  18
HETATM   18  C7  UNL     1      -1.890  -0.173   0.540  1.00  0.00     0.130 C 
BRANCH  18  19
HETATM   19  C8  UNL     1      -3.358   0.179   0.608  1.00  0.00    -0.020 C 
HETATM   20  C9  UNL     1      -3.658   1.628   0.386  1.00  0.00     0.016 C 
HETATM   21  C10 UNL     1      -5.142   1.532  -0.009  1.00  0.00    -0.013 C 
HETATM   22  C11 UNL     1      -5.892   1.027   1.190  1.00  0.00     0.009 C 
HETATM   23  C15 UNL     1      -5.026   0.451  -1.091  1.00  0.00     0.010 C 
HETATM   24  C12 UNL     1      -5.355  -0.263   1.715  1.00  0.00    -0.013 C 
HETATM   25  C13 UNL     1      -5.283  -1.291   0.576  1.00  0.00     0.010 C 
HETATM   26  C16 UNL     1      -3.853  -0.144   2.022  1.00  0.00     0.016 C 
HETATM   27  C14 UNL     1      -4.231  -0.606  -0.309  1.00  0.00    -0.004 C 
ENDBRANCH  18  19
ENDBRANCH  16  18
ENDBRANCH   1  16
TORSDOF 4
