REMARK  4 active torsions:
REMARK  status: ('A' for Active; 'I' for Inactive)
REMARK    1  A    between atoms: C2_5  and  N2_6 
REMARK    2  A    between atoms: N2_6  and  N3_8 
REMARK    3  A    between atoms: N3_8  and  C3_10 
REMARK    4  A    between atoms: C3_10  and  C4_11 
ROOT
HETATM    1  O1  UNL     1      -4.765  -1.907   0.369  1.00  0.00    -0.246 OA
HETATM    2  C1  UNL     1      -3.832  -1.060   0.323  1.00  0.00     0.341 C 
HETATM    3  N1  UNL     1      -2.627  -1.599   0.021  1.00  0.00    -0.140 N 
ATOM      4  H1  UNL     1      -2.573  -2.617  -0.003  1.00  0.00     0.189 HD
HETATM    5  C2  UNL     1      -1.489  -0.924  -0.252  1.00  0.00     0.703 C 
HETATM    6  N6  UNL     1      -1.388   0.384  -0.548  1.00  0.00    -0.150 N 
ATOM      7  H6  UNL     1      -0.544   0.646  -1.057  1.00  0.00     0.188 HD
HETATM    8  C7  UNL     1      -2.233   1.409  -0.276  1.00  0.00     0.328 C 
HETATM    9  O3  UNL     1      -1.869   2.544  -0.681  1.00  0.00    -0.261 OA
HETATM   10  C8  UNL     1      -3.445   1.335   0.396  1.00  0.00     0.318 C 
HETATM   11  O4  UNL     1      -3.866   2.425   0.868  1.00  0.00    -0.262 OA
HETATM   12  N7  UNL     1      -4.186   0.222   0.578  1.00  0.00    -0.270 N 
ATOM     13  H7  UNL     1      -5.124   0.363   0.952  1.00  0.00     0.174 HD
ENDROOT
BRANCH   5  14
HETATM   14  N2  UNL     1      -0.410  -1.628  -0.217  1.00  0.00    -0.132 N 
ATOM     15  H2  UNL     1      -0.431  -2.624   0.003  1.00  0.00     0.205 HD
BRANCH  14  16
HETATM   16  N3  UNL     1       0.789  -0.968  -0.493  1.00  0.00    -0.297 N 
ATOM     17  H3  UNL     1       1.144  -0.953  -1.449  1.00  0.00     0.186 HD
BRANCH  16  18
HETATM   18  C3  UNL     1       1.453  -0.379   0.437  1.00  0.00     0.126 C 
BRANCH  18  19
HETATM   19  C4  UNL     1       2.701   0.300   0.113  1.00  0.00     0.067 A 
HETATM   20  C5  UNL     1       3.520   0.976   1.014  1.00  0.00     0.125 A 
HETATM   21  N4  UNL     1       4.558   1.448   0.296  1.00  0.00    -0.308 N 
HETATM   22  N5  UNL     1       4.410   1.094  -0.986  1.00  0.00    -0.266 N 
ATOM     23  H4  UNL     1       5.336   1.991   0.671  1.00  0.00     0.186 HD
HETATM   24  C6  UNL     1       3.278   0.387  -1.134  1.00  0.00     0.272 A 
ATOM     25  H5  UNL     1       5.059   1.326  -1.738  1.00  0.00     0.190 HD
HETATM   26  O2  UNL     1       2.809  -0.113  -2.189  1.00  0.00    -0.266 OA
ENDBRANCH  18  19
ENDBRANCH  16  18
ENDBRANCH  14  16
ENDBRANCH   5  14
TORSDOF 4
