REMARK  4 active torsions:
REMARK  status: ('A' for Active; 'I' for Inactive)
REMARK    1  A    between atoms: N1_2  and  C2_4 
REMARK    2  A    between atoms: N4_12  and  C6_13 
REMARK    3  A    between atoms: C6_13  and  N5_14 
REMARK    4  A    between atoms: C9_24  and  N9_25 
ROOT
HETATM    1  N5  UNL     1       1.367  -1.392   0.080  1.00  0.00    -0.216 N 
HETATM    2  N6  UNL     1       1.671  -2.162   1.126  1.00  0.00    -0.233 N 
ATOM      3  H6  UNL     1       1.198  -3.033   1.367  1.00  0.00     0.209 HD
HETATM    4  N7  UNL     1       2.657  -1.641   1.793  1.00  0.00    -0.277 N 
ATOM      5  H7  UNL     1       3.071  -2.043   2.634  1.00  0.00     0.189 HD
HETATM    6  C7  UNL     1       3.051  -0.496   1.214  1.00  0.00     0.165 A 
HETATM    7  C8  UNL     1       4.046   0.409   1.518  1.00  0.00     0.291 A 
HETATM    8  O2  UNL     1       4.809   0.294   2.506  1.00  0.00    -0.265 OA
HETATM    9  N8  UNL     1       4.196   1.464   0.706  1.00  0.00    -0.154 N 
ATOM     10  H8  UNL     1       4.920   2.156   0.897  1.00  0.00     0.187 HD
HETATM   11  C9  UNL     1       3.390   1.609  -0.362  1.00  0.00     0.680 A 
HETATM   12  N10 UNL     1       2.426   0.727  -0.650  1.00  0.00    -0.172 N 
ATOM     13  H10 UNL     1       1.843   0.885  -1.472  1.00  0.00     0.186 HD
HETATM   14  C10 UNL     1       2.199  -0.360   0.106  1.00  0.00     0.178 A 
ENDROOT
BRANCH   1  15
HETATM   15  C6  UNL     1       0.284  -1.640  -0.849  1.00  0.00     0.237 C 
BRANCH  15  16
HETATM   16  N4  UNL     1      -1.019  -1.287  -0.383  1.00  0.00    -0.231 N 
HETATM   17  C2  UNL     1      -1.589  -0.123  -0.682  1.00  0.00     0.125 A 
HETATM   18  C3  UNL     1      -2.857   0.182  -0.162  1.00  0.00     0.082 A 
HETATM   19  C4  UNL     1      -3.499  -0.725   0.651  1.00  0.00     0.119 A 
HETATM   20  N2  UNL     1      -4.782  -0.419   1.178  1.00  0.00    -0.096 NA
HETATM   21  C5  UNL     1      -2.833  -1.892   0.898  1.00  0.00     0.284 A 
HETATM   22  O1  UNL     1      -3.444  -2.726   1.655  1.00  0.00    -0.265 OA
HETATM   23  N3  UNL     1      -1.634  -2.189   0.412  1.00  0.00    -0.256 N 
ATOM     24  H3  UNL     1      -1.187  -3.079   0.634  1.00  0.00     0.191 HD
BRANCH  17  25
HETATM   25  N1  UNL     1      -1.086   0.761  -1.450  1.00  0.00    -0.379 N 
HETATM   26  C1  UNL     1      -1.779   1.977  -1.752  1.00  0.00     0.147 C 
ATOM     27  H1  UNL     1      -0.166   0.598  -1.860  1.00  0.00     0.160 HD
ENDBRANCH  17  25
ENDBRANCH  15  16
ENDBRANCH   1  15
BRANCH  11  28
HETATM   28  N9  UNL     1       3.527   2.638  -1.165  1.00  0.00    -0.234 N 
ATOM     29  H92 UNL     1       4.262   3.310  -0.945  1.00  0.00     0.174 HD
ATOM     30  H91 UNL     1       2.916   2.748  -1.974  1.00  0.00     0.174 HD
ENDBRANCH  11  28
TORSDOF 4
