REMARK  15 active torsions:
REMARK  status: ('A' for Active; 'I' for Inactive)
REMARK       I    between atoms: C1_4  and  N3_6 
REMARK    1  A    between atoms: N3_6  and  C2_8 
REMARK    2  A    between atoms: C2_8  and  C3_9 
REMARK    3  A    between atoms: C3_9  and  C4_10 
REMARK    4  A    between atoms: C4_10  and  C5_11 
REMARK    5  A    between atoms: C5_11  and  C6_12 
REMARK    6  A    between atoms: C6_12  and  N4_13 
REMARK    7  A    between atoms: C6_12  and  C20_47 
REMARK    8  A    between atoms: N4_13  and  C7_15 
REMARK    9  A    between atoms: C8_18  and  C9_19 
REMARK       I    between atoms: C9_19  and  N6_21 
REMARK   10  A    between atoms: N6_21  and  C10_23 
REMARK   11  A    between atoms: C10_23  and  C11_24 
REMARK   12  A    between atoms: C16_30  and  N7_31 
REMARK   13  A    between atoms: N7_31  and  C17_33 
REMARK   14  A    between atoms: C19_39  and  N10_40 
REMARK       I    between atoms: C20_47  and  N13_49 
REMARK   15  A    between atoms: N13_49  and  C21_51 
ROOT
HETATM    1  C7  UNL     1       0.322  -1.755  -0.446  1.00  0.00     0.681 A 
HETATM    2  N5  UNL     1       1.046  -0.704  -0.856  1.00  0.00    -0.186 N 
ATOM      3  H5  UNL     1       0.782   0.229  -0.538  1.00  0.00     0.184 HD
HETATM    4  C8  UNL     1       2.101  -0.834  -1.666  1.00  0.00     0.120 A 
HETATM    5  C15 UNL     1       2.418  -2.122  -2.071  1.00  0.00     0.085 A 
HETATM    6  C16 UNL     1       1.698  -3.238  -1.672  1.00  0.00     0.139 A 
HETATM    7  N12 UNL     1       0.661  -2.989  -0.860  1.00  0.00    -0.176 N 
ATOM      8  H12 UNL     1       0.099  -3.777  -0.539  1.00  0.00     0.186 HD
ENDROOT
BRANCH   1   9
HETATM    9  N4  UNL     1      -0.679  -1.664   0.315  1.00  0.00    -0.213 N 
ATOM     10  H4  UNL     1      -1.164  -2.524   0.572  1.00  0.00     0.178 HD
BRANCH   9  11
HETATM   11  C6  UNL     1      -1.201  -0.371   0.866  1.00  0.00     0.192 C 
BRANCH  11  12
HETATM   12  C5  UNL     1      -0.406  -0.181   2.110  1.00  0.00     0.035 C 
BRANCH  12  13
HETATM   13  C4  UNL     1      -0.585   1.000   2.952  1.00  0.00     0.004 C 
BRANCH  13  14
HETATM   14  C3  UNL     1      -1.913   1.241   3.564  1.00  0.00     0.020 C 
BRANCH  14  15
HETATM   15  C2  UNL     1      -1.866   2.500   4.454  1.00  0.00     0.122 C 
BRANCH  15  16
HETATM   16  N3  UNL     1      -3.175   2.717   5.052  1.00  0.00    -0.365 N 
HETATM   17  C1  UNL     1      -3.660   1.810   6.016  1.00  0.00     0.181 C 
HETATM   18  N1  UNL     1      -4.458   0.844   5.737  1.00  0.00    -0.374 N 
HETATM   19  N2  UNL     1      -3.242   1.973   7.367  1.00  0.00    -0.064 NA
ATOM     20  H12 UNL     1      -4.809   0.188   6.435  1.00  0.00     0.158 HD
ATOM     21  H11 UNL     1      -4.758   0.727   4.769  1.00  0.00     0.158 HD
ATOM     22  H3  UNL     1      -3.738   3.521   4.775  1.00  0.00     0.162 HD
ENDBRANCH  15  16
ENDBRANCH  14  15
ENDBRANCH  13  14
ENDBRANCH  12  13
ENDBRANCH  11  12
BRANCH  11  23
HETATM   23  C20 UNL     1      -2.600  -0.726   1.187  1.00  0.00     0.259 C 
HETATM   24  O2  UNL     1      -2.748  -1.717   1.989  1.00  0.00    -0.270 OA
HETATM   25  N13 UNL     1      -3.732  -0.110   0.712  1.00  0.00    -0.155 N 
ATOM     26  H13 UNL     1      -4.591  -0.531   1.066  1.00  0.00     0.187 HD
BRANCH  25  27
HETATM   27  C21 UNL     1      -3.944   0.860  -0.064  1.00  0.00     0.716 A 
HETATM   28  N14 UNL     1      -3.080   1.649  -0.708  1.00  0.00    -0.115 N 
HETATM   29  N15 UNL     1      -3.763   2.533  -1.410  1.00  0.00    -0.213 N 
ATOM     30  H14 UNL     1      -2.063   1.580  -0.664  1.00  0.00     0.207 HD
HETATM   31  N16 UNL     1      -5.053   2.350  -1.246  1.00  0.00    -0.213 N 
ATOM     32  H15 UNL     1      -3.348   3.256  -1.997  1.00  0.00     0.210 HD
HETATM   33  N17 UNL     1      -5.177   1.331  -0.426  1.00  0.00    -0.115 N 
ATOM     34  H16 UNL     1      -5.807   2.890  -1.670  1.00  0.00     0.210 HD
ATOM     35  H17 UNL     1      -6.065   0.946  -0.105  1.00  0.00     0.207 HD
ENDBRANCH  25  27
ENDBRANCH  11  23
ENDBRANCH   9  11
ENDBRANCH   1   9
BRANCH   4  36
HETATM   36  C9  UNL     1       2.919   0.275  -2.118  1.00  0.00     0.268 C 
HETATM   37  O1  UNL     1       3.828  -0.036  -2.958  1.00  0.00    -0.266 OA
HETATM   38  N6  UNL     1       2.725   1.574  -1.667  1.00  0.00    -0.355 N 
ATOM     39  H6  UNL     1       1.974   1.667  -0.983  1.00  0.00     0.162 HD
BRANCH  38  40
HETATM   40  C10 UNL     1       3.374   2.796  -1.978  1.00  0.00     0.138 C 
BRANCH  40  41
HETATM   41  C11 UNL     1       3.189   3.319  -3.326  1.00  0.00     0.065 C 
HETATM   42  C12 UNL     1       3.623   2.557  -4.523  1.00  0.00     0.017 C 
HETATM   43  C13 UNL     1       3.530   3.566  -5.687  1.00  0.00     0.011 C 
HETATM   44  C14 UNL     1       4.553   4.622  -5.372  1.00  0.00     0.074 C 
HETATM   45  S1  UNL     1       4.257   4.831  -3.575  1.00  0.00    -0.163 SA
ENDBRANCH  40  41
ENDBRANCH  38  40
ENDBRANCH   4  36
BRANCH   6  46
HETATM   46  N7  UNL     1       2.019  -4.427  -2.064  1.00  0.00    -0.175 N 
ATOM     47  H7  UNL     1       2.825  -4.523  -2.681  1.00  0.00     0.186 HD
BRANCH  46  48
HETATM   48  C17 UNL     1       1.333  -5.596  -1.698  1.00  0.00     0.699 A 
HETATM   49  N8  UNL     1       0.572  -6.284  -2.580  1.00  0.00    -0.186 N 
HETATM   50  C18 UNL     1      -0.057  -7.396  -2.170  1.00  0.00     0.215 A 
ATOM     51  H8  UNL     1       0.478  -5.962  -3.543  1.00  0.00     0.185 HD
HETATM   52  N9  UNL     1       0.029  -7.872  -0.906  1.00  0.00    -0.187 N 
HETATM   53  C19 UNL     1       0.784  -7.181  -0.047  1.00  0.00     0.691 A 
ATOM     54  H9  UNL     1      -0.461  -8.720  -0.622  1.00  0.00     0.185 HD
HETATM   55  N11 UNL     1       1.431  -6.052  -0.437  1.00  0.00    -0.022 N 
ATOM     56  H11 UNL     1       2.001  -5.542   0.238  1.00  0.00     0.203 HD
BRANCH  53  57
HETATM   57  N10 UNL     1       0.868  -7.629   1.156  1.00  0.00    -0.234 N 
ATOM     58 2H10 UNL     1       0.382  -8.477   1.449  1.00  0.00     0.174 HD
ATOM     59 1H10 UNL     1       1.444  -7.102   1.812  1.00  0.00     0.174 HD
ENDBRANCH  53  57
ENDBRANCH  46  48
ENDBRANCH   6  46
TORSDOF 15
