REMARK  12 active torsions:
REMARK  status: ('A' for Active; 'I' for Inactive)
REMARK    1  A    between atoms: N1_1  and  C1_4 
REMARK    2  A    between atoms: N3_8  and  C3_10 
REMARK    3  A    between atoms: C3_10  and  C4_11 
REMARK    4  A    between atoms: C7_14  and  C8_15 
REMARK       I    between atoms: C8_15  and  N4_17 
REMARK    5  A    between atoms: N4_17  and  C9_19 
REMARK    6  A    between atoms: C9_19  and  C10_20 
REMARK       I    between atoms: C10_20  and  N5_22 
REMARK    7  A    between atoms: N5_22  and  C11_24 
REMARK    8  A    between atoms: C12_25  and  O3_26 
REMARK    9  A    between atoms: C12_25  and  N6_28 
REMARK   10  A    between atoms: N6_28  and  C13_30 
REMARK   11  A    between atoms: C15_32  and  C16_33 
REMARK   12  A    between atoms: C16_33  and  N7_34 
ROOT
HETATM    1  C4  UNL     1       3.517  -0.840  -0.237  1.00  0.00     0.030 A 
HETATM    2  C5  UNL     1       3.058   0.439  -0.105  1.00  0.00     0.028 A 
HETATM    3  C6  UNL     1       1.760   0.806  -0.175  1.00  0.00     0.025 A 
HETATM    4  C7  UNL     1       0.782  -0.188  -0.401  1.00  0.00     0.100 A 
HETATM    5  C17 UNL     1       1.269  -1.464  -0.530  1.00  0.00     0.261 A 
HETATM    6  O4  UNL     1       0.448  -2.419  -0.735  1.00  0.00    -0.267 OA
HETATM    7  N10 UNL     1       2.596  -1.787  -0.451  1.00  0.00    -0.325 N 
ATOM      8  H10 UNL     1       2.886  -2.759  -0.556  1.00  0.00     0.169 HD
ENDROOT
BRANCH   4   9
HETATM    9  C8  UNL     1      -0.606   0.202  -0.491  1.00  0.00     0.257 C 
HETATM   10  O1  UNL     1      -0.889   1.409  -0.178  1.00  0.00    -0.267 OA
HETATM   11  N4  UNL     1      -1.688  -0.595  -0.887  1.00  0.00    -0.348 N 
ATOM     12  H4  UNL     1      -1.514  -1.567  -1.144  1.00  0.00     0.163 HD
BRANCH  11  13
HETATM   13  C9  UNL     1      -3.056  -0.087  -0.946  1.00  0.00     0.226 C 
BRANCH  13  14
HETATM   14  C10 UNL     1      -3.250   1.008  -1.893  1.00  0.00     0.239 C 
HETATM   15  O2  UNL     1      -2.322   1.465  -2.606  1.00  0.00    -0.271 OA
HETATM   16  N5  UNL     1      -4.514   1.624  -2.063  1.00  0.00    -0.332 N 
ATOM     17  H5  UNL     1      -4.606   2.361  -2.762  1.00  0.00     0.168 HD
BRANCH  16  18
HETATM   18  C11 UNL     1      -5.579   1.287  -1.358  1.00  0.00     0.146 C 
HETATM   19  C12 UNL     1      -6.789   1.977  -1.620  1.00  0.00     0.157 C 
BRANCH  19  20
HETATM   20  O3  UNL     1      -6.711   2.894  -2.556  1.00  0.00    -0.345 OA
ATOM     21  H3  UNL     1      -7.522   3.356  -2.732  1.00  0.00     0.219 HD
ENDBRANCH  19  20
BRANCH  19  22
HETATM   22  N6  UNL     1      -8.035   1.846  -1.056  1.00  0.00    -0.321 N 
ATOM     23  H6  UNL     1      -8.754   2.464  -1.433  1.00  0.00     0.169 HD
BRANCH  22  24
HETATM   24  C13 UNL     1      -8.457   0.982  -0.035  1.00  0.00     0.123 A 
HETATM   25  C14 UNL     1      -7.823   0.047   0.717  1.00  0.00     0.078 A 
HETATM   26  C15 UNL     1      -8.744  -0.545   1.608  1.00  0.00     0.054 A 
HETATM   27  N8  UNL     1      -9.888   0.060   1.352  1.00  0.00    -0.302 N 
HETATM   28  N9  UNL     1      -9.769   0.953   0.407  1.00  0.00    -0.285 N 
ATOM     29  H8  UNL     1     -10.762  -0.146   1.835  1.00  0.00     0.186 HD
ATOM     30  H9  UNL     1     -10.525   1.538   0.050  1.00  0.00     0.188 HD
BRANCH  26  31
HETATM   31  C16 UNL     1      -8.386  -1.602   2.573  1.00  0.00     0.288 C 
BRANCH  31  32
HETATM   32  N7  UNL     1      -6.977  -1.913   2.505  1.00  0.00    -0.074 N 
ATOM     33  H73 UNL     1      -6.692  -2.158   1.557  1.00  0.00     0.274 HD
ATOM     34  H72 UNL     1      -6.402  -1.080   2.630  1.00  0.00     0.274 HD
ATOM     35  H71 UNL     1      -6.729  -2.644   3.172  1.00  0.00     0.274 HD
ENDBRANCH  31  32
ENDBRANCH  26  31
ENDBRANCH  22  24
ENDBRANCH  19  22
ENDBRANCH  16  18
ENDBRANCH  13  14
ENDBRANCH  11  13
ENDBRANCH   4   9
BRANCH   1  36
HETATM   36  C3  UNL     1       4.943  -1.225  -0.158  1.00  0.00     0.178 C 
BRANCH  36  37
HETATM   37  N3  UNL     1       5.810  -0.125   0.097  1.00  0.00    -0.368 N 
HETATM   38  C2  UNL     1       7.079  -0.085  -0.155  1.00  0.00     0.148 A 
HETATM   39  N2  UNL     1       7.753  -1.108  -0.704  1.00  0.00    -0.175 N 
HETATM   40  C18 UNL     1       7.823   1.057   0.140  1.00  0.00     0.123 A 
HETATM   41  C1  UNL     1       9.089  -1.016  -0.952  1.00  0.00     0.679 A 
ATOM     42  H2  UNL     1       7.257  -1.968  -0.939  1.00  0.00     0.186 HD
HETATM   43  N13 UNL     1       9.801   0.095  -0.662  1.00  0.00    -0.174 N 
HETATM   44  C20 UNL     1       9.173   1.148  -0.110  1.00  0.00     0.152 A 
ATOM     45  H13 UNL     1      10.801   0.134  -0.859  1.00  0.00     0.186 HD
HETATM   46  N12 UNL     1       9.645   2.341   0.263  1.00  0.00    -0.336 N 
HETATM   47  C19 UNL     1       8.583   3.033   0.763  1.00  0.00     0.182 A 
ATOM     48  H12 UNL     1      10.608   2.668   0.188  1.00  0.00     0.168 HD
HETATM   49  N11 UNL     1       7.485   2.242   0.683  1.00  0.00    -0.346 N 
ATOM     50  H11 UNL     1       6.547   2.504   0.987  1.00  0.00     0.167 HD
ATOM     51  H3  UNL     1       5.394   0.707   0.516  1.00  0.00     0.161 HD
BRANCH  41  52
HETATM   52  N1  UNL     1       9.700  -2.019  -1.479  1.00  0.00    -0.234 N 
ATOM     53  H12 UNL     1       9.162  -2.858  -1.698  1.00  0.00     0.174 HD
ATOM     54  H11 UNL     1      10.701  -1.950  -1.665  1.00  0.00     0.174 HD
ENDBRANCH  41  52
ENDBRANCH  36  37
ENDBRANCH   1  36
TORSDOF 12
