REMARK  10 active torsions:
REMARK  status: ('A' for Active; 'I' for Inactive)
REMARK    1  A    between atoms: N1_1  and  C1_4 
REMARK    2  A    between atoms: N5_12  and  C3_13 
REMARK    3  A    between atoms: C3_13  and  C4_14 
REMARK    4  A    between atoms: C4_14  and  C5_15 
REMARK    5  A    between atoms: C6_16  and  C7_17 
REMARK    6  A    between atoms: C7_17  and  C8_19 
REMARK    7  A    between atoms: C11_27  and  C12_28 
REMARK    8  A    between atoms: N9_31  and  N10_32 
REMARK    9  A    between atoms: N10_32  and  N11_34 
REMARK   10  A    between atoms: C14_40  and  N14_41 
ROOT
HETATM    1  C5  UNL     1      -0.257  -0.329  -0.694  1.00  0.00     0.001 A 
HETATM    2  C6  UNL     1      -0.626   0.973  -0.793  1.00  0.00     0.089 A 
HETATM    3  N6  UNL     1      -1.932   1.292  -0.547  1.00  0.00    -0.336 N 
ATOM      4  H6  UNL     1      -2.202   2.273  -0.622  1.00  0.00     0.168 HD
HETATM    5  C9  UNL     1      -2.870   0.419  -0.219  1.00  0.00     0.160 A 
HETATM    6  C10 UNL     1      -2.492  -0.917  -0.122  1.00  0.00     0.105 A 
HETATM    7  N7  UNL     1      -3.623  -1.575   0.218  1.00  0.00    -0.332 N 
ATOM      8  H7  UNL     1      -3.675  -2.583   0.367  1.00  0.00     0.168 HD
HETATM    9  C11 UNL     1      -4.669  -0.742   0.336  1.00  0.00     0.197 A 
HETATM   10  N9  UNL     1      -4.183   0.499   0.060  1.00  0.00    -0.202 N 
HETATM   11  C13 UNL     1      -1.206  -1.324  -0.350  1.00  0.00     0.085 A 
HETATM   12  N12 UNL     1      -0.851  -2.688  -0.244  1.00  0.00    -0.099 NA
ENDROOT
BRANCH   1  13
HETATM   13  C4  UNL     1       1.115  -0.843  -0.802  1.00  0.00     0.066 C 
BRANCH  13  14
HETATM   14  C3  UNL     1       1.856  -0.870   0.532  1.00  0.00     0.177 C 
BRANCH  14  15
HETATM   15  N5  UNL     1       3.155  -1.496   0.440  1.00  0.00    -0.183 N 
HETATM   16  N4  UNL     1       3.315  -2.855   0.465  1.00  0.00    -0.210 N 
HETATM   17  N3  UNL     1       4.580  -3.151   0.403  1.00  0.00    -0.113 N 
ATOM     18  H4  UNL     1       2.556  -3.534   0.523  1.00  0.00     0.210 HD
HETATM   19  C2  UNL     1       5.286  -2.011   0.338  1.00  0.00     0.750 A 
ATOM     20  H3  UNL     1       4.971  -4.093   0.404  1.00  0.00     0.207 HD
HETATM   21  N2  UNL     1       6.601  -1.734   0.277  1.00  0.00    -0.018 N 
HETATM   22  N13 UNL     1       4.361  -1.006   0.366  1.00  0.00     0.110 N 
HETATM   23  C1  UNL     1       7.094  -0.486   0.242  1.00  0.00     0.705 A 
ATOM     24  H2  UNL     1       7.258  -2.514   0.256  1.00  0.00     0.203 HD
HETATM   25  N15 UNL     1       6.197   0.505   0.271  1.00  0.00    -0.020 N 
HETATM   26  C14 UNL     1       4.869   0.245   0.332  1.00  0.00     0.728 A 
ATOM     27  H15 UNL     1       6.518   1.473   0.247  1.00  0.00     0.203 HD
BRANCH  23  28
HETATM   28  N1  UNL     1       8.372  -0.264   0.183  1.00  0.00    -0.234 N 
ATOM     29  H12 UNL     1       9.056  -1.020   0.161  1.00  0.00     0.174 HD
ATOM     30  H11 UNL     1       8.747   0.684   0.156  1.00  0.00     0.174 HD
ENDBRANCH  23  28
BRANCH  26  31
HETATM   31  N14 UNL     1       4.031   1.226   0.410  1.00  0.00    -0.232 N 
ATOM     32 2H14 UNL     1       3.031   1.030   0.456  1.00  0.00     0.174 HD
ATOM     33 1H14 UNL     1       4.415   2.171   0.384  1.00  0.00     0.174 HD
ENDBRANCH  26  31
ENDBRANCH  14  15
ENDBRANCH  13  14
ENDBRANCH   1  13
BRANCH   2  34
HETATM   34  C7  UNL     1       0.212   2.079  -1.194  1.00  0.00     0.186 C 
HETATM   35  O1  UNL     1       1.445   1.882  -1.479  1.00  0.00    -0.290 OA
BRANCH  34  36
HETATM   36  C8  UNL     1      -0.212   3.482  -1.318  1.00  0.00     0.171 C 
HETATM   37  S1  UNL     1      -1.928   3.809  -0.924  1.00  0.00    -0.089 SA
ENDBRANCH  34  36
ENDBRANCH   2  34
BRANCH  10  38
HETATM   38  N10 UNL     1      -4.970   1.657   0.077  1.00  0.00    -0.239 N 
ATOM     39  H10 UNL     1      -5.058   2.185   0.945  1.00  0.00     0.208 HD
BRANCH  38  40
HETATM   40  N11 UNL     1      -5.634   2.105  -1.059  1.00  0.00    -0.330 N 
ATOM     41 2H11 UNL     1      -5.535   1.565  -1.919  1.00  0.00     0.178 HD
ATOM     42 1H11 UNL     1      -6.207   2.949  -1.047  1.00  0.00     0.178 HD
ENDBRANCH  38  40
ENDBRANCH  10  38
BRANCH   9  43
HETATM   43  C12 UNL     1      -6.049  -1.068   0.686  1.00  0.00     0.300 C 
HETATM   44  N8  UNL     1      -6.400  -2.416   0.946  1.00  0.00    -0.054 NA
HETATM   45  O2  UNL     1      -6.944  -0.197   0.766  1.00  0.00    -0.268 OA
ENDBRANCH   9  43
TORSDOF 10
