REMARK  13 active torsions:
REMARK  status: ('A' for Active; 'I' for Inactive)
REMARK    1  A    between atoms: C2_2  and  N1_4 
REMARK    2  A    between atoms: N1_4  and  C4_5 
REMARK    3  A    between atoms: N1_4  and  C21_38 
REMARK    4  A    between atoms: C4_5  and  C5_6 
REMARK    5  A    between atoms: C4_5  and  C17_26 
REMARK       I    between atoms: C5_6  and  N2_8 
REMARK    6  A    between atoms: N2_8  and  C6_10 
REMARK    7  A    between atoms: C6_10  and  C7_11 
REMARK    8  A    between atoms: C6_10  and  C8_14 
REMARK    9  A    between atoms: C6_10  and  C14_23 
REMARK   10  A    between atoms: C7_11  and  O2_12 
REMARK       I    between atoms: C8_14  and  N3_16 
REMARK   11  A    between atoms: N3_16  and  C9_18 
REMARK   12  A    between atoms: C18_29  and  C19_30 
REMARK   13  A    between atoms: C19_30  and  S1_31 
ROOT
HETATM    1  C4  UNL     1       1.782   0.304   0.870  1.00  0.00     0.255 C 
ENDROOT
BRANCH   1   2
HETATM    2  N1  UNL     1       2.428  -0.372  -0.171  1.00  0.00    -0.360 N 
BRANCH   2   3
HETATM    3  C2  UNL     1       2.288   0.072  -1.492  1.00  0.00    -0.021 C 
HETATM    4  C1  UNL     1       0.964  -0.121  -2.184  1.00  0.00     0.062 C 
HETATM    5  C3  UNL     1       3.450  -0.060  -2.440  1.00  0.00     0.062 C 
ENDBRANCH   2   3
BRANCH   2   6
HETATM    6  C21 UNL     1       3.012  -1.632   0.071  1.00  0.00     0.022 C 
HETATM    7  C22 UNL     1       4.414  -1.894  -0.335  1.00  0.00     0.037 C 
HETATM    8  C23 UNL     1       2.133  -2.691  -0.613  1.00  0.00     0.037 C 
HETATM    9  C24 UNL     1       2.967  -1.986   1.553  1.00  0.00     0.037 C 
ENDBRANCH   2   6
ENDBRANCH   1   2
BRANCH   1  10
HETATM   10  C5  UNL     1       0.276   0.432   0.853  1.00  0.00     0.249 C 
HETATM   11  O1  UNL     1      -0.109   1.412   0.180  1.00  0.00    -0.271 OA
HETATM   12  N2  UNL     1      -0.560  -0.439   1.511  1.00  0.00    -0.339 N 
ATOM     13  H2  UNL     1      -0.042  -1.155   2.021  1.00  0.00     0.164 HD
BRANCH  12  14
HETATM   14  C6  UNL     1      -1.985  -0.593   1.660  1.00  0.00     0.138 C 
BRANCH  14  15
HETATM   15  C7  UNL     1      -2.127  -1.906   2.471  1.00  0.00     0.205 C 
BRANCH  15  16
HETATM   16  O2  UNL     1      -3.385  -2.260   2.791  1.00  0.00    -0.398 OA
ATOM     17  H2  UNL     1      -3.472  -3.065   3.288  1.00  0.00     0.209 HD
ENDBRANCH  15  16
ENDBRANCH  14  15
BRANCH  14  18
HETATM   18  C8  UNL     1      -2.650  -0.681   0.370  1.00  0.00     0.249 C 
HETATM   19  O3  UNL     1      -2.298   0.135  -0.556  1.00  0.00    -0.271 OA
HETATM   20  N3  UNL     1      -3.675  -1.572  -0.044  1.00  0.00    -0.354 N 
ATOM     21  H3  UNL     1      -4.009  -2.268   0.622  1.00  0.00     0.162 HD
BRANCH  20  22
HETATM   22  C9  UNL     1      -4.270  -1.543  -1.363  1.00  0.00     0.084 C 
HETATM   23  C10 UNL     1      -5.718  -1.874  -1.416  1.00  0.00     0.025 C 
HETATM   24  C11 UNL     1      -5.984  -2.060  -2.889  1.00  0.00     0.002 C 
HETATM   25  C12 UNL     1      -4.699  -2.586  -3.447  1.00  0.00     0.002 C 
HETATM   26  C13 UNL     1      -3.693  -2.612  -2.291  1.00  0.00     0.025 C 
ENDBRANCH  20  22
ENDBRANCH  14  18
BRANCH  14  27
HETATM   27  C14 UNL     1      -2.619   0.477   2.509  1.00  0.00     0.017 C 
HETATM   28  C15 UNL     1      -2.494   1.871   2.020  1.00  0.00     0.012 C 
HETATM   29  C16 UNL     1      -4.078   0.184   2.718  1.00  0.00     0.012 C 
ENDBRANCH  14  27
ENDBRANCH  12  14
ENDBRANCH   1  10
BRANCH   1  30
HETATM   30  C17 UNL     1       2.295   1.707   1.086  1.00  0.00     0.180 A 
HETATM   31  N4  UNL     1       3.574   2.128   1.150  1.00  0.00    -0.324 N 
HETATM   32  C18 UNL     1       3.601   3.456   1.358  1.00  0.00     0.117 A 
ATOM     33  H4  UNL     1       4.395   1.531   1.055  1.00  0.00     0.169 HD
HETATM   34  N5  UNL     1       2.306   3.844   1.420  1.00  0.00    -0.246 N 
HETATM   35  O6  UNL     1       1.594   2.799   1.258  1.00  0.00    -0.220 OA
ATOM     36  H5  UNL     1       1.964   4.793   1.568  1.00  0.00     0.196 HD
BRANCH  32  37
HETATM   37  C19 UNL     1       4.731   4.398   1.510  1.00  0.00     0.218 C 
BRANCH  37  38
HETATM   38  S1  UNL     1       5.127   5.028  -0.117  1.00  0.00     0.147 S 
HETATM   39  C20 UNL     1       3.706   5.868  -0.800  1.00  0.00     0.161 C 
HETATM   40  O4  UNL     1       5.401   3.845  -1.022  1.00  0.00    -0.228 OA
HETATM   41  O5  UNL     1       6.286   5.953  -0.082  1.00  0.00    -0.228 OA
ENDBRANCH  37  38
ENDBRANCH  32  37
ENDBRANCH   1  30
TORSDOF 13
