REMARK  8 active torsions:
REMARK  status: ('A' for Active; 'I' for Inactive)
REMARK    1  A    between atoms: C2_2  and  N2_7 
REMARK    2  A    between atoms: N1_3  and  O1_5 
REMARK    3  A    between atoms: N2_7  and  S1_9 
REMARK    4  A    between atoms: S1_9  and  C3_12 
REMARK    5  A    between atoms: C6_15  and  N3_16 
REMARK    6  A    between atoms: N3_16  and  N4_18 
REMARK    7  A    between atoms: N6_24  and  N7_25 
REMARK       I    between atoms: N7_25  and  C9_27 
REMARK       I    between atoms: C9_27  and  N9_31 
REMARK    8  A    between atoms: N9_31  and  N10_33 
ROOT
HETATM    1  N4  UNL     1       1.040  -0.471   0.253  1.00  0.00    -0.281 N 
ATOM      2  H4  UNL     1       0.660  -0.559   1.196  1.00  0.00     0.188 HD
HETATM    3  C7  UNL     1       2.301  -0.245   0.072  1.00  0.00     0.188 C 
HETATM    4  N5  UNL     1       2.972  -0.099  -1.177  1.00  0.00    -0.353 N 
ATOM      5  H5  UNL     1       2.676  -0.461  -2.084  1.00  0.00     0.163 HD
HETATM    6  C8  UNL     1       4.169   0.676  -0.883  1.00  0.00     0.276 C 
HETATM    7  N6  UNL     1       4.556   0.147   0.417  1.00  0.00    -0.222 N 
HETATM    8  C10 UNL     1       3.326  -0.086   1.098  1.00  0.00     0.309 C 
HETATM    9  O6  UNL     1       3.188  -0.139   2.355  1.00  0.00    -0.262 OA
ENDROOT
BRANCH   1  10
HETATM   10  N3  UNL     1       0.215  -0.592  -0.848  1.00  0.00    -0.299 N 
ATOM     11  H3  UNL     1       0.560  -1.085  -1.672  1.00  0.00     0.187 HD
BRANCH  10  12
HETATM   12  C6  UNL     1      -1.092  -0.054  -0.870  1.00  0.00     0.048 A 
HETATM   13  C5  UNL     1      -1.581   0.606   0.236  1.00  0.00     0.032 A 
HETATM   14  C4  UNL     1      -2.851   1.155   0.267  1.00  0.00     0.027 A 
HETATM   15  C3  UNL     1      -3.672   1.049  -0.839  1.00  0.00     0.080 A 
HETATM   16  C12 UNL     1      -3.173   0.383  -1.950  1.00  0.00     0.027 A 
HETATM   17  C11 UNL     1      -1.912  -0.159  -1.972  1.00  0.00     0.032 A 
BRANCH  15  18
HETATM   18  S1  UNL     1      -5.279   1.737  -0.832  1.00  0.00     0.264 S 
HETATM   19  O2  UNL     1      -5.288   2.927   0.092  1.00  0.00    -0.200 OA
HETATM   20  O3  UNL     1      -5.642   2.222  -2.200  1.00  0.00    -0.200 OA
BRANCH  18  21
HETATM   21  N2  UNL     1      -6.448   0.618  -0.290  1.00  0.00    -0.268 N 
ATOM     22  H2  UNL     1      -7.186   0.360  -0.945  1.00  0.00     0.180 HD
BRANCH  21  23
HETATM   23  C2  UNL     1      -6.481   0.016   0.993  1.00  0.00     0.107 C 
HETATM   24  C1  UNL     1      -6.038  -1.380   1.200  1.00  0.00     0.091 C 
HETATM   25  N1  UNL     1      -6.908   0.709   1.984  1.00  0.00    -0.257 N 
ATOM     26  H1  UNL     1      -7.214   1.672   1.842  1.00  0.00     0.195 HD
BRANCH  25  27
HETATM   27  O1  UNL     1      -6.952   0.150   3.236  1.00  0.00    -0.288 OA
ATOM     28  H1  UNL     1      -7.268   0.663   3.970  1.00  0.00     0.244 HD
ENDBRANCH  25  27
ENDBRANCH  21  23
ENDBRANCH  18  21
ENDBRANCH  15  18
ENDBRANCH  10  12
ENDBRANCH   1  10
BRANCH   7  29
HETATM   29  N7  UNL     1       5.860  -0.078   0.880  1.00  0.00    -0.124 N 
HETATM   30  C9  UNL     1       6.588  -1.121   0.271  1.00  0.00     0.710 C 
HETATM   31  N8  UNL     1       6.498  -2.309   0.730  1.00  0.00    -0.232 N 
HETATM   32  N9  UNL     1       7.407  -0.848  -0.839  1.00  0.00    -0.071 N 
ATOM     33  H82 UNL     1       5.904  -2.507   1.535  1.00  0.00     0.174 HD
ATOM     34  H81 UNL     1       7.025  -3.063   0.290  1.00  0.00     0.174 HD
ATOM     35  H9  UNL     1       7.357  -1.448  -1.662  1.00  0.00     0.212 HD
ATOM     36  H7  UNL     1       6.265   0.488   1.625  1.00  0.00     0.206 HD
BRANCH  32  37
HETATM   37  N10 UNL     1       8.286   0.234  -0.827  1.00  0.00    -0.024 N 
HETATM   38  O4  UNL     1       9.107   0.308   0.107  1.00  0.00    -0.516 OA
HETATM   39  O5  UNL     1       8.233   1.175  -1.818  1.00  0.00    -0.516 OA
ENDBRANCH  32  37
ENDBRANCH   7  29
TORSDOF 8
