REMARK  4 active torsions:
REMARK  status: ('A' for Active; 'I' for Inactive)
REMARK    1  A    between atoms: C2_2  and  C4_4 
REMARK    2  A    between atoms: C4_4  and  C5_5 
REMARK    3  A    between atoms: C8_11  and  N2_12 
REMARK       I    between atoms: N2_12  and  C9_14 
REMARK    4  A    between atoms: C9_14  and  C10_16 
ROOT
HETATM    1  C5  UNL     1      -1.628  -0.338   0.466  1.00  0.00     0.208 C 
HETATM    2  N1  UNL     1      -2.220  -1.609   0.753  1.00  0.00    -0.069 N 
ATOM      3  H11 UNL     1      -3.029  -1.529   1.369  1.00  0.00     0.277 HD
ATOM      4  H12 UNL     1      -1.633  -2.181   1.360  1.00  0.00     0.277 HD
HETATM    5  C6  UNL     1      -2.538  -2.271  -0.477  1.00  0.00     0.235 C 
HETATM    6  C7  UNL     1      -1.384  -1.896  -1.369  1.00  0.00     0.055 C 
HETATM    7  C8  UNL     1      -0.890  -0.583  -0.844  1.00  0.00     0.116 C 
ENDROOT
BRANCH   7   8
HETATM    8  N2  UNL     1       0.551  -0.603  -0.652  1.00  0.00    -0.354 N 
HETATM    9  C9  UNL     1       1.445   0.230  -1.334  1.00  0.00     0.223 C 
HETATM   10  O1  UNL     1       1.040   1.070  -2.180  1.00  0.00    -0.273 OA
ATOM     11  H2  UNL     1       0.934  -1.266   0.022  1.00  0.00     0.162 HD
BRANCH   9  12
HETATM   12  C10 UNL     1       2.885   0.154  -1.089  1.00  0.00     0.100 C 
HETATM   13  C11 UNL     1       3.687   1.120  -1.910  1.00  0.00     0.042 C 
HETATM   14  C12 UNL     1       5.160   0.878  -1.607  1.00  0.00     0.168 C 
HETATM   15  O2  UNL     1       5.430   0.948  -0.254  1.00  0.00    -0.390 OA
HETATM   16  C13 UNL     1       4.721   0.034   0.494  1.00  0.00     0.188 C 
HETATM   17  C14 UNL     1       3.245   0.404   0.375  1.00  0.00     0.119 C 
HETATM   18 CL1  UNL     1       3.124   2.164   0.651  1.00  0.00    -0.122 Cl
ENDBRANCH   9  12
ENDBRANCH   7   8
BRANCH   1  19
HETATM   19  C4  UNL     1      -2.649   0.715   0.223  1.00  0.00     0.039 C 
BRANCH  19  20
HETATM   20  C2  UNL     1      -3.582   0.986   1.342  1.00  0.00    -0.021 C 
HETATM   21  C1  UNL     1      -2.837   1.437   2.582  1.00  0.00     0.009 C 
HETATM   22  C3  UNL     1      -4.507  -0.110   1.706  1.00  0.00     0.009 C 
ENDBRANCH  19  20
ENDBRANCH   1  19
TORSDOF 4
