REMARK  5 active torsions:
REMARK  status: ('A' for Active; 'I' for Inactive)
REMARK    1  A    between atoms: C3_3  and  C5_6 
REMARK    2  A    between atoms: N4_12  and  C7_14 
REMARK    3  A    between atoms: C7_14  and  C8_15 
REMARK    4  A    between atoms: C8_15  and  C9_16 
REMARK    5  A    between atoms: C9_16  and  N5_17 
ROOT
HETATM    1  C1  UNL     1       4.626   1.849  -1.992  1.00  0.00     0.013 C 
HETATM    2  C2  UNL     1       4.688   1.140  -1.021  1.00  0.00    -0.091 C 
HETATM    3  C3  UNL     1       4.749   0.285   0.188  1.00  0.00     0.223 C 
HETATM    4  C4  UNL     1       5.467  -0.950  -0.083  1.00  0.00     0.083 C 
HETATM    5  N1  UNL     1       6.041  -1.923  -0.300  1.00  0.00    -0.196 NA
ENDROOT
BRANCH   3   6
HETATM    6  C5  UNL     1       3.383   0.061   0.636  1.00  0.00     0.076 A 
HETATM    7  N2  UNL     1       2.887   0.497   1.806  1.00  0.00    -0.299 N 
HETATM    8  N3  UNL     1       1.643   0.156   1.949  1.00  0.00    -0.284 N 
ATOM      9  H2  UNL     1       3.420   1.028   2.494  1.00  0.00     0.186 HD
HETATM   10  C6  UNL     1       1.227  -0.554   0.837  1.00  0.00     0.135 A 
ATOM     11  H3  UNL     1       1.061   0.377   2.757  1.00  0.00     0.188 HD
HETATM   12  N4  UNL     1       0.090  -1.020   0.673  1.00  0.00    -0.374 N 
HETATM   13  C12 UNL     1       2.328  -0.602   0.030  1.00  0.00     0.082 A 
ATOM     14  H4  UNL     1      -0.494  -0.802   1.480  1.00  0.00     0.161 HD
HETATM   15 BR1  UNL     1       2.527  -1.407  -1.661  1.00  0.00    -0.045 Br
BRANCH  12  16
HETATM   16  C7  UNL     1      -0.637  -1.739  -0.252  1.00  0.00     0.123 C 
BRANCH  16  17
HETATM   17  C8  UNL     1      -1.818  -0.940  -0.819  1.00  0.00     0.050 C 
BRANCH  17  18
HETATM   18  C9  UNL     1      -2.786  -0.518   0.263  1.00  0.00     0.273 C 
BRANCH  18  19
HETATM   19  N5  UNL     1      -3.842   0.218  -0.404  1.00  0.00     0.080 N 
HETATM   20  C10 UNL     1      -3.398   1.478  -0.942  1.00  0.00     0.309 C 
HETATM   21  C11 UNL     1      -5.021   0.348   0.421  1.00  0.00     0.309 C 
ENDBRANCH  18  19
ENDBRANCH  17  18
ENDBRANCH  16  17
ENDBRANCH  12  16
ENDBRANCH   3   6
TORSDOF 5
