REMARK  4 active torsions:
REMARK  status: ('A' for Active; 'I' for Inactive)
REMARK    1  A    between atoms: N2_5  and  C4_6 
REMARK    2  A    between atoms: C4_6  and  C5_7 
REMARK    3  A    between atoms: C9_11  and  N3_12 
REMARK       I    between atoms: N3_12  and  C10_14 
REMARK       I    between atoms: C10_14  and  N4_16 
REMARK    4  A    between atoms: N4_16  and  C11_18 
ROOT
HETATM    1  N3  UNL     1       0.818  -0.984   0.497  1.00  0.00    -0.335 N 
ATOM      2  H3  UNL     1       1.075  -1.790   1.066  1.00  0.00     0.164 HD
HETATM    3  C10 UNL     1       1.857  -0.218  -0.054  1.00  0.00     0.317 C 
HETATM    4  O1  UNL     1       1.541   0.776  -0.758  1.00  0.00    -0.247 OA
HETATM    5  N4  UNL     1       3.228  -0.487   0.126  1.00  0.00    -0.333 N 
ATOM      6  H4  UNL     1       3.474  -1.295   0.698  1.00  0.00     0.164 HD
ENDROOT
BRANCH   1   7
HETATM    7  C9  UNL     1      -0.585  -0.713   0.316  1.00  0.00     0.132 C 
HETATM    8  C8  UNL     1      -1.122  -0.380   1.720  1.00  0.00     0.154 C 
HETATM    9  N2  UNL     1      -2.490  -0.005   1.563  1.00  0.00    -0.370 N 
HETATM   10  C3  UNL     1      -3.425  -1.052   1.441  1.00  0.00     0.093 C 
HETATM   11  C2  UNL     1      -3.703  -1.303  -0.019  1.00  0.00     0.316 C 
HETATM   12  N1  UNL     1      -2.576  -1.627  -0.813  1.00  0.00     0.090 N 
HETATM   13  C1  UNL     1      -2.959  -2.598  -1.815  1.00  0.00     0.310 C 
HETATM   14  C16 UNL     1      -1.358  -1.919  -0.161  1.00  0.00     0.298 C 
BRANCH   9  15
HETATM   15  C4  UNL     1      -2.748   1.235   0.977  1.00  0.00     0.068 C 
BRANCH  15  16
HETATM   16  C5  UNL     1      -3.869   2.049   1.562  1.00  0.00     0.024 A 
HETATM   17  C6  UNL     1      -4.052   3.391   0.833  1.00  0.00     0.010 A 
HETATM   18  C7  UNL     1      -5.093   2.368   0.732  1.00  0.00     0.010 A 
ENDBRANCH  15  16
ENDBRANCH   9  15
ENDBRANCH   1   7
BRANCH   5  19
HETATM   19  C11 UNL     1       4.301   0.273  -0.423  1.00  0.00     0.158 C 
HETATM   20  C12 UNL     1       5.242  -0.555  -1.275  1.00  0.00     0.031 C 
HETATM   21  C13 UNL     1       6.443   0.377  -1.405  1.00  0.00     0.008 C 
HETATM   22  C14 UNL     1       6.403   1.286  -0.220  1.00  0.00     0.081 C 
HETATM   23  C15 UNL     1       5.262   0.781   0.632  1.00  0.00     0.263 C 
HETATM   24  F1  UNL     1       4.699   1.780   1.394  1.00  0.00    -0.204 F 
HETATM   25  F2  UNL     1       5.752  -0.245   1.413  1.00  0.00    -0.204 F 
ENDBRANCH   5  19
TORSDOF 4
