REMARK  6 active torsions:
REMARK  status: ('A' for Active; 'I' for Inactive)
REMARK       I    between atoms: N1_2  and  C2_4 
REMARK    1  A    between atoms: C2_4  and  C3_6 
REMARK    2  A    between atoms: N2_10  and  C7_11 
REMARK    3  A    between atoms: C7_11  and  C8_15 
REMARK    4  A    between atoms: C8_15  and  O2_16 
REMARK    5  A    between atoms: C8_15  and  C9_18 
REMARK    6  A    between atoms: C8_15  and  C10_20 
ROOT
HETATM    1  C7  UNL     1       0.243  -0.060  -0.440  1.00  0.00     0.141 C 
HETATM    2  N3  UNL     1       0.422   1.197  -0.240  1.00  0.00    -0.209 N 
ATOM      3  H3  UNL     1       1.398   1.472  -0.130  1.00  0.00     0.201 HD
HETATM    4  F1  UNL     1      -0.431   2.183  -0.153  1.00  0.00    -0.100 F 
ENDROOT
BRANCH   1   5
HETATM    5  N2  UNL     1      -1.064  -0.587  -0.608  1.00  0.00    -0.353 N 
HETATM    6  C3  UNL     1      -2.330   0.024  -0.324  1.00  0.00     0.177 C 
HETATM    7  C4  UNL     1      -3.397  -0.871  -0.882  1.00  0.00     0.037 C 
HETATM    8  C5  UNL     1      -2.669  -1.614  -1.963  1.00  0.00     0.022 C 
HETATM    9  C6  UNL     1      -1.379  -1.922  -1.163  1.00  0.00     0.125 C 
BRANCH   6  10
HETATM   10  C2  UNL     1      -2.580   0.330   1.105  1.00  0.00     0.240 C 
HETATM   11  N1  UNL     1      -3.760   1.047   1.418  1.00  0.00    -0.364 N 
HETATM   12  C1  UNL     1      -4.098   1.395   2.780  1.00  0.00     0.149 C 
ATOM     13  H1  UNL     1      -4.388   1.325   0.664  1.00  0.00     0.161 HD
HETATM   14  O1  UNL     1      -1.795  -0.024   1.991  1.00  0.00    -0.271 OA
ENDBRANCH   6  10
ENDBRANCH   1   5
BRANCH   1  15
HETATM   15  C8  UNL     1       1.466  -0.878  -0.529  1.00  0.00     0.134 C 
BRANCH  15  16
HETATM   16  O2  UNL     1       1.569  -1.356  -1.848  1.00  0.00    -0.380 OA
ATOM     17  H2  UNL     1       2.357  -1.883  -1.905  1.00  0.00     0.211 HD
ENDBRANCH  15  16
BRANCH  15  18
HETATM   18  C9  UNL     1       1.469  -2.128   0.317  1.00  0.00     0.161 C 
HETATM   19 CL1  UNL     1       1.299  -1.851   2.041  1.00  0.00    -0.127 Cl
ENDBRANCH  15  18
BRANCH  15  20
HETATM   20  C10 UNL     1       2.738  -0.159  -0.234  1.00  0.00     0.029 C 
HETATM   21  C11 UNL     1       2.898   0.440   1.107  1.00  0.00     0.008 C 
HETATM   22  C12 UNL     1       3.861   1.571   0.906  1.00  0.00     0.001 C 
HETATM   23  C13 UNL     1       3.602   2.052  -0.485  1.00  0.00     0.001 C 
HETATM   24  C14 UNL     1       3.139   0.847  -1.271  1.00  0.00     0.008 C 
ENDBRANCH  15  20
ENDBRANCH   1  15
TORSDOF 6
