REMARK  6 active torsions:
REMARK  status: ('A' for Active; 'I' for Inactive)
REMARK    1  A    between atoms: O1_1  and  C1_3 
REMARK    2  A    between atoms: C1_3  and  C2_4 
REMARK    3  A    between atoms: C2_4  and  C3_5 
REMARK    4  A    between atoms: C3_5  and  C4_6 
REMARK    5  A    between atoms: C4_6  and  N1_7 
REMARK    6  A    between atoms: N1_7  and  C5_9 
ROOT
HETATM    1  C5  UNL     1       1.616   0.178   0.232  1.00  0.00     0.678 A 
HETATM    2  N2  UNL     1       2.352   1.008   1.001  1.00  0.00    -0.184 N 
ATOM      3  H2  UNL     1       1.893   1.828   1.398  1.00  0.00     0.185 HD
HETATM    4  C6  UNL     1       3.647   0.818   1.273  1.00  0.00     0.114 A 
HETATM    5 BR1  UNL     1       4.686   1.986   2.355  1.00  0.00    -0.029 Br
HETATM    6  C7  UNL     1       4.254  -0.294   0.731  1.00  0.00     0.061 A 
HETATM    7 BR2  UNL     1       6.084  -0.690   1.033  1.00  0.00    -0.047 Br
HETATM    8  C8  UNL     1       3.532  -1.184  -0.072  1.00  0.00     0.128 A 
HETATM    9  N3  UNL     1       2.239  -0.898  -0.281  1.00  0.00    -0.201 N 
ATOM     10  H3  UNL     1       1.695  -1.534  -0.864  1.00  0.00     0.183 HD
ENDROOT
BRANCH   1  11
HETATM   11  N1  UNL     1       0.353   0.413  -0.001  1.00  0.00    -0.226 N 
ATOM     12  H1  UNL     1      -0.111   1.232   0.392  1.00  0.00     0.177 HD
BRANCH  11  13
HETATM   13  C4  UNL     1      -0.366  -0.525  -0.834  1.00  0.00     0.138 C 
BRANCH  13  14
HETATM   14  C3  UNL     1      -1.771  -0.086  -1.075  1.00  0.00     0.022 C 
BRANCH  14  15
HETATM   15  C2  UNL     1      -2.533   0.039   0.241  1.00  0.00     0.028 C 
BRANCH  15  16
HETATM   16  C1  UNL     1      -3.960   0.485  -0.009  1.00  0.00     0.164 C 
BRANCH  16  17
HETATM   17  O1  UNL     1      -3.945   1.717  -0.643  1.00  0.00    -0.401 OA
ATOM     18  H1  UNL     1      -4.839   1.997  -0.800  1.00  0.00     0.209 HD
ENDBRANCH  16  17
ENDBRANCH  15  16
ENDBRANCH  14  15
ENDBRANCH  13  14
ENDBRANCH  11  13
ENDBRANCH   1  11
TORSDOF 6
