REMARK  5 active torsions:
REMARK  status: ('A' for Active; 'I' for Inactive)
REMARK    1  A    between atoms: C2_2  and  N1_3 
REMARK    2  A    between atoms: C6_7  and  C7_8 
REMARK       I    between atoms: C7_8  and  N2_10 
REMARK    3  A    between atoms: N2_10  and  C8_12 
REMARK    4  A    between atoms: C8_12  and  C9_13 
REMARK    5  A    between atoms: C9_13  and  C10_14 
ROOT
HETATM    1  C9  UNL     1      -2.518  -0.725   0.112  1.00  0.00     0.140 C 
HETATM    2  C11 UNL     1      -3.534  -0.758   1.231  1.00  0.00     0.045 C 
HETATM    3  C12 UNL     1      -4.927  -0.431   0.831  1.00  0.00     0.046 C 
HETATM    4  C13 UNL     1      -5.017   0.755  -0.075  1.00  0.00     0.128 C 
HETATM    5 CL1  UNL     1      -4.543   2.208   0.845  1.00  0.00    -0.100 Cl
HETATM    6 CL2  UNL     1      -6.685   0.969  -0.647  1.00  0.00    -0.100 Cl
HETATM    7  C14 UNL     1      -4.097   0.553  -1.235  1.00  0.00     0.157 C 
HETATM    8  N3  UNL     1      -2.756   0.334  -0.846  1.00  0.00    -0.401 N 
ATOM      9  H3  UNL     1      -1.992   0.895  -1.222  1.00  0.00     0.154 HD
ENDROOT
BRANCH   1  10
HETATM   10  C8  UNL     1      -1.206  -0.382   0.764  1.00  0.00     0.162 C 
BRANCH  10  11
HETATM   11  N2  UNL     1      -0.101  -0.256  -0.125  1.00  0.00    -0.357 N 
HETATM   12  C7  UNL     1       1.209   0.036   0.345  1.00  0.00     0.251 C 
HETATM   13  O1  UNL     1       1.403   0.188   1.580  1.00  0.00    -0.271 OA
ATOM     14  H2  UNL     1      -0.253  -0.378  -1.126  1.00  0.00     0.162 HD
BRANCH  12  15
HETATM   15  C6  UNL     1       2.358   0.170  -0.565  1.00  0.00     0.314 C 
HETATM   16  N1  UNL     1       3.588   0.397   0.144  1.00  0.00     0.101 N 
HETATM   17  C3  UNL     1       4.457   0.835  -0.963  1.00  0.00     0.273 C 
HETATM   18  C4  UNL     1       3.603   1.987  -1.499  1.00  0.00     0.033 C 
HETATM   19  C5  UNL     1       2.181   1.533  -1.257  1.00  0.00     0.047 C 
BRANCH  16  20
HETATM   20  C2  UNL     1       4.119  -0.772   0.782  1.00  0.00     0.269 C 
HETATM   21  C1  UNL     1       5.405  -0.359   1.501  1.00  0.00     0.037 C 
ENDBRANCH  16  20
ENDBRANCH  12  15
ENDBRANCH  10  11
ENDBRANCH   1  10
BRANCH   1  22
HETATM   22  C10 UNL     1      -2.519  -2.039  -0.607  1.00  0.00     0.413 C 
HETATM   23  F1  UNL     1      -2.218  -3.096   0.242  1.00  0.00    -0.168 F 
HETATM   24  F2  UNL     1      -1.709  -2.086  -1.697  1.00  0.00    -0.168 F 
HETATM   25  F3  UNL     1      -3.807  -2.340  -1.083  1.00  0.00    -0.168 F 
ENDBRANCH   1  22
TORSDOF 5
