REMARK  8 active torsions:
REMARK  status: ('A' for Active; 'I' for Inactive)
REMARK    1  A    between atoms: S1_2  and  C2_3 
REMARK    2  A    between atoms: C4_5  and  S2_6 
REMARK    3  A    between atoms: N2_11  and  C7_13 
REMARK    4  A    between atoms: C7_13  and  C8_14 
REMARK    5  A    between atoms: C8_14  and  O1_15 
REMARK    6  A    between atoms: C8_14  and  C9_17 
REMARK    7  A    between atoms: C9_17  and  N3_18 
REMARK    8  A    between atoms: N3_18  and  C10_20 
ROOT
HETATM    1  C2  UNL     1       3.316   1.090   1.088  1.00  0.00     0.088 A 
HETATM    2  C3  UNL     1       3.618  -0.214   1.419  1.00  0.00     0.074 A 
HETATM    3  C4  UNL     1       2.943  -1.241   0.821  1.00  0.00     0.088 A 
HETATM    4  N1  UNL     1       1.986  -0.916  -0.091  1.00  0.00    -0.185 N 
ATOM      5  H1  UNL     1       1.479  -1.678  -0.540  1.00  0.00     0.185 HD
HETATM    6  C6  UNL     1       1.666   0.335  -0.438  1.00  0.00     0.683 A 
HETATM    7  N2  UNL     1       0.773   0.652  -1.307  1.00  0.00    -0.203 N 
ATOM      8  H2  UNL     1       0.614   1.642  -1.494  1.00  0.00     0.183 HD
HETATM    9  N4  UNL     1       2.369   1.341   0.188  1.00  0.00    -0.185 N 
ATOM     10  H4  UNL     1       2.156   2.311  -0.046  1.00  0.00     0.185 HD
ENDROOT
BRANCH   7  11
HETATM   11  C7  UNL     1       0.004  -0.286  -2.014  1.00  0.00     0.112 C 
BRANCH  11  12
HETATM   12  C8  UNL     1      -1.379  -0.547  -1.449  1.00  0.00     0.174 C 
BRANCH  12  13
HETATM   13  O1  UNL     1      -1.950  -1.529  -2.287  1.00  0.00    -0.389 OA
ATOM     14  H1  UNL     1      -2.816  -1.692  -1.933  1.00  0.00     0.210 HD
ENDBRANCH  12  13
BRANCH  12  15
HETATM   15  C9  UNL     1      -2.289   0.644  -1.575  1.00  0.00     0.151 C 
BRANCH  15  16
HETATM   16  N3  UNL     1      -3.600   0.270  -1.149  1.00  0.00    -0.415 N 
ATOM     17  H3  UNL     1      -4.372   0.189  -1.811  1.00  0.00     0.153 HD
BRANCH  16  18
HETATM   18  C10 UNL     1      -3.781   0.016   0.235  1.00  0.00     0.068 C 
HETATM   19  C11 UNL     1      -3.553   1.198   1.140  1.00  0.00     0.031 C 
HETATM   20  C12 UNL     1      -5.190  -0.513   0.532  1.00  0.00     0.031 C 
ENDBRANCH  16  18
ENDBRANCH  15  16
ENDBRANCH  12  15
ENDBRANCH  11  12
ENDBRANCH   7  11
BRANCH   3  21
HETATM   21  S2  UNL     1       3.248  -2.965   1.158  1.00  0.00    -0.116 SA
HETATM   22  C5  UNL     1       4.496  -3.667   0.050  1.00  0.00     0.097 C 
ENDBRANCH   3  21
BRANCH   1  23
HETATM   23  S1  UNL     1       4.227   2.392   1.921  1.00  0.00    -0.116 SA
HETATM   24  C1  UNL     1       3.709   4.024   1.380  1.00  0.00     0.097 C 
ENDBRANCH   1  23
TORSDOF 8
