REMARK  4 active torsions:
REMARK  status: ('A' for Active; 'I' for Inactive)
REMARK    1  A    between atoms: C4_4  and  N1_5 
REMARK    2  A    between atoms: N1_5  and  C5_7 
REMARK    3  A    between atoms: C10_12  and  C11_13 
REMARK    4  A    between atoms: C11_13  and  N2_14 
ROOT
HETATM    1  C5  UNL     1       0.239  -0.650  -1.218  1.00  0.00     0.035 A 
HETATM    2  C6  UNL     1      -0.517   0.130  -2.069  1.00  0.00     0.030 A 
HETATM    3  C7  UNL     1      -1.881   0.282  -1.871  1.00  0.00     0.016 A 
HETATM    4  C8  UNL     1      -2.538  -0.334  -0.826  1.00  0.00    -0.006 A 
HETATM    5  C9  UNL     1      -3.900  -0.189  -0.620  1.00  0.00     0.042 A 
HETATM    6  C10 UNL     1      -4.509  -0.831   0.448  1.00  0.00     0.052 A 
HETATM    7  N3  UNL     1      -3.726  -1.578   1.245  1.00  0.00    -0.303 N 
ATOM      8  H3  UNL     1      -4.150  -2.061   2.037  1.00  0.00     0.186 HD
HETATM    9  N4  UNL     1      -2.426  -1.710   1.039  1.00  0.00    -0.300 N 
ATOM     10  H4  UNL     1      -1.890  -2.292   1.682  1.00  0.00     0.187 HD
HETATM   11  C12 UNL     1      -1.775  -1.113   0.021  1.00  0.00     0.060 A 
HETATM   12  C13 UNL     1      -0.415  -1.267  -0.172  1.00  0.00     0.061 A 
ENDROOT
BRANCH   1  13
HETATM   13  N1  UNL     1       1.636  -0.786  -1.447  1.00  0.00    -0.342 N 
ATOM     14  H1  UNL     1       1.929  -1.346  -2.248  1.00  0.00     0.167 HD
BRANCH  13  15
HETATM   15  C4  UNL     1       2.540  -0.269  -0.739  1.00  0.00     0.108 A 
HETATM   16  C3  UNL     1       3.863  -0.470  -1.058  1.00  0.00     0.073 A 
HETATM   17  C2  UNL     1       4.879   0.097  -0.280  1.00  0.00     0.010 A 
HETATM   18  C1  UNL     1       6.303  -0.110  -0.611  1.00  0.00     0.068 C 
HETATM   19  N6  UNL     1       4.521   0.840   0.782  1.00  0.00    -0.350 N 
HETATM   20  C14 UNL     1       3.231   1.017   1.066  1.00  0.00     0.078 A 
ATOM     21  H6  UNL     1       5.236   1.268   1.370  1.00  0.00     0.167 HD
HETATM   22  N5  UNL     1       2.230   0.477   0.327  1.00  0.00    -0.332 N 
HETATM   23  C15 UNL     1       2.874   1.842   2.244  1.00  0.00     0.089 C 
ATOM     24  H5  UNL     1       1.255   0.637   0.580  1.00  0.00     0.168 HD
ENDBRANCH  13  15
ENDBRANCH   1  13
BRANCH   6  25
HETATM   25  C11 UNL     1      -5.954  -0.709   0.712  1.00  0.00     0.287 C 
BRANCH  25  26
HETATM   26  N2  UNL     1      -6.278   0.398   1.583  1.00  0.00    -0.074 N 
ATOM     27  H23 UNL     1      -5.752   0.341   2.455  1.00  0.00     0.274 HD
ATOM     28  H22 UNL     1      -5.900   1.272   1.217  1.00  0.00     0.274 HD
ATOM     29  H21 UNL     1      -7.278   0.482   1.766  1.00  0.00     0.274 HD
ENDBRANCH  25  26
ENDBRANCH   6  25
TORSDOF 4
