REMARK  2 active torsions:
REMARK  status: ('A' for Active; 'I' for Inactive)
REMARK    1  A    between atoms: C7_14  and  N4_15 
REMARK       I    between atoms: N4_15  and  C8_17 
REMARK    2  A    between atoms: C8_17  and  C9_19 
ROOT
HETATM    1  N1  UNL     1      -4.380   0.281   2.578  1.00  0.00    -0.235 N 
ATOM      2  H11 UNL     1      -5.035  -0.452   2.852  1.00  0.00     0.174 HD
ATOM      3  H12 UNL     1      -4.209   1.188   3.012  1.00  0.00     0.174 HD
HETATM    4  C1  UNL     1      -3.674  -0.003   1.527  1.00  0.00     0.668 C 
HETATM    5  N2  UNL     1      -2.755   1.025   1.143  1.00  0.00    -0.220 N 
ATOM      6  H2  UNL     1      -2.728   1.892   1.680  1.00  0.00     0.178 HD
HETATM    7  C2  UNL     1      -1.844   0.865  -0.009  1.00  0.00     0.123 C 
HETATM    8  C3  UNL     1      -2.766   0.477  -1.150  1.00  0.00     0.035 C 
HETATM    9  C4  UNL     1      -2.804  -0.981  -1.281  1.00  0.00     0.019 A 
HETATM   10  C5  UNL     1      -3.191  -1.831  -0.189  1.00  0.00     0.110 A 
HETATM   11  N3  UNL     1      -3.915  -1.285   0.914  1.00  0.00    -0.221 N 
ATOM     12  H3  UNL     1      -4.669  -1.852   1.302  1.00  0.00     0.178 HD
HETATM   13  C6  UNL     1      -1.801  -1.559  -0.345  1.00  0.00     0.040 A 
HETATM   14  C7  UNL     1      -1.123  -0.429   0.253  1.00  0.00     0.114 C 
ENDROOT
BRANCH  14  15
HETATM   15  N4  UNL     1       0.207  -0.283  -0.376  1.00  0.00    -0.354 N 
HETATM   16  C8  UNL     1       1.389  -0.368   0.383  1.00  0.00     0.222 C 
HETATM   17  O1  UNL     1       1.368  -0.570   1.615  1.00  0.00    -0.273 OA
ATOM     18  H4  UNL     1       0.269  -0.117  -1.381  1.00  0.00     0.163 HD
BRANCH  16  19
HETATM   19  C9  UNL     1       2.689  -0.216  -0.292  1.00  0.00     0.078 C 
HETATM   20  C10 UNL     1       2.813   1.139  -0.970  1.00  0.00     0.014 C 
HETATM   21  C11 UNL     1       4.128   1.729  -0.515  1.00  0.00     0.001 C 
HETATM   22  C12 UNL     1       4.913   0.484  -0.112  1.00  0.00     0.001 C 
HETATM   23  C13 UNL     1       3.855  -0.276   0.669  1.00  0.00     0.014 C 
ENDBRANCH  16  19
ENDBRANCH  14  15
TORSDOF 2
