REMARK  8 active torsions:
REMARK  status: ('A' for Active; 'I' for Inactive)
REMARK    1  A    between atoms: C8_9  and  C9_10 
REMARK    2  A    between atoms: C9_10  and  N1_11 
REMARK    3  A    between atoms: N1_11  and  C10_13 
REMARK    4  A    between atoms: C10_13  and  N2_15 
REMARK    5  A    between atoms: N2_15  and  N3_17 
REMARK    6  A    between atoms: N3_17  and  C11_19 
REMARK    7  A    between atoms: C11_19  and  N4_21 
REMARK    8  A    between atoms: N4_21  and  C12_23 
ROOT
HETATM    1  C10 UNL     1      -1.307   1.727   0.983  1.00  0.00     0.190 C 
HETATM    2  S1  UNL     1      -2.498   2.831   1.196  1.00  0.00    -0.039 SA
ENDROOT
BRANCH   1   3
HETATM    3  N1  UNL     1      -1.643   0.327   0.850  1.00  0.00    -0.341 N 
ATOM      4  H1  UNL     1      -0.902  -0.364   0.731  1.00  0.00     0.167 HD
BRANCH   3   5
HETATM    5  C9  UNL     1      -2.990  -0.088   0.884  1.00  0.00     0.103 C 
BRANCH   5   6
HETATM    6  C8  UNL     1      -3.854  -0.065  -0.269  1.00  0.00    -0.009 A 
HETATM    7  C2  UNL     1      -5.205  -0.430  -0.006  1.00  0.00    -0.047 A 
HETATM    8  C1  UNL     1      -5.554  -0.748   1.381  1.00  0.00     0.049 C 
HETATM    9  C3  UNL     1      -6.104  -0.470  -1.030  1.00  0.00     0.049 A 
HETATM   10  C4  UNL     1      -5.785  -0.172  -2.333  1.00  0.00     0.117 A 
HETATM   11  F1  UNL     1      -6.723  -0.224  -3.330  1.00  0.00    -0.206 F 
HETATM   12  C5  UNL     1      -4.489   0.176  -2.579  1.00  0.00     0.049 A 
HETATM   13  C6  UNL     1      -3.517   0.231  -1.553  1.00  0.00    -0.047 A 
HETATM   14  C7  UNL     1      -2.133   0.578  -1.977  1.00  0.00     0.049 C 
ENDBRANCH   5   6
ENDBRANCH   3   5
ENDBRANCH   1   3
BRANCH   1  15
HETATM   15  N2  UNL     1       0.046   2.147   0.943  1.00  0.00    -0.274 N 
ATOM     16  H2  UNL     1       0.275   3.136   1.038  1.00  0.00     0.189 HD
BRANCH  15  17
HETATM   17  N3  UNL     1       1.075   1.201   0.772  1.00  0.00    -0.274 N 
ATOM     18  H3  UNL     1       1.012   0.503   0.031  1.00  0.00     0.189 HD
BRANCH  17  19
HETATM   19  C11 UNL     1       2.198   1.225   1.636  1.00  0.00     0.186 C 
HETATM   20  S2  UNL     1       2.278   2.350   2.816  1.00  0.00    -0.040 SA
BRANCH  19  21
HETATM   21  N4  UNL     1       3.259   0.306   1.512  1.00  0.00    -0.361 N 
ATOM     22  H4  UNL     1       4.039   0.369   2.166  1.00  0.00     0.162 HD
BRANCH  21  23
HETATM   23  C12 UNL     1       3.287  -0.734   0.484  1.00  0.00     0.083 C 
HETATM   24  C13 UNL     1       3.342  -0.115  -0.883  1.00  0.00     0.025 C 
HETATM   25  C14 UNL     1       4.602  -0.497  -1.577  1.00  0.00     0.002 C 
HETATM   26  C15 UNL     1       5.834  -0.186  -0.740  1.00  0.00     0.000 C 
HETATM   27  C16 UNL     1       5.775  -0.973   0.563  1.00  0.00     0.002 C 
HETATM   28  C17 UNL     1       4.430  -1.670   0.679  1.00  0.00     0.025 C 
ENDBRANCH  21  23
ENDBRANCH  19  21
ENDBRANCH  17  19
ENDBRANCH  15  17
ENDBRANCH   1  15
TORSDOF 8
