REMARK  1 active torsions:
REMARK  status: ('A' for Active; 'I' for Inactive)
REMARK    1  A    between atoms: C2_2  and  N4_10 
REMARK       I    between atoms: N1_3  and  C3_5 
ROOT
HETATM    1  N4  UNL     1       0.899  -0.171   0.341  1.00  0.00    -0.345 N 
HETATM    2  C4  UNL     1       0.692   0.684   1.475  1.00  0.00     0.165 C 
HETATM    3  C5  UNL     1      -0.516   1.528   1.176  1.00  0.00     0.333 C 
HETATM    4  N5  UNL     1      -1.690   0.780   0.847  1.00  0.00     0.025 N 
HETATM    5  C6  UNL     1      -2.198   0.186   2.042  1.00  0.00     0.357 C 
HETATM    6  O1  UNL     1      -2.605   1.740   0.472  1.00  0.00    -0.064 OA
HETATM    7  C7  UNL     1      -1.495  -0.109  -0.252  1.00  0.00     0.214 C 
HETATM    8  C8  UNL     1      -2.568  -1.113  -0.463  1.00  0.00     0.054 C 
HETATM    9  C9  UNL     1      -3.740  -0.323  -0.922  1.00  0.00     0.003 C 
HETATM   10  C10 UNL     1      -3.112   0.687  -1.840  1.00  0.00     0.003 C 
HETATM   11  C11 UNL     1      -1.631   0.708  -1.527  1.00  0.00     0.054 C 
HETATM   12  C12 UNL     1      -0.188  -0.828  -0.268  1.00  0.00     0.113 C 
ENDROOT
BRANCH   1  13
HETATM   13  C2  UNL     1       2.205  -0.349  -0.159  1.00  0.00     0.081 C 
HETATM   14  C1  UNL     1       2.710  -1.737  -0.433  1.00  0.00     0.089 C 
HETATM   15  N1  UNL     1       2.969   0.662  -0.383  1.00  0.00    -0.321 N 
HETATM   16  C3  UNL     1       4.274   0.471  -0.883  1.00  0.00     0.187 C 
ATOM     17  H1  UNL     1       2.629   1.606  -0.198  1.00  0.00     0.169 HD
HETATM   18  N2  UNL     1       4.561   0.794  -2.082  1.00  0.00    -0.373 N 
HETATM   19  N3  UNL     1       5.270  -0.083  -0.046  1.00  0.00    -0.064 NA
ATOM     20  H22 UNL     1       3.843   1.194  -2.686  1.00  0.00     0.158 HD
ATOM     21  H21 UNL     1       5.505   0.656  -2.444  1.00  0.00     0.158 HD
ENDBRANCH   1  13
TORSDOF 1
