REMARK  7 active torsions:
REMARK  status: ('A' for Active; 'I' for Inactive)
REMARK    1  A    between atoms: N1_1  and  C1_5 
REMARK    2  A    between atoms: C1_5  and  C2_6 
REMARK    3  A    between atoms: C2_6  and  S1_7 
REMARK    4  A    between atoms: S1_7  and  C3_8 
REMARK    5  A    between atoms: C3_8  and  C4_9 
REMARK    6  A    between atoms: C4_9  and  N2_10 
REMARK    7  A    between atoms: N2_10  and  C5_12 
ROOT
HETATM    1  C4  UNL     1       0.831   0.128  -0.793  1.00  0.00     0.131 C 
ENDROOT
BRANCH   1   2
HETATM    2  C3  UNL     1      -0.567  -0.367  -0.439  1.00  0.00     0.093 C 
BRANCH   2   3
HETATM    3  S1  UNL     1      -1.797   0.281  -1.594  1.00  0.00    -0.166 SA
BRANCH   3   4
HETATM    4  C2  UNL     1      -3.430  -0.300  -1.186  1.00  0.00     0.101 C 
BRANCH   4   5
HETATM    5  C1  UNL     1      -4.009   0.201   0.089  1.00  0.00     0.239 C 
BRANCH   5   6
HETATM    6  N1  UNL     1      -3.299  -0.104   1.281  1.00  0.00    -0.079 N 
ATOM      7  H13 UNL     1      -3.156  -1.112   1.344  1.00  0.00     0.274 HD
ATOM      8  H12 UNL     1      -2.335   0.217   1.195  1.00  0.00     0.274 HD
ATOM      9  H11 UNL     1      -3.696   0.240   2.155  1.00  0.00     0.274 HD
ENDBRANCH   5   6
ENDBRANCH   4   5
ENDBRANCH   3   4
ENDBRANCH   2   3
ENDBRANCH   1   2
BRANCH   1  10
HETATM   10  N2  UNL     1       1.747  -0.433   0.184  1.00  0.00    -0.374 N 
ATOM     11  H2  UNL     1       1.408  -1.133   0.844  1.00  0.00     0.161 HD
BRANCH  10  12
HETATM   12  C5  UNL     1       2.996  -0.058   0.233  1.00  0.00     0.131 A 
HETATM   13  C6  UNL     1       3.652   0.862  -0.558  1.00  0.00     0.154 A 
HETATM   14  N3  UNL     1       4.926   0.892  -0.109  1.00  0.00    -0.292 N 
HETATM   15  N4  UNL     1       5.092   0.053   0.900  1.00  0.00    -0.021 NA
ATOM     16  H3  UNL     1       5.662   1.483  -0.496  1.00  0.00     0.183 HD
HETATM   17  N5  UNL     1       3.898  -0.523   1.098  1.00  0.00    -0.268 N 
ATOM     18  H5  UNL     1       3.705  -1.223   1.814  1.00  0.00     0.186 HD
ENDBRANCH  10  12
ENDBRANCH   1  10
TORSDOF 7
