REMARK  10 active torsions:
REMARK  status: ('A' for Active; 'I' for Inactive)
REMARK    1  A    between atoms: C8_15  and  C9_16 
REMARK    2  A    between atoms: C9_16  and  N4_17 
REMARK    3  A    between atoms: N4_17  and  C10_19 
REMARK    4  A    between atoms: C10_19  and  C11_20 
REMARK    5  A    between atoms: C11_20  and  C12_21 
REMARK    6  A    between atoms: C12_21  and  C13_22 
REMARK    7  A    between atoms: C13_22  and  N5_23 
REMARK    8  A    between atoms: C19_38  and  N9_39 
REMARK    9  A    between atoms: N9_39  and  N10_41 
REMARK       I    between atoms: N10_41  and  C20_43 
REMARK   10  A    between atoms: N12_45  and  O4_47 
ROOT
HETATM    1  C1  UNL     1      -4.014  -4.659   1.251  1.00  0.00     0.164 C 
HETATM    2  N1  UNL     1      -3.032  -3.648   1.618  1.00  0.00    -0.270 N 
HETATM    3  C2  UNL     1      -2.793  -3.334   2.901  1.00  0.00     0.330 A 
HETATM    4  O1  UNL     1      -3.452  -3.964   3.796  1.00  0.00    -0.246 OA
HETATM    5  N2  UNL     1      -1.908  -2.404   3.259  1.00  0.00    -0.293 N 
ATOM      6  H2  UNL     1      -1.756  -2.199   4.247  1.00  0.00     0.172 HD
HETATM    7  C3  UNL     1      -1.213  -1.733   2.318  1.00  0.00     0.126 A 
HETATM    8  N3  UNL     1      -0.251  -0.795   2.396  1.00  0.00    -0.340 N 
ATOM      9  H3  UNL     1       0.123  -0.392   3.255  1.00  0.00     0.167 HD
HETATM   10  C4  UNL     1       0.128  -0.485   1.161  1.00  0.00     0.067 A 
HETATM   11  C5  UNL     1      -0.639  -1.259   0.257  1.00  0.00     0.037 A 
HETATM   12  C6  UNL     1      -1.476  -2.066   0.972  1.00  0.00     0.091 A 
HETATM   13  C7  UNL     1      -2.365  -3.015   0.597  1.00  0.00     0.266 A 
HETATM   14  O2  UNL     1      -2.688  -3.445  -0.501  1.00  0.00    -0.267 OA
HETATM   15  C8  UNL     1      -0.700  -1.088  -1.180  1.00  0.00     0.056 C 
HETATM   16  N6  UNL     1       0.321  -0.725  -1.935  1.00  0.00    -0.301 N 
ATOM     17  H6  UNL     1       0.118  -0.658  -2.932  1.00  0.00     0.186 HD
HETATM   18  N7  UNL     1       1.650  -0.416  -1.573  1.00  0.00    -0.283 N 
ATOM     19  H7  UNL     1       2.409  -0.755  -2.164  1.00  0.00     0.188 HD
HETATM   20  C14 UNL     1       1.979   0.359  -0.401  1.00  0.00     0.160 A 
HETATM   21  C15 UNL     1       1.262   0.346   0.793  1.00  0.00     0.109 A 
HETATM   22  C16 UNL     1       1.910   1.222   1.627  1.00  0.00     0.283 A 
HETATM   23  O3  UNL     1       1.534   1.463   2.787  1.00  0.00    -0.265 OA
HETATM   24  N8  UNL     1       2.968   1.723   0.941  1.00  0.00    -0.223 N 
HETATM   25  C17 UNL     1       3.931   2.587   1.284  1.00  0.00     0.123 A 
HETATM   26  C18 UNL     1       4.952   2.957   0.436  1.00  0.00     0.052 A 
HETATM   27  C19 UNL     1       5.002   2.426  -0.831  1.00  0.00     0.067 A 
HETATM   28  C21 UNL     1       3.989   1.530  -1.163  1.00  0.00     0.150 A 
HETATM   29  N13 UNL     1       3.016   1.203  -0.290  1.00  0.00    -0.237 N 
ENDROOT
BRANCH  15  30
HETATM   30  C9  UNL     1      -2.022  -1.170  -1.789  1.00  0.00     0.173 C 
BRANCH  30  31
HETATM   31  N4  UNL     1      -3.128  -0.514  -1.171  1.00  0.00    -0.416 N 
ATOM     32  H4  UNL     1      -3.855  -1.080  -0.734  1.00  0.00     0.153 HD
BRANCH  31  33
HETATM   33  C10 UNL     1      -3.248   0.872  -1.145  1.00  0.00     0.114 C 
BRANCH  33  34
HETATM   34  C11 UNL     1      -4.522   1.203  -0.342  1.00  0.00     0.021 C 
BRANCH  34  35
HETATM   35  C12 UNL     1      -5.757   0.602  -0.938  1.00  0.00     0.029 C 
BRANCH  35  36
HETATM   36  C13 UNL     1      -6.948   1.001  -0.068  1.00  0.00     0.229 C 
BRANCH  36  37
HETATM   37  N5  UNL     1      -7.060   2.425  -0.071  1.00  0.00    -0.079 N 
ATOM     38  H53 UNL     1      -6.196   2.885   0.215  1.00  0.00     0.274 HD
ATOM     39  H52 UNL     1      -7.119   2.810  -1.014  1.00  0.00     0.274 HD
ATOM     40  H51 UNL     1      -7.855   2.691   0.510  1.00  0.00     0.274 HD
ENDBRANCH  36  37
ENDBRANCH  35  36
ENDBRANCH  34  35
ENDBRANCH  33  34
ENDBRANCH  31  33
ENDBRANCH  30  31
ENDBRANCH  15  30
BRANCH  27  41
HETATM   41  N9  UNL     1       6.036   2.734  -1.782  1.00  0.00    -0.297 N 
ATOM     42  H9  UNL     1       6.079   3.677  -2.169  1.00  0.00     0.187 HD
BRANCH  41  43
HETATM   43  N10 UNL     1       6.985   1.795  -2.199  1.00  0.00    -0.272 N 
HETATM   44  C20 UNL     1       7.856   1.083  -1.337  1.00  0.00     0.227 C 
HETATM   45  N11 UNL     1       7.322   0.406  -0.207  1.00  0.00    -0.060 NA
HETATM   46  N12 UNL     1       9.120   1.019  -1.543  1.00  0.00    -0.240 N 
ATOM     47  H12 UNL     1       9.514   1.497  -2.353  1.00  0.00     0.197 HD
ATOM     48  H10 UNL     1       7.056   1.608  -3.199  1.00  0.00     0.189 HD
BRANCH  46  49
HETATM   49  O4  UNL     1       9.951   0.332  -0.713  1.00  0.00    -0.287 OA
ATOM     50  H4  UNL     1      10.887   0.285  -0.866  1.00  0.00     0.244 HD
ENDBRANCH  46  49
ENDBRANCH  41  43
ENDBRANCH  27  41
TORSDOF 10
