REMARK  9 active torsions:
REMARK  status: ('A' for Active; 'I' for Inactive)
REMARK    1  A    between atoms: C3_7  and  N3_8 
REMARK    2  A    between atoms: C6_15  and  N5_16 
REMARK    3  A    between atoms: N6_19  and  C7_20 
REMARK    4  A    between atoms: C8_22  and  C9_23 
REMARK    5  A    between atoms: C9_23  and  O3_24 
REMARK    6  A    between atoms: C9_23  and  C10_26 
REMARK    7  A    between atoms: C10_26  and  O4_27 
REMARK    8  A    between atoms: C11_29  and  N7_30 
REMARK    9  A    between atoms: C12_34  and  N8_35 
ROOT
HETATM    1  C1  UNL     1      -5.507   0.879   0.441  1.00  0.00     0.163 C 
HETATM    2  N1  UNL     1      -4.434   0.148  -0.155  1.00  0.00    -0.287 N 
HETATM    3  C2  UNL     1      -4.669  -0.776  -1.083  1.00  0.00     0.329 A 
HETATM    4  O1  UNL     1      -5.877  -0.995  -1.423  1.00  0.00    -0.246 OA
HETATM    5  N2  UNL     1      -3.636  -1.419  -1.604  1.00  0.00    -0.293 N 
ATOM      6  H2  UNL     1      -3.814  -2.127  -2.316  1.00  0.00     0.172 HD
HETATM    7  C3  UNL     1      -2.365  -1.184  -1.240  1.00  0.00     0.134 A 
HETATM    8  C4  UNL     1      -2.090  -0.211  -0.261  1.00  0.00     0.142 A 
HETATM    9  C5  UNL     1      -3.161   0.434   0.259  1.00  0.00     0.158 A 
HETATM   10  N4  UNL     1      -2.587   1.203   1.077  1.00  0.00    -0.174 N 
ATOM     11  H4  UNL     1      -3.226   1.803   1.599  1.00  0.00     0.186 HD
HETATM   12  C6  UNL     1      -1.386   1.368   1.368  1.00  0.00     0.682 A 
HETATM   13  N6  UNL     1      -0.986   0.191   0.251  1.00  0.00    -0.147 N 
ENDROOT
BRANCH  13  14
HETATM   14  C7  UNL     1       0.336  -0.097   0.064  1.00  0.00     0.279 C 
HETATM   15  O2  UNL     1       1.133   1.041  -0.232  1.00  0.00    -0.353 OA
HETATM   16  C8  UNL     1       2.390   0.409  -0.372  1.00  0.00     0.187 C 
HETATM   17  C11 UNL     1       2.513  -0.398   0.876  1.00  0.00     0.249 C 
HETATM   18  C12 UNL     1       1.056  -0.839   1.142  1.00  0.00     0.265 C 
BRANCH  16  19
HETATM   19  C9  UNL     1       3.406   1.495  -0.516  1.00  0.00     0.172 C 
BRANCH  19  20
HETATM   20  O3  UNL     1       3.487   2.364   0.549  1.00  0.00    -0.391 OA
ATOM     21  H3  UNL     1       4.133   3.055   0.457  1.00  0.00     0.210 HD
ENDBRANCH  19  20
BRANCH  19  22
HETATM   22  C10 UNL     1       4.789   1.007  -0.884  1.00  0.00     0.198 C 
BRANCH  22  23
HETATM   23  O4  UNL     1       4.740   0.140  -1.950  1.00  0.00    -0.398 OA
ATOM     24  H4  UNL     1       5.609  -0.167  -2.181  1.00  0.00     0.209 HD
ENDBRANCH  22  23
ENDBRANCH  19  22
ENDBRANCH  16  19
BRANCH  17  25
HETATM   25  N7  UNL     1       3.409  -1.519   0.790  1.00  0.00    -0.070 N 
ATOM     26  H73 UNL     1       3.148  -2.119   0.007  1.00  0.00     0.274 HD
ATOM     27  H72 UNL     1       4.330  -1.210   0.478  1.00  0.00     0.274 HD
ATOM     28  H71 UNL     1       3.493  -2.071   1.644  1.00  0.00     0.274 HD
ENDBRANCH  17  25
BRANCH  18  29
HETATM   29  N8  UNL     1       1.013  -2.309   0.932  1.00  0.00    -0.069 N 
ATOM     30  H83 UNL     1       0.053  -2.640   0.832  1.00  0.00     0.275 HD
ATOM     31  H82 UNL     1       1.367  -2.561   0.009  1.00  0.00     0.275 HD
ATOM     32  H81 UNL     1       1.505  -2.816   1.668  1.00  0.00     0.275 HD
ENDBRANCH  18  29
ENDBRANCH  13  14
BRANCH  12  33
HETATM   33  N5  UNL     1      -0.211   1.529   1.653  1.00  0.00    -0.234 N 
ATOM     34  H52 UNL     1      -0.455   2.247   2.335  1.00  0.00     0.174 HD
ATOM     35  H51 UNL     1       0.772   1.664   1.891  1.00  0.00     0.174 HD
ENDBRANCH  12  33
BRANCH   7  36
HETATM   36  N3  UNL     1      -1.438  -1.829  -1.763  1.00  0.00    -0.383 N 
ATOM     37  H32 UNL     1      -1.637  -2.534  -2.473  1.00  0.00     0.157 HD
ATOM     38  H31 UNL     1      -0.473  -1.650  -1.487  1.00  0.00     0.157 HD
ENDBRANCH   7  36
TORSDOF 9
