REMARK  10 active torsions:
REMARK  status: ('A' for Active; 'I' for Inactive)
REMARK    1  A    between atoms: C2_2  and  C3_3 
REMARK    2  A    between atoms: C3_3  and  N1_4 
REMARK    3  A    between atoms: C6_11  and  N4_12 
REMARK    4  A    between atoms: C7_17  and  N6_18 
REMARK    5  A    between atoms: N7_21  and  C10_22 
REMARK    6  A    between atoms: C10_22  and  C11_23 
REMARK    7  A    between atoms: C12_28  and  C13_29 
REMARK    8  A    between atoms: C13_29  and  O1_31 
REMARK    9  A    between atoms: N10_33  and  N11_34 
REMARK   10  A    between atoms: C16_38  and  N12_39 
ROOT
HETATM    1  N6  UNL     1      -1.809  -1.134   0.030  1.00  0.00    -0.361 N 
HETATM    2  C8  UNL     1      -1.219  -0.431   1.143  1.00  0.00     0.154 C 
HETATM    3  C9  UNL     1      -0.001  -1.131   1.693  1.00  0.00     0.292 C 
HETATM    4  N7  UNL     1       1.125  -0.789   0.837  1.00  0.00     0.099 N 
HETATM    5  C15 UNL     1       1.123  -1.776  -0.220  1.00  0.00     0.307 C 
HETATM    6  C16 UNL     1       0.239  -1.255  -1.331  1.00  0.00     0.229 C 
HETATM    7  C17 UNL     1      -1.193  -1.683  -1.175  1.00  0.00     0.159 C 
ENDROOT
BRANCH   1   8
HETATM    8  C7  UNL     1      -3.174  -1.428   0.092  1.00  0.00     0.150 A 
HETATM    9  N5  UNL     1      -3.556  -2.598   0.689  1.00  0.00    -0.175 N 
HETATM   10  C6  UNL     1      -4.828  -2.993   0.753  1.00  0.00     0.678 A 
ATOM     11  H5  UNL     1      -2.838  -3.193   1.102  1.00  0.00     0.186 HD
HETATM   12  N3  UNL     1      -5.773  -2.222   0.215  1.00  0.00    -0.188 N 
HETATM   13  C5  UNL     1      -5.497  -1.073  -0.383  1.00  0.00     0.098 A 
ATOM     14  H3  UNL     1      -6.745  -2.528   0.266  1.00  0.00     0.184 HD
HETATM   15  C4  UNL     1      -6.267  -0.126  -1.012  1.00  0.00     0.140 A 
HETATM   16  C18 UNL     1      -4.148  -0.639  -0.456  1.00  0.00     0.124 A 
HETATM   17  N2  UNL     1      -5.454   0.816  -1.437  1.00  0.00    -0.307 N 
HETATM   18  N1  UNL     1      -4.166   0.527  -1.109  1.00  0.00    -0.287 N 
ATOM     19  H2  UNL     1      -5.749   1.650  -1.944  1.00  0.00     0.186 HD
BRANCH  10  20
HETATM   20  N4  UNL     1      -5.138  -4.099   1.325  1.00  0.00    -0.234 N 
ATOM     21  H42 UNL     1      -6.111  -4.401   1.374  1.00  0.00     0.174 HD
ATOM     22  H41 UNL     1      -4.415  -4.689   1.737  1.00  0.00     0.174 HD
ENDBRANCH  10  20
BRANCH  18  23
HETATM   23  C3  UNL     1      -3.090   1.434  -1.394  1.00  0.00     0.149 C 
BRANCH  23  24
HETATM   24  C2  UNL     1      -3.150   2.514  -0.293  1.00  0.00     0.017 C 
HETATM   25  C1  UNL     1      -2.048   3.518  -0.487  1.00  0.00     0.007 C 
ENDBRANCH  23  24
ENDBRANCH  18  23
ENDBRANCH   1   8
BRANCH   6  26
HETATM   26  N12 UNL     1       0.728  -1.840  -2.568  1.00  0.00    -0.072 N 
ATOM     27 3H12 UNL     1       1.720  -1.667  -2.729  1.00  0.00     0.274 HD
ATOM     28 2H12 UNL     1       0.778  -2.858  -2.538  1.00  0.00     0.274 HD
ATOM     29 1H12 UNL     1       0.132  -1.489  -3.317  1.00  0.00     0.274 HD
ENDBRANCH   6  26
BRANCH   4  30
HETATM   30  C10 UNL     1       2.319  -0.779   1.620  1.00  0.00     0.352 C 
BRANCH  30  31
HETATM   31  C11 UNL     1       3.521  -0.425   0.842  1.00  0.00     0.147 A 
HETATM   32  N8  UNL     1       4.403  -1.255   0.261  1.00  0.00    -0.284 N 
HETATM   33  N9  UNL     1       5.341  -0.519  -0.342  1.00  0.00    -0.284 N 
ATOM     34  H8  UNL     1       4.363  -2.274   0.277  1.00  0.00     0.188 HD
HETATM   35  C12 UNL     1       5.070   0.785  -0.152  1.00  0.00     0.147 A 
ATOM     36  H9  UNL     1       6.136  -0.887  -0.864  1.00  0.00     0.188 HD
HETATM   37  N10 UNL     1       3.944   0.826   0.580  1.00  0.00    -0.231 N 
BRANCH  35  38
HETATM   38  C13 UNL     1       5.853   1.951  -0.648  1.00  0.00     0.184 C 
HETATM   39  C14 UNL     1       7.109   2.115   0.216  1.00  0.00     0.048 C 
BRANCH  38  40
HETATM   40  O1  UNL     1       6.216   1.771  -1.996  1.00  0.00    -0.388 OA
ATOM     41  H1  UNL     1       6.715   2.515  -2.312  1.00  0.00     0.210 HD
ENDBRANCH  38  40
ENDBRANCH  35  38
BRANCH  37  42
HETATM   42  N11 UNL     1       3.302   1.983   1.009  1.00  0.00    -0.336 N 
ATOM     43 2H11 UNL     1       2.447   2.014   1.565  1.00  0.00     0.177 HD
ATOM     44 1H11 UNL     1       3.622   2.931   0.811  1.00  0.00     0.177 HD
ENDBRANCH  37  42
ENDBRANCH  30  31
ENDBRANCH   4  30
TORSDOF 10
