REMARK  12 active torsions:
REMARK  status: ('A' for Active; 'I' for Inactive)
REMARK    1  A    between atoms: N1_1  and  C1_4 
REMARK    2  A    between atoms: N4_11  and  C3_12 
REMARK    3  A    between atoms: C4_14  and  C5_15 
REMARK    4  A    between atoms: C5_15  and  O2_16 
REMARK    5  A    between atoms: C5_15  and  C6_18 
REMARK    6  A    between atoms: C6_18  and  O3_19 
REMARK    7  A    between atoms: C7_21  and  N5_22 
REMARK    8  A    between atoms: C8_25  and  C9_26 
REMARK    9  A    between atoms: C11_33  and  O5_34 
REMARK   10  A    between atoms: C12_36  and  N10_37 
REMARK   11  A    between atoms: C13_42  and  N12_43 
REMARK   12  A    between atoms: N12_43  and  N13_45 
ROOT
HETATM    1  C3  UNL     1      -0.584   0.506  -1.130  1.00  0.00     0.295 C 
HETATM    2  O1  UNL     1      -0.323  -0.858  -1.154  1.00  0.00    -0.352 OA
HETATM    3  C4  UNL     1       0.859  -1.105  -0.458  1.00  0.00     0.182 C 
HETATM    4  C7  UNL     1       1.600   0.169  -0.569  1.00  0.00     0.175 C 
HETATM    5  C11 UNL     1       0.468   1.158  -0.254  1.00  0.00     0.196 C 
ENDROOT
BRANCH   1   6
HETATM    6  N4  UNL     1      -1.916   0.822  -0.763  1.00  0.00     0.016 N 
HETATM    7  C2  UNL     1      -2.243   2.122  -0.684  1.00  0.00     0.696 C 
HETATM    8  N2  UNL     1      -3.191   2.703   0.113  1.00  0.00    -0.173 N 
HETATM    9  N3  UNL     1      -1.622   2.963  -1.423  1.00  0.00    -0.234 N 
HETATM   10  C1  UNL     1      -4.196   2.091   0.767  1.00  0.00     0.161 C 
ATOM     11  H2  UNL     1      -3.129   3.715   0.224  1.00  0.00     0.186 HD
HETATM   12  C13 UNL     1      -4.644   0.787   0.598  1.00  0.00     0.179 C 
HETATM   13  N11 UNL     1      -3.953  -0.240   0.100  1.00  0.00    -0.171 N 
HETATM   14  C12 UNL     1      -2.734  -0.211  -0.522  1.00  0.00     0.696 C 
ATOM     15  H11 UNL     1      -4.386  -1.159   0.194  1.00  0.00     0.186 HD
ATOM     16  H32 UNL     1      -1.870   3.950  -1.363  1.00  0.00     0.174 HD
ATOM     17  H31 UNL     1      -0.915   2.530  -2.017  1.00  0.00     0.174 HD
BRANCH  10  18
HETATM   18  N1  UNL     1      -4.830   2.753   1.647  1.00  0.00    -0.382 N 
ATOM     19  H12 UNL     1      -4.501   3.710   1.771  1.00  0.00     0.157 HD
ATOM     20  H11 UNL     1      -5.591   2.289   2.143  1.00  0.00     0.157 HD
ENDBRANCH  10  18
BRANCH  12  21
HETATM   21  N12 UNL     1      -5.864   0.564   0.969  1.00  0.00    -0.289 N 
ATOM     22  H12 UNL     1      -6.440   1.311   1.357  1.00  0.00     0.188 HD
BRANCH  21  23
HETATM   23  N13 UNL     1      -6.366  -0.724   0.823  1.00  0.00    -0.344 N 
ATOM     24 2H13 UNL     1      -5.777  -1.460   0.433  1.00  0.00     0.176 HD
ATOM     25 1H13 UNL     1      -7.327  -0.900   1.115  1.00  0.00     0.176 HD
ENDBRANCH  21  23
ENDBRANCH  12  21
BRANCH  14  26
HETATM   26  N10 UNL     1      -2.382  -1.385  -0.908  1.00  0.00    -0.234 N 
ATOM     27 2H10 UNL     1      -1.474  -1.363  -1.371  1.00  0.00     0.174 HD
ATOM     28 1H10 UNL     1      -3.005  -2.172  -0.724  1.00  0.00     0.174 HD
ENDBRANCH  14  26
ENDBRANCH   1   6
BRANCH   5  29
HETATM   29  O5  UNL     1       0.061   1.096   1.053  1.00  0.00    -0.389 OA
ATOM     30  H5  UNL     1       0.720   1.504   1.602  1.00  0.00     0.210 HD
ENDBRANCH   5  29
BRANCH   3  31
HETATM   31  C5  UNL     1       1.599  -2.285  -1.051  1.00  0.00     0.172 C 
BRANCH  31  32
HETATM   32  O2  UNL     1       1.911  -2.020  -2.383  1.00  0.00    -0.391 OA
ATOM     33  H2  UNL     1       2.375  -2.761  -2.755  1.00  0.00     0.210 HD
ENDBRANCH  31  32
BRANCH  31  34
HETATM   34  C6  UNL     1       0.743  -3.535  -1.002  1.00  0.00     0.198 C 
BRANCH  34  35
HETATM   35  O3  UNL     1       1.425  -4.620  -1.542  1.00  0.00    -0.398 OA
ATOM     36  H3  UNL     1       0.889  -5.403  -1.511  1.00  0.00     0.209 HD
ENDBRANCH  34  35
ENDBRANCH  31  34
ENDBRANCH   3  31
BRANCH   4  37
HETATM   37  N5  UNL     1       2.769   0.336   0.188  1.00  0.00    -0.253 N 
HETATM   38  N6  UNL     1       3.862   0.940  -0.283  1.00  0.00    -0.276 N 
HETATM   39  C8  UNL     1       4.844   0.979   0.615  1.00  0.00     0.189 A 
ATOM     40  H6  UNL     1       3.936   1.327  -1.224  1.00  0.00     0.189 HD
HETATM   41  N8  UNL     1       4.362   0.367   1.728  1.00  0.00    -0.310 N 
HETATM   42  C10 UNL     1       3.112  -0.008   1.437  1.00  0.00     0.211 A 
ATOM     43  H8  UNL     1       4.855   0.223   2.609  1.00  0.00     0.170 HD
HETATM   44  N9  UNL     1       2.262  -0.681   2.337  1.00  0.00    -0.062 NA
BRANCH  39  45
HETATM   45  C9  UNL     1       6.172   1.558   0.449  1.00  0.00     0.300 C 
HETATM   46  N7  UNL     1       6.509   2.157  -0.775  1.00  0.00    -0.054 NA
HETATM   47  O4  UNL     1       6.987   1.515   1.389  1.00  0.00    -0.268 OA
ENDBRANCH  39  45
ENDBRANCH   4  37
TORSDOF 12
