REMARK  2 active torsions:
REMARK  status: ('A' for Active; 'I' for Inactive)
REMARK    1  A    between atoms: N2_4  and  N3_6 
REMARK    2  A    between atoms: N3_6  and  C1_8 
ROOT
HETATM    1  N3  UNL     1       1.658  -0.498  -0.480  1.00  0.00    -0.317 N 
ATOM      2  H3  UNL     1       1.602  -1.334  -1.062  1.00  0.00     0.182 HD
ENDROOT
BRANCH   1   3
HETATM    3  N2  UNL     1       2.826  -0.214   0.220  1.00  0.00    -0.253 N 
HETATM    4  N1  UNL     1       3.910  -0.795  -0.096  1.00  0.00    -0.331 N 
ATOM      5  H12 UNL     1       3.907  -1.466  -0.864  1.00  0.00     0.178 HD
ATOM      6  H11 UNL     1       4.766  -0.587   0.417  1.00  0.00     0.178 HD
ATOM      7  H2  UNL     1       2.812   0.460   0.986  1.00  0.00     0.207 HD
ENDBRANCH   1   3
BRANCH   1   8
HETATM    8  C1  UNL     1       0.544   0.376  -0.384  1.00  0.00     0.105 C 
HETATM    9  C2  UNL     1       0.043   0.504   1.070  1.00  0.00     0.031 C 
HETATM   10  C3  UNL     1      -1.399   0.190   0.848  1.00  0.00    -0.012 C 
HETATM   11  C4  UNL     1      -1.283  -1.091   0.014  1.00  0.00     0.011 C 
HETATM   12  C6  UNL     1      -1.736   0.865  -0.485  1.00  0.00     0.011 C 
HETATM   13  C5  UNL     1      -0.708  -0.120  -1.026  1.00  0.00     0.010 C 
ENDBRANCH   1   8
TORSDOF 2
