REMARK  6 active torsions:
REMARK  status: ('A' for Active; 'I' for Inactive)
REMARK    1  A    between atoms: C3_4  and  C4_5 
REMARK    2  A    between atoms: C12_13  and  C13_14 
REMARK    3  A    between atoms: C16_17  and  C17_18 
REMARK    4  A    between atoms: C23_27  and  N2_28 
REMARK    5  A    between atoms: N2_28  and  S2_30 
REMARK    6  A    between atoms: S2_30  and  C24_33 
ROOT
HETATM    1  C13 UNL     1      -0.903   1.090   0.291  1.00  0.00     0.086 A 
HETATM    2  C14 UNL     1      -0.374  -0.133  -0.043  1.00  0.00     0.041 A 
HETATM    3  C15 UNL     1       0.992   0.063  -0.146  1.00  0.00     0.041 A 
HETATM    4  C16 UNL     1       1.264   1.363   0.118  1.00  0.00     0.090 A 
HETATM    5  O4  UNL     1       0.101   1.918   0.370  1.00  0.00    -0.309 OA
ENDROOT
BRANCH   4   6
HETATM    6  C17 UNL     1       2.508   2.108   0.152  1.00  0.00     0.044 A 
HETATM    7  C18 UNL     1       2.454   3.473   0.466  1.00  0.00     0.039 A 
HETATM    8  C19 UNL     1       3.614   4.246   0.515  1.00  0.00     0.032 A 
HETATM    9  S1  UNL     1       3.947   5.881   0.849  1.00  0.00    -0.100 SA
HETATM   10  C22 UNL     1       4.847   3.719   0.263  1.00  0.00     0.051 A 
HETATM   11  C20 UNL     1       5.638   5.867   0.663  1.00  0.00     0.053 A 
HETATM   12  C21 UNL     1       5.905   4.565   0.340  1.00  0.00     0.038 A 
HETATM   13  N1  UNL     1       4.861   2.375  -0.043  1.00  0.00    -0.340 N 
HETATM   14  C23 UNL     1       3.759   1.639  -0.089  1.00  0.00     0.128 A 
ATOM     15  H1  UNL     1       5.756   1.928  -0.242  1.00  0.00     0.167 HD
BRANCH  14  16
HETATM   16  N2  UNL     1       3.860   0.412  -0.378  1.00  0.00    -0.265 N 
ATOM     17  H2  UNL     1       3.007  -0.146  -0.412  1.00  0.00     0.180 HD
BRANCH  16  18
HETATM   18  S2  UNL     1       5.339  -0.363  -0.713  1.00  0.00     0.264 S 
HETATM   19  O2  UNL     1       6.053   0.197  -1.923  1.00  0.00    -0.200 OA
HETATM   20  O3  UNL     1       6.319  -0.343   0.422  1.00  0.00    -0.200 OA
BRANCH  18  21
HETATM   21  C24 UNL     1       5.008  -2.064  -1.047  1.00  0.00     0.079 A 
HETATM   22  C25 UNL     1       5.004  -2.995  -0.033  1.00  0.00     0.025 A 
HETATM   23  C26 UNL     1       4.748  -4.310  -0.291  1.00  0.00     0.002 A 
HETATM   24  C27 UNL     1       4.486  -4.747  -1.571  1.00  0.00     0.000 A 
HETATM   25  C28 UNL     1       4.492  -3.813  -2.573  1.00  0.00     0.002 A 
HETATM   26  C29 UNL     1       4.751  -2.481  -2.316  1.00  0.00     0.025 A 
ENDBRANCH  18  21
ENDBRANCH  16  18
ENDBRANCH  14  16
ENDBRANCH   4   6
BRANCH   1  27
HETATM   27  C12 UNL     1      -2.329   1.403   0.517  1.00  0.00    -0.001 A 
HETATM   28  C11 UNL     1      -3.253   0.393   0.389  1.00  0.00     0.029 A 
HETATM   29  C10 UNL     1      -4.624   0.619   0.588  1.00  0.00     0.003 A 
HETATM   30  C3  UNL     1      -5.507  -0.404   0.461  1.00  0.00    -0.008 A 
HETATM   31  C32 UNL     1      -5.052   1.884   0.922  1.00  0.00     0.046 A 
HETATM   32  C2  UNL     1      -6.865  -0.130   0.684  1.00  0.00     0.087 A 
HETATM   33  C1  UNL     1      -7.232   1.151   1.014  1.00  0.00     0.246 A 
HETATM   34  O1  UNL     1      -8.451   1.440   1.223  1.00  0.00    -0.268 OA
HETATM   35  N3  UNL     1      -6.348   2.140   1.132  1.00  0.00    -0.323 N 
ATOM     36  H3  UNL     1      -6.655   3.081   1.379  1.00  0.00     0.169 HD
HETATM   37  C31 UNL     1      -4.127   2.919   1.055  1.00  0.00     0.031 A 
HETATM   38  C30 UNL     1      -2.793   2.648   0.849  1.00  0.00     0.016 A 
BRANCH  30  39
HETATM   39  C4  UNL     1      -5.130  -1.757   0.073  1.00  0.00    -0.025 A 
HETATM   40  C5  UNL     1      -5.526  -2.758   0.940  1.00  0.00     0.012 A 
HETATM   41  C6  UNL     1      -5.282  -4.077   0.701  1.00  0.00     0.001 A 
HETATM   42  C7  UNL     1      -4.613  -4.386  -0.460  1.00  0.00     0.000 A 
HETATM   43  C8  UNL     1      -4.201  -3.421  -1.353  1.00  0.00     0.001 A 
HETATM   44  C9  UNL     1      -4.470  -2.108  -1.067  1.00  0.00     0.012 A 
ENDBRANCH  30  39
ENDBRANCH   1  27
TORSDOF 6
