REMARK  9 active torsions:
REMARK  status: ('A' for Active; 'I' for Inactive)
REMARK    1  A    between atoms: C3_3  and  C4_4 
REMARK    2  A    between atoms: C11_13  and  C12_14 
REMARK    3  A    between atoms: C13_15  and  C14_16 
REMARK    4  A    between atoms: C17_19  and  C18_20 
REMARK    5  A    between atoms: N2_30  and  C27_31 
REMARK    6  A    between atoms: C27_31  and  O1_32 
REMARK    7  A    between atoms: C27_31  and  C28_34 
REMARK    8  A    between atoms: C28_34  and  N3_35 
REMARK    9  A    between atoms: C28_34  and  C29_39 
ROOT
HETATM    1  C1  UNL     1      -1.992  -1.739  -4.219  1.00  0.00     0.112 C 
HETATM    2  C2  UNL     1      -1.586  -2.357  -2.954  1.00  0.00    -0.104 C 
HETATM    3  C3  UNL     1      -1.224  -2.885  -1.906  1.00  0.00    -0.049 C 
ENDROOT
BRANCH   3   4
HETATM    4  C4  UNL     1      -0.783  -3.560  -0.719  1.00  0.00     0.096 A 
HETATM    5  N1  UNL     1      -0.838  -4.909  -0.585  1.00  0.00    -0.348 N 
HETATM    6  C5  UNL     1      -0.284  -5.251   0.583  1.00  0.00     0.044 A 
ATOM      7  H1  UNL     1      -1.237  -5.557  -1.264  1.00  0.00     0.167 HD
HETATM    8  C6  UNL     1      -0.117  -6.485   1.151  1.00  0.00     0.030 A 
HETATM    9  C10 UNL     1       0.139  -4.076   1.215  1.00  0.00     0.002 A 
HETATM   10  C7  UNL     1       0.481  -6.614   2.384  1.00  0.00     0.002 A 
HETATM   11  C8  UNL     1       0.900  -5.469   3.016  1.00  0.00     0.001 A 
HETATM   12  C9  UNL     1       0.728  -4.228   2.437  1.00  0.00     0.014 A 
HETATM   13  C11 UNL     1      -0.173  -2.978   0.397  1.00  0.00     0.014 A 
BRANCH  13  14
HETATM   14  C12 UNL     1      -0.021  -1.522   0.656  1.00  0.00     0.142 C 
HETATM   15  C13 UNL     1       1.205  -1.199   1.449  1.00  0.00     0.109 C 
HETATM   16  S1  UNL     1       0.640  -0.575   3.071  1.00  0.00    -0.137 SA
HETATM   17  C26 UNL     1      -1.092  -1.090   2.758  1.00  0.00     0.200 C 
HETATM   18  N2  UNL     1      -1.152  -0.916   1.294  1.00  0.00    -0.344 N 
BRANCH  15  19
HETATM   19  C14 UNL     1       2.026  -0.074   0.866  1.00  0.00    -0.042 A 
HETATM   20  C15 UNL     1       3.279  -0.368   0.332  1.00  0.00     0.009 A 
HETATM   21  C16 UNL     1       4.078   0.644  -0.184  1.00  0.00     0.013 A 
HETATM   22  C17 UNL     1       3.654   1.963  -0.182  1.00  0.00    -0.026 A 
HETATM   23  C24 UNL     1       2.433   2.250   0.338  1.00  0.00     0.013 A 
HETATM   24  C25 UNL     1       1.645   1.228   0.851  1.00  0.00     0.009 A 
BRANCH  22  25
HETATM   25  C18 UNL     1       4.557   2.984  -0.741  1.00  0.00    -0.026 A 
HETATM   26  C19 UNL     1       4.564   4.268  -0.266  1.00  0.00     0.012 A 
HETATM   27  C20 UNL     1       5.419   5.215  -0.789  1.00  0.00     0.001 A 
HETATM   28  C21 UNL     1       6.276   4.842  -1.810  1.00  0.00     0.000 A 
HETATM   29  C22 UNL     1       6.287   3.554  -2.304  1.00  0.00     0.001 A 
HETATM   30  C23 UNL     1       5.415   2.638  -1.752  1.00  0.00     0.012 A 
ENDBRANCH  22  25
ENDBRANCH  15  19
BRANCH  18  31
HETATM   31  C27 UNL     1      -2.177  -0.141   0.776  1.00  0.00     0.150 C 
BRANCH  31  32
HETATM   32  O1  UNL     1      -3.169   0.116   1.626  1.00  0.00    -0.348 OA
ATOM     33  H1  UNL     1      -3.872   0.647   1.271  1.00  0.00     0.219 HD
ENDBRANCH  31  32
BRANCH  31  34
HETATM   34  C28 UNL     1      -2.435   0.486  -0.514  1.00  0.00     0.290 C 
BRANCH  34  35
HETATM   35  N3  UNL     1      -1.334   0.845  -1.322  1.00  0.00    -0.064 N 
ATOM     36  H33 UNL     1      -0.708   1.443  -0.782  1.00  0.00     0.275 HD
ATOM     37  H32 UNL     1      -0.746   0.024  -1.465  1.00  0.00     0.275 HD
ATOM     38  H31 UNL     1      -1.515   1.284  -2.225  1.00  0.00     0.275 HD
ENDBRANCH  34  35
BRANCH  34  39
HETATM   39  C29 UNL     1      -3.365   1.653  -0.399  1.00  0.00    -0.019 A 
HETATM   40  C30 UNL     1      -2.892   2.922  -0.176  1.00  0.00     0.012 A 
HETATM   41  C31 UNL     1      -3.761   4.013  -0.054  1.00  0.00     0.033 A 
HETATM   42  C32 UNL     1      -5.122   3.780  -0.162  1.00  0.00     0.067 A 
HETATM   43  N4  UNL     1      -6.192   4.596  -0.088  1.00  0.00    -0.261 N 
HETATM   44  C34 UNL     1      -5.619   2.516  -0.385  1.00  0.00     0.017 A 
HETATM   45  O2  UNL     1      -7.290   3.917  -0.250  1.00  0.00    -0.249 OA
ATOM     46  H4  UNL     1      -6.147   5.602   0.072  1.00  0.00     0.195 HD
HETATM   47  C33 UNL     1      -6.986   2.640  -0.434  1.00  0.00     0.181 A 
HETATM   48  C35 UNL     1      -4.736   1.481  -0.499  1.00  0.00     0.025 A 
ENDBRANCH  34  39
ENDBRANCH  31  34
ENDBRANCH  18  31
ENDBRANCH  13  14
ENDBRANCH   3   4
TORSDOF 9
