REMARK  18 active torsions:
REMARK  status: ('A' for Active; 'I' for Inactive)
REMARK    1  A    between atoms: C3_5  and  O2_6 
REMARK    2  A    between atoms: O2_6  and  C4_7 
REMARK    3  A    between atoms: C5_9  and  C6_10 
REMARK    4  A    between atoms: C6_10  and  O4_11 
REMARK    5  A    between atoms: C7_13  and  O5_14 
REMARK    6  A    between atoms: C8_16  and  O6_18 
REMARK    7  A    between atoms: C10_20  and  O7_21 
REMARK    8  A    between atoms: O7_21  and  C11_22 
REMARK    9  A    between atoms: C12_23  and  N2_24 
REMARK   10  A    between atoms: C15_30  and  N4_31 
REMARK   11  A    between atoms: N4_31  and  C16_33 
REMARK   12  A    between atoms: C16_33  and  C17_34 
REMARK   13  A    between atoms: C17_34  and  N5_35 
REMARK   14  A    between atoms: C18_41  and  N7_42 
REMARK   15  A    between atoms: N9_51  and  C25_52 
REMARK   16  A    between atoms: C25_52  and  C26_53 
REMARK   17  A    between atoms: C26_53  and  O9_54 
REMARK   18  A    between atoms: C26_53  and  O10_56 
ROOT
HETATM    1  O7  UNL     1      -1.885  -0.104  -0.647  1.00  0.00    -0.302 OA
ENDROOT
BRANCH   1   2
HETATM    2  C10 UNL     1      -2.073  -1.211   0.087  1.00  0.00     0.193 A 
HETATM    3  C3  UNL     1      -3.315  -1.877  -0.178  1.00  0.00     0.192 A 
HETATM    4  C2  UNL     1      -3.619  -3.014   0.500  1.00  0.00     0.289 A 
HETATM    5  N1  UNL     1      -2.819  -3.569   1.425  1.00  0.00    -0.268 N 
HETATM    6  O1  UNL     1      -4.728  -3.600   0.254  1.00  0.00    -0.265 OA
HETATM    7  C1  UNL     1      -3.189  -4.797   2.126  1.00  0.00     0.164 C 
HETATM    8  C27 UNL     1      -1.666  -2.919   1.651  1.00  0.00     0.333 A 
HETATM    9  N9  UNL     1      -1.307  -1.787   1.013  1.00  0.00    -0.272 N 
HETATM   10  O11 UNL     1      -0.869  -3.399   2.518  1.00  0.00    -0.246 OA
BRANCH   3  11
HETATM   11  O2  UNL     1      -4.169  -1.316  -1.137  1.00  0.00    -0.307 OA
BRANCH  11  12
HETATM   12  C4  UNL     1      -5.128  -0.389  -0.670  1.00  0.00     0.303 C 
HETATM   13  O3  UNL     1      -4.884   0.924  -1.114  1.00  0.00    -0.348 OA
HETATM   14  C5  UNL     1      -6.092   1.556  -0.771  1.00  0.00     0.180 C 
HETATM   15  C7  UNL     1      -7.057   0.646  -1.550  1.00  0.00     0.188 C 
HETATM   16  C8  UNL     1      -6.540  -0.712  -1.043  1.00  0.00     0.132 C 
HETATM   17  C9  UNL     1      -7.398  -1.051   0.148  1.00  0.00     0.054 C 
BRANCH  14  18
HETATM   18  C6  UNL     1      -6.201   2.955  -1.268  1.00  0.00     0.198 C 
BRANCH  18  19
HETATM   19  O4  UNL     1      -5.178   3.745  -0.741  1.00  0.00    -0.398 OA
ATOM     20  H4  UNL     1      -5.248   4.638  -1.058  1.00  0.00     0.209 HD
ENDBRANCH  18  19
ENDBRANCH  14  18
BRANCH  15  21
HETATM   21  O5  UNL     1      -8.347   0.857  -1.134  1.00  0.00    -0.390 OA
ATOM     22  H5  UNL     1      -8.943   0.295  -1.615  1.00  0.00     0.210 HD
ENDBRANCH  15  21
BRANCH  16  23
HETATM   23  O6  UNL     1      -6.684  -1.619  -2.064  1.00  0.00    -0.382 OA
ATOM     24  H6  UNL     1      -7.581  -1.824  -2.301  1.00  0.00     0.210 HD
ENDBRANCH  16  23
ENDBRANCH  11  12
ENDBRANCH   3  11
BRANCH   9  25
HETATM   25  C25 UNL     1      -0.066  -1.109   1.369  1.00  0.00     0.196 C 
BRANCH  25  26
HETATM   26  C26 UNL     1      -0.270  -0.168   2.540  1.00  0.00     0.272 C 
BRANCH  26  27
HETATM   27  O9  UNL     1       1.000   0.406   2.779  1.00  0.00    -0.370 OA
ATOM     28  H9  UNL     1       0.872   0.996   3.513  1.00  0.00     0.212 HD
ENDBRANCH  26  27
BRANCH  26  29
HETATM   29  O10 UNL     1      -1.081   0.914   2.174  1.00  0.00    -0.370 OA
ATOM     30  H10 UNL     1      -1.209   1.504   2.908  1.00  0.00     0.212 HD
ENDBRANCH  26  29
ENDBRANCH  25  26
ENDBRANCH   9  25
ENDBRANCH   1   2
BRANCH   1  31
HETATM   31  C11 UNL     1      -1.384   0.399  -1.751  1.00  0.00     0.162 C 
HETATM   32  C12 UNL     1      -0.091   0.587  -2.355  1.00  0.00     0.128 C 
BRANCH  32  33
HETATM   33  N2  UNL     1       0.901   1.449  -1.816  1.00  0.00    -0.256 N 
HETATM   34  C13 UNL     1       0.910   2.817  -1.901  1.00  0.00     0.333 A 
HETATM   35  O8  UNL     1      -0.047   3.451  -2.397  1.00  0.00    -0.246 OA
HETATM   36  N3  UNL     1       2.004   3.347  -1.416  1.00  0.00    -0.302 N 
HETATM   37  C14 UNL     1       2.773   2.327  -0.985  1.00  0.00     0.126 A 
ATOM     38  H3  UNL     1       2.231   4.340  -1.372  1.00  0.00     0.171 HD
HETATM   39  C15 UNL     1       4.010   2.289  -0.414  1.00  0.00     0.147 A 
HETATM   40  C24 UNL     1       2.059   1.148  -1.248  1.00  0.00     0.162 A 
HETATM   41  N6  UNL     1       4.598   1.131  -0.082  1.00  0.00    -0.174 N 
HETATM   42  C18 UNL     1       3.922  -0.022  -0.330  1.00  0.00     0.683 A 
ATOM     43  H6  UNL     1       5.525   1.115   0.344  1.00  0.00     0.186 HD
HETATM   44  N8  UNL     1       2.716   0.013  -0.884  1.00  0.00    -0.173 N 
ATOM     45  H8  UNL     1       2.247  -0.877  -1.049  1.00  0.00     0.186 HD
BRANCH  39  46
HETATM   46  N4  UNL     1       4.622   3.432  -0.196  1.00  0.00    -0.372 N 
ATOM     47  H4  UNL     1       4.195   4.325  -0.444  1.00  0.00     0.161 HD
BRANCH  46  48
HETATM   48  C16 UNL     1       5.945   3.357   0.420  1.00  0.00     0.148 C 
BRANCH  48  49
HETATM   49  C17 UNL     1       6.605   4.720   0.264  1.00  0.00     0.249 C 
BRANCH  49  50
HETATM   50  N5  UNL     1       7.928   4.729   0.852  1.00  0.00    -0.078 N 
ATOM     51  H53 UNL     1       7.908   4.431   1.827  1.00  0.00     0.274 HD
ATOM     52  H52 UNL     1       8.512   3.983   0.474  1.00  0.00     0.274 HD
ATOM     53  H51 UNL     1       8.370   5.642   0.747  1.00  0.00     0.274 HD
ENDBRANCH  49  50
ENDBRANCH  48  49
ENDBRANCH  46  48
ENDBRANCH  39  46
BRANCH  42  54
HETATM   54  N7  UNL     1       4.586  -1.238   0.032  1.00  0.00    -0.217 N 
HETATM   55  C19 UNL     1       5.081  -2.062  -1.045  1.00  0.00     0.141 C 
HETATM   56  C20 UNL     1       5.661  -3.324  -0.405  1.00  0.00     0.020 C 
HETATM   57  C21 UNL     1       6.685  -2.864   0.606  1.00  0.00     0.003 C 
HETATM   58  C22 UNL     1       6.046  -2.160   1.776  1.00  0.00     0.020 C 
HETATM   59  C23 UNL     1       4.719  -1.526   1.436  1.00  0.00     0.141 C 
ENDBRANCH  42  54
ENDBRANCH  32  33
ENDBRANCH   1  31
TORSDOF 18
