REMARK  12 active torsions:
REMARK  status: ('A' for Active; 'I' for Inactive)
REMARK    1  A    between atoms: C3_9  and  C4_10 
REMARK    2  A    between atoms: C4_10  and  C5_15 
REMARK    3  A    between atoms: N4_11  and  O2_13 
REMARK    4  A    between atoms: C6_18  and  N6_19 
REMARK    5  A    between atoms: C7_24  and  N8_25 
REMARK    6  A    between atoms: C8_27  and  O3_28 
REMARK    7  A    between atoms: C8_27  and  C11_33 
REMARK    8  A    between atoms: O3_28  and  C9_29 
REMARK    9  A    between atoms: C9_29  and  C10_30 
REMARK   10  A    between atoms: C10_30  and  O4_31 
REMARK   11  A    between atoms: C12_39  and  N11_40 
REMARK   12  A    between atoms: C13_43  and  O6_44 
ROOT
HETATM    1  C5  UNL     1       1.244   0.135   0.358  1.00  0.00     0.117 A 
HETATM    2  N5  UNL     1       1.545   0.652  -0.814  1.00  0.00    -0.187 N 
ATOM      3  H5  UNL     1       2.502   0.517  -1.142  1.00  0.00     0.184 HD
HETATM    4  C6  UNL     1       0.725   1.336  -1.620  1.00  0.00     0.678 A 
HETATM    5  N7  UNL     1      -0.542   1.539  -1.232  1.00  0.00    -0.174 N 
ATOM      6  H7  UNL     1      -1.180   2.059  -1.835  1.00  0.00     0.186 HD
HETATM    7  C7  UNL     1      -0.975   1.063  -0.057  1.00  0.00     0.159 A 
HETATM    8  C13 UNL     1      -0.091   0.359   0.748  1.00  0.00     0.140 A 
ENDROOT
BRANCH   7   9
HETATM    9  N8  UNL     1      -2.312   1.277   0.362  1.00  0.00    -0.318 N 
HETATM   10  C8  UNL     1      -3.324   0.557   0.120  1.00  0.00     0.177 C 
ATOM     11  H8  UNL     1      -2.478   2.111   0.926  1.00  0.00     0.169 HD
BRANCH  10  12
HETATM   12  O3  UNL     1      -4.533   0.982   0.646  1.00  0.00    -0.332 OA
BRANCH  12  13
HETATM   13  C9  UNL     1      -4.886   2.321   0.822  1.00  0.00     0.203 C 
BRANCH  13  14
HETATM   14  C10 UNL     1      -4.870   3.008  -0.518  1.00  0.00     0.191 C 
BRANCH  14  15
HETATM   15  O4  UNL     1      -5.782   2.374  -1.344  1.00  0.00    -0.399 OA
ATOM     16  H4  UNL     1      -5.772   2.807  -2.189  1.00  0.00     0.209 HD
ENDBRANCH  14  15
ENDBRANCH  13  14
ENDBRANCH  12  13
ENDBRANCH  10  12
BRANCH  10  17
HETATM   17  C11 UNL     1      -3.284  -0.659  -0.661  1.00  0.00     0.152 A 
HETATM   18  N9  UNL     1      -2.137  -1.152  -1.217  1.00  0.00    -0.234 N 
HETATM   19  O5  UNL     1      -2.406  -2.257  -1.861  1.00  0.00    -0.155 OA
ATOM     20  H9  UNL     1      -1.214  -0.724  -1.141  1.00  0.00     0.197 HD
HETATM   21  N10 UNL     1      -3.659  -2.533  -1.770  1.00  0.00    -0.224 N 
HETATM   22  C12 UNL     1      -4.258  -1.561  -1.026  1.00  0.00     0.154 A 
ATOM     23  H10 UNL     1      -4.124  -3.341  -2.184  1.00  0.00     0.198 HD
BRANCH  22  24
HETATM   24  N11 UNL     1      -5.508  -1.524  -0.738  1.00  0.00    -0.382 N 
ATOM     25 2H11 UNL     1      -5.956  -0.796  -0.181  1.00  0.00     0.157 HD
ATOM     26 1H11 UNL     1      -6.230  -2.192  -1.008  1.00  0.00     0.157 HD
ENDBRANCH  22  24
ENDBRANCH  10  17
ENDBRANCH   7   9
BRANCH   8  27
HETATM   27  O6  UNL     1      -0.524  -0.135   1.957  1.00  0.00    -0.355 OA
ATOM     28  H6  UNL     1      -1.424   0.016   2.220  1.00  0.00     0.218 HD
ENDBRANCH   8  27
BRANCH   4  29
HETATM   29  N6  UNL     1       1.128   1.806  -2.765  1.00  0.00    -0.234 N 
ATOM     30  H62 UNL     1       2.092   1.652  -3.060  1.00  0.00     0.174 HD
ATOM     31  H61 UNL     1       0.503   2.327  -3.379  1.00  0.00     0.174 HD
ENDBRANCH   4  29
BRANCH   1  32
HETATM   32  C4  UNL     1       2.149  -0.596   1.201  1.00  0.00     0.118 C 
HETATM   33  N4  UNL     1       1.554  -1.000   2.339  1.00  0.00    -0.265 N 
ATOM     34  H4  UNL     1       0.573  -0.747   2.457  1.00  0.00     0.194 HD
BRANCH  32  35
HETATM   35  C3  UNL     1       3.512  -0.962   1.067  1.00  0.00     0.147 A 
HETATM   36  N3  UNL     1       4.093  -1.684   2.093  1.00  0.00    -0.290 N 
HETATM   37  N2  UNL     1       5.328  -2.088   2.110  1.00  0.00    -0.251 N 
ATOM     38  H3  UNL     1       3.509  -1.917   2.896  1.00  0.00     0.187 HD
HETATM   39  C2  UNL     1       6.139  -1.815   1.091  1.00  0.00     0.343 A 
ATOM     40  H2  UNL     1       5.678  -2.617   2.909  1.00  0.00     0.191 HD
HETATM   41  N1  UNL     1       5.689  -1.125   0.045  1.00  0.00    -0.268 N 
HETATM   42  O1  UNL     1       7.350  -2.183   1.053  1.00  0.00    -0.245 OA
HETATM   43  C1  UNL     1       6.541  -0.804  -1.092  1.00  0.00     0.165 C 
HETATM   44  C14 UNL     1       4.369  -0.701   0.041  1.00  0.00     0.281 A 
HETATM   45  O7  UNL     1       4.007  -0.064  -0.955  1.00  0.00    -0.265 OA
ENDBRANCH  32  35
BRANCH  33  46
HETATM   46  O2  UNL     1       2.111  -1.692   3.321  1.00  0.00    -0.289 OA
ATOM     47  H2  UNL     1       1.691  -1.977   4.124  1.00  0.00     0.244 HD
ENDBRANCH  33  46
ENDBRANCH   1  32
TORSDOF 12
