REMARK  10 active torsions:
REMARK  status: ('A' for Active; 'I' for Inactive)
REMARK    1  A    between atoms: N1_1  and  C1_4 
REMARK    2  A    between atoms: C2_10  and  N4_11 
REMARK    3  A    between atoms: C4_17  and  C5_18 
REMARK    4  A    between atoms: C5_18  and  N7_19 
REMARK    5  A    between atoms: N7_19  and  N8_21 
REMARK    6  A    between atoms: N8_21  and  N9_23 
REMARK       I    between atoms: N9_23  and  C6_25 
REMARK    7  A    between atoms: C6_25  and  C7_27 
REMARK    8  A    between atoms: C7_27  and  O3_28 
REMARK    9  A    between atoms: N11_36  and  N12_38 
REMARK   10  A    between atoms: N13_40  and  N14_42 
ROOT
HETATM    1  C5  UNL     1      -1.463  -0.591  -0.019  1.00  0.00     0.169 C 
HETATM    2  N11 UNL     1      -2.174   0.413  -0.438  1.00  0.00    -0.267 N 
ATOM      3  H11 UNL     1      -3.180   0.280  -0.541  1.00  0.00     0.190 HD
ENDROOT
BRANCH   1   4
HETATM    4  C4  UNL     1      -2.050  -1.873   0.300  1.00  0.00     0.138 A 
HETATM    5  N4  UNL     1      -3.352  -2.189   0.109  1.00  0.00    -0.212 N 
HETATM    6  N5  UNL     1      -3.476  -3.437   0.524  1.00  0.00    -0.012 NA
HETATM    7  N6  UNL     1      -2.323  -3.913   0.962  1.00  0.00    -0.275 N 
HETATM    8  C3  UNL     1      -1.377  -2.949   0.839  1.00  0.00     0.126 A 
ATOM      9  H6  UNL     1      -2.170  -4.851   1.332  1.00  0.00     0.185 HD
HETATM   10  S1  UNL     1       0.357  -3.065   1.285  1.00  0.00    -0.029 SA
BRANCH   5  11
HETATM   11  C2  UNL     1      -4.356  -1.335  -0.429  1.00  0.00     0.194 A 
HETATM   12  C1  UNL     1      -5.275  -0.595   0.310  1.00  0.00     0.169 A 
HETATM   13  N2  UNL     1      -6.060   0.088  -0.548  1.00  0.00    -0.222 N 
HETATM   14  O1  UNL     1      -5.663  -0.203  -1.750  1.00  0.00    -0.153 OA
ATOM     15  H2  UNL     1      -6.824   0.717  -0.299  1.00  0.00     0.198 HD
HETATM   16  N3  UNL     1      -4.655  -1.043  -1.708  1.00  0.00    -0.221 N 
ATOM     17  H3  UNL     1      -4.171  -1.418  -2.523  1.00  0.00     0.198 HD
BRANCH  12  18
HETATM   18  N1  UNL     1      -5.339  -0.584   1.588  1.00  0.00    -0.381 N 
ATOM     19  H12 UNL     1      -6.012  -0.042   2.129  1.00  0.00     0.157 HD
ATOM     20  H11 UNL     1      -4.745  -1.101   2.237  1.00  0.00     0.157 HD
ENDBRANCH  12  18
ENDBRANCH   5  11
ENDBRANCH   1   4
BRANCH   1  21
HETATM   21  N7  UNL     1      -0.064  -0.366   0.111  1.00  0.00    -0.268 N 
ATOM     22  H7  UNL     1       0.337  -0.142   1.022  1.00  0.00     0.190 HD
BRANCH  21  23
HETATM   23  N8  UNL     1       0.692  -0.447  -0.925  1.00  0.00    -0.238 N 
ATOM     24  H8  UNL     1       0.298  -0.671  -1.839  1.00  0.00     0.208 HD
BRANCH  23  25
HETATM   25  N9  UNL     1       2.063  -0.223  -0.776  1.00  0.00    -0.252 N 
HETATM   26  C6  UNL     1       2.569   0.895  -0.065  1.00  0.00     0.284 C 
HETATM   27  O2  UNL     1       1.746   1.696   0.439  1.00  0.00    -0.267 OA
ATOM     28  H9  UNL     1       2.720  -0.884  -1.191  1.00  0.00     0.191 HD
BRANCH  26  29
HETATM   29  C7  UNL     1       4.000   1.143   0.098  1.00  0.00     0.216 C 
HETATM   30  C8  UNL     1       4.717  -0.069   0.712  1.00  0.00     0.165 C 
HETATM   31  C9  UNL     1       6.148   0.054   0.355  1.00  0.00     0.231 C 
HETATM   32  O4  UNL     1       7.123  -0.048   1.181  1.00  0.00    -0.273 OA
HETATM   33  N10 UNL     1       6.332   0.303  -1.031  1.00  0.00    -0.298 N 
HETATM   34  S2  UNL     1       4.872   1.188  -1.521  1.00  0.00    -0.003 SA
ATOM     35  H10 UNL     1       7.125   0.034  -1.614  1.00  0.00     0.177 HD
BRANCH  29  36
HETATM   36  O3  UNL     1       4.239   2.284   0.823  1.00  0.00    -0.369 OA
ATOM     37  H3  UNL     1       5.169   2.445   0.929  1.00  0.00     0.212 HD
ENDBRANCH  29  36
ENDBRANCH  26  29
ENDBRANCH  23  25
ENDBRANCH  21  23
ENDBRANCH   1  21
BRANCH   2  38
HETATM   38  N12 UNL     1      -1.646   1.645  -0.750  1.00  0.00    -0.227 N 
HETATM   39  N13 UNL     1      -2.243   2.688  -0.336  1.00  0.00    -0.235 N 
ATOM     40  H13 UNL     1      -3.096   2.590   0.215  1.00  0.00     0.209 HD
ATOM     41  H12 UNL     1      -0.792   1.720  -1.303  1.00  0.00     0.210 HD
BRANCH  39  42
HETATM   42  N14 UNL     1      -1.748   3.983  -0.625  1.00  0.00    -0.330 N 
ATOM     43 2H14 UNL     1      -0.894   4.063  -1.178  1.00  0.00     0.178 HD
ATOM     44 1H14 UNL     1      -2.227   4.820  -0.293  1.00  0.00     0.178 HD
ENDBRANCH  39  42
ENDBRANCH   2  38
TORSDOF 10
