REMARK  17 active torsions:
REMARK  status: ('A' for Active; 'I' for Inactive)
REMARK    1  A    between atoms: C2_2  and  C3_3 
REMARK    2  A    between atoms: C3_3  and  C4_4 
REMARK    3  A    between atoms: C4_4  and  C5_5 
REMARK    4  A    between atoms: C5_5  and  C6_6 
REMARK    5  A    between atoms: C6_6  and  S1_7 
REMARK    6  A    between atoms: S1_7  and  C7_9 
REMARK    7  A    between atoms: C7_9  and  C8_10 
REMARK    8  A    between atoms: C7_9  and  C16_24 
REMARK    9  A    between atoms: C8_10  and  C9_11 
REMARK   10  A    between atoms: C12_14  and  N1_15 
REMARK       I    between atoms: N1_15  and  C13_17 
REMARK       I    between atoms: C16_24  and  N4_26 
REMARK   11  A    between atoms: N4_26  and  C17_27 
REMARK   12  A    between atoms: N4_26  and  C25_41 
REMARK   13  A    between atoms: C17_27  and  C18_28 
REMARK   14  A    between atoms: C18_28  and  C19_29 
REMARK   15  A    between atoms: C22_32  and  S2_33 
REMARK   16  A    between atoms: S2_33  and  N5_34 
REMARK   17  A    between atoms: C25_41  and  C26_42 
ROOT
HETATM    1  C7  UNL     1      -0.214   0.679  -0.708  1.00  0.00     0.175 C 
ENDROOT
BRANCH   1   2
HETATM    2  S1  UNL     1      -0.530  -0.948  -0.375  1.00  0.00     0.028 S 
HETATM    3  O1  UNL     1       0.798  -1.987  -0.417  1.00  0.00    -0.257 OA
BRANCH   2   4
HETATM    4  C6  UNL     1      -2.021  -1.734  -0.680  1.00  0.00     0.109 C 
BRANCH   4   5
HETATM    5  C5  UNL     1      -2.297  -2.851   0.355  1.00  0.00     0.013 C 
BRANCH   5   6
HETATM    6  C4  UNL     1      -3.572  -3.572   0.099  1.00  0.00     0.001 C 
BRANCH   6   7
HETATM    7  C3  UNL     1      -4.804  -2.731   0.176  1.00  0.00    -0.000 C 
BRANCH   7   8
HETATM    8  C2  UNL     1      -4.964  -2.139   1.572  1.00  0.00    -0.005 C 
HETATM    9  C1  UNL     1      -5.077  -3.193   2.632  1.00  0.00     0.005 C 
ENDBRANCH   7   8
ENDBRANCH   6   7
ENDBRANCH   5   6
ENDBRANCH   4   5
ENDBRANCH   2   4
ENDBRANCH   1   2
BRANCH   1  10
HETATM   10  C8  UNL     1      -0.981   1.737  -0.030  1.00  0.00     0.065 C 
BRANCH  10  11
HETATM   11  C9  UNL     1      -2.429   1.850  -0.168  1.00  0.00    -0.056 A 
HETATM   12  C10 UNL     1      -3.322   1.440   0.800  1.00  0.00     0.009 A 
HETATM   13  C11 UNL     1      -4.684   1.570   0.655  1.00  0.00     0.030 A 
HETATM   14  C12 UNL     1      -5.239   2.120  -0.472  1.00  0.00     0.034 A 
HETATM   15  C14 UNL     1      -4.369   2.535  -1.451  1.00  0.00     0.030 A 
HETATM   16  C15 UNL     1      -3.005   2.412  -1.322  1.00  0.00     0.009 A 
BRANCH  14  17
HETATM   17  N1  UNL     1      -6.644   2.240  -0.591  1.00  0.00    -0.331 N 
HETATM   18  C13 UNL     1      -7.514   1.806   0.442  1.00  0.00     0.186 C 
HETATM   19  N2  UNL     1      -7.872   0.562   0.499  1.00  0.00    -0.373 N 
HETATM   20  N3  UNL     1      -8.012   2.688   1.419  1.00  0.00    -0.064 NA
ATOM     21  H22 UNL     1      -7.511  -0.077  -0.209  1.00  0.00     0.158 HD
ATOM     22  H21 UNL     1      -8.498   0.250   1.242  1.00  0.00     0.158 HD
ATOM     23  H1  UNL     1      -7.040   2.648  -1.438  1.00  0.00     0.168 HD
ENDBRANCH  14  17
ENDBRANCH  10  11
ENDBRANCH   1  10
BRANCH   1  24
HETATM   24  C16 UNL     1       1.249   0.964  -0.418  1.00  0.00     0.236 C 
HETATM   25  O2  UNL     1       1.499   1.432   0.711  1.00  0.00    -0.272 OA
HETATM   26  N4  UNL     1       2.278   0.716  -1.352  1.00  0.00    -0.343 N 
BRANCH  26  27
HETATM   27  C17 UNL     1       3.647   0.972  -0.956  1.00  0.00     0.131 C 
BRANCH  27  28
HETATM   28  C18 UNL     1       4.231  -0.278  -0.341  1.00  0.00     0.058 C 
BRANCH  28  29
HETATM   29  C19 UNL     1       5.620  -0.118   0.094  1.00  0.00    -0.057 A 
HETATM   30  C20 UNL     1       6.719  -0.370  -0.698  1.00  0.00     0.009 A 
HETATM   31  C21 UNL     1       8.008  -0.203  -0.240  1.00  0.00     0.026 A 
HETATM   32  C22 UNL     1       8.248   0.232   1.054  1.00  0.00     0.079 A 
HETATM   33  C23 UNL     1       7.171   0.487   1.854  1.00  0.00     0.026 A 
HETATM   34  C24 UNL     1       5.871   0.314   1.381  1.00  0.00     0.009 A 
BRANCH  32  35
HETATM   35  S2  UNL     1       9.913   0.429   1.588  1.00  0.00     0.256 S 
HETATM   36  O3  UNL     1      10.026   1.551   2.573  1.00  0.00    -0.201 OA
HETATM   37  O4  UNL     1      10.793   0.789   0.412  1.00  0.00    -0.201 OA
BRANCH  35  38
HETATM   38  N5  UNL     1      10.470  -1.060   2.277  1.00  0.00    -0.324 N 
ATOM     39  H52 UNL     1       9.909  -1.908   2.354  1.00  0.00     0.169 HD
ATOM     40  H51 UNL     1      11.435  -0.946   2.587  1.00  0.00     0.169 HD
ENDBRANCH  35  38
ENDBRANCH  32  35
ENDBRANCH  28  29
ENDBRANCH  27  28
ENDBRANCH  26  27
BRANCH  26  41
HETATM   41  C25 UNL     1       2.080   0.254  -2.705  1.00  0.00     0.225 C 
BRANCH  41  42
HETATM   42  C26 UNL     1       1.942   1.372  -3.668  1.00  0.00     0.249 C 
HETATM   43  N6  UNL     1       1.742   1.081  -5.037  1.00  0.00    -0.061 NA
HETATM   44  O5  UNL     1       1.998   2.567  -3.306  1.00  0.00    -0.275 OA
ENDBRANCH  41  42
ENDBRANCH  26  41
ENDBRANCH   1  24
TORSDOF 17
