REMARK  18 active torsions:
REMARK  status: ('A' for Active; 'I' for Inactive)
REMARK    1  A    between atoms: C2_2  and  O1_3 
REMARK    2  A    between atoms: C2_2  and  C4_6 
REMARK    3  A    between atoms: C4_6  and  O2_7 
REMARK    4  A    between atoms: C4_6  and  C27_50 
REMARK    5  A    between atoms: O2_7  and  N2_8 
REMARK    6  A    between atoms: C5_9  and  C6_10 
REMARK    7  A    between atoms: C6_10  and  C8_12 
REMARK    8  A    between atoms: C8_12  and  O3_13 
REMARK    9  A    between atoms: C9_15  and  O4_16 
REMARK   10  A    between atoms: O4_16  and  C10_17 
REMARK   11  A    between atoms: C15_24  and  O7_25 
REMARK   12  A    between atoms: C16_27  and  O8_28 
REMARK   13  A    between atoms: C17_30  and  O9_31 
REMARK   14  A    between atoms: O9_31  and  C18_32 
REMARK   15  A    between atoms: C20_35  and  O11_36 
REMARK   16  A    between atoms: C23_40  and  N3_41 
REMARK       I    between atoms: N3_41  and  C24_43 
REMARK   17  A    between atoms: C25_46  and  O14_47 
REMARK   18  A    between atoms: C27_50  and  O16_52 
ROOT
HETATM    1  O1  UNL     1       4.769  -0.239  -0.750  1.00  0.00    -0.242 OA
HETATM    2  C3  UNL     1       5.253   0.790  -1.488  1.00  0.00     0.234 C 
HETATM    3  N1  UNL     1       5.683   1.682  -2.114  1.00  0.00    -0.164 NA
ENDROOT
BRANCH   1   4
HETATM    4  C2  UNL     1       4.299  -0.140   0.530  1.00  0.00     0.098 C 
HETATM    5  C1  UNL     1       5.039   0.431   1.437  1.00  0.00     0.051 C 
BRANCH   4   6
HETATM    6  C4  UNL     1       2.914  -0.700   0.862  1.00  0.00     0.308 C 
BRANCH   6   7
HETATM    7  O2  UNL     1       1.955  -0.022   0.372  1.00  0.00    -0.253 OA
BRANCH   7   8
HETATM    8  N2  UNL     1       1.062   0.067  -0.500  1.00  0.00    -0.224 N 
HETATM    9  C5  UNL     1       0.253  -0.886  -1.053  1.00  0.00     0.061 C 
HETATM   10  C9  UNL     1      -1.280  -0.911  -0.876  1.00  0.00     0.157 C 
HETATM   11  C12 UNL     1      -1.750  -2.036   0.000  1.00  0.00     0.120 C 
HETATM   12  C20 UNL     1      -1.922   0.278  -0.324  1.00  0.00     0.129 C 
HETATM   13  C13 UNL     1      -1.235  -3.368  -0.206  1.00  0.00     0.011 C 
HETATM   14  C15 UNL     1      -1.681  -1.902   1.459  1.00  0.00     0.205 C 
HETATM   15  C14 UNL     1      -1.614  -4.047   0.900  1.00  0.00     0.135 C 
HETATM   16  O6  UNL     1      -2.320  -3.190   1.743  1.00  0.00    -0.323 OA
HETATM   17  C16 UNL     1      -2.514  -0.776   1.920  1.00  0.00     0.214 C 
HETATM   18  C17 UNL     1      -2.950   0.054   0.766  1.00  0.00     0.204 C 
HETATM   19  C21 UNL     1      -1.204   1.516   0.012  1.00  0.00     0.033 C 
HETATM   20  C22 UNL     1      -0.332   1.664   1.166  1.00  0.00     0.038 C 
HETATM   21  C26 UNL     1      -0.452   1.912  -1.238  1.00  0.00     0.073 C 
HETATM   22  C23 UNL     1       0.960   2.157   0.547  1.00  0.00     0.145 C 
HETATM   23  C25 UNL     1       0.889   1.459  -0.819  1.00  0.00     0.178 C 
BRANCH   9  24
HETATM   24  C6  UNL     1       0.710  -1.666  -2.263  1.00  0.00     0.056 C 
HETATM   25  C7  UNL     1       1.939  -2.563  -2.018  1.00  0.00     0.018 C 
BRANCH  24  26
HETATM   26  C8  UNL     1       1.175  -0.883  -3.461  1.00  0.00     0.174 C 
BRANCH  26  27
HETATM   27  O3  UNL     1       0.360  -0.046  -4.102  1.00  0.00    -0.400 OA
ATOM     28  H3  UNL     1       0.654   0.448  -4.858  1.00  0.00     0.209 HD
ENDBRANCH  26  27
ENDBRANCH  24  26
ENDBRANCH   9  24
BRANCH  10  29
HETATM   29  O4  UNL     1      -1.648  -1.103  -2.204  1.00  0.00    -0.300 OA
BRANCH  29  30
HETATM   30  C10 UNL     1      -2.764  -1.329  -2.875  1.00  0.00     0.256 C 
HETATM   31  C11 UNL     1      -2.896  -1.483  -4.372  1.00  0.00     0.126 C 
HETATM   32  O5  UNL     1      -3.787  -1.421  -2.220  1.00  0.00    -0.266 OA
ENDBRANCH  29  30
ENDBRANCH  10  29
BRANCH  14  33
HETATM   33  O7  UNL     1      -0.529  -2.000   2.125  1.00  0.00    -0.362 OA
ATOM     34  H7  UNL     1      -0.484  -1.913   3.070  1.00  0.00     0.213 HD
ENDBRANCH  14  33
BRANCH  17  35
HETATM   35  O8  UNL     1      -3.685  -1.341   2.502  1.00  0.00    -0.387 OA
ATOM     36  H8  UNL     1      -4.222  -0.616   2.799  1.00  0.00     0.210 HD
ENDBRANCH  17  35
BRANCH  18  37
HETATM   37  O9  UNL     1      -3.284   1.342   1.318  1.00  0.00    -0.310 OA
BRANCH  37  38
HETATM   38  C18 UNL     1      -4.572   1.846   1.324  1.00  0.00     0.255 C 
HETATM   39  C19 UNL     1      -4.898   3.184   1.900  1.00  0.00     0.126 C 
HETATM   40  O10 UNL     1      -5.475   1.113   0.811  1.00  0.00    -0.266 OA
ENDBRANCH  37  38
ENDBRANCH  18  37
BRANCH  12  41
HETATM   41  O11 UNL     1      -2.787   0.832  -1.340  1.00  0.00    -0.383 OA
ATOM     42  H11 UNL     1      -3.205   1.606  -0.981  1.00  0.00     0.210 HD
ENDBRANCH  12  41
BRANCH  22  43
HETATM   43  N3  UNL     1       1.012   3.571   0.384  1.00  0.00    -0.326 N 
HETATM   44  C24 UNL     1       2.118   4.378   0.709  1.00  0.00     0.283 C 
HETATM   45  O12 UNL     1       3.147   3.841   1.179  1.00  0.00    -0.630 OA
HETATM   46  O13 UNL     1       2.072   5.738   0.513  1.00  0.00    -0.630 OA
ATOM     47  H3  UNL     1       0.186   4.033   0.003  1.00  0.00     0.166 HD
ENDBRANCH  22  43
BRANCH  23  48
HETATM   48  O14 UNL     1       1.834   2.047  -1.601  1.00  0.00    -0.367 OA
ATOM     49  H14 UNL     1       1.720   2.966  -1.812  1.00  0.00     0.212 HD
ENDBRANCH  23  48
ENDBRANCH   7   8
ENDBRANCH   6   7
BRANCH   6  50
HETATM   50  C27 UNL     1       2.914  -0.836   2.336  1.00  0.00     0.296 C 
HETATM   51  O15 UNL     1       2.120  -0.214   3.041  1.00  0.00    -0.262 OA
BRANCH  50  52
HETATM   52  O16 UNL     1       3.805  -1.674   3.010  1.00  0.00    -0.324 OA
HETATM   53  C28 UNL     1       3.792  -1.800   4.421  1.00  0.00     0.213 C 
ENDBRANCH  50  52
ENDBRANCH   6  50
ENDBRANCH   4   6
ENDBRANCH   1   4
TORSDOF 18
