REMARK  1 active torsions:
REMARK  status: ('A' for Active; 'I' for Inactive)
REMARK    1  A    between atoms: C4_8  and  N4_9 
ROOT
HETATM    1  N1  UNL     1       5.820  -0.138  -0.115  1.00  0.00    -0.191 NA
HETATM    2  C1  UNL     1       4.658  -0.189  -0.130  1.00  0.00     0.108 C 
HETATM    3  C2  UNL     1       3.227  -0.243  -0.116  1.00  0.00     0.154 A 
HETATM    4  C3  UNL     1       2.522   0.938  -0.047  1.00  0.00     0.158 A 
HETATM    5  N2  UNL     1       3.229   2.156   0.008  1.00  0.00    -0.080 NA
HETATM    6  N3  UNL     1       1.178   0.844  -0.034  1.00  0.00    -0.177 N 
ATOM      7  H3  UNL     1       0.623   1.698   0.016  1.00  0.00     0.185 HD
HETATM    8  C4  UNL     1       0.547  -0.340  -0.085  1.00  0.00     0.684 A 
HETATM    9  N6  UNL     1       1.220  -1.492  -0.152  1.00  0.00    -0.155 N 
ATOM     10  H6  UNL     1       0.713  -2.376  -0.189  1.00  0.00     0.187 HD
HETATM   11  C9  UNL     1       2.590  -1.489  -0.171  1.00  0.00     0.283 A 
HETATM   12  O1  UNL     1       3.264  -2.546  -0.235  1.00  0.00    -0.266 OA
ENDROOT
BRANCH   8  13
HETATM   13  N4  UNL     1      -0.866  -0.332  -0.039  1.00  0.00    -0.214 N 
HETATM   14  C5  UNL     1      -1.513   0.461   1.016  1.00  0.00     0.168 C 
HETATM   15  C6  UNL     1      -2.631   1.266   0.447  1.00  0.00     0.252 C 
HETATM   16  N5  UNL     1      -3.521   0.413  -0.283  1.00  0.00    -0.072 N 
HETATM   17  C7  UNL     1      -3.131  -0.968  -0.293  1.00  0.00     0.252 C 
ATOM     18  H52 UNL     1      -4.476   0.513   0.062  1.00  0.00     0.277 HD
ATOM     19  H51 UNL     1      -3.645   0.757  -1.235  1.00  0.00     0.277 HD
HETATM   20  C8  UNL     1      -1.736  -1.040  -0.946  1.00  0.00     0.168 C 
ENDBRANCH   8  13
TORSDOF 1
