REMARK  3 active torsions:
REMARK  status: ('A' for Active; 'I' for Inactive)
REMARK       I    between atoms: N1_2  and  C2_4 
REMARK    1  A    between atoms: N3_6  and  C3_8 
REMARK    2  A    between atoms: C4_9  and  N4_10 
REMARK    3  A    between atoms: N4_10  and  O1_12 
ROOT
HETATM    1  C3  UNL     1      -0.830  -0.074   0.401  1.00  0.00     0.148 A 
HETATM    2  C4  UNL     1      -1.244  -1.377   0.254  1.00  0.00     0.166 A 
HETATM    3  C5  UNL     1      -2.543  -1.719  -0.117  1.00  0.00     0.281 A 
HETATM    4  O2  UNL     1      -2.907  -2.917  -0.249  1.00  0.00    -0.265 OA
HETATM    5  N5  UNL     1      -3.398  -0.701  -0.331  1.00  0.00    -0.273 N 
ATOM      6  H5  UNL     1      -4.360  -0.899  -0.606  1.00  0.00     0.173 HD
HETATM    7  C6  UNL     1      -2.998   0.569  -0.187  1.00  0.00     0.330 A 
HETATM    8  O3  UNL     1      -3.860   1.490  -0.404  1.00  0.00    -0.246 OA
HETATM    9  N6  UNL     1      -1.753   0.912   0.169  1.00  0.00    -0.287 N 
HETATM   10  C7  UNL     1      -1.378   2.315   0.310  1.00  0.00     0.163 C 
ENDROOT
BRANCH   1  11
HETATM   11  N3  UNL     1       0.460   0.286   0.747  1.00  0.00    -0.315 N 
HETATM   12  C2  UNL     1       1.587   0.016   0.241  1.00  0.00     0.189 C 
HETATM   13  N1  UNL     1       2.819   0.501   0.772  1.00  0.00    -0.369 N 
HETATM   14  N2  UNL     1       1.682  -0.782  -0.924  1.00  0.00    -0.064 NA
HETATM   15  C1  UNL     1       4.064   0.458   0.037  1.00  0.00     0.148 C 
ATOM     16  H1  UNL     1       2.822   0.896   1.712  1.00  0.00     0.161 HD
ATOM     17  H3  UNL     1       0.512   0.886   1.570  1.00  0.00     0.170 HD
ENDBRANCH   1  11
BRANCH   2  18
HETATM   18  N4  UNL     1      -0.391  -2.502   0.490  1.00  0.00    -0.260 N 
ATOM     19  H4  UNL     1       0.279  -2.472   1.258  1.00  0.00     0.194 HD
BRANCH  18  20
HETATM   20  O1  UNL     1      -0.456  -3.529  -0.237  1.00  0.00    -0.289 OA
ATOM     21  H1  UNL     1       0.110  -4.276  -0.080  1.00  0.00     0.244 HD
ENDBRANCH  18  20
ENDBRANCH   2  18
TORSDOF 3
