REMARK  9 active torsions:
REMARK  status: ('A' for Active; 'I' for Inactive)
REMARK    1  A    between atoms: C13_13  and  O1_14 
REMARK    2  A    between atoms: O1_14  and  C14_15 
REMARK    3  A    between atoms: C14_15  and  C15_17 
REMARK    4  A    between atoms: C23_25  and  O3_26 
REMARK    5  A    between atoms: O3_26  and  C24_27 
REMARK    6  A    between atoms: C24_27  and  C25_28 
REMARK    7  A    between atoms: C25_28  and  C26_29 
REMARK    8  A    between atoms: C26_29  and  C27_30 
REMARK    9  A    between atoms: C29_34  and  O6_35 
ROOT
HETATM    1  C1  UNL     1      -1.274   5.117   0.537  1.00  0.00     0.019 C 
HETATM    2  C2  UNL     1      -0.804   3.891   0.123  1.00  0.00    -0.065 C 
HETATM    3  C3  UNL     1       0.596   3.675   0.256  1.00  0.00     0.013 C 
HETATM    4  C4  UNL     1       1.640   3.499  -0.547  1.00  0.00    -0.061 C 
HETATM    5  C5  UNL     1       2.944   3.311   0.277  1.00  0.00     0.048 C 
HETATM    6  C6  UNL     1       1.804   3.498  -1.978  1.00  0.00     0.013 C 
HETATM    7  C7  UNL     1       1.621   2.750  -3.028  1.00  0.00    -0.062 C 
HETATM    8  C8  UNL     1       2.042   3.423  -4.384  1.00  0.00     0.048 C 
HETATM    9  C9  UNL     1       1.120   1.402  -3.204  1.00  0.00     0.003 C 
HETATM   10  C10 UNL     1       1.307   0.241  -2.679  1.00  0.00    -0.019 C 
HETATM   11  C11 UNL     1       2.172  -0.238  -1.599  1.00  0.00     0.034 C 
HETATM   12  C12 UNL     1       3.345  -0.932  -2.258  1.00  0.00     0.017 C 
HETATM   13  C13 UNL     1       1.458  -1.161  -0.604  1.00  0.00     0.140 C 
HETATM   14  C19 UNL     1       0.605  -0.426   0.381  1.00  0.00     0.043 C 
HETATM   15  C20 UNL     1      -0.816  -0.567   0.466  1.00  0.00     0.028 C 
HETATM   16  C21 UNL     1      -1.742  -1.058  -0.523  1.00  0.00    -0.055 C 
HETATM   17  C22 UNL     1      -1.971  -1.791  -1.604  1.00  0.00     0.017 C 
HETATM   18  C23 UNL     1      -2.805  -0.272   0.253  1.00  0.00     0.157 C 
HETATM   19  C28 UNL     1      -1.685   0.673   0.606  1.00  0.00     0.056 C 
HETATM   20  C29 UNL     1      -1.481   1.656  -0.475  1.00  0.00     0.130 C 
HETATM   21  C30 UNL     1      -1.933   3.034  -0.356  1.00  0.00     0.070 C 
ENDROOT
BRANCH  13  22
HETATM   22  O1  UNL     1       2.520  -1.870   0.018  1.00  0.00    -0.312 OA
BRANCH  22  23
HETATM   23  C14 UNL     1       2.778  -3.184  -0.024  1.00  0.00     0.283 C 
HETATM   24  O2  UNL     1       2.009  -3.916  -0.680  1.00  0.00    -0.260 OA
BRANCH  23  25
HETATM   25  C15 UNL     1       3.905  -3.774   0.659  1.00  0.00     0.084 C 
HETATM   26  C16 UNL     1       4.729  -3.030   1.366  1.00  0.00    -0.082 C 
HETATM   27  C17 UNL     1       5.893  -3.698   2.060  1.00  0.00     0.043 C 
HETATM   28  C18 UNL     1       4.607  -1.569   1.545  1.00  0.00     0.043 C 
ENDBRANCH  23  25
ENDBRANCH  22  23
ENDBRANCH  13  22
BRANCH  18  29
HETATM   29  O3  UNL     1      -3.221  -1.070   1.295  1.00  0.00    -0.381 OA
BRANCH  29  30
HETATM   30  C24 UNL     1      -4.605  -1.239   1.324  1.00  0.00     0.169 C 
BRANCH  30  31
HETATM   31  C25 UNL     1      -5.024  -2.137   2.467  1.00  0.00     0.037 C 
BRANCH  31  32
HETATM   32  C26 UNL     1      -6.530  -2.296   2.437  1.00  0.00     0.115 C 
BRANCH  32  33
HETATM   33  C27 UNL     1      -6.973  -3.175   3.544  1.00  0.00     0.172 C 
HETATM   34  O4  UNL     1      -6.116  -3.654   4.327  1.00  0.00    -0.648 OA
HETATM   35  O5  UNL     1      -8.300  -3.506   3.771  1.00  0.00    -0.648 OA
ENDBRANCH  32  33
ENDBRANCH  31  32
ENDBRANCH  30  31
ENDBRANCH  29  30
ENDBRANCH  18  29
BRANCH  20  36
HETATM   36  O6  UNL     1      -2.108   1.213  -1.690  1.00  0.00    -0.395 OA
ATOM     37  H6  UNL     1      -1.977   1.846  -2.386  1.00  0.00     0.210 HD
ENDBRANCH  20  36
TORSDOF 9
