REMARK  17 active torsions:
REMARK  status: ('A' for Active; 'I' for Inactive)
REMARK    1  A    between atoms: C2_2  and  C3_3 
REMARK    2  A    between atoms: C3_3  and  C4_4 
REMARK    3  A    between atoms: C3_3  and  C6_6 
REMARK    4  A    between atoms: C10_13  and  C11_14 
REMARK    5  A    between atoms: C11_14  and  C12_15 
REMARK    6  A    between atoms: C15_21  and  O2_22 
REMARK    7  A    between atoms: C16_26  and  C17_27 
REMARK    8  A    between atoms: C20_30  and  O3_31 
REMARK    9  A    between atoms: C21_35  and  C22_36 
REMARK   10  A    between atoms: C22_36  and  C23_37 
REMARK   11  A    between atoms: C23_37  and  C24_38 
REMARK   12  A    between atoms: C24_38  and  C25_39 
REMARK   13  A    between atoms: C25_39  and  S2_40 
REMARK   14  A    between atoms: C27_44  and  O6_45 
REMARK   15  A    between atoms: C28_49  and  C29_50 
REMARK   16  A    between atoms: C29_50  and  C30_51 
REMARK   17  A    between atoms: C30_51  and  O7_53 
ROOT
HETATM    1  C6  UNL     1      -2.722  -1.040   0.113  1.00  0.00     0.013 C 
HETATM    2  C7  UNL     1      -3.109   0.264   0.853  1.00  0.00     0.016 C 
HETATM    3  C8  UNL     1      -2.496   1.514   0.320  1.00  0.00     0.103 C 
HETATM    4  C9  UNL     1      -2.007   2.444   1.426  1.00  0.00     0.222 C 
HETATM    5  O1  UNL     1      -2.162   1.987   2.590  1.00  0.00    -0.273 OA
HETATM    6  N1  UNL     1      -1.478   3.624   0.999  1.00  0.00    -0.327 N 
ATOM      7  H1  UNL     1      -2.265   4.115   0.575  1.00  0.00     0.168 HD
HETATM    8  C10 UNL     1      -0.522   4.402   0.866  1.00  0.00     0.068 C 
HETATM    9  C15 UNL     1       0.878   4.305   1.278  1.00  0.00     0.160 C 
HETATM   10  N3  UNL     1       1.965   3.475   1.083  1.00  0.00    -0.357 N 
ATOM     11  H3  UNL     1       2.810   4.038   0.987  1.00  0.00     0.162 HD
HETATM   12  C16 UNL     1       2.299   2.099   0.972  1.00  0.00     0.161 C 
HETATM   13  C20 UNL     1       1.501   1.090   1.633  1.00  0.00     0.135 C 
HETATM   14  N4  UNL     1       0.833  -0.044   1.240  1.00  0.00    -0.361 N 
ATOM     15  H4  UNL     1      -0.107  -0.074   1.634  1.00  0.00     0.162 HD
HETATM   16  C21 UNL     1       1.087  -1.169   0.448  1.00  0.00     0.157 C 
HETATM   17  C27 UNL     1       0.271  -1.363  -0.769  1.00  0.00     0.135 C 
HETATM   18  N5  UNL     1      -0.783  -0.761  -1.381  1.00  0.00    -0.368 N 
ATOM     19  H5  UNL     1      -0.482  -0.160  -2.148  1.00  0.00     0.161 HD
HETATM   20  C28 UNL     1      -2.251  -0.753  -1.221  1.00  0.00     0.090 C 
ENDROOT
BRANCH  16  21
HETATM   21  C22 UNL     1       0.983  -2.498   1.223  1.00  0.00     0.033 C 
BRANCH  21  22
HETATM   22  C23 UNL     1       1.973  -2.525   2.355  1.00  0.00     0.003 C 
BRANCH  22  23
HETATM   23  C24 UNL     1       3.401  -2.394   1.919  1.00  0.00     0.015 C 
BRANCH  23  24
HETATM   24  C25 UNL     1       3.818  -3.502   0.991  1.00  0.00     0.140 C 
BRANCH  24  25
HETATM   25  S2  UNL     1       5.535  -3.217   0.556  1.00  0.00     0.140 S 
HETATM   26  C26 UNL     1       6.527  -3.231   2.017  1.00  0.00     0.161 C 
HETATM   27  O4  UNL     1       5.950  -4.350  -0.358  1.00  0.00    -0.228 OA
HETATM   28  O5  UNL     1       5.644  -1.899  -0.150  1.00  0.00    -0.228 OA
ENDBRANCH  24  25
ENDBRANCH  23  24
ENDBRANCH  22  23
ENDBRANCH  21  22
ENDBRANCH  16  21
BRANCH  17  29
HETATM   29  O6  UNL     1       0.748  -2.423  -1.382  1.00  0.00    -0.348 OA
ATOM     30  H6  UNL     1       0.224  -2.548  -2.164  1.00  0.00     0.219 HD
ENDBRANCH  17  29
BRANCH  13  31
HETATM   31  O3  UNL     1       1.418   1.354   2.913  1.00  0.00    -0.348 OA
ATOM     32  H3  UNL     1       0.894   0.691   3.347  1.00  0.00     0.219 HD
ENDBRANCH  13  31
BRANCH  12  33
HETATM   33  C17 UNL     1       2.604   1.826  -0.490  1.00  0.00     0.008 C 
HETATM   34  C18 UNL     1       3.802   2.768  -0.793  1.00  0.00     0.012 C 
HETATM   35  C19 UNL     1       1.522   2.289  -1.404  1.00  0.00     0.012 C 
ENDBRANCH  12  33
BRANCH  20  36
HETATM   36  C29 UNL     1      -2.828  -1.532  -2.392  1.00  0.00     0.056 C 
BRANCH  36  37
HETATM   37  C30 UNL     1      -2.301  -1.094  -3.743  1.00  0.00     0.116 C 
HETATM   38  C31 UNL     1      -2.558   0.327  -4.084  1.00  0.00     0.039 C 
BRANCH  37  39
HETATM   39  O7  UNL     1      -1.047  -1.580  -4.066  1.00  0.00    -0.396 OA
ATOM     40  H7  UNL     1      -0.717  -1.305  -4.913  1.00  0.00     0.210 HD
ENDBRANCH  37  39
ENDBRANCH  36  37
ENDBRANCH  20  36
BRANCH   1  41
HETATM   41  C3  UNL     1      -3.865  -1.976   0.390  1.00  0.00    -0.009 C 
BRANCH  41  42
HETATM   42  C2  UNL     1      -3.865  -3.333  -0.138  1.00  0.00     0.000 C 
HETATM   43  C1  UNL     1      -2.892  -4.342   0.335  1.00  0.00     0.005 C 
ENDBRANCH  41  42
BRANCH  41  44
HETATM   44  C4  UNL     1      -4.169  -2.014   1.883  1.00  0.00     0.000 C 
HETATM   45  C5  UNL     1      -3.258  -2.738   2.767  1.00  0.00     0.005 C 
ENDBRANCH  41  44
ENDBRANCH   1  41
BRANCH   9  46
HETATM   46  O2  UNL     1       1.151   5.330   2.066  1.00  0.00    -0.345 OA
ATOM     47  H2  UNL     1       2.060   5.267   2.334  1.00  0.00     0.219 HD
ENDBRANCH   9  46
BRANCH   8  48
HETATM   48  C11 UNL     1      -1.007   5.673   0.148  1.00  0.00     0.119 C 
BRANCH  48  49
HETATM   49  C12 UNL     1      -0.277   5.879  -1.150  1.00  0.00     0.021 A 
HETATM   50  C13 UNL     1      -0.753   5.319  -2.316  1.00  0.00     0.076 A 
HETATM   51  S1  UNL     1       0.416   5.836  -3.457  1.00  0.00    -0.095 SA
HETATM   52  C14 UNL     1       1.425   6.718  -2.401  1.00  0.00     0.138 A 
HETATM   53  N2  UNL     1       0.815   6.571  -1.236  1.00  0.00    -0.363 N 
ATOM     54  H2  UNL     1       1.207   7.005  -0.400  1.00  0.00     0.165 HD
ENDBRANCH  48  49
ENDBRANCH   8  48
TORSDOF 17
