REMARK  13 active torsions:
REMARK  status: ('A' for Active; 'I' for Inactive)
REMARK    1  A    between atoms: C2_2  and  C3_3 
REMARK    2  A    between atoms: C3_3  and  C4_4 
REMARK    3  A    between atoms: C6_11  and  C7_12 
REMARK    4  A    between atoms: C7_12  and  C8_13 
REMARK    5  A    between atoms: C8_13  and  N3_14 
REMARK    6  A    between atoms: N3_14  and  C11_17 
REMARK    7  A    between atoms: C11_17  and  C12_18 
REMARK    8  A    between atoms: C12_18  and  N4_19 
REMARK    9  A    between atoms: C17_27  and  C18_28 
REMARK   10  A    between atoms: C18_28  and  C19_29 
REMARK   11  A    between atoms: C23_36  and  C24_37 
REMARK   12  A    between atoms: C24_37  and  C25_38 
REMARK   13  A    between atoms: C28_43  and  O4_44 
ROOT
HETATM    1  C4  UNL     1      -1.706   2.957   0.533  1.00  0.00     0.194 C 
HETATM    2  N1  UNL     1      -0.538   2.158   0.481  1.00  0.00    -0.320 N 
ATOM      3  H1  UNL     1       0.343   2.534   0.131  1.00  0.00     0.181 HD
HETATM    4  N2  UNL     1      -0.631   0.866   0.915  1.00  0.00    -0.272 N 
ATOM      5  H2  UNL     1      -1.321   0.693   1.646  1.00  0.00     0.189 HD
HETATM    6  C5  UNL     1       0.098  -0.256   0.487  1.00  0.00     0.258 C 
HETATM    7  O1  UNL     1       0.353  -1.110   1.418  1.00  0.00    -0.269 OA
HETATM    8  C6  UNL     1       0.596  -0.576  -0.844  1.00  0.00     0.180 C 
HETATM    9  N5  UNL     1      -0.284  -0.331  -1.946  1.00  0.00    -0.342 N 
ATOM     10  H5  UNL     1      -0.225   0.589  -2.383  1.00  0.00     0.163 HD
HETATM   11  C16 UNL     1      -1.230  -1.237  -2.492  1.00  0.00     0.268 C 
HETATM   12  O2  UNL     1      -1.712  -0.932  -3.611  1.00  0.00    -0.266 OA
HETATM   13  C17 UNL     1      -1.682  -2.478  -1.856  1.00  0.00     0.099 C 
HETATM   14  N6  UNL     1      -3.119  -2.630  -1.737  1.00  0.00    -0.321 N 
ATOM     15  H6  UNL     1      -3.434  -3.582  -1.923  1.00  0.00     0.169 HD
HETATM   16  C22 UNL     1      -4.138  -1.785  -1.433  1.00  0.00     0.245 C 
HETATM   17  O3  UNL     1      -5.032  -1.580  -2.351  1.00  0.00    -0.271 OA
HETATM   18  C23 UNL     1      -4.465  -0.986  -0.173  1.00  0.00     0.176 C 
HETATM   19  N7  UNL     1      -4.045   0.378  -0.411  1.00  0.00    -0.359 N 
ATOM     20  H7  UNL     1      -3.059   0.412  -0.669  1.00  0.00     0.162 HD
HETATM   21  C28 UNL     1      -4.584   1.633  -0.391  1.00  0.00     0.135 C 
HETATM   22  C29 UNL     1      -4.921   2.614   0.660  1.00  0.00     0.155 C 
HETATM   23  C30 UNL     1      -6.352   2.460   1.128  1.00  0.00     0.041 C 
HETATM   24  N8  UNL     1      -3.981   2.743   1.741  1.00  0.00    -0.348 N 
ATOM     25  H8  UNL     1      -4.387   2.795   2.675  1.00  0.00     0.163 HD
HETATM   26  C31 UNL     1      -2.589   2.806   1.684  1.00  0.00     0.242 C 
HETATM   27  O5  UNL     1      -1.981   2.719   2.819  1.00  0.00    -0.271 OA
ENDROOT
BRANCH   8  28
HETATM   28  C7  UNL     1       1.884   0.242  -1.045  1.00  0.00     0.063 C 
BRANCH  28  29
HETATM   29  C8  UNL     1       2.899  -0.150   0.031  1.00  0.00     0.239 C 
BRANCH  29  30
HETATM   30  N3  UNL     1       4.129   0.595  -0.127  1.00  0.00    -0.073 N 
HETATM   31  C9  UNL     1       4.466   0.637  -1.546  1.00  0.00     0.272 C 
HETATM   32  C10 UNL     1       4.035   1.927   0.429  1.00  0.00     0.272 C 
BRANCH  30  33
HETATM   33  C11 UNL     1       5.154  -0.192   0.531  1.00  0.00     0.264 C 
BRANCH  33  34
HETATM   34  C12 UNL     1       6.362   0.655   0.861  1.00  0.00     0.264 C 
BRANCH  34  35
HETATM   35  N4  UNL     1       7.383  -0.135   1.523  1.00  0.00    -0.077 N 
HETATM   36  C13 UNL     1       8.137  -0.890   0.566  1.00  0.00     0.271 C 
HETATM   37  C14 UNL     1       8.254   0.780   2.230  1.00  0.00     0.271 C 
HETATM   38  C15 UNL     1       6.806  -1.032   2.509  1.00  0.00     0.271 C 
ENDBRANCH  34  35
ENDBRANCH  33  34
ENDBRANCH  30  33
ENDBRANCH  29  30
ENDBRANCH  28  29
ENDBRANCH   8  28
BRANCH  13  39
HETATM   39  C18 UNL     1      -0.978  -3.724  -2.217  1.00  0.00     0.012 C 
BRANCH  39  40
HETATM   40  C19 UNL     1      -0.914  -4.236  -3.578  1.00  0.00     0.002 C 
HETATM   41  C20 UNL     1      -0.279  -3.436  -4.649  1.00  0.00     0.013 C 
HETATM   42  C21 UNL     1      -2.284  -4.679  -4.129  1.00  0.00     0.013 C 
ENDBRANCH  39  40
ENDBRANCH  13  39
BRANCH   1  43
HETATM   43  C3  UNL     1      -1.211   4.422   0.583  1.00  0.00     0.062 C 
BRANCH  43  44
HETATM   44  C2  UNL     1      -2.331   5.375   0.642  1.00  0.00    -0.034 C 
HETATM   45  C1  UNL     1      -2.484   6.278  -0.305  1.00  0.00     0.007 C 
ENDBRANCH  43  44
ENDBRANCH   1  43
BRANCH  18  46
HETATM   46  C24 UNL     1      -3.873  -1.671   1.012  1.00  0.00     0.038 C 
BRANCH  46  47
HETATM   47  C25 UNL     1      -4.140  -1.032   2.352  1.00  0.00    -0.020 C 
HETATM   48  C26 UNL     1      -5.614  -0.967   2.665  1.00  0.00     0.009 C 
HETATM   49  C27 UNL     1      -3.561  -2.034   3.380  1.00  0.00     0.009 C 
ENDBRANCH  46  47
ENDBRANCH  18  46
BRANCH  21  50
HETATM   50  O4  UNL     1      -4.887   2.124  -1.575  1.00  0.00    -0.348 OA
ATOM     51  H4  UNL     1      -5.262   2.997  -1.561  1.00  0.00     0.219 HD
ENDBRANCH  21  50
TORSDOF 13
