REMARK  8 active torsions:
REMARK  status: ('A' for Active; 'I' for Inactive)
REMARK    1  A    between atoms: C2_2  and  C3_3 
REMARK       I    between atoms: C3_3  and  N1_5 
REMARK    2  A    between atoms: C5_7  and  C6_8 
REMARK       I    between atoms: C6_8  and  N2_10 
REMARK    3  A    between atoms: N2_10  and  C7_12 
REMARK    4  A    between atoms: C7_12  and  C8_13 
REMARK    5  A    between atoms: C7_12  and  C12_17 
REMARK    6  A    between atoms: C8_13  and  C9_14 
REMARK    7  A    between atoms: C13_20  and  C14_21 
REMARK    8  A    between atoms: C14_21  and  C15_22 
ROOT
HETATM    1  C3  UNL     1       0.597   3.327  -1.089  1.00  0.00     0.219 C 
HETATM    2  O1  UNL     1       1.475   2.950  -1.904  1.00  0.00    -0.273 OA
HETATM    3  N1  UNL     1      -0.368   2.378  -0.657  1.00  0.00    -0.347 N 
HETATM    4  C4  UNL     1      -0.316   1.041  -1.153  1.00  0.00     0.140 C 
HETATM    5  C5  UNL     1      -0.571  -0.001  -0.100  1.00  0.00     0.100 C 
HETATM    6  C13 UNL     1      -1.687   0.309   0.822  1.00  0.00     0.002 C 
HETATM    7  C21 UNL     1      -1.765   1.732   1.273  1.00  0.00     0.030 C 
HETATM    8  C22 UNL     1      -1.400   2.768   0.280  1.00  0.00     0.083 C 
HETATM    9  C23 UNL     1      -2.616   3.171  -0.550  1.00  0.00     0.032 C 
ENDROOT
BRANCH   5  10
HETATM   10  C6  UNL     1       0.676  -0.344   0.649  1.00  0.00     0.224 C 
HETATM   11  O2  UNL     1       0.645  -0.121   1.903  1.00  0.00    -0.273 OA
HETATM   12  N2  UNL     1       1.818  -0.880   0.014  1.00  0.00    -0.348 N 
ATOM     13  H2  UNL     1       1.811  -1.047  -0.992  1.00  0.00     0.163 HD
BRANCH  12  14
HETATM   14  C7  UNL     1       2.986  -1.189   0.783  1.00  0.00     0.174 C 
BRANCH  14  15
HETATM   15  C8  UNL     1       4.170  -0.349   0.461  1.00  0.00     0.038 C 
BRANCH  15  16
HETATM   16  C9  UNL     1       4.678  -0.374  -0.926  1.00  0.00    -0.020 C 
HETATM   17  C10 UNL     1       5.138  -1.709  -1.438  1.00  0.00     0.009 C 
HETATM   18  C11 UNL     1       5.910   0.547  -0.949  1.00  0.00     0.009 C 
ENDBRANCH  15  16
ENDBRANCH  14  15
BRANCH  14  19
HETATM   19  C12 UNL     1       3.260  -2.639   0.854  1.00  0.00     0.254 C 
HETATM   20  N3  UNL     1       4.354  -3.202   1.546  1.00  0.00    -0.060 NA
HETATM   21  O3  UNL     1       2.460  -3.435   0.254  1.00  0.00    -0.275 OA
ENDBRANCH  14  19
ENDBRANCH  12  14
ENDBRANCH   5  10
BRANCH   6  22
HETATM   22  C14 UNL     1      -3.037  -0.100   0.318  1.00  0.00     0.010 C 
BRANCH  22  23
HETATM   23  C15 UNL     1      -3.217  -1.548   0.043  1.00  0.00    -0.014 C 
HETATM   24  C16 UNL     1      -3.024  -2.461   1.199  1.00  0.00     0.005 C 
HETATM   25  C17 UNL     1      -4.327  -2.912   1.823  1.00  0.00     0.000 C 
HETATM   26  C18 UNL     1      -5.081  -3.823   0.885  1.00  0.00     0.000 C 
HETATM   27  C19 UNL     1      -5.006  -3.214  -0.493  1.00  0.00     0.000 C 
HETATM   28  C20 UNL     1      -4.677  -1.723  -0.408  1.00  0.00     0.005 C 
ENDBRANCH  22  23
ENDBRANCH   6  22
BRANCH   1  29
HETATM   29  C2  UNL     1       0.567   4.746  -0.581  1.00  0.00     0.098 C 
HETATM   30  C1  UNL     1       1.703   5.479  -1.224  1.00  0.00     0.014 C 
ENDBRANCH   1  29
TORSDOF 8
