REMARK  1 active torsions:
REMARK  status: ('A' for Active; 'I' for Inactive)
REMARK    1  A    between atoms: C2_2  and  N1_3 
REMARK       I    between atoms: N1_3  and  C3_5 
ROOT
HETATM    1  C1  UNL     1      -0.537  -1.680   0.253  1.00  0.00     0.074 C 
HETATM    2  C2  UNL     1      -0.533  -0.172   0.180  1.00  0.00     0.189 C 
HETATM    3  N4  UNL     1      -0.459   0.325  -1.170  1.00  0.00    -0.308 N 
ATOM      4  H4  UNL     1       0.055  -0.082  -1.952  1.00  0.00     0.167 HD
HETATM    5  C4  UNL     1      -1.255   1.505  -1.181  1.00  0.00     0.325 C 
HETATM    6  O1  UNL     1      -1.204   2.435  -2.052  1.00  0.00    -0.247 OA
HETATM    7  N5  UNL     1      -2.132   1.506  -0.065  1.00  0.00    -0.276 N 
ATOM      8  H5  UNL     1      -2.815   2.222   0.184  1.00  0.00     0.173 HD
HETATM    9  C5  UNL     1      -1.857   0.299   0.632  1.00  0.00     0.274 C 
HETATM   10  O2  UNL     1      -2.579  -0.286   1.481  1.00  0.00    -0.268 OA
ENDROOT
BRANCH   2  11
HETATM   11  N1  UNL     1       0.501   0.422   0.963  1.00  0.00    -0.331 N 
HETATM   12  C3  UNL     1       1.878   0.120   0.696  1.00  0.00     0.184 C 
HETATM   13  N2  UNL     1       2.818   0.989   0.815  1.00  0.00    -0.374 N 
HETATM   14  N3  UNL     1       2.227  -1.181   0.285  1.00  0.00    -0.064 NA
ATOM     15  H22 UNL     1       2.565   1.931   1.113  1.00  0.00     0.158 HD
ATOM     16  H21 UNL     1       3.797   0.774   0.625  1.00  0.00     0.158 HD
ATOM     17  H1  UNL     1       0.260   1.065   1.717  1.00  0.00     0.165 HD
ENDBRANCH   2  11
TORSDOF 1
