REMARK  7 active torsions:
REMARK  status: ('A' for Active; 'I' for Inactive)
REMARK    1  A    between atoms: N1_2  and  N2_3 
REMARK    2  A    between atoms: N1_2  and  C2_6 
REMARK    3  A    between atoms: C2_6  and  C3_7 
REMARK    4  A    between atoms: C3_7  and  C4_8 
REMARK    5  A    between atoms: C4_8  and  O1_9 
REMARK    6  A    between atoms: O1_9  and  C5_10 
REMARK    7  A    between atoms: C6_16  and  N5_17 
ROOT
HETATM    1  C5  UNL     1       2.369  -0.080  -0.424  1.00  0.00     0.172 A 
HETATM    2  S1  UNL     1       3.163  -0.978  -1.633  1.00  0.00     0.031 SA
HETATM    3  N3  UNL     1       4.752  -0.705  -1.151  1.00  0.00    -0.266 N 
ATOM      4  H3  UNL     1       5.609  -1.052  -1.583  1.00  0.00     0.195 HD
HETATM    5  N4  UNL     1       4.633   0.051  -0.100  1.00  0.00    -0.277 N 
ATOM      6  H4  UNL     1       5.461   0.372   0.402  1.00  0.00     0.189 HD
HETATM    7  C6  UNL     1       3.427   0.398   0.310  1.00  0.00     0.156 A 
ENDROOT
BRANCH   1   8
HETATM    8  O1  UNL     1       0.992   0.143  -0.197  1.00  0.00    -0.340 OA
BRANCH   8   9
HETATM    9  C4  UNL     1       0.270  -0.661   0.716  1.00  0.00     0.178 C 
BRANCH   9  10
HETATM   10  C3  UNL     1      -1.170  -0.203   0.761  1.00  0.00     0.048 C 
BRANCH  10  11
HETATM   11  C2  UNL     1      -1.830  -0.303  -0.592  1.00  0.00     0.143 C 
BRANCH  11  12
HETATM   12  N1  UNL     1      -3.185   0.098  -0.610  1.00  0.00    -0.339 N 
HETATM   13  C1  UNL     1      -3.478   1.465  -0.398  1.00  0.00     0.170 C 
BRANCH  12  14
HETATM   14  N2  UNL     1      -4.103  -0.804  -0.171  1.00  0.00    -0.348 N 
ATOM     15  H22 UNL     1      -5.081  -0.515  -0.184  1.00  0.00     0.176 HD
ATOM     16  H21 UNL     1      -3.892  -1.790  -0.324  1.00  0.00     0.176 HD
ENDBRANCH  12  14
ENDBRANCH  11  12
ENDBRANCH  10  11
ENDBRANCH   9  10
ENDBRANCH   8   9
ENDBRANCH   1   8
BRANCH   7  17
HETATM   17  N5  UNL     1       3.191   1.161   1.375  1.00  0.00    -0.382 N 
ATOM     18  H52 UNL     1       2.259   1.429   1.692  1.00  0.00     0.157 HD
ATOM     19  H51 UNL     1       3.977   1.516   1.920  1.00  0.00     0.157 HD
ENDBRANCH   7  17
TORSDOF 7
