REMARK  9 active torsions:
REMARK  status: ('A' for Active; 'I' for Inactive)
REMARK    1  A    between atoms: C2_3  and  O1_4 
REMARK    2  A    between atoms: C3_6  and  O2_7 
REMARK    3  A    between atoms: C4_9  and  N2_10 
REMARK       I    between atoms: N2_10  and  C5_12 
REMARK    4  A    between atoms: C5_12  and  C6_14 
REMARK    5  A    between atoms: C6_14  and  N3_15 
REMARK    6  A    between atoms: N3_15  and  N4_17 
REMARK    7  A    between atoms: N5_19  and  N6_20 
REMARK    8  A    between atoms: C16_33  and  C17_34 
REMARK    9  A    between atoms: C18_37  and  O7_38 
ROOT
HETATM    1  N4  UNL     1      -0.496  -1.677  -0.648  1.00  0.00    -0.298 N 
HETATM    2  C7  UNL     1      -0.993  -1.703  -1.989  1.00  0.00     0.262 C 
HETATM    3  N5  UNL     1      -2.423  -1.374  -1.896  1.00  0.00    -0.184 NA
HETATM    4  C8  UNL     1      -2.449  -0.562  -0.732  1.00  0.00     0.053 C 
HETATM    5  C9  UNL     1      -3.670  -0.000  -0.241  1.00  0.00    -0.012 A 
HETATM    6  C10 UNL     1      -4.856  -0.688  -0.094  1.00  0.00     0.016 A 
HETATM    7  C11 UNL     1      -5.981  -0.043   0.387  1.00  0.00     0.040 A 
HETATM    8  C12 UNL     1      -5.962   1.314   0.739  1.00  0.00     0.105 A 
HETATM    9  C13 UNL     1      -4.790   2.015   0.600  1.00  0.00     0.105 A 
HETATM   10  C14 UNL     1      -3.700   1.365   0.127  1.00  0.00     0.053 A 
HETATM   11  O4  UNL     1      -4.987   3.329   1.001  1.00  0.00    -0.323 OA
HETATM   12  C15 UNL     1      -6.395   3.486   1.138  1.00  0.00     0.352 C 
HETATM   13  O5  UNL     1      -6.911   2.175   1.229  1.00  0.00    -0.323 OA
HETATM   14  C16 UNL     1      -1.518  -1.241   0.249  1.00  0.00     0.239 C 
ENDROOT
BRANCH   1  15
HETATM   15  N3  UNL     1       0.767  -1.177  -0.477  1.00  0.00    -0.328 N 
ATOM     16  H3  UNL     1       1.551  -1.491  -1.049  1.00  0.00     0.180 HD
BRANCH  15  17
HETATM   17  C6  UNL     1       0.929  -0.200   0.537  1.00  0.00     0.242 C 
BRANCH  17  18
HETATM   18  C5  UNL     1       2.333   0.264   0.571  1.00  0.00     0.241 C 
HETATM   19  N2  UNL     1       3.288  -0.235  -0.326  1.00  0.00    -0.320 N 
ATOM     20  H2  UNL     1       3.009  -0.932  -1.017  1.00  0.00     0.169 HD
HETATM   21  O3  UNL     1       2.712   1.143   1.427  1.00  0.00    -0.271 OA
BRANCH  19  22
HETATM   22  C4  UNL     1       4.662   0.219  -0.291  1.00  0.00     0.124 A 
HETATM   23  C3  UNL     1       5.609  -0.409   0.485  1.00  0.00     0.148 A 
HETATM   24  C2  UNL     1       6.790   0.281   0.276  1.00  0.00     0.180 A 
HETATM   25  N1  UNL     1       6.535   1.279  -0.593  1.00  0.00    -0.309 N 
HETATM   26  C1  UNL     1       7.514   2.240  -1.076  1.00  0.00     0.161 C 
HETATM   27  C18 UNL     1       5.240   1.265  -0.957  1.00  0.00     0.174 A 
BRANCH  23  28
HETATM   28  O2  UNL     1       5.445  -1.508   1.315  1.00  0.00    -0.355 OA
ATOM     29  H2  UNL     1       4.634  -1.982   1.458  1.00  0.00     0.218 HD
ENDBRANCH  23  28
BRANCH  24  30
HETATM   30  O1  UNL     1       8.000  -0.042   0.885  1.00  0.00    -0.344 OA
ATOM     31  H1  UNL     1       8.180  -0.746   1.498  1.00  0.00     0.219 HD
ENDBRANCH  24  30
BRANCH  27  32
HETATM   32  O7  UNL     1       4.588   2.130  -1.836  1.00  0.00    -0.344 OA
ATOM     33  H7  UNL     1       3.673   2.120  -2.093  1.00  0.00     0.219 HD
ENDBRANCH  27  32
ENDBRANCH  19  22
ENDBRANCH  17  18
ENDBRANCH  15  17
ENDBRANCH   1  15
BRANCH  14  34
HETATM   34  C17 UNL     1      -2.049  -2.408   0.937  1.00  0.00     0.261 C 
HETATM   35  N7  UNL     1      -3.021  -2.291   1.966  1.00  0.00    -0.060 NA
HETATM   36  O6  UNL     1      -1.678  -3.579   0.662  1.00  0.00    -0.274 OA
ENDBRANCH  14  34
BRANCH   3  37
HETATM   37  N6  UNL     1      -3.215  -2.477  -1.956  1.00  0.00    -0.357 NA
ATOM     38  H62 UNL     1      -3.196  -3.060  -2.792  1.00  0.00     0.171 HD
ATOM     39  H61 UNL     1      -4.207  -2.249  -1.891  1.00  0.00     0.171 HD
ENDBRANCH   3  37
TORSDOF 9
