REMARK  6 active torsions:
REMARK  status: ('A' for Active; 'I' for Inactive)
REMARK    1  A    between atoms: C4_6  and  N2_7 
REMARK    2  A    between atoms: N2_7  and  C5_9 
REMARK    3  A    between atoms: C11_18  and  N5_19 
REMARK    4  A    between atoms: N5_19  and  C12_21 
REMARK    5  A    between atoms: C12_21  and  C14_23 
REMARK    6  A    between atoms: C14_23  and  C15_24 
ROOT
HETATM    1  C1  UNL     1       2.428  -3.242  -0.838  1.00  0.00     0.054 C 
HETATM    2  C2  UNL     1       1.386  -2.212  -0.590  1.00  0.00    -0.002 A 
HETATM    3  C3  UNL     1       0.066  -2.509  -0.338  1.00  0.00     0.116 A 
HETATM    4  N1  UNL     1      -0.847  -1.517  -0.117  1.00  0.00    -0.201 N 
ATOM      5  H1  UNL     1      -1.817  -1.773   0.066  1.00  0.00     0.183 HD
HETATM    6  C4  UNL     1      -0.514  -0.220  -0.132  1.00  0.00     0.679 A 
HETATM    7  N4  UNL     1       0.803   0.059  -0.383  1.00  0.00    -0.176 N 
ATOM      8  H4  UNL     1       1.093   1.037  -0.402  1.00  0.00     0.186 HD
HETATM    9  C11 UNL     1       1.730  -0.878  -0.605  1.00  0.00     0.124 A 
ENDROOT
BRANCH   6  10
HETATM   10  N2  UNL     1      -1.340   0.714   0.070  1.00  0.00    -0.221 N 
ATOM     11  H2  UNL     1      -0.917   1.641   0.022  1.00  0.00     0.178 HD
BRANCH  10  12
HETATM   12  C5  UNL     1      -2.715   0.749   0.346  1.00  0.00     0.102 C 
HETATM   13  C6  UNL     1      -3.599   0.178  -0.724  1.00  0.00     0.056 C 
HETATM   14  C7  UNL     1      -4.751  -0.611  -0.140  1.00  0.00     0.274 C 
HETATM   15  N3  UNL     1      -5.367   0.192   0.868  1.00  0.00     0.084 N 
HETATM   16  C8  UNL     1      -6.082   1.329   0.382  1.00  0.00     0.309 C 
HETATM   17  C9  UNL     1      -4.531   0.457   1.996  1.00  0.00     0.274 C 
HETATM   18  C10 UNL     1      -3.063   0.283   1.743  1.00  0.00     0.056 C 
ENDBRANCH  10  12
ENDBRANCH   6  10
BRANCH   9  19
HETATM   19  N5  UNL     1       2.958  -0.560  -0.838  1.00  0.00    -0.371 N 
ATOM     20  H5  UNL     1       3.629  -1.310  -1.002  1.00  0.00     0.161 HD
BRANCH  19  21
HETATM   21  C12 UNL     1       3.431   0.803  -0.879  1.00  0.00     0.084 C 
HETATM   22  C13 UNL     1       3.037   1.544  -2.113  1.00  0.00     0.032 C 
BRANCH  21  23
HETATM   23  C14 UNL     1       4.936   0.879  -0.732  1.00  0.00     0.103 C 
BRANCH  23  24
HETATM   24  C15 UNL     1       5.401   0.285   0.577  1.00  0.00     0.241 C 
HETATM   25  C16 UNL     1       4.821   0.982   1.769  1.00  0.00     0.090 C 
HETATM   26  F1  UNL     1       6.774   0.446   0.625  1.00  0.00    -0.207 F 
HETATM   27  F2  UNL     1       5.133  -1.054   0.674  1.00  0.00    -0.207 F 
ENDBRANCH  23  24
ENDBRANCH  21  23
ENDBRANCH  19  21
ENDBRANCH   9  19
TORSDOF 6
