REMARK  6 active torsions:
REMARK  status: ('A' for Active; 'I' for Inactive)
REMARK    1  A    between atoms: N3_8  and  C5_10 
REMARK    2  A    between atoms: N4_14  and  N5_15 
REMARK    3  A    between atoms: C9_18  and  N6_19 
REMARK    4  A    between atoms: N6_19  and  C10_21 
REMARK    5  A    between atoms: C13_24  and  S1_25 
REMARK    6  A    between atoms: S1_25  and  N7_26 
ROOT
HETATM    1  C5  UNL     1       0.247   0.077  -2.705  1.00  0.00     0.080 A 
HETATM    2  C6  UNL     1      -0.602   0.115  -3.829  1.00  0.00     0.035 A 
HETATM    3  C7  UNL     1      -0.275  -0.543  -4.983  1.00  0.00     0.022 A 
HETATM    4  C8  UNL     1       0.914  -1.234  -4.981  1.00  0.00     0.118 A 
HETATM    5  N4  UNL     1       1.727  -1.280  -3.931  1.00  0.00    -0.256 N 
HETATM    6  C9  UNL     1       1.405  -0.614  -2.752  1.00  0.00     0.153 A 
ENDROOT
BRANCH   1   7
HETATM    7  N3  UNL     1      -0.152   0.777  -1.534  1.00  0.00    -0.339 N 
HETATM    8  C4  UNL     1      -1.111   0.285  -0.832  1.00  0.00     0.114 C 
HETATM    9  N2  UNL     1      -1.766  -0.909  -1.176  1.00  0.00    -0.367 N 
HETATM   10  C20 UNL     1      -1.467   1.102   0.341  1.00  0.00     0.034 A 
HETATM   11  C3  UNL     1      -2.984  -1.537  -0.824  1.00  0.00     0.135 C 
ATOM     12  H2  UNL     1      -1.230  -1.460  -1.846  1.00  0.00     0.161 HD
HETATM   13  C2  UNL     1      -2.824  -2.647   0.196  1.00  0.00     0.298 C 
HETATM   14  C26 UNL     1      -4.048  -0.706  -0.197  1.00  0.00     0.134 C 
HETATM   15  N1  UNL     1      -4.173  -2.942   0.564  1.00  0.00     0.088 N 
HETATM   16  C1  UNL     1      -4.233  -3.269   1.985  1.00  0.00     0.310 C 
HETATM   17  C27 UNL     1      -5.003  -1.789   0.273  1.00  0.00     0.298 C 
HETATM   18  N8  UNL     1      -3.632   0.025   0.959  1.00  0.00    -0.381 N 
HETATM   19  C25 UNL     1      -2.595   0.987   1.159  1.00  0.00     0.042 A 
ATOM     20  H8  UNL     1      -4.177  -0.178   1.797  1.00  0.00     0.160 HD
HETATM   21  C24 UNL     1      -2.781   1.824   2.217  1.00  0.00     0.030 A 
HETATM   22  C23 UNL     1      -1.823   2.794   2.460  1.00  0.00     0.002 A 
HETATM   23  C22 UNL     1      -0.702   2.908   1.646  1.00  0.00     0.001 A 
HETATM   24  C21 UNL     1      -0.515   2.061   0.577  1.00  0.00     0.017 A 
ATOM     25  H3  UNL     1       0.309   1.644  -1.258  1.00  0.00     0.167 HD
ENDBRANCH   1   7
BRANCH   6  26
HETATM   26  N6  UNL     1       2.269  -0.729  -1.872  1.00  0.00    -0.338 N 
ATOM     27  H6  UNL     1       3.036  -1.316  -2.199  1.00  0.00     0.167 HD
BRANCH  26  28
HETATM   28  C10 UNL     1       2.502  -0.306  -0.597  1.00  0.00     0.045 A 
HETATM   29  C11 UNL     1       2.153  -1.028   0.555  1.00  0.00     0.032 A 
HETATM   30  C12 UNL     1       2.433  -0.571   1.814  1.00  0.00     0.028 A 
HETATM   31  C13 UNL     1       3.078   0.629   2.030  1.00  0.00     0.090 A 
HETATM   32  C14 UNL     1       3.438   1.367   0.924  1.00  0.00    -0.000 A 
HETATM   33  C15 UNL     1       4.096   2.585   1.105  1.00  0.00     0.014 A 
HETATM   34  C19 UNL     1       3.157   0.911  -0.345  1.00  0.00     0.002 A 
HETATM   35  C16 UNL     1       4.445   3.294  -0.014  1.00  0.00     0.001 A 
HETATM   36  C17 UNL     1       4.165   2.838  -1.283  1.00  0.00     0.001 A 
HETATM   37  C18 UNL     1       3.516   1.637  -1.467  1.00  0.00     0.014 A 
BRANCH  31  38
HETATM   38  S1  UNL     1       3.423   1.194   3.659  1.00  0.00     0.257 S 
HETATM   39  O1  UNL     1       4.894   1.353   3.902  1.00  0.00    -0.201 OA
HETATM   40  O2  UNL     1       2.712   2.477   3.908  1.00  0.00    -0.201 OA
BRANCH  38  41
HETATM   41  N7  UNL     1       2.858   0.038   4.815  1.00  0.00    -0.324 N 
ATOM     42  H72 UNL     1       2.395  -0.838   4.572  1.00  0.00     0.169 HD
ATOM     43  H71 UNL     1       3.058   0.366   5.760  1.00  0.00     0.169 HD
ENDBRANCH  38  41
ENDBRANCH  31  38
ENDBRANCH  26  28
ENDBRANCH   6  26
BRANCH   5  44
HETATM   44  N5  UNL     1       2.924  -1.990  -3.966  1.00  0.00    -0.337 N 
ATOM     45  H52 UNL     1       3.160  -2.478  -4.830  1.00  0.00     0.177 HD
ATOM     46  H51 UNL     1       3.548  -2.025  -3.160  1.00  0.00     0.177 HD
ENDBRANCH   5  44
TORSDOF 6
