REMARK  5 active torsions:
REMARK  status: ('A' for Active; 'I' for Inactive)
REMARK    1  A    between atoms: N1_2  and  C2_4 
REMARK    2  A    between atoms: C4_8  and  N3_9 
REMARK    3  A    between atoms: N3_9  and  C5_11 
REMARK    4  A    between atoms: C5_11  and  C6_12 
REMARK    5  A    between atoms: C6_12  and  N4_13 
ROOT
HETATM    1  C2  UNL     1      -1.930   0.013   0.216  1.00  0.00     0.086 A 
HETATM    2  C3  UNL     1      -0.989  -0.483  -0.638  1.00  0.00     0.138 A 
HETATM    3  N2  UNL     1       0.292  -0.112  -0.476  1.00  0.00    -0.200 N 
ATOM      4  H2  UNL     1       0.987  -0.489  -1.120  1.00  0.00     0.183 HD
HETATM    5  C4  UNL     1       0.710   0.728   0.487  1.00  0.00     0.679 A 
HETATM    6  N5  UNL     1      -0.230   1.210   1.322  1.00  0.00    -0.177 N 
ATOM      7  H5  UNL     1       0.053   1.850   2.064  1.00  0.00     0.185 HD
HETATM    8  C7  UNL     1      -1.533   0.876   1.212  1.00  0.00     0.159 A 
HETATM    9  N6  UNL     1      -2.538   1.376   2.086  1.00  0.00    -0.080 NA
ENDROOT
BRANCH   5  10
HETATM   10  N3  UNL     1       1.917   1.096   0.662  1.00  0.00    -0.224 N 
ATOM     11  H3  UNL     1       2.087   1.740   1.435  1.00  0.00     0.177 HD
BRANCH  10  12
HETATM   12  C5  UNL     1       3.053   0.710  -0.099  1.00  0.00     0.165 C 
BRANCH  12  13
HETATM   13  C6  UNL     1       3.358  -0.768  -0.048  1.00  0.00     0.249 C 
BRANCH  13  14
HETATM   14  N4  UNL     1       4.552  -0.972  -0.885  1.00  0.00    -0.078 N 
ATOM     15  H43 UNL     1       4.448  -0.612  -1.834  1.00  0.00     0.274 HD
ATOM     16  H42 UNL     1       5.342  -0.386  -0.614  1.00  0.00     0.274 HD
ATOM     17  H41 UNL     1       4.758  -1.970  -0.851  1.00  0.00     0.274 HD
ENDBRANCH  13  14
ENDBRANCH  12  13
ENDBRANCH  10  12
ENDBRANCH   5  10
BRANCH   1  18
HETATM   18  N1  UNL     1      -3.317  -0.357   0.080  1.00  0.00    -0.390 N 
HETATM   19  C1  UNL     1      -3.752  -1.260  -0.959  1.00  0.00     0.146 C 
ATOM     20  H1  UNL     1      -4.003   0.026   0.730  1.00  0.00     0.159 HD
ENDBRANCH   1  18
TORSDOF 5
