REMARK  13 active torsions:
REMARK  status: ('A' for Active; 'I' for Inactive)
REMARK    1  A    between atoms: C3_3  and  O1_5 
REMARK    2  A    between atoms: O1_5  and  C5_6 
REMARK    3  A    between atoms: C5_6  and  C6_8 
REMARK    4  A    between atoms: N1_13  and  C11_14 
REMARK    5  A    between atoms: C11_14  and  C12_15 
REMARK    6  A    between atoms: C12_15  and  C13_17 
REMARK    7  A    between atoms: C13_17  and  C14_18 
REMARK    8  A    between atoms: C14_18  and  C15_19 
REMARK    9  A    between atoms: C15_19  and  C16_20 
REMARK   10  A    between atoms: C16_20  and  C17_21 
REMARK   11  A    between atoms: C17_21  and  C18_22 
REMARK   12  A    between atoms: C18_22  and  C19_23 
REMARK   13  A    between atoms: C19_23  and  C20_24 
ROOT
HETATM    1  C1  UNL     1      -7.620   0.971   1.763  1.00  0.00     0.015 C 
HETATM    2  C2  UNL     1      -6.531   1.413   1.487  1.00  0.00    -0.085 C 
HETATM    3  C3  UNL     1      -5.177   1.929   1.142  1.00  0.00     0.205 C 
HETATM    4  C4  UNL     1      -5.234   3.343   0.679  1.00  0.00     0.054 C 
ENDROOT
BRANCH   3   5
HETATM    5  O1  UNL     1      -4.672   1.019   0.183  1.00  0.00    -0.302 OA
BRANCH   5   6
HETATM    6  C5  UNL     1      -3.610   0.156   0.435  1.00  0.00     0.283 C 
HETATM    7  O2  UNL     1      -3.089   0.203   1.569  1.00  0.00    -0.263 OA
BRANCH   6   8
HETATM    8  C6  UNL     1      -3.184  -0.754  -0.666  1.00  0.00     0.183 C 
HETATM    9  C7  UNL     1      -4.450  -1.566  -0.993  1.00  0.00     0.035 C 
HETATM   10  C8  UNL     1      -4.182  -2.340  -2.239  1.00  0.00     0.004 C 
HETATM   11  C9  UNL     1      -2.923  -3.161  -2.084  1.00  0.00     0.020 C 
HETATM   12  C10 UNL     1      -2.340  -3.024  -0.680  1.00  0.00     0.123 C 
HETATM   13  N1  UNL     1      -2.172  -1.659  -0.333  1.00  0.00    -0.373 N 
BRANCH  13  14
HETATM   14  C11 UNL     1      -0.877  -1.236  -0.015  1.00  0.00     0.136 C 
BRANCH  14  15
HETATM   15  C12 UNL     1      -0.077  -0.634  -1.074  1.00  0.00     0.164 C 
HETATM   16  O3  UNL     1      -0.546  -0.380  -2.154  1.00  0.00    -0.292 OA
BRANCH  15  17
HETATM   17  C13 UNL     1       1.358  -0.317  -0.836  1.00  0.00     0.084 C 
BRANCH  17  18
HETATM   18  C14 UNL     1       1.469   0.799   0.161  1.00  0.00     0.008 C 
BRANCH  18  19
HETATM   19  C15 UNL     1       2.898   1.192   0.492  1.00  0.00     0.000 C 
BRANCH  19  20
HETATM   20  C16 UNL     1       3.647   1.688  -0.671  1.00  0.00     0.000 C 
BRANCH  20  21
HETATM   21  C17 UNL     1       5.039   2.130  -0.531  1.00  0.00     0.000 C 
BRANCH  21  22
HETATM   22  C18 UNL     1       6.130   1.229  -0.184  1.00  0.00     0.004 C 
BRANCH  22  23
HETATM   23  C19 UNL     1       6.138   0.458   1.080  1.00  0.00     0.026 C 
BRANCH  23  24
HETATM   24  C20 UNL     1       7.457  -0.285   1.150  1.00  0.00    -0.037 C 
HETATM   25  C21 UNL     1       7.520  -1.594   1.192  1.00  0.00     0.007 C 
ENDBRANCH  23  24
ENDBRANCH  22  23
ENDBRANCH  21  22
ENDBRANCH  20  21
ENDBRANCH  19  20
ENDBRANCH  18  19
ENDBRANCH  17  18
ENDBRANCH  15  17
ENDBRANCH  14  15
ENDBRANCH  13  14
ENDBRANCH   6   8
ENDBRANCH   5   6
ENDBRANCH   3   5
TORSDOF 13
