REMARK  5 active torsions:
REMARK  status: ('A' for Active; 'I' for Inactive)
REMARK    1  A    between atoms: C4_9  and  N4_10 
REMARK    2  A    between atoms: C5_15  and  N6_16 
REMARK    3  A    between atoms: N6_16  and  N7_18 
REMARK    4  A    between atoms: N7_18  and  S1_20 
REMARK    5  A    between atoms: S1_20  and  N8_21 
ROOT
HETATM    1  C1  UNL     1      -1.263  -2.697  -0.348  1.00  0.00     0.157 C 
HETATM    2  N1  UNL     1      -1.946  -1.414  -0.529  1.00  0.00    -0.341 N 
HETATM    3  C2  UNL     1      -3.163  -1.206  -1.076  1.00  0.00     0.184 A 
HETATM    4  N2  UNL     1      -3.389   0.119  -1.039  1.00  0.00    -0.336 N 
ATOM      5  H2  UNL     1      -4.230   0.583  -1.383  1.00  0.00     0.168 HD
HETATM    6  C3  UNL     1      -2.332   0.739  -0.477  1.00  0.00     0.152 A 
HETATM    7  N3  UNL     1      -2.026   2.023  -0.195  1.00  0.00    -0.174 N 
ATOM      8  H3  UNL     1      -2.691   2.761  -0.426  1.00  0.00     0.186 HD
HETATM    9  C4  UNL     1      -0.856   2.342   0.386  1.00  0.00     0.679 A 
HETATM   10  N5  UNL     1       0.043   1.379   0.703  1.00  0.00    -0.173 N 
ATOM     11  H5  UNL     1       0.923   1.646   1.144  1.00  0.00     0.186 HD
HETATM   12  C5  UNL     1      -0.197   0.081   0.451  1.00  0.00     0.167 A 
HETATM   13  C6  UNL     1      -1.403  -0.245  -0.149  1.00  0.00     0.126 A 
ENDROOT
BRANCH  12  14
HETATM   14  N6  UNL     1       0.629  -0.868   0.735  1.00  0.00    -0.272 N 
ATOM     15  H6  UNL     1       0.354  -1.823   0.504  1.00  0.00     0.189 HD
BRANCH  14  16
HETATM   16  N7  UNL     1       1.857  -0.678   1.329  1.00  0.00    -0.208 N 
ATOM     17  H7  UNL     1       1.904  -0.512   2.334  1.00  0.00     0.201 HD
BRANCH  16  18
HETATM   18  S1  UNL     1       3.321  -0.714   0.410  1.00  0.00     0.330 S 
HETATM   19  O1  UNL     1       3.113  -1.570  -0.806  1.00  0.00    -0.181 OA
HETATM   20  O2  UNL     1       4.478  -1.162   1.241  1.00  0.00    -0.181 OA
BRANCH  18  21
HETATM   21  N8  UNL     1       3.632   0.900  -0.125  1.00  0.00    -0.310 N 
ATOM     22  H82 UNL     1       3.049   1.714   0.073  1.00  0.00     0.170 HD
ATOM     23  H81 UNL     1       4.496   0.879  -0.667  1.00  0.00     0.170 HD
ENDBRANCH  18  21
ENDBRANCH  16  18
ENDBRANCH  14  16
ENDBRANCH  12  14
BRANCH   9  24
HETATM   24  N4  UNL     1      -0.550   3.568   0.662  1.00  0.00    -0.234 N 
ATOM     25  H42 UNL     1      -1.227   4.293   0.423  1.00  0.00     0.174 HD
ATOM     26  H41 UNL     1       0.337   3.810   1.103  1.00  0.00     0.174 HD
ENDBRANCH   9  24
TORSDOF 5
