REMARK  3 active torsions:
REMARK  status: ('A' for Active; 'I' for Inactive)
REMARK    1  A    between atoms: N1_1  and  N2_4 
REMARK    2  A    between atoms: C1_6  and  N3_7 
REMARK    3  A    between atoms: C1_6  and  C3_12 
ROOT
HETATM    1  N2  UNL     1       1.049   1.394  -0.304  1.00  0.00    -0.290 N 
ATOM      2  H2  UNL     1       2.067   1.436  -0.358  1.00  0.00     0.188 HD
HETATM    3  C1  UNL     1       0.581   0.325   0.196  1.00  0.00     0.149 C 
ENDROOT
BRANCH   3   4
HETATM    4  N3  UNL     1       1.561  -0.646   0.601  1.00  0.00    -0.316 N 
HETATM    5  C2  UNL     1       2.616  -0.875  -0.108  1.00  0.00     0.202 C 
HETATM    6  N4  UNL     1       3.540  -1.846   0.350  1.00  0.00    -0.066 NA
HETATM    7  N5  UNL     1       2.908  -0.217  -1.314  1.00  0.00    -0.066 NA
ATOM      8  H3  UNL     1       1.420  -1.165   1.467  1.00  0.00     0.169 HD
ENDBRANCH   3   4
BRANCH   3   9
HETATM    9  C3  UNL     1      -0.829   0.101   0.362  1.00  0.00     0.087 A 
HETATM   10  C4  UNL     1      -1.702   1.097   0.711  1.00  0.00     0.108 A 
HETATM   11  C5  UNL     1      -3.073   0.814   0.844  1.00  0.00     0.251 A 
HETATM   12  O1  UNL     1      -3.871   1.745   1.167  1.00  0.00    -0.268 OA
HETATM   13  N6  UNL     1      -3.543  -0.425   0.635  1.00  0.00    -0.275 N 
HETATM   14  C6  UNL     1      -2.660  -1.386   0.293  1.00  0.00     0.327 A 
ATOM     15  H6  UNL     1      -4.537  -0.634   0.732  1.00  0.00     0.173 HD
HETATM   16  O2  UNL     1      -3.050  -2.571   0.084  1.00  0.00    -0.247 OA
HETATM   17  N7  UNL     1      -1.349  -1.121   0.164  1.00  0.00    -0.305 N 
ATOM     18  H7  UNL     1      -0.721  -1.882  -0.096  1.00  0.00     0.171 HD
ENDBRANCH   3   9
BRANCH   1  19
HETATM   19  N1  UNL     1       0.396   2.501  -0.783  1.00  0.00    -0.344 N 
ATOM     20  H12 UNL     1      -0.620   2.439  -0.720  1.00  0.00     0.176 HD
ATOM     21  H11 UNL     1       0.772   3.360  -1.185  1.00  0.00     0.176 HD
ENDBRANCH   1  19
TORSDOF 3
