REMARK  10 active torsions:
REMARK  status: ('A' for Active; 'I' for Inactive)
REMARK    1  A    between atoms: C2_2  and  N1_3 
REMARK    2  A    between atoms: N1_3  and  C3_4 
REMARK    3  A    between atoms: N1_3  and  C5_6 
REMARK    4  A    between atoms: C5_6  and  C6_7 
REMARK    5  A    between atoms: C6_7  and  C7_8 
REMARK    6  A    between atoms: C7_8  and  N2_9 
REMARK    7  A    between atoms: N2_9  and  C8_11 
REMARK    8  A    between atoms: C11_16  and  N4_17 
REMARK    9  A    between atoms: N4_17  and  C12_19 
REMARK   10  A    between atoms: C12_19  and  C13_20 
ROOT
HETATM    1  C8  UNL     1      -1.285  -1.402  -0.287  1.00  0.00     0.679 A 
HETATM    2  N3  UNL     1      -2.157  -2.438  -0.316  1.00  0.00    -0.195 N 
ATOM      3  H3  UNL     1      -1.790  -3.379  -0.175  1.00  0.00     0.184 HD
HETATM    4  C9  UNL     1      -3.462  -2.299  -0.518  1.00  0.00     0.036 A 
HETATM    5  C10 UNL     1      -3.980  -1.044  -0.712  1.00  0.00     0.009 A 
HETATM    6  C11 UNL     1      -3.112   0.049  -0.689  1.00  0.00     0.125 A 
HETATM    7  N5  UNL     1      -1.800  -0.184  -0.476  1.00  0.00    -0.176 N 
ATOM      8  H5  UNL     1      -1.166   0.615  -0.458  1.00  0.00     0.186 HD
HETATM    9  C14 UNL     1      -5.451  -1.110  -0.921  1.00  0.00     0.045 C 
HETATM   10  C15 UNL     1      -5.794  -2.418  -0.278  1.00  0.00     0.011 C 
HETATM   11  C16 UNL     1      -4.612  -3.274  -0.592  1.00  0.00     0.058 C 
ENDROOT
BRANCH   1  12
HETATM   12  N2  UNL     1      -0.072  -1.601  -0.096  1.00  0.00    -0.226 N 
ATOM     13  H2  UNL     1       0.167  -2.585   0.028  1.00  0.00     0.177 HD
BRANCH  12  14
HETATM   14  C7  UNL     1       1.057  -0.721  -0.016  1.00  0.00     0.140 C 
BRANCH  14  15
HETATM   15  C6  UNL     1       1.872  -0.883   1.201  1.00  0.00     0.050 C 
BRANCH  15  16
HETATM   16  C5  UNL     1       3.025   0.024   1.403  1.00  0.00     0.274 C 
BRANCH  16  17
HETATM   17  N1  UNL     1       4.096   0.046   0.461  1.00  0.00     0.087 N 
BRANCH  17  18
HETATM   18  C2  UNL     1       5.190   0.830   1.117  1.00  0.00     0.268 C 
HETATM   19  C1  UNL     1       6.477   0.675   0.381  1.00  0.00     0.037 C 
ENDBRANCH  17  18
BRANCH  17  20
HETATM   20  C3  UNL     1       3.875   0.717  -0.785  1.00  0.00     0.268 C 
HETATM   21  C4  UNL     1       3.252   2.088  -0.675  1.00  0.00     0.037 C 
ENDBRANCH  17  20
ENDBRANCH  16  17
ENDBRANCH  15  16
ENDBRANCH  14  15
ENDBRANCH  12  14
ENDBRANCH   1  12
BRANCH   6  22
HETATM   22  N4  UNL     1      -3.637   1.204  -0.876  1.00  0.00    -0.365 N 
ATOM     23  H4  UNL     1      -4.642   1.288  -1.031  1.00  0.00     0.161 HD
BRANCH  22  24
HETATM   24  C12 UNL     1      -2.809   2.382  -0.867  1.00  0.00     0.234 C 
BRANCH  24  25
HETATM   25  C13 UNL     1      -2.422   2.785   0.525  1.00  0.00     0.191 C 
HETATM   26  O1  UNL     1      -1.701   3.785   0.653  1.00  0.00    -0.647 OA
HETATM   27  O2  UNL     1      -2.838   2.091   1.634  1.00  0.00    -0.647 OA
ENDBRANCH  24  25
ENDBRANCH  22  24
ENDBRANCH   6  22
TORSDOF 10
