REMARK  20 active torsions:
REMARK  status: ('A' for Active; 'I' for Inactive)
REMARK    1  A    between atoms: N1_1  and  C1_5 
REMARK    2  A    between atoms: C1_5  and  C2_6 
REMARK    3  A    between atoms: C2_6  and  N2_7 
REMARK    4  A    between atoms: N2_7  and  C3_10 
REMARK    5  A    between atoms: C3_10  and  C4_11 
REMARK    6  A    between atoms: C4_11  and  N3_12 
REMARK    7  A    between atoms: C4_11  and  C8_23 
REMARK    8  A    between atoms: N3_12  and  C5_14 
REMARK    9  A    between atoms: C5_14  and  C6_15 
REMARK   10  A    between atoms: C5_14  and  C7_20 
REMARK   11  A    between atoms: C6_15  and  N4_16 
REMARK   12  A    between atoms: C7_20  and  O1_21 
REMARK   13  A    between atoms: C9_25  and  O3_26 
REMARK   14  A    between atoms: O3_26  and  C10_27 
REMARK   15  A    between atoms: C11_28  and  N5_29 
REMARK   16  A    between atoms: C13_34  and  N6_35 
REMARK   17  A    between atoms: C14_39  and  O4_40 
REMARK   18  A    between atoms: C15_42  and  O5_43 
REMARK   19  A    between atoms: C16_45  and  N7_46 
REMARK   20  A    between atoms: C17_50  and  N8_51 
ROOT
HETATM    1  C8  UNL     1      -1.031   1.212  -0.555  1.00  0.00     0.181 C 
HETATM    2  O2  UNL     1       0.222   1.266   0.066  1.00  0.00    -0.350 OA
HETATM    3  C9  UNL     1       1.024   0.369  -0.623  1.00  0.00     0.293 C 
HETATM    4  C16 UNL     1       0.514   0.213  -2.014  1.00  0.00     0.271 C 
HETATM    5  C17 UNL     1      -0.751   1.040  -2.014  1.00  0.00     0.249 C 
ENDROOT
BRANCH   1   6
HETATM    6  C4  UNL     1      -1.848   0.055   0.052  1.00  0.00     0.138 C 
BRANCH   6   7
HETATM    7  C3  UNL     1      -3.168  -0.093  -0.617  1.00  0.00     0.259 C 
BRANCH   7   8
HETATM    8  N2  UNL     1      -4.020   1.042  -0.558  1.00  0.00    -0.072 N 
ATOM      9  H22 UNL     1      -3.552   1.861  -0.947  1.00  0.00     0.277 HD
ATOM     10  H21 UNL     1      -4.137   1.352   0.407  1.00  0.00     0.277 HD
BRANCH   8  11
HETATM   11  C2  UNL     1      -5.289   0.850  -1.178  1.00  0.00     0.259 C 
BRANCH  11  12
HETATM   12  C1  UNL     1      -6.137   2.108  -1.065  1.00  0.00     0.257 C 
BRANCH  12  13
HETATM   13  N1  UNL     1      -5.518   3.236  -1.696  1.00  0.00    -0.078 N 
ATOM     14  H13 UNL     1      -4.577   3.391  -1.334  1.00  0.00     0.274 HD
ATOM     15  H12 UNL     1      -5.286   3.034  -2.668  1.00  0.00     0.274 HD
ATOM     16  H11 UNL     1      -6.087   4.079  -1.620  1.00  0.00     0.274 HD
ENDBRANCH  12  13
ENDBRANCH  11  12
ENDBRANCH   8  11
ENDBRANCH   7   8
ENDBRANCH   6   7
BRANCH   6  17
HETATM   17  N3  UNL     1      -1.936   0.324   1.415  1.00  0.00    -0.384 N 
ATOM     18  H3  UNL     1      -1.570   1.225   1.724  1.00  0.00     0.159 HD
BRANCH  17  19
HETATM   19  C5  UNL     1      -2.463  -0.493   2.394  1.00  0.00     0.032 C 
BRANCH  19  20
HETATM   20  C6  UNL     1      -1.809  -1.863   2.571  1.00  0.00     0.283 C 
BRANCH  20  21
HETATM   21  N4  UNL     1      -1.865  -2.692   1.413  1.00  0.00    -0.074 N 
ATOM     22  H43 UNL     1      -2.828  -2.795   1.094  1.00  0.00     0.274 HD
ATOM     23  H42 UNL     1      -1.467  -2.208   0.608  1.00  0.00     0.274 HD
ATOM     24  H41 UNL     1      -1.429  -3.606   1.531  1.00  0.00     0.274 HD
ENDBRANCH  20  21
ENDBRANCH  19  20
BRANCH  19  25
HETATM   25  C7  UNL     1      -3.950  -0.533   2.625  1.00  0.00     0.217 C 
BRANCH  25  26
HETATM   26  O1  UNL     1      -4.134  -1.453   3.697  1.00  0.00    -0.395 OA
ATOM     27  H1  UNL     1      -5.072  -1.478   3.843  1.00  0.00     0.209 HD
ENDBRANCH  25  26
ENDBRANCH  19  25
ENDBRANCH  17  19
ENDBRANCH   6  17
ENDBRANCH   1   6
BRANCH   5  28
HETATM   28  N8  UNL     1      -0.457   2.324  -2.653  1.00  0.00    -0.070 N 
ATOM     29  H83 UNL     1      -1.202   3.002  -2.492  1.00  0.00     0.274 HD
ATOM     30  H82 UNL     1       0.304   2.812  -2.180  1.00  0.00     0.274 HD
ATOM     31  H81 UNL     1      -0.266   2.207  -3.648  1.00  0.00     0.274 HD
ENDBRANCH   5  28
BRANCH   3  32
HETATM   32  O3  UNL     1       2.357   0.698  -0.643  1.00  0.00    -0.349 OA
BRANCH  32  33
HETATM   33  C10 UNL     1       3.100  -0.292  -0.016  1.00  0.00     0.186 C 
HETATM   34  C11 UNL     1       4.037  -0.991  -0.978  1.00  0.00     0.217 C 
HETATM   35  C12 UNL     1       5.016  -1.798  -0.153  1.00  0.00     0.071 C 
HETATM   36  C13 UNL     1       5.958  -0.824   0.498  1.00  0.00     0.216 C 
HETATM   37  C14 UNL     1       5.266   0.355   1.113  1.00  0.00     0.179 C 
HETATM   38  C15 UNL     1       3.789   0.232   1.210  1.00  0.00     0.180 C 
BRANCH  34  39
HETATM   39  N5  UNL     1       4.719  -0.051  -1.826  1.00  0.00    -0.072 N 
ATOM     40  H53 UNL     1       4.061   0.553  -2.319  1.00  0.00     0.274 HD
ATOM     41  H52 UNL     1       5.207   0.659  -1.280  1.00  0.00     0.274 HD
ATOM     42  H51 UNL     1       5.350  -0.522  -2.474  1.00  0.00     0.274 HD
ENDBRANCH  34  39
BRANCH  36  43
HETATM   43  N6  UNL     1       6.775  -1.556   1.441  1.00  0.00    -0.072 N 
ATOM     44  H63 UNL     1       6.222  -2.082   2.117  1.00  0.00     0.274 HD
ATOM     45  H62 UNL     1       7.258  -2.347   1.015  1.00  0.00     0.274 HD
ATOM     46  H61 UNL     1       7.414  -0.895   1.883  1.00  0.00     0.274 HD
ENDBRANCH  36  43
BRANCH  37  47
HETATM   47  O4  UNL     1       5.683   1.570   0.523  1.00  0.00    -0.391 OA
ATOM     48  H4  UNL     1       5.244   2.317   0.913  1.00  0.00     0.210 HD
ENDBRANCH  37  47
BRANCH  38  49
HETATM   49  O5  UNL     1       3.257   1.508   1.477  1.00  0.00    -0.390 OA
ATOM     50  H5  UNL     1       3.693   1.840   2.253  1.00  0.00     0.210 HD
ENDBRANCH  38  49
ENDBRANCH  32  33
ENDBRANCH   3  32
BRANCH   4  51
HETATM   51  N7  UNL     1       0.200  -1.193  -2.326  1.00  0.00    -0.068 N 
ATOM     52  H73 UNL     1       1.001  -1.800  -2.154  1.00  0.00     0.275 HD
ATOM     53  H72 UNL     1      -0.449  -1.589  -1.646  1.00  0.00     0.275 HD
ATOM     54  H71 UNL     1      -0.149  -1.300  -3.278  1.00  0.00     0.275 HD
ENDBRANCH   4  51
TORSDOF 20
