REMARK  6 active torsions:
REMARK  status: ('A' for Active; 'I' for Inactive)
REMARK    1  A    between atoms: C4_6  and  N2_7 
REMARK    2  A    between atoms: N2_7  and  N3_9 
REMARK    3  A    between atoms: N3_9  and  N4_10 
REMARK    4  A    between atoms: C5_14  and  C6_15 
REMARK    5  A    between atoms: C6_15  and  O3_16 
REMARK    6  A    between atoms: C7_18  and  O4_19 
ROOT
HETATM    1  N1  UNL     1      -0.729  -3.189   2.369  1.00  0.00    -0.196 NA
HETATM    2  C1  UNL     1      -0.545  -2.189   1.841  1.00  0.00     0.074 C 
HETATM    3  C2  UNL     1      -0.286  -0.917   1.169  1.00  0.00     0.198 C 
HETATM    4  C3  UNL     1       1.050  -0.897   0.535  1.00  0.00     0.197 C 
HETATM    5  O1  UNL     1       1.866  -1.745   0.781  1.00  0.00    -0.291 OA
HETATM    6  C4  UNL     1       1.314   0.212  -0.405  1.00  0.00     0.322 C 
HETATM    7  O2  UNL     1       0.327   0.431  -1.315  1.00  0.00    -0.347 OA
HETATM    8  C5  UNL     1      -0.955   0.340  -0.902  1.00  0.00     0.178 C 
HETATM    9  C7  UNL     1      -1.286  -0.742   0.057  1.00  0.00     0.174 C 
ENDROOT
BRANCH   9  10
HETATM   10  O4  UNL     1      -1.351  -1.964  -0.635  1.00  0.00    -0.391 OA
ATOM     11  H4  UNL     1      -1.982  -1.854  -1.337  1.00  0.00     0.210 HD
ENDBRANCH   9  10
BRANCH   6  12
HETATM   12  N2  UNL     1       2.526  -0.135  -1.154  1.00  0.00    -0.216 N 
ATOM     13  H2  UNL     1       2.463  -0.836  -1.892  1.00  0.00     0.200 HD
BRANCH  12  14
HETATM   14  N3  UNL     1       3.614   0.387  -0.925  1.00  0.00    -0.246 NA
BRANCH  14  15
HETATM   15  N4  UNL     1       4.620   1.040  -0.668  1.00  0.00    -0.261 N 
ATOM     16  H42 UNL     1       3.970   1.811  -0.517  1.00  0.00     0.193 HD
ATOM     17  H41 UNL     1       5.524   1.473  -0.478  1.00  0.00     0.193 HD
ENDBRANCH  14  15
ENDBRANCH  12  14
ENDBRANCH   6  12
BRANCH   8  18
HETATM   18  C6  UNL     1      -1.497   1.655  -0.328  1.00  0.00     0.198 C 
BRANCH  18  19
HETATM   19  O3  UNL     1      -0.758   2.073   0.767  1.00  0.00    -0.398 OA
ATOM     20  H3  UNL     1      -1.094   2.887   1.123  1.00  0.00     0.209 HD
ENDBRANCH  18  19
ENDBRANCH   8  18
TORSDOF 6
