REMARK  7 active torsions:
REMARK  status: ('A' for Active; 'I' for Inactive)
REMARK    1  A    between atoms: N1_4  and  N2_6 
REMARK    2  A    between atoms: N2_6  and  C4_7 
REMARK    3  A    between atoms: C6_12  and  N4_13 
REMARK    4  A    between atoms: N4_13  and  C7_15 
REMARK    5  A    between atoms: C7_15  and  C8_16 
REMARK    6  A    between atoms: C8_16  and  O2_17 
REMARK    7  A    between atoms: C10_23  and  C11_24 
ROOT
HETATM    1  C4  UNL     1      -0.549   0.954   0.131  1.00  0.00     0.224 C 
HETATM    2  N3  UNL     1       0.137   1.311   1.163  1.00  0.00    -0.292 N 
ATOM      3  H3  UNL     1      -0.394   1.951   1.754  1.00  0.00     0.172 HD
HETATM    4  C5  UNL     1       1.373   1.072   1.685  1.00  0.00     0.291 C 
HETATM    5  O1  UNL     1       1.852   2.135   2.158  1.00  0.00    -0.264 OA
HETATM    6  C6  UNL     1       2.044  -0.111   1.714  1.00  0.00     0.172 C 
HETATM    7  N5  UNL     1       1.521  -1.273   1.326  1.00  0.00    -0.326 N 
ATOM      8  H5  UNL     1       2.109  -2.097   1.451  1.00  0.00     0.168 HD
HETATM    9  C9  UNL     1       0.289  -1.488   0.781  1.00  0.00     0.137 C 
HETATM   10  N6  UNL     1      -0.063  -2.890   0.811  1.00  0.00    -0.081 NA
HETATM   11  C10 UNL     1      -0.593  -0.656   0.272  1.00  0.00     0.112 C 
ENDROOT
BRANCH  11  12
HETATM   12  C11 UNL     1      -1.825  -1.196  -0.230  1.00  0.00     0.155 A 
HETATM   13  N7  UNL     1      -2.847  -1.628   0.626  1.00  0.00    -0.268 N 
HETATM   14  N8  UNL     1      -3.775  -2.157  -0.198  1.00  0.00    -0.227 N 
ATOM     15  H7  UNL     1      -2.881  -1.558   1.643  1.00  0.00     0.190 HD
HETATM   16  N9  UNL     1      -3.407  -2.082  -1.455  1.00  0.00    -0.227 N 
ATOM     17  H8  UNL     1      -4.655  -2.565   0.118  1.00  0.00     0.210 HD
HETATM   18  N10 UNL     1      -2.231  -1.502  -1.466  1.00  0.00    -0.268 N 
ATOM     19  H9  UNL     1      -3.933  -2.410  -2.265  1.00  0.00     0.210 HD
ATOM     20  H10 UNL     1      -1.694  -1.309  -2.311  1.00  0.00     0.190 HD
ENDBRANCH  11  12
BRANCH   1  21
HETATM   21  N2  UNL     1      -1.129   1.007  -0.828  1.00  0.00    -0.306 NA
BRANCH  21  22
HETATM   22  N1  UNL     1      -1.738   1.397  -1.917  1.00  0.00    -0.243 N 
HETATM   23  C2  UNL     1      -2.678   2.284  -2.122  1.00  0.00     0.009 C 
HETATM   24  C1  UNL     1      -3.113   2.432  -3.514  1.00  0.00     0.065 C 
HETATM   25  C3  UNL     1      -3.229   3.011  -0.959  1.00  0.00     0.065 C 
ATOM     26  H1  UNL     1      -1.422   0.922  -2.763  1.00  0.00     0.201 HD
ENDBRANCH  21  22
ENDBRANCH   1  21
BRANCH   6  27
HETATM   27  N4  UNL     1       3.209   0.054   2.106  1.00  0.00    -0.370 N 
ATOM     28  H4  UNL     1       3.481   1.013   2.324  1.00  0.00     0.161 HD
BRANCH  27  29
HETATM   29  C7  UNL     1       4.238  -0.969   2.292  1.00  0.00     0.147 C 
BRANCH  29  30
HETATM   30  C8  UNL     1       5.245  -0.793   1.181  1.00  0.00     0.183 C 
BRANCH  30  31
HETATM   31  O2  UNL     1       4.575  -0.977  -0.039  1.00  0.00    -0.399 OA
ATOM     32  H2  UNL     1       5.209  -0.866  -0.738  1.00  0.00     0.209 HD
ENDBRANCH  30  31
ENDBRANCH  29  30
ENDBRANCH  27  29
ENDBRANCH   6  27
TORSDOF 7
