REMARK  21 active torsions:
REMARK  status: ('A' for Active; 'I' for Inactive)
REMARK    1  A    between atoms: C2_2  and  O2_4 
REMARK    2  A    between atoms: O2_4  and  C3_5 
REMARK    3  A    between atoms: C4_7  and  C5_8 
REMARK    4  A    between atoms: C5_8  and  O4_9 
REMARK    5  A    between atoms: O4_9  and  C6_10 
REMARK    6  A    between atoms: C6_10  and  O6_15 
REMARK    7  A    between atoms: N1_11  and  O5_13 
REMARK    8  A    between atoms: O6_15  and  C7_16 
REMARK    9  A    between atoms: C7_16  and  C8_17 
REMARK   10  A    between atoms: C8_17  and  O7_18 
REMARK   11  A    between atoms: O7_18  and  C9_19 
REMARK   12  A    between atoms: C9_19  and  C10_20 
REMARK   13  A    between atoms: C11_22  and  O9_23 
REMARK   14  A    between atoms: O9_23  and  C12_24 
REMARK   15  A    between atoms: C15_28  and  O11_29 
REMARK   16  A    between atoms: C16_31  and  O12_32 
REMARK   17  A    between atoms: C17_34  and  O13_35 
REMARK   18  A    between atoms: C18_38  and  O15_40 
REMARK   19  A    between atoms: C21_44  and  O16_45 
REMARK   20  A    between atoms: C22_47  and  O17_48 
REMARK   21  A    between atoms: C23_50  and  O18_51 
ROOT
HETATM    1  C8  UNL     1       0.439  -0.872   2.044  1.00  0.00     0.194 C 
ENDROOT
BRANCH   1   2
HETATM    2  C7  UNL     1       1.579  -0.364   2.868  1.00  0.00     0.205 C 
BRANCH   2   3
HETATM    3  O6  UNL     1       2.860  -0.599   2.430  1.00  0.00    -0.313 OA
BRANCH   3   4
HETATM    4  C6  UNL     1       3.430  -0.165   1.226  1.00  0.00     0.284 C 
HETATM    5  N1  UNL     1       2.729  -0.405   0.192  1.00  0.00    -0.226 N 
ATOM      6  H1  UNL     1       1.833  -0.880   0.306  1.00  0.00     0.198 HD
BRANCH   4   7
HETATM    7  O4  UNL     1       4.661   0.470   1.202  1.00  0.00    -0.312 OA
BRANCH   7   8
HETATM    8  C5  UNL     1       5.315   0.887   0.044  1.00  0.00     0.214 C 
BRANCH   8   9
HETATM    9  C4  UNL     1       6.649   1.550   0.357  1.00  0.00     0.180 C 
HETATM   10  O3  UNL     1       7.518   0.732   1.010  1.00  0.00    -0.348 OA
HETATM   11  C3  UNL     1       8.343  -0.034   0.245  1.00  0.00     0.301 C 
HETATM   12  C23 UNL     1       9.100   0.746  -0.807  1.00  0.00     0.205 C 
HETATM   13  C22 UNL     1       8.029   1.325  -1.741  1.00  0.00     0.183 C 
HETATM   14  C21 UNL     1       7.152   2.194  -0.890  1.00  0.00     0.180 C 
BRANCH  11  15
HETATM   15  O2  UNL     1       7.717  -1.117  -0.408  1.00  0.00    -0.287 OA
BRANCH  15  16
HETATM   16  C2  UNL     1       8.085  -2.436  -0.176  1.00  0.00     0.257 C 
HETATM   17  C1  UNL     1       7.434  -3.588  -0.859  1.00  0.00     0.126 C 
HETATM   18  O1  UNL     1       9.027  -2.600   0.668  1.00  0.00    -0.266 OA
ENDBRANCH  15  16
ENDBRANCH  11  15
BRANCH  12  19
HETATM   19  O18 UNL     1       9.935  -0.115  -1.493  1.00  0.00    -0.388 OA
ATOM     20  H18 UNL     1      10.410   0.375  -2.154  1.00  0.00     0.210 HD
ENDBRANCH  12  19
BRANCH  13  21
HETATM   21  O17 UNL     1       8.612   2.135  -2.712  1.00  0.00    -0.390 OA
ATOM     22  H17 UNL     1       9.168   1.584  -3.251  1.00  0.00     0.210 HD
ENDBRANCH  13  21
BRANCH  14  23
HETATM   23  O16 UNL     1       7.873   3.344  -0.569  1.00  0.00    -0.390 OA
ATOM     24  H16 UNL     1       8.194   3.754  -1.364  1.00  0.00     0.210 HD
ENDBRANCH  14  23
ENDBRANCH   8   9
ENDBRANCH   7   8
ENDBRANCH   4   7
BRANCH   5  25
HETATM   25  O5  UNL     1       3.124  -0.056  -1.049  1.00  0.00    -0.286 OA
ATOM     26  H5  UNL     1       2.600  -0.235  -1.821  1.00  0.00     0.244 HD
ENDBRANCH   5  25
ENDBRANCH   3   4
ENDBRANCH   2   3
ENDBRANCH   1   2
BRANCH   1  27
HETATM   27  O7  UNL     1      -0.730  -0.489   2.754  1.00  0.00    -0.386 OA
BRANCH  27  28
HETATM   28  C9  UNL     1      -1.894  -0.885   2.172  1.00  0.00     0.201 C 
BRANCH  28  29
HETATM   29  C10 UNL     1      -2.086  -0.322   0.786  1.00  0.00     0.170 C 
HETATM   30  O8  UNL     1      -3.296  -0.728   0.227  1.00  0.00    -0.330 OA
HETATM   31  C11 UNL     1      -4.389  -0.133   0.836  1.00  0.00     0.418 C 
HETATM   32  O14 UNL     1      -4.081   1.047   1.483  1.00  0.00    -0.301 OA
HETATM   33  C18 UNL     1      -3.183   1.845   0.818  1.00  0.00     0.179 C 
HETATM   34  C19 UNL     1      -3.679   2.295  -0.537  1.00  0.00     0.080 C 
HETATM   35  C20 UNL     1      -1.843   1.149   0.714  1.00  0.00     0.151 C 
HETATM   36  S1  UNL     1      -1.154   1.623  -0.920  1.00  0.00    -0.084 SA
BRANCH  31  37
HETATM   37  O9  UNL     1      -5.312   0.164  -0.166  1.00  0.00    -0.305 OA
BRANCH  37  38
HETATM   38  C12 UNL     1      -6.535  -0.442   0.039  1.00  0.00     0.297 C 
HETATM   39  O10 UNL     1      -6.732  -1.334  -1.026  1.00  0.00    -0.351 OA
HETATM   40  C13 UNL     1      -7.804  -2.179  -0.802  1.00  0.00     0.152 C 
HETATM   41  C14 UNL     1      -7.864  -3.142  -1.975  1.00  0.00     0.042 C 
HETATM   42  C15 UNL     1      -9.083  -1.408  -0.739  1.00  0.00     0.178 C 
HETATM   43  C16 UNL     1      -8.794   0.067  -0.912  1.00  0.00     0.183 C 
HETATM   44  C17 UNL     1      -7.685   0.521   0.035  1.00  0.00     0.204 C 
BRANCH  42  45
HETATM   45  O11 UNL     1      -9.994  -1.771  -1.712  1.00  0.00    -0.390 OA
ATOM     46  H11 UNL     1     -10.807  -1.281  -1.672  1.00  0.00     0.210 HD
ENDBRANCH  42  45
BRANCH  43  47
HETATM   47  O12 UNL     1      -9.943   0.753  -0.525  1.00  0.00    -0.390 OA
ATOM     48  H12 UNL     1      -9.762   1.679  -0.634  1.00  0.00     0.210 HD
ENDBRANCH  43  47
BRANCH  44  49
HETATM   49  O13 UNL     1      -8.279   0.571   1.313  1.00  0.00    -0.388 OA
ATOM     50  H13 UNL     1      -9.007   1.181   1.310  1.00  0.00     0.210 HD
ENDBRANCH  44  49
ENDBRANCH  37  38
ENDBRANCH  31  37
BRANCH  33  51
HETATM   51  O15 UNL     1      -2.987   2.997   1.580  1.00  0.00    -0.364 OA
ATOM     52  H15 UNL     1      -2.366   3.549   1.120  1.00  0.00     0.213 HD
ENDBRANCH  33  51
ENDBRANCH  28  29
ENDBRANCH  27  28
ENDBRANCH   1  27
TORSDOF 21
