REMARK  14 active torsions:
REMARK  status: ('A' for Active; 'I' for Inactive)
REMARK    1  A    between atoms: N1_4  and  C4_5 
REMARK    2  A    between atoms: C4_5  and  C5_6 
REMARK    3  A    between atoms: C5_6  and  C6_7 
REMARK    4  A    between atoms: N2_9  and  C8_10 
REMARK    5  A    between atoms: C8_10  and  C9_11 
REMARK    6  A    between atoms: C9_11  and  C10_12 
REMARK    7  A    between atoms: C9_11  and  C13_19 
REMARK    8  A    between atoms: C10_12  and  C11_13 
REMARK    9  A    between atoms: C11_13  and  N3_14 
REMARK       I    between atoms: N3_14  and  C12_16 
REMARK   10  A    between atoms: C13_19  and  N6_20 
REMARK   11  A    between atoms: C16_25  and  N8_26 
REMARK   12  A    between atoms: C17_31  and  C18_32 
REMARK   13  A    between atoms: C18_32  and  N10_33 
REMARK   14  A    between atoms: C18_32  and  N11_37 
ROOT
HETATM    1  C9  UNL     1      -1.740   0.216   0.548  1.00  0.00     0.025 C 
ENDROOT
BRANCH   1   2
HETATM    2  C8  UNL     1      -1.252   0.912  -0.673  1.00  0.00     0.156 C 
BRANCH   2   3
HETATM    3  N2  UNL     1       0.213   0.923  -0.616  1.00  0.00    -0.286 N 
HETATM    4  C7  UNL     1       1.012   1.851  -0.094  1.00  0.00     0.142 A 
HETATM    5  C6  UNL     1       2.341   1.383  -0.283  1.00  0.00     0.068 A 
HETATM    6  N13 UNL     1       2.209   0.220  -0.899  1.00  0.00    -0.285 N 
HETATM    7  N12 UNL     1       0.964  -0.042  -1.090  1.00  0.00    -0.240 N 
ATOM      8  H13 UNL     1       2.982  -0.382  -1.182  1.00  0.00     0.188 HD
ATOM      9  H12 UNL     1       0.610  -0.883  -1.546  1.00  0.00     0.208 HD
BRANCH   5  10
HETATM   10  C5  UNL     1       3.497   2.143   0.121  1.00  0.00     0.050 C 
BRANCH  10  11
HETATM   11  C4  UNL     1       4.741   1.940   0.144  1.00  0.00     0.099 C 
BRANCH  11  12
HETATM   12  N1  UNL     1       5.616   0.894  -0.196  1.00  0.00    -0.327 N 
HETATM   13  C3  UNL     1       6.990   1.073  -0.271  1.00  0.00     0.121 A 
HETATM   14  C2  UNL     1       7.533  -0.150  -0.565  1.00  0.00     0.024 A 
HETATM   15  C1  UNL     1       9.016  -0.324  -0.721  1.00  0.00     0.070 C 
HETATM   16  N14 UNL     1       6.588  -1.050  -0.673  1.00  0.00    -0.350 N 
HETATM   17  C19 UNL     1       5.410  -0.403  -0.444  1.00  0.00     0.189 A 
HETATM   18  C20 UNL     1       6.797  -2.449  -0.977  1.00  0.00     0.156 C 
ENDBRANCH  11  12
ENDBRANCH  10  11
ENDBRANCH   5  10
ENDBRANCH   2   3
ENDBRANCH   1   2
BRANCH   1  19
HETATM   19  C10 UNL     1      -1.363   0.824   1.851  1.00  0.00     0.027 C 
BRANCH  19  20
HETATM   20  C11 UNL     1      -1.809   2.202   2.146  1.00  0.00     0.122 C 
BRANCH  20  21
HETATM   21  N3  UNL     1      -3.219   2.431   2.193  1.00  0.00    -0.367 N 
HETATM   22  C12 UNL     1      -3.780   3.546   1.874  1.00  0.00     0.196 C 
HETATM   23  N4  UNL     1      -5.193   3.627   1.970  1.00  0.00    -0.067 NA
HETATM   24  N5  UNL     1      -2.973   4.634   1.444  1.00  0.00    -0.067 NA
ATOM     25  H3  UNL     1      -3.818   1.664   2.498  1.00  0.00     0.161 HD
ENDBRANCH  20  21
ENDBRANCH  19  20
ENDBRANCH   1  19
BRANCH   1  26
HETATM   26  C13 UNL     1      -3.185  -0.201   0.561  1.00  0.00     0.138 C 
BRANCH  26  27
HETATM   27  N6  UNL     1      -3.561  -1.114  -0.498  1.00  0.00    -0.322 N 
HETATM   28  C14 UNL     1      -4.105  -0.566  -1.597  1.00  0.00     0.097 A 
HETATM   29  C15 UNL     1      -4.428   0.828  -1.835  1.00  0.00     0.090 C 
HETATM   30  N7  UNL     1      -4.432  -1.420  -2.621  1.00  0.00    -0.181 N 
HETATM   31  C16 UNL     1      -4.214  -2.741  -2.518  1.00  0.00     0.678 A 
ATOM     32  H7  UNL     1      -4.847  -1.045  -3.474  1.00  0.00     0.185 HD
HETATM   33  N9  UNL     1      -3.671  -3.248  -1.405  1.00  0.00    -0.177 N 
HETATM   34  C17 UNL     1      -3.326  -2.440  -0.355  1.00  0.00     0.159 A 
ATOM     35  H9  UNL     1      -3.511  -4.253  -1.338  1.00  0.00     0.185 HD
BRANCH  31  36
HETATM   36  N8  UNL     1      -4.512  -3.568  -3.464  1.00  0.00    -0.234 N 
ATOM     37  H82 UNL     1      -4.926  -3.182  -4.312  1.00  0.00     0.174 HD
ATOM     38  H81 UNL     1      -4.346  -4.571  -3.386  1.00  0.00     0.174 HD
ENDBRANCH  31  36
BRANCH  34  39
HETATM   39  C18 UNL     1      -2.736  -3.046   0.848  1.00  0.00     0.445 C 
BRANCH  39  40
HETATM   40  N10 UNL     1      -1.692  -4.023   0.491  1.00  0.00    -0.043 N 
ATOM     41 3H10 UNL     1      -2.045  -4.732  -0.153  1.00  0.00     0.277 HD
ATOM     42 2H10 UNL     1      -0.979  -3.609  -0.109  1.00  0.00     0.277 HD
ATOM     43 1H10 UNL     1      -1.283  -4.443   1.325  1.00  0.00     0.277 HD
ENDBRANCH  39  40
BRANCH  39  44
HETATM   44  N11 UNL     1      -3.805  -3.898   1.415  1.00  0.00    -0.043 N 
ATOM     45 3H11 UNL     1      -4.679  -3.402   1.589  1.00  0.00     0.277 HD
ATOM     46 2H11 UNL     1      -4.185  -4.577   0.755  1.00  0.00     0.277 HD
ATOM     47 1H11 UNL     1      -3.396  -4.318   2.249  1.00  0.00     0.277 HD
ENDBRANCH  39  44
ENDBRANCH  34  39
ENDBRANCH  26  27
ENDBRANCH   1  26
TORSDOF 14
