REMARK  8 active torsions:
REMARK  status: ('A' for Active; 'I' for Inactive)
REMARK    1  A    between atoms: N1_1  and  N2_4 
REMARK       I    between atoms: N2_4  and  C1_6 
REMARK       I    between atoms: C1_6  and  N3_8 
REMARK    2  A    between atoms: C5_22  and  N8_23 
REMARK    3  A    between atoms: N8_23  and  N9_25 
REMARK    4  A    between atoms: C6_27  and  O4_28 
REMARK    5  A    between atoms: C6_27  and  C7_30 
REMARK    6  A    between atoms: C7_30  and  O5_31 
REMARK    7  A    between atoms: C7_30  and  C8_33 
REMARK    8  A    between atoms: C8_33  and  O6_34 
ROOT
HETATM    1  N2  UNL     1      -2.862  -3.156  -0.104  1.00  0.00    -0.256 N 
ATOM      2  H2  UNL     1      -3.657  -3.119  -0.742  1.00  0.00     0.191 HD
HETATM    3  C1  UNL     1      -2.124  -1.976   0.173  1.00  0.00     0.361 C 
HETATM    4  O1  UNL     1      -1.190  -2.095   0.940  1.00  0.00    -0.243 OA
HETATM    5  N3  UNL     1      -2.549  -0.793  -0.472  1.00  0.00    -0.183 N 
HETATM    6  N4  UNL     1      -3.681  -0.720  -1.236  1.00  0.00    -0.231 N 
ATOM      7  H4  UNL     1      -4.310  -1.505  -1.405  1.00  0.00     0.209 HD
HETATM    8  N5  UNL     1      -3.856   0.478  -1.721  1.00  0.00    -0.278 N 
ATOM      9  H5  UNL     1      -4.634   0.758  -2.318  1.00  0.00     0.189 HD
HETATM   10  C2  UNL     1      -2.870   1.284  -1.323  1.00  0.00     0.150 A 
HETATM   11  C3  UNL     1      -2.691   2.630  -1.595  1.00  0.00     0.280 C 
HETATM   12  O2  UNL     1      -3.328   3.052  -2.582  1.00  0.00    -0.265 OA
HETATM   13  N6  UNL     1      -1.920   3.518  -0.924  1.00  0.00    -0.273 N 
ATOM     14  H6  UNL     1      -1.932   4.484  -1.252  1.00  0.00     0.173 HD
HETATM   15  C4  UNL     1      -1.125   3.237   0.156  1.00  0.00     0.328 C 
HETATM   16  O3  UNL     1      -0.885   4.267   0.835  1.00  0.00    -0.247 OA
HETATM   17  N7  UNL     1      -0.608   2.062   0.544  1.00  0.00    -0.291 N 
ATOM     18  H7  UNL     1       0.070   2.100   1.305  1.00  0.00     0.172 HD
HETATM   19  C5  UNL     1      -0.879   0.824   0.045  1.00  0.00     0.156 C 
HETATM   20  C9  UNL     1      -2.060   0.442  -0.537  1.00  0.00     0.142 A 
ENDROOT
BRANCH  19  21
HETATM   21  N8  UNL     1       0.025  -0.074   0.069  1.00  0.00    -0.282 N 
ATOM     22  H8  UNL     1      -0.137  -1.014  -0.293  1.00  0.00     0.188 HD
BRANCH  21  23
HETATM   23  N9  UNL     1       1.266   0.310   0.628  1.00  0.00    -0.280 N 
HETATM   24  C6  UNL     1       2.373   0.160   0.025  1.00  0.00     0.162 C 
ATOM     25  H9  UNL     1       1.272   0.727   1.559  1.00  0.00     0.189 HD
BRANCH  24  26
HETATM   26  O4  UNL     1       2.464  -0.395  -1.240  1.00  0.00    -0.346 OA
ATOM     27  H4  UNL     1       3.292  -0.507  -1.691  1.00  0.00     0.219 HD
ENDBRANCH  24  26
BRANCH  24  28
HETATM   28  C7  UNL     1       3.623   0.592   0.690  1.00  0.00     0.217 C 
BRANCH  28  29
HETATM   29  O5  UNL     1       3.430   1.129   1.938  1.00  0.00    -0.385 OA
ATOM     30  H5  UNL     1       4.232   1.406   2.365  1.00  0.00     0.210 HD
ENDBRANCH  28  29
BRANCH  28  31
HETATM   31  C8  UNL     1       4.630  -0.539   0.770  1.00  0.00     0.204 C 
BRANCH  31  32
HETATM   32  O6  UNL     1       4.210  -1.561   1.615  1.00  0.00    -0.398 OA
ATOM     33  H6  UNL     1       4.841  -2.270   1.665  1.00  0.00     0.209 HD
ENDBRANCH  31  32
ENDBRANCH  28  31
ENDBRANCH  24  28
ENDBRANCH  21  23
ENDBRANCH  19  21
BRANCH   1  34
HETATM   34  N1  UNL     1      -2.510  -4.358   0.487  1.00  0.00    -0.341 N 
ATOM     35  H12 UNL     1      -1.713  -4.378   1.123  1.00  0.00     0.177 HD
ATOM     36  H11 UNL     1      -3.040  -5.206   0.288  1.00  0.00     0.177 HD
ENDBRANCH   1  34
TORSDOF 8
