REMARK  8 active torsions:
REMARK  status: ('A' for Active; 'I' for Inactive)
REMARK    1  A    between atoms: C2_2  and  O1_3 
REMARK    2  A    between atoms: C2_2  and  C3_5 
REMARK    3  A    between atoms: C3_5  and  C4_6 
REMARK    4  A    between atoms: C6_14  and  O4_15 
REMARK    5  A    between atoms: C6_14  and  C7_17 
REMARK    6  A    between atoms: C7_17  and  O5_18 
REMARK    7  A    between atoms: C8_21  and  C9_22 
REMARK    8  A    between atoms: N4_26  and  O8_27 
ROOT
HETATM    1  C3  UNL     1      -1.661  -0.148  -0.160  1.00  0.00     0.259 C 
HETATM    2  N1  UNL     1      -0.772  -1.256   0.060  1.00  0.00    -0.186 N 
ATOM      3  H1  UNL     1      -1.022  -2.243   0.118  1.00  0.00     0.180 HD
HETATM    4  C5  UNL     1       0.529  -0.692   0.181  1.00  0.00     0.695 C 
HETATM    5  N2  UNL     1       1.662  -1.271   0.292  1.00  0.00    -0.181 N 
ATOM      6  H2  UNL     1       1.635  -2.291   0.295  1.00  0.00     0.182 HD
HETATM    7  C6  UNL     1       2.949  -0.695   0.412  1.00  0.00     0.222 C 
HETATM    8  S1  UNL     1       2.941   1.112   0.298  1.00  0.00    -0.068 SA
HETATM    9  C8  UNL     1       1.259   1.594   0.889  1.00  0.00     0.290 C 
HETATM   10  N3  UNL     1       0.344   0.736   0.161  1.00  0.00    -0.092 N 
HETATM   11  N4  UNL     1      -0.783   0.926  -0.640  1.00  0.00    -0.044 NA
ENDROOT
BRANCH   1  12
HETATM   12  C2  UNL     1      -2.691  -0.554  -1.172  1.00  0.00     0.173 C 
HETATM   13  C1  UNL     1      -3.434  -1.750  -0.646  1.00  0.00     0.044 C 
BRANCH  12  14
HETATM   14  O1  UNL     1      -2.127  -0.915  -2.391  1.00  0.00    -0.391 OA
ATOM     15  H1  UNL     1      -1.657  -0.159  -2.723  1.00  0.00     0.210 HD
ENDBRANCH  12  14
ENDBRANCH   1  12
BRANCH   1  16
HETATM   16  C4  UNL     1      -2.267   0.354   1.093  1.00  0.00     0.226 C 
HETATM   17  O2  UNL     1      -2.034  -0.132   2.227  1.00  0.00    -0.645 OA
HETATM   18  O3  UNL     1      -3.144   1.424   0.997  1.00  0.00    -0.645 OA
ENDBRANCH   1  16
BRANCH  11  19
HETATM   19  O8  UNL     1      -0.430   0.677  -1.939  1.00  0.00    -0.290 OA
ATOM     20  H8  UNL     1       0.138   1.372  -2.250  1.00  0.00     0.239 HD
ENDBRANCH  11  19
BRANCH   9  21
HETATM   21  C9  UNL     1       1.031   3.007   0.668  1.00  0.00     0.209 C 
HETATM   22  O6  UNL     1       0.224   3.578  -0.088  1.00  0.00    -0.646 OA
HETATM   23  O7  UNL     1       1.835   3.918   1.414  1.00  0.00    -0.646 OA
ENDBRANCH   9  21
BRANCH   7  24
HETATM   24  O4  UNL     1       3.427  -1.002   1.706  1.00  0.00    -0.360 OA
ATOM     25  H4  UNL     1       4.291  -0.615   1.787  1.00  0.00     0.213 HD
ENDBRANCH   7  24
BRANCH   7  26
HETATM   26  C7  UNL     1       3.917  -1.303  -0.587  1.00  0.00     0.238 C 
BRANCH  26  27
HETATM   27  O5  UNL     1       3.489  -1.105  -1.883  1.00  0.00    -0.395 OA
ATOM     28  H5  UNL     1       4.095  -1.485  -2.508  1.00  0.00     0.209 HD
ENDBRANCH  26  27
ENDBRANCH   7  26
TORSDOF 8
