REMARK  10 active torsions:
REMARK  status: ('A' for Active; 'I' for Inactive)
REMARK    1  A    between atoms: C2_2  and  C4_4 
REMARK    2  A    between atoms: C4_4  and  C5_5 
REMARK    3  A    between atoms: C9_12  and  O2_13 
REMARK    4  A    between atoms: C10_17  and  C11_18 
REMARK    5  A    between atoms: C11_18  and  C12_19 
REMARK    6  A    between atoms: C12_19  and  C13_20 
REMARK    7  A    between atoms: C13_20  and  N3_21 
REMARK    8  A    between atoms: C18_29  and  C19_30 
REMARK    9  A    between atoms: C19_30  and  C20_31 
REMARK   10  A    between atoms: C25_39  and  O4_40 
ROOT
HETATM    1  C5  UNL     1      -3.204  -2.151  -0.084  1.00  0.00     0.178 C 
HETATM    2  C6  UNL     1      -2.637  -3.528  -0.029  1.00  0.00     0.245 C 
HETATM    3  O1  UNL     1      -3.039  -4.291  -0.938  1.00  0.00    -0.271 OA
HETATM    4  N1  UNL     1      -1.695  -4.072   0.920  1.00  0.00    -0.325 N 
ATOM      5  H1  UNL     1      -2.218  -4.718   1.511  1.00  0.00     0.168 HD
HETATM    6  C7  UNL     1      -0.388  -4.094   1.373  1.00  0.00     0.059 C 
HETATM    7  C8  UNL     1      -0.437  -4.063   2.934  1.00  0.00     0.072 C 
HETATM    8  C9  UNL     1       0.826  -3.447   0.961  1.00  0.00     0.159 C 
HETATM    9  N2  UNL     1       1.610  -2.309   1.222  1.00  0.00    -0.356 N 
ATOM     10  H2  UNL     1       2.435  -2.574   1.761  1.00  0.00     0.162 HD
HETATM   11  C10 UNL     1       1.624  -0.906   0.977  1.00  0.00     0.175 C 
HETATM   12  C17 UNL     1       1.014   0.044   1.920  1.00  0.00     0.241 C 
HETATM   13  O3  UNL     1       1.349  -0.166   3.145  1.00  0.00    -0.271 OA
HETATM   14  N4  UNL     1       0.131   1.138   1.706  1.00  0.00    -0.347 N 
ATOM     15  H4  UNL     1       0.419   2.027   2.114  1.00  0.00     0.163 HD
HETATM   16  C18 UNL     1      -1.151   1.154   0.968  1.00  0.00     0.159 C 
HETATM   17  C25 UNL     1      -1.565  -0.254   0.690  1.00  0.00     0.137 C 
HETATM   18  N6  UNL     1      -2.054  -1.201  -0.118  1.00  0.00    -0.355 N 
HETATM   19  C26 UNL     1      -1.421  -1.567  -1.362  1.00  0.00     0.152 C 
ENDROOT
BRANCH  16  20
HETATM   20  C19 UNL     1      -1.199   2.091  -0.152  1.00  0.00     0.038 C 
BRANCH  20  21
HETATM   21  C20 UNL     1      -1.054   3.516  -0.068  1.00  0.00    -0.009 C 
HETATM   22  C21 UNL     1       0.245   4.050   0.477  1.00  0.00     0.032 C 
HETATM   23  C22 UNL     1       0.528   5.418  -0.141  1.00  0.00     0.232 C 
HETATM   24  N5  UNL     1      -0.718   6.101  -0.285  1.00  0.00    -0.075 N 
HETATM   25  C23 UNL     1      -1.626   5.730   0.758  1.00  0.00     0.232 C 
ATOM     26  H52 UNL     1      -0.591   7.112  -0.332  1.00  0.00     0.277 HD
ATOM     27  H51 UNL     1      -1.124   5.954  -1.209  1.00  0.00     0.277 HD
HETATM   28  C24 UNL     1      -2.187   4.317   0.556  1.00  0.00     0.032 C 
ENDBRANCH  20  21
ENDBRANCH  16  20
BRANCH  17  29
HETATM   29  O4  UNL     1      -1.262  -0.704   1.875  1.00  0.00    -0.348 OA
ATOM     30  H4  UNL     1      -1.525  -1.599   1.698  1.00  0.00     0.219 HD
ENDBRANCH  17  29
BRANCH  11  31
HETATM   31  C11 UNL     1       3.063  -0.365   0.832  1.00  0.00     0.036 C 
BRANCH  31  32
HETATM   32  C12 UNL     1       3.798  -1.001  -0.287  1.00  0.00     0.030 C 
BRANCH  32  33
HETATM   33  C13 UNL     1       5.200  -0.530  -0.483  1.00  0.00     0.236 C 
BRANCH  33  34
HETATM   34  N3  UNL     1       5.391   0.846  -0.766  1.00  0.00    -0.079 N 
HETATM   35  C14 UNL     1       4.462   1.391  -1.734  1.00  0.00     0.271 C 
HETATM   36  C15 UNL     1       5.434   1.711   0.378  1.00  0.00     0.271 C 
HETATM   37  C16 UNL     1       6.719   0.938  -1.409  1.00  0.00     0.271 C 
ENDBRANCH  33  34
ENDBRANCH  32  33
ENDBRANCH  31  32
ENDBRANCH  11  31
BRANCH   1  38
HETATM   38  C4  UNL     1      -4.074  -1.817  -1.234  1.00  0.00     0.039 C 
BRANCH  38  39
HETATM   39  C2  UNL     1      -5.380  -2.378  -1.506  1.00  0.00    -0.020 C 
HETATM   40  C1  UNL     1      -5.709  -3.789  -1.756  1.00  0.00     0.009 C 
HETATM   41  C3  UNL     1      -6.404  -1.939  -0.396  1.00  0.00     0.009 C 
ENDBRANCH  38  39
ENDBRANCH   1  38
BRANCH   8  42
HETATM   42  O2  UNL     1       1.404  -4.186   0.003  1.00  0.00    -0.345 OA
ATOM     43  H2  UNL     1       2.207  -3.758  -0.270  1.00  0.00     0.219 HD
ENDBRANCH   8  42
TORSDOF 10
