REMARK  10 active torsions:
REMARK  status: ('A' for Active; 'I' for Inactive)
REMARK    1  A    between atoms: C6_6  and  C7_7 
REMARK    2  A    between atoms: C7_7  and  C8_8 
REMARK    3  A    between atoms: C10_13  and  C11_14 
REMARK    4  A    between atoms: C11_14  and  C12_15 
REMARK    5  A    between atoms: N2_20  and  C17_21 
REMARK    6  A    between atoms: C17_21  and  C18_22 
REMARK    7  A    between atoms: C18_22  and  C19_23 
REMARK    8  A    between atoms: C19_23  and  N3_24 
REMARK    9  A    between atoms: C23_28  and  C24_29 
REMARK       I    between atoms: C24_29  and  N4_31 
REMARK   10  A    between atoms: N4_31  and  C25_33 
ROOT
HETATM    1  C12 UNL     1      -0.365  -0.449  -1.389  1.00  0.00     0.006 A 
HETATM    2  C13 UNL     1      -0.566   0.689  -2.195  1.00  0.00    -0.027 A 
HETATM    3  C14 UNL     1       0.246   1.037  -3.388  1.00  0.00     0.051 C 
HETATM    4  C15 UNL     1      -1.608   1.409  -1.714  1.00  0.00     0.015 A 
HETATM    5  C16 UNL     1      -2.177   2.691  -2.251  1.00  0.00     0.069 C 
HETATM    6  N2  UNL     1      -2.054   0.735  -0.625  1.00  0.00    -0.345 N 
HETATM    7  C23 UNL     1      -1.313  -0.391  -0.417  1.00  0.00     0.114 A 
ENDROOT
BRANCH   1   8
HETATM    8  C11 UNL     1       0.703  -1.403  -1.651  1.00  0.00     0.050 C 
BRANCH   8   9
HETATM    9  C10 UNL     1       1.946  -1.172  -1.261  1.00  0.00     0.103 A 
HETATM   10  C9  UNL     1       3.064  -1.955  -1.424  1.00  0.00     0.273 A 
HETATM   11  N1  UNL     1       4.129  -1.340  -0.874  1.00  0.00    -0.308 N 
HETATM   12  O1  UNL     1       3.080  -3.073  -2.000  1.00  0.00    -0.266 OA
HETATM   13  C8  UNL     1       3.694  -0.173  -0.363  1.00  0.00     0.110 A 
ATOM     14  H1  UNL     1       5.086  -1.693  -0.849  1.00  0.00     0.170 HD
HETATM   15  N6  UNL     1       2.383  -0.065  -0.593  1.00  0.00    -0.338 N 
ATOM     16  H6  UNL     1       1.799   0.723  -0.313  1.00  0.00     0.167 HD
BRANCH  13  17
HETATM   17  C7  UNL     1       4.454   0.728   0.269  1.00  0.00     0.078 C 
BRANCH  17  18
HETATM   18  C6  UNL     1       5.873   0.499   0.459  1.00  0.00     0.042 A 
HETATM   19  C4  UNL     1       6.449  -0.092   1.562  1.00  0.00    -0.033 A 
HETATM   20  C3  UNL     1       7.817  -0.142   1.394  1.00  0.00     0.033 A 
HETATM   21  C5  UNL     1       5.768  -0.617   2.782  1.00  0.00     0.050 C 
HETATM   22  C2  UNL     1       8.067   0.424   0.176  1.00  0.00     0.006 A 
HETATM   23  C1  UNL     1       9.442   0.575  -0.408  1.00  0.00     0.068 C 
HETATM   24  N7  UNL     1       6.900   0.801  -0.368  1.00  0.00    -0.359 N 
ATOM     25  H7  UNL     1       6.801   1.252  -1.277  1.00  0.00     0.166 HD
ENDBRANCH  17  18
ENDBRANCH  13  17
ENDBRANCH   8   9
ENDBRANCH   1   8
BRANCH   7  26
HETATM   26  C24 UNL     1      -1.529  -1.371   0.631  1.00  0.00     0.270 C 
HETATM   27  O2  UNL     1      -2.331  -1.115   1.603  1.00  0.00    -0.266 OA
HETATM   28  N4  UNL     1      -0.894  -2.635   0.649  1.00  0.00    -0.341 N 
ATOM     29  H4  UNL     1      -0.252  -2.895  -0.100  1.00  0.00     0.163 HD
BRANCH  28  30
HETATM   30  C25 UNL     1      -1.162  -3.575   1.751  1.00  0.00     0.190 C 
HETATM   31  C26 UNL     1       0.065  -4.240   2.280  1.00  0.00     0.224 C 
HETATM   32  O3  UNL     1       0.718  -4.173   3.318  1.00  0.00    -0.277 OA
HETATM   33  N5  UNL     1       0.075  -4.948   1.023  1.00  0.00    -0.242 NA
HETATM   34  C27 UNL     1      -0.861  -5.526   0.025  1.00  0.00     0.121 A 
HETATM   35  C28 UNL     1      -1.417  -4.965   1.205  1.00  0.00     0.111 A 
ENDBRANCH  28  30
ENDBRANCH   7  26
BRANCH   6  36
HETATM   36  C17 UNL     1      -3.168   1.162   0.177  1.00  0.00     0.131 C 
BRANCH  36  37
HETATM   37  C18 UNL     1      -4.461   0.569  -0.240  1.00  0.00     0.048 C 
BRANCH  37  38
HETATM   38  C19 UNL     1      -5.617   1.005   0.604  1.00  0.00     0.237 C 
BRANCH  38  39
HETATM   39  N3  UNL     1      -5.928   2.403   0.616  1.00  0.00    -0.079 N 
HETATM   40  C20 UNL     1      -5.205   3.142   1.628  1.00  0.00     0.271 C 
HETATM   41  C21 UNL     1      -5.884   3.042  -0.691  1.00  0.00     0.271 C 
HETATM   42  C22 UNL     1      -7.354   2.473   1.043  1.00  0.00     0.271 C 
ENDBRANCH  38  39
ENDBRANCH  37  38
ENDBRANCH  36  37
ENDBRANCH   6  36
TORSDOF 10
