REMARK  7 active torsions:
REMARK  status: ('A' for Active; 'I' for Inactive)
REMARK    1  A    between atoms: O1_2  and  C2_3 
REMARK    2  A    between atoms: C14_16  and  C15_17 
REMARK       I    between atoms: C15_17  and  N2_19 
REMARK    3  A    between atoms: N2_19  and  C16_21 
REMARK    4  A    between atoms: C16_21  and  C17_22 
REMARK    5  A    between atoms: C17_22  and  N3_23 
REMARK    6  A    between atoms: C22_28  and  C23_29 
REMARK       I    between atoms: C23_29  and  N4_31 
REMARK    7  A    between atoms: N4_31  and  N5_33 
ROOT
HETATM    1  C15 UNL     1       0.415   0.429   0.667  1.00  0.00     0.241 C 
HETATM    2  O2  UNL     1      -0.235   1.071   1.548  1.00  0.00    -0.271 OA
HETATM    3  N2  UNL     1      -0.102   0.352  -0.633  1.00  0.00    -0.358 N 
ATOM      4  H2  UNL     1       0.428  -0.150  -1.345  1.00  0.00     0.162 HD
ENDROOT
BRANCH   3   5
HETATM    5  C16 UNL     1      -1.340   0.950  -0.994  1.00  0.00     0.152 C 
BRANCH   5   6
HETATM    6  C17 UNL     1      -2.591   0.524  -0.386  1.00  0.00     0.285 C 
BRANCH   6   7
HETATM    7  N3  UNL     1      -3.170  -0.741  -0.516  1.00  0.00     0.029 N 
HETATM    8  C18 UNL     1      -3.725  -1.073   0.807  1.00  0.00     0.267 C 
HETATM    9  C19 UNL     1      -4.288  -2.436   0.933  1.00  0.00     0.044 C 
HETATM   10  C20 UNL     1      -4.246  -3.092  -0.431  1.00  0.00     0.083 C 
HETATM   11  C21 UNL     1      -4.971  -2.127  -1.357  1.00  0.00     0.060 C 
HETATM   12  C27 UNL     1      -2.822  -3.081  -0.844  1.00  0.00     0.246 C 
HETATM   13  C22 UNL     1      -4.256  -0.815  -1.473  1.00  0.00     0.309 C 
HETATM   14  O4  UNL     1      -2.143  -4.073  -1.131  1.00  0.00    -0.271 OA
HETATM   15  N6  UNL     1      -2.262  -1.732  -0.883  1.00  0.00    -0.184 N 
ATOM     16  H6  UNL     1      -1.298  -1.535  -1.153  1.00  0.00     0.197 HD
BRANCH  13  17
HETATM   17  C23 UNL     1      -5.219   0.289  -1.416  1.00  0.00     0.275 C 
HETATM   18  O3  UNL     1      -5.118   1.277  -2.239  1.00  0.00    -0.269 OA
HETATM   19  N4  UNL     1      -6.308   0.408  -0.522  1.00  0.00    -0.184 N 
ATOM     20  H4  UNL     1      -6.423  -0.358   0.142  1.00  0.00     0.197 HD
BRANCH  19  21
HETATM   21  N5  UNL     1      -7.227   1.418  -0.433  1.00  0.00     0.003 N 
HETATM   22  C24 UNL     1      -7.458   1.692   1.001  1.00  0.00     0.301 C 
HETATM   23  C25 UNL     1      -6.941   2.644  -1.088  1.00  0.00     0.301 C 
HETATM   24  C26 UNL     1      -8.546   0.962  -0.908  1.00  0.00     0.301 C 
ENDBRANCH  19  21
ENDBRANCH  13  17
ENDBRANCH   6   7
ENDBRANCH   5   6
ENDBRANCH   3   5
BRANCH   1  25
HETATM   25  C14 UNL     1       1.681  -0.184   1.119  1.00  0.00     0.185 A 
HETATM   26  C8  UNL     1       2.854   0.061   0.262  1.00  0.00     0.067 A 
HETATM   27  C7  UNL     1       3.805  -1.128   0.177  1.00  0.00     0.018 C 
HETATM   28  C9  UNL     1       3.383   0.925   1.330  1.00  0.00     0.010 A 
HETATM   29  C6  UNL     1       5.241  -0.755   0.324  1.00  0.00    -0.006 C 
HETATM   30  C5  UNL     1       6.067  -1.903  -0.247  1.00  0.00     0.008 C 
HETATM   31  C12 UNL     1       5.660   0.418  -0.503  1.00  0.00     0.027 C 
HETATM   32  C4  UNL     1       7.155  -1.278  -1.070  1.00  0.00     0.038 C 
HETATM   33  C2  UNL     1       7.174   0.160  -0.603  1.00  0.00     0.061 C 
HETATM   34  C3  UNL     1       7.802   1.075  -1.621  1.00  0.00     0.046 C 
HETATM   35  C11 UNL     1       5.474   1.745   0.152  1.00  0.00     0.037 C 
HETATM   36  C10 UNL     1       4.486   1.628   1.269  1.00  0.00    -0.001 C 
HETATM   37  N1  UNL     1       2.298   0.596   2.158  1.00  0.00    -0.374 N 
HETATM   38  C13 UNL     1       1.919   0.901   3.521  1.00  0.00     0.150 C 
BRANCH  33  39
HETATM   39  O1  UNL     1       7.667   0.317   0.676  1.00  0.00    -0.385 OA
HETATM   40  C1  UNL     1       9.017   0.094   0.798  1.00  0.00     0.202 C 
ENDBRANCH  33  39
ENDBRANCH   1  25
TORSDOF 7
