REMARK  12 active torsions:
REMARK  status: ('A' for Active; 'I' for Inactive)
REMARK    1  A    between atoms: N1_2  and  C2_4 
REMARK       I    between atoms: N2_6  and  C4_8 
REMARK    2  A    between atoms: C4_8  and  C5_10 
REMARK    3  A    between atoms: C5_10  and  C6_11 
REMARK    4  A    between atoms: C6_11  and  C7_12 
REMARK    5  A    between atoms: C6_11  and  C14_20 
REMARK    6  A    between atoms: C7_12  and  C8_13 
REMARK       I    between atoms: C14_20  and  N4_22 
REMARK    7  A    between atoms: N4_22  and  C15_24 
REMARK    8  A    between atoms: C15_24  and  C16_25 
REMARK    9  A    between atoms: C15_24  and  C22_38 
REMARK   10  A    between atoms: C16_25  and  C17_26 
REMARK   11  A    between atoms: C19_30  and  C20_31 
REMARK   12  A    between atoms: C20_31  and  N6_32 
ROOT
HETATM    1  C14 UNL     1       0.073  -0.013  -1.939  1.00  0.00     0.223 C 
HETATM    2  O2  UNL     1       0.016   0.070  -3.194  1.00  0.00    -0.273 OA
HETATM    3  N4  UNL     1       1.303   0.343  -1.332  1.00  0.00    -0.348 N 
ATOM      4  H4  UNL     1       1.374   0.285  -0.316  1.00  0.00     0.163 HD
ENDROOT
BRANCH   1   5
HETATM    5  C6  UNL     1      -1.089  -0.461  -1.150  1.00  0.00     0.091 C 
BRANCH   5   6
HETATM    6  C5  UNL     1      -2.200   0.504  -1.005  1.00  0.00     0.117 C 
BRANCH   6   7
HETATM    7  C4  UNL     1      -1.899   1.823  -0.474  1.00  0.00     0.223 C 
HETATM    8  N2  UNL     1      -2.908   2.844  -0.314  1.00  0.00    -0.317 N 
HETATM    9  C2  UNL     1      -3.156   3.366   0.829  1.00  0.00     0.074 C 
ATOM     10  H2  UNL     1      -3.435   3.156  -1.130  1.00  0.00     0.170 HD
HETATM   11  C3  UNL     1      -2.388   2.906   2.008  1.00  0.00     0.089 C 
HETATM   12  O1  UNL     1      -0.752   2.170  -0.119  1.00  0.00    -0.273 OA
BRANCH   9  13
HETATM   13  N1  UNL     1      -4.145   4.367   0.984  1.00  0.00    -0.384 N 
HETATM   14  C1  UNL     1      -5.550   4.104   1.205  1.00  0.00     0.147 C 
ATOM     15  H1  UNL     1      -3.846   5.341   0.937  1.00  0.00     0.160 HD
ENDBRANCH   9  13
ENDBRANCH   6   7
ENDBRANCH   5   6
BRANCH   5  16
HETATM   16  C7  UNL     1      -1.546  -1.797  -1.712  1.00  0.00     0.054 C 
BRANCH  16  17
HETATM   17  C8  UNL     1      -2.549  -2.486  -0.892  1.00  0.00    -0.042 A 
HETATM   18  C9  UNL     1      -3.890  -2.282  -1.120  1.00  0.00     0.010 A 
HETATM   19  C10 UNL     1      -4.874  -2.902  -0.381  1.00  0.00     0.018 A 
HETATM   20  C11 UNL     1      -4.518  -3.765   0.631  1.00  0.00     0.090 A 
HETATM   21  N3  UNL     1      -3.208  -3.968   0.858  1.00  0.00    -0.370 N 
HETATM   22  C12 UNL     1      -2.861  -4.891   1.941  1.00  0.00     0.154 C 
HETATM   23  C13 UNL     1      -2.248  -3.358   0.132  1.00  0.00     0.097 A 
ENDBRANCH  16  17
ENDBRANCH   5  16
ENDBRANCH   1   5
BRANCH   3  24
HETATM   24  C15 UNL     1       2.459   0.782  -2.071  1.00  0.00     0.178 C 
BRANCH  24  25
HETATM   25  C16 UNL     1       3.564  -0.266  -2.051  1.00  0.00     0.074 C 
BRANCH  25  26
HETATM   26  C17 UNL     1       4.016  -0.572  -0.673  1.00  0.00    -0.038 A 
HETATM   27  C18 UNL     1       3.529  -1.534   0.197  1.00  0.00     0.095 A 
HETATM   28  N5  UNL     1       4.239  -1.466   1.361  1.00  0.00    -0.367 N 
HETATM   29  C19 UNL     1       5.163  -0.500   1.275  1.00  0.00     0.029 A 
ATOM     30  H5  UNL     1       4.088  -2.062   2.175  1.00  0.00     0.165 HD
HETATM   31  C21 UNL     1       5.028   0.053   0.024  1.00  0.00     0.035 A 
BRANCH  29  32
HETATM   32  C20 UNL     1       6.145  -0.086   2.301  1.00  0.00     0.195 C 
BRANCH  32  33
HETATM   33  N6  UNL     1       6.972   0.985   1.839  1.00  0.00    -0.337 N 
HETATM   34  N7  UNL     1       8.161   1.022   2.182  1.00  0.00    -0.349 N 
ATOM     35  H72 UNL     1       8.531   0.289   2.788  1.00  0.00     0.176 HD
ATOM     36  H71 UNL     1       8.751   1.786   1.852  1.00  0.00     0.176 HD
ATOM     37  H6  UNL     1       6.587   1.710   1.234  1.00  0.00     0.179 HD
ENDBRANCH  32  33
ENDBRANCH  29  32
ENDBRANCH  25  26
ENDBRANCH  24  25
BRANCH  24  38
HETATM   38  C22 UNL     1       2.985   2.095  -1.684  1.00  0.00     0.254 C 
HETATM   39  N8  UNL     1       4.116   2.632  -2.359  1.00  0.00    -0.060 NA
HETATM   40  O3  UNL     1       2.488   2.797  -0.768  1.00  0.00    -0.275 OA
ENDBRANCH  24  38
ENDBRANCH   3  24
TORSDOF 12
