REMARK  13 active torsions:
REMARK  status: ('A' for Active; 'I' for Inactive)
REMARK    1  A    between atoms: C2_2  and  C4_4 
REMARK    2  A    between atoms: C4_4  and  C5_5 
REMARK    3  A    between atoms: C7_10  and  C8_11 
REMARK    4  A    between atoms: C8_11  and  C9_12 
REMARK    5  A    between atoms: C13_19  and  C14_20 
REMARK    6  A    between atoms: C14_20  and  C15_21 
REMARK    7  A    between atoms: C19_30  and  O3_31 
REMARK    8  A    between atoms: C22_37  and  O4_38 
REMARK    9  A    between atoms: C23_40  and  C24_41 
REMARK   10  A    between atoms: C24_41  and  C25_42 
REMARK   11  A    between atoms: C25_42  and  C26_43 
REMARK   12  A    between atoms: C26_43  and  C27_44 
REMARK   13  A    between atoms: C27_44  and  N7_45 
ROOT
HETATM    1  C5  UNL     1       0.692   1.835   0.250  1.00  0.00     0.177 C 
HETATM    2  N1  UNL     1       0.044   0.795  -0.510  1.00  0.00    -0.346 N 
ATOM      3  H1  UNL     1       0.567  -0.051  -0.738  1.00  0.00     0.163 HD
HETATM    4  C6  UNL     1      -1.303   0.914  -0.951  1.00  0.00     0.241 C 
HETATM    5  O1  UNL     1      -1.570   0.492  -2.131  1.00  0.00    -0.271 OA
HETATM    6  C7  UNL     1      -2.382   1.509  -0.078  1.00  0.00     0.177 C 
HETATM    7  N2  UNL     1      -2.459   0.915   1.202  1.00  0.00    -0.346 N 
ATOM      8  H2  UNL     1      -1.844   1.377   1.872  1.00  0.00     0.163 HD
HETATM    9  C12 UNL     1      -3.158  -0.138   1.784  1.00  0.00     0.241 C 
HETATM   10  O2  UNL     1      -4.004   0.166   2.721  1.00  0.00    -0.271 OA
HETATM   11  C13 UNL     1      -3.127  -1.593   1.548  1.00  0.00     0.182 C 
HETATM   12  N5  UNL     1      -2.444  -1.981   0.349  1.00  0.00    -0.359 N 
ATOM     13  H5  UNL     1      -2.867  -1.604  -0.499  1.00  0.00     0.162 HD
HETATM   14  C19 UNL     1      -1.329  -2.762   0.109  1.00  0.00     0.135 C 
HETATM   15  C20 UNL     1       0.002  -2.868   0.628  1.00  0.00     0.154 C 
HETATM   16  C21 UNL     1       0.289  -4.391   0.744  1.00  0.00     0.041 C 
HETATM   17  N6  UNL     1       0.415  -2.225   1.820  1.00  0.00    -0.358 N 
ATOM     18  H6  UNL     1      -0.316  -2.023   2.502  1.00  0.00     0.162 HD
HETATM   19  C22 UNL     1       1.744  -1.826   2.176  1.00  0.00     0.159 C 
HETATM   20  C23 UNL     1       2.601  -0.844   1.521  1.00  0.00     0.062 C 
HETATM   21  N10 UNL     1       2.361   0.366   1.292  1.00  0.00    -0.325 N 
ATOM     22  H10 UNL     1       3.165   0.778   0.818  1.00  0.00     0.169 HD
HETATM   23  C29 UNL     1       1.404   1.326   1.453  1.00  0.00     0.244 C 
HETATM   24  O5  UNL     1       0.996   1.896   2.528  1.00  0.00    -0.271 OA
ENDROOT
BRANCH  20  25
HETATM   25  C24 UNL     1       3.972  -1.352   1.099  1.00  0.00     0.062 C 
BRANCH  25  26
HETATM   26  C25 UNL     1       4.810  -0.243   0.485  1.00  0.00     0.011 C 
BRANCH  26  27
HETATM   27  C26 UNL     1       6.167  -0.836   0.089  1.00  0.00     0.045 C 
BRANCH  27  28
HETATM   28  C27 UNL     1       7.002   0.245  -0.518  1.00  0.00     0.063 C 
BRANCH  28  29
HETATM   29  N7  UNL     1       8.295  -0.082  -0.954  1.00  0.00    -0.347 N 
HETATM   30  C28 UNL     1       8.938  -1.153  -0.973  1.00  0.00     0.200 C 
HETATM   31  N8  UNL     1       8.380  -2.364  -0.489  1.00  0.00    -0.067 NA
HETATM   32  N9  UNL     1      10.278  -1.228  -1.484  1.00  0.00    -0.067 NA
ATOM     33  H7  UNL     1       8.813   0.712  -1.330  1.00  0.00     0.167 HD
ENDBRANCH  28  29
ENDBRANCH  27  28
ENDBRANCH  26  27
ENDBRANCH  25  26
ENDBRANCH  20  25
BRANCH  19  34
HETATM   34  O4  UNL     1       2.313  -2.378   3.214  1.00  0.00    -0.345 OA
ATOM     35  H4  UNL     1       3.194  -2.113   3.450  1.00  0.00     0.219 HD
ENDBRANCH  19  34
BRANCH   1  36
HETATM   36  C4  UNL     1       1.655   2.530  -0.698  1.00  0.00     0.038 C 
BRANCH  36  37
HETATM   37  C2  UNL     1       2.401   3.650  -0.012  1.00  0.00    -0.020 C 
HETATM   38  C1  UNL     1       3.323   4.266  -1.041  1.00  0.00     0.009 C 
HETATM   39  C3  UNL     1       1.480   4.723   0.507  1.00  0.00     0.009 C 
ENDBRANCH  36  37
ENDBRANCH   1  36
BRANCH  14  40
HETATM   40  O3  UNL     1      -1.551  -3.642  -0.854  1.00  0.00    -0.348 OA
ATOM     41  H3  UNL     1      -0.785  -4.179  -1.019  1.00  0.00     0.219 HD
ENDBRANCH  14  40
BRANCH  11  42
HETATM   42  C14 UNL     1      -4.451  -2.301   1.715  1.00  0.00     0.111 C 
BRANCH  42  43
HETATM   43  C15 UNL     1      -5.564  -1.956   0.872  1.00  0.00     0.085 A 
HETATM   44  N3  UNL     1      -6.509  -1.045   1.069  1.00  0.00    -0.354 N 
HETATM   45  C16 UNL     1      -7.410  -1.018   0.064  1.00  0.00     0.106 A 
ATOM     46  H3  UNL     1      -6.550  -0.435   1.886  1.00  0.00     0.166 HD
HETATM   47  C17 UNL     1      -7.014  -1.969  -0.822  1.00  0.00     0.108 A 
HETATM   48  N4  UNL     1      -5.880  -2.537  -0.315  1.00  0.00    -0.350 N 
HETATM   49  C18 UNL     1      -5.177  -3.620  -0.987  1.00  0.00     0.156 C 
ENDBRANCH  42  43
ENDBRANCH  11  42
BRANCH   6  50
HETATM   50  C8  UNL     1      -3.619   1.583  -0.901  1.00  0.00     0.038 C 
BRANCH  50  51
HETATM   51  C9  UNL     1      -4.811   2.181  -0.244  1.00  0.00    -0.020 C 
HETATM   52  C10 UNL     1      -4.531   3.615   0.183  1.00  0.00     0.009 C 
HETATM   53  C11 UNL     1      -5.896   2.286  -1.320  1.00  0.00     0.009 C 
ENDBRANCH  50  51
ENDBRANCH   6  50
TORSDOF 13
