REMARK  6 active torsions:
REMARK  status: ('A' for Active; 'I' for Inactive)
REMARK    1  A    between atoms: C2_2  and  C3_3 
REMARK    2  A    between atoms: C6_6  and  O1_7 
REMARK    3  A    between atoms: C9_11  and  O2_12 
REMARK    4  A    between atoms: C13_17  and  O3_18 
REMARK    5  A    between atoms: O3_18  and  C14_19 
REMARK    6  A    between atoms: C14_19  and  C15_20 
ROOT
HETATM    1  C3  UNL     1      -1.514   0.225   0.073  1.00  0.00    -0.009 C 
HETATM    2  C4  UNL     1      -2.181   0.105   1.474  1.00  0.00     0.017 C 
HETATM    3  C5  UNL     1      -3.610   0.567   1.259  1.00  0.00     0.033 C 
HETATM    4  C6  UNL     1      -4.370  -0.285   0.308  1.00  0.00     0.118 C 
HETATM    5  C7  UNL     1      -3.620  -0.817  -0.863  1.00  0.00     0.039 C 
HETATM    6  C8  UNL     1      -2.143  -0.864  -0.687  1.00  0.00     0.030 C 
HETATM    7  C9  UNL     1      -1.461  -1.358  -1.927  1.00  0.00     0.124 C 
HETATM    8  C10 UNL     1      -0.030  -1.718  -1.670  1.00  0.00     0.041 C 
HETATM    9  C11 UNL     1       0.403  -1.379  -0.271  1.00  0.00     0.022 C 
HETATM   10  C12 UNL     1       1.863  -1.517  -0.151  1.00  0.00     0.011 C 
HETATM   11  C13 UNL     1       2.657  -0.549  -0.509  1.00  0.00     0.043 C 
HETATM   12  C16 UNL     1       2.081   0.696  -1.040  1.00  0.00     0.065 C 
HETATM   13  C17 UNL     1       0.785   1.097  -0.419  1.00  0.00     0.017 C 
HETATM   14  C18 UNL     1      -0.010  -0.029   0.202  1.00  0.00    -0.025 C 
HETATM   15  C19 UNL     1       0.315  -0.002   1.688  1.00  0.00     0.017 C 
ENDROOT
BRANCH  11  16
HETATM   16  O3  UNL     1       4.034  -0.703  -0.387  1.00  0.00    -0.347 OA
BRANCH  16  17
HETATM   17  C14 UNL     1       4.869   0.351   0.047  1.00  0.00     0.274 C 
BRANCH  17  18
HETATM   18  C15 UNL     1       6.269  -0.124   0.071  1.00  0.00     0.255 C 
HETATM   19  N1  UNL     1       7.294   0.770   0.478  1.00  0.00    -0.060 NA
HETATM   20  O4  UNL     1       6.521  -1.302  -0.266  1.00  0.00    -0.274 OA
ENDBRANCH  17  18
ENDBRANCH  16  17
ENDBRANCH  11  16
BRANCH   7  21
HETATM   21  O2  UNL     1      -1.626  -0.613  -3.060  1.00  0.00    -0.395 OA
ATOM     22  H2  UNL     1      -1.194  -0.926  -3.846  1.00  0.00     0.210 HD
ENDBRANCH   7  21
BRANCH   1  23
HETATM   23  C2  UNL     1      -1.756   1.614  -0.260  1.00  0.00    -0.026 C 
HETATM   24  C1  UNL     1      -2.389   2.223  -1.199  1.00  0.00     0.008 C 
ENDBRANCH   1  23
BRANCH   4  25
HETATM   25  O1  UNL     1      -5.438   0.499  -0.186  1.00  0.00    -0.396 OA
ATOM     26  H1  UNL     1      -5.924  -0.046  -0.794  1.00  0.00     0.210 HD
ENDBRANCH   4  25
TORSDOF 6
