REMARK  13 active torsions:
REMARK  status: ('A' for Active; 'I' for Inactive)
REMARK    1  A    between atoms: C7_10  and  N2_11 
REMARK    2  A    between atoms: C11_22  and  N6_23 
REMARK    3  A    between atoms: N6_23  and  C12_24 
REMARK    4  A    between atoms: C12_24  and  C13_25 
REMARK    5  A    between atoms: C13_25  and  N7_26 
REMARK    6  A    between atoms: C13_25  and  C14_30 
REMARK    7  A    between atoms: C14_30  and  N8_31 
REMARK    8  A    between atoms: N8_31  and  C15_34 
REMARK    9  A    between atoms: C15_34  and  O1_35 
REMARK   10  A    between atoms: C15_34  and  C16_37 
REMARK   11  A    between atoms: C16_37  and  O3_39 
REMARK   12  A    between atoms: O3_39  and  S1_40 
REMARK   13  A    between atoms: C18_47  and  N10_48 
ROOT
HETATM    1  N2  UNL     1      -4.073   0.356  -0.742  1.00  0.00    -0.190 N 
ATOM      2  H2  UNL     1      -4.674   0.682  -1.499  1.00  0.00     0.184 HD
HETATM    3  C8  UNL     1      -2.962  -0.094  -1.141  1.00  0.00     0.685 A 
HETATM    4  N3  UNL     1      -2.676  -0.106  -2.485  1.00  0.00    -0.174 N 
ATOM      5  H3  UNL     1      -3.290   0.228  -3.228  1.00  0.00     0.186 HD
HETATM    6  C9  UNL     1      -1.462  -0.627  -2.653  1.00  0.00     0.154 A 
HETATM    7  N4  UNL     1      -0.726  -0.861  -3.771  1.00  0.00    -0.336 N 
ATOM      8  H4  UNL     1      -1.107  -0.612  -4.684  1.00  0.00     0.168 HD
HETATM    9  C10 UNL     1       0.492  -1.413  -3.693  1.00  0.00     0.184 A 
HETATM   10  N5  UNL     1       1.008  -1.743  -2.518  1.00  0.00    -0.325 N 
ATOM     11  H5  UNL     1       1.938  -2.162  -2.488  1.00  0.00     0.169 HD
HETATM   12  C11 UNL     1       0.332  -1.540  -1.339  1.00  0.00     0.210 A 
HETATM   13  C17 UNL     1      -0.942  -0.962  -1.431  1.00  0.00     0.151 A 
HETATM   14  N9  UNL     1      -1.889  -0.621  -0.530  1.00  0.00    -0.183 N 
ATOM     15  H9  UNL     1      -1.801  -0.747   0.478  1.00  0.00     0.184 HD
ENDROOT
BRANCH  12  16
HETATM   16  N6  UNL     1       0.841  -1.873  -0.319  1.00  0.00    -0.399 NA
BRANCH  16  17
HETATM   17  C12 UNL     1       1.409  -2.247   0.836  1.00  0.00     0.192 C 
BRANCH  17  18
HETATM   18  C13 UNL     1       2.931  -2.205   0.887  1.00  0.00     0.260 C 
BRANCH  18  19
HETATM   19  N7  UNL     1       3.570  -3.024  -0.089  1.00  0.00    -0.068 N 
ATOM     20  H73 UNL     1       3.237  -3.986  -0.022  1.00  0.00     0.275 HD
ATOM     21  H72 UNL     1       3.237  -2.790  -1.025  1.00  0.00     0.275 HD
ATOM     22  H71 UNL     1       4.589  -2.996  -0.055  1.00  0.00     0.275 HD
ENDBRANCH  18  19
BRANCH  18  23
HETATM   23  C14 UNL     1       3.490  -0.814   0.971  1.00  0.00     0.275 C 
BRANCH  23  24
HETATM   24  N8  UNL     1       4.939  -0.891   0.992  1.00  0.00    -0.037 N 
ATOM     25  H82 UNL     1       5.287  -1.515   1.720  1.00  0.00     0.280 HD
ATOM     26  H81 UNL     1       5.315  -1.392   0.187  1.00  0.00     0.280 HD
BRANCH  24  27
HETATM   27  C15 UNL     1       5.464   0.432   1.108  1.00  0.00     0.420 C 
BRANCH  27  28
HETATM   28  O1  UNL     1       4.780   1.348   0.353  1.00  0.00    -0.362 OA
ATOM     29  H1  UNL     1       5.129   2.228   0.430  1.00  0.00     0.212 HD
ENDBRANCH  27  28
BRANCH  27  30
HETATM   30  C16 UNL     1       6.934   0.377   0.767  1.00  0.00     0.331 C 
HETATM   31  O2  UNL     1       7.696  -0.496   1.277  1.00  0.00    -0.259 OA
BRANCH  30  32
HETATM   32  O3  UNL     1       7.373   1.299  -0.097  1.00  0.00    -0.175 OA
BRANCH  32  33
HETATM   33  S1  UNL     1       9.166   1.414  -0.674  1.00  0.00     0.399 S 
HETATM   34  O4  UNL     1      10.266   2.449  -1.080  1.00  0.00    -0.174 OA
HETATM   35  F1  UNL     1       9.729   0.875   0.645  1.00  0.00    -0.090 F 
HETATM   36  F2  UNL     1       8.309   3.570  -0.163  1.00  0.00    -0.090 F 
ENDBRANCH  32  33
ENDBRANCH  30  32
ENDBRANCH  27  30
ENDBRANCH  24  27
ENDBRANCH  23  24
ENDBRANCH  18  23
ENDBRANCH  17  18
ENDBRANCH  16  17
ENDBRANCH  12  16
BRANCH   1  37
HETATM   37  C7  UNL     1      -4.640   0.497   0.510  1.00  0.00     0.090 A 
HETATM   38  C6  UNL     1      -5.668   1.339   0.759  1.00  0.00     0.045 A 
HETATM   39  C1  UNL     1      -6.371   2.208  -0.072  1.00  0.00     0.082 A 
HETATM   40  C5  UNL     1      -6.025   1.250   2.076  1.00  0.00     0.066 A 
HETATM   41  N1  UNL     1      -6.022   2.316  -1.448  1.00  0.00    -0.100 NA
HETATM   42  C2  UNL     1      -7.413   2.967   0.431  1.00  0.00     0.060 A 
HETATM   43 CL1  UNL     1      -8.334   4.068  -0.559  1.00  0.00    -0.082 Cl
HETATM   44  C3  UNL     1      -7.761   2.864   1.770  1.00  0.00     0.052 A 
HETATM   45  C4  UNL     1      -7.066   2.006   2.591  1.00  0.00     0.063 A 
HETATM   46 CL2  UNL     1      -7.508   1.892   4.281  1.00  0.00    -0.082 Cl
HETATM   47  N11 UNL     1      -5.287   0.409   2.703  1.00  0.00    -0.356 N 
HETATM   48  C18 UNL     1      -4.320  -0.159   1.796  1.00  0.00     0.334 A 
ATOM     49  H11 UNL     1      -5.371   0.177   3.693  1.00  0.00     0.162 HD
BRANCH  48  50
HETATM   50  N10 UNL     1      -4.622  -1.563   1.651  1.00  0.00    -0.053 N 
ATOM     51 3H10 UNL     1      -5.579  -1.735   1.344  1.00  0.00     0.277 HD
ATOM     52 2H10 UNL     1      -4.148  -1.992   0.856  1.00  0.00     0.277 HD
ATOM     53 1H10 UNL     1      -4.401  -2.016   2.538  1.00  0.00     0.277 HD
ENDBRANCH  48  50
ENDBRANCH   1  37
TORSDOF 13
