REMARK  2 active torsions:
REMARK  status: ('A' for Active; 'I' for Inactive)
REMARK    1  A    between atoms: C2_2  and  C3_3 
REMARK    2  A    between atoms: C8_8  and  N1_9 
ROOT
HETATM    1  C3  UNL     1       0.529   0.150  -0.263  1.00  0.00     0.009 A 
HETATM    2  C4  UNL     1       0.705  -1.080  -1.103  1.00  0.00     0.021 A 
HETATM    3  C5  UNL     1       0.055  -1.147   0.229  1.00  0.00     0.001 A 
HETATM    4  C6  UNL     1      -1.438  -1.175   0.234  1.00  0.00     0.008 C 
HETATM    5  C7  UNL     1      -1.872   0.110  -0.391  1.00  0.00     0.034 C 
HETATM    6  C8  UNL     1      -0.664   0.994  -0.477  1.00  0.00     0.196 C 
ENDROOT
BRANCH   6   7
HETATM    7  N1  UNL     1      -0.754   1.945   0.635  1.00  0.00    -0.074 N 
ATOM      8  H13 UNL     1      -0.754   1.487   1.546  1.00  0.00     0.274 HD
ATOM      9  H12 UNL     1       0.099   2.491   0.756  1.00  0.00     0.274 HD
ATOM     10  H11 UNL     1      -1.578   2.528   0.487  1.00  0.00     0.274 HD
ENDBRANCH   6   7
BRANCH   1  11
HETATM   11  C2  UNL     1       1.811   0.742   0.191  1.00  0.00    -0.025 C 
HETATM   12  C1  UNL     1       2.751  -0.007   0.739  1.00  0.00     0.008 C 
ENDBRANCH   1  11
TORSDOF 2
