REMARK  4 active torsions:
REMARK  status: ('A' for Active; 'I' for Inactive)
REMARK    1  A    between atoms: N4_9  and  C4_11 
REMARK    2  A    between atoms: C4_11  and  C5_12 
REMARK    3  A    between atoms: C10_20  and  C11_21 
REMARK    4  A    between atoms: C13_25  and  N7_26 
ROOT
HETATM    1  N1  UNL     1       4.220  -2.138  -2.385  1.00  0.00    -0.190 NA
HETATM    2  C1  UNL     1       3.301  -1.639  -1.908  1.00  0.00     0.116 C 
HETATM    3  C2  UNL     1       2.115  -0.999  -1.325  1.00  0.00     0.125 C 
HETATM    4  N2  UNL     1       1.166  -0.634  -2.043  1.00  0.00    -0.291 N 
ATOM      5  H2  UNL     1       1.306  -0.824  -3.035  1.00  0.00     0.187 HD
HETATM    6  N3  UNL     1      -0.030  -0.027  -1.763  1.00  0.00    -0.279 N 
ATOM      7  H3  UNL     1      -0.685   0.194  -2.513  1.00  0.00     0.189 HD
HETATM    8  C3  UNL     1      -0.346   0.291  -0.417  1.00  0.00     0.156 C 
HETATM    9  N4  UNL     1      -1.542   0.408  -0.010  1.00  0.00    -0.364 N 
ATOM     10  H4  UNL     1      -1.733   0.637   0.965  1.00  0.00     0.162 HD
HETATM   11  S1  UNL     1       1.088   0.506   0.633  1.00  0.00    -0.076 SA
HETATM   12  C10 UNL     1       2.185  -0.850   0.144  1.00  0.00     0.159 C 
ENDROOT
BRANCH  12  13
HETATM   13  C11 UNL     1       3.590  -0.467   0.537  1.00  0.00     0.022 A 
HETATM   14  C12 UNL     1       4.434  -1.133   1.381  1.00  0.00     0.106 A 
HETATM   15  N6  UNL     1       5.612  -0.622   1.579  1.00  0.00    -0.346 N 
HETATM   16  C13 UNL     1       5.937   0.512   0.958  1.00  0.00     0.142 A 
ATOM     17  H6  UNL     1       6.278  -1.081   2.200  1.00  0.00     0.167 HD
HETATM   18  S2  UNL     1       4.532   0.873   0.062  1.00  0.00    -0.056 SA
BRANCH  16  19
HETATM   19  N7  UNL     1       7.077   1.172   1.038  1.00  0.00    -0.380 N 
ATOM     20  H72 UNL     1       7.918   0.956   1.574  1.00  0.00     0.158 HD
ATOM     21  H71 UNL     1       7.326   2.040   0.563  1.00  0.00     0.158 HD
ENDBRANCH  16  19
ENDBRANCH  12  13
BRANCH   9  22
HETATM   22  C4  UNL     1      -2.634   0.214  -0.942  1.00  0.00     0.178 C 
BRANCH  22  23
HETATM   23  C5  UNL     1      -3.945   0.413  -0.304  1.00  0.00     0.026 A 
HETATM   24  C6  UNL     1      -4.548   1.655  -0.276  1.00  0.00     0.027 A 
HETATM   25  C7  UNL     1      -5.793   1.825   0.334  1.00  0.00     0.003 A 
HETATM   26  C8  UNL     1      -6.420   0.742   0.909  1.00  0.00     0.017 A 
HETATM   27  C9  UNL     1      -5.791  -0.477   0.862  1.00  0.00     0.088 A 
HETATM   28  N5  UNL     1      -4.584  -0.616   0.265  1.00  0.00    -0.368 N 
ATOM     29  H5  UNL     1      -4.146  -1.537   0.248  1.00  0.00     0.165 HD
ENDBRANCH  22  23
ENDBRANCH   9  22
TORSDOF 4
