REMARK  3 active torsions:
REMARK  status: ('A' for Active; 'I' for Inactive)
REMARK    1  A    between atoms: C2_2  and  N1_4 
REMARK    2  A    between atoms: N1_4  and  N2_6 
REMARK    3  A    between atoms: N2_6  and  C4_7 
ROOT
HETATM    1  C4  UNL     1       1.008   0.435  -0.117  1.00  0.00     0.314 C 
HETATM    2  C5  UNL     1       1.587  -0.924   0.209  1.00  0.00     0.182 C 
HETATM    3  N3  UNL     1       2.861  -1.124  -0.434  1.00  0.00    -0.143 NA
HETATM    4  N4  UNL     1       3.751  -0.122  -0.095  1.00  0.00    -0.121 NA
HETATM    5  C6  UNL     1       3.236   1.175  -0.461  1.00  0.00     0.364 C 
HETATM    6  N5  UNL     1       1.909   1.144  -0.994  1.00  0.00    -0.040 N 
ATOM      7  H51 UNL     1       1.567   2.082  -1.203  1.00  0.00     0.280 HD
ATOM      8  H52 UNL     1       1.894   0.758  -1.938  1.00  0.00     0.280 HD
ENDROOT
BRANCH   1   9
HETATM    9  N2  UNL     1      -0.293   0.281  -0.727  1.00  0.00    -0.111 NA
BRANCH   9  10
HETATM   10  N1  UNL     1      -1.167  -0.360   0.088  1.00  0.00    -0.334 N 
ATOM     11  H1  UNL     1      -0.920  -1.253   0.515  1.00  0.00     0.176 HD
BRANCH  10  12
HETATM   12  C2  UNL     1      -2.419   0.229   0.333  1.00  0.00     0.087 C 
HETATM   13  C1  UNL     1      -3.299   0.469  -0.832  1.00  0.00     0.033 C 
HETATM   14  C3  UNL     1      -3.181  -0.649   1.327  1.00  0.00     0.033 C 
ENDBRANCH  10  12
ENDBRANCH   9  10
ENDBRANCH   1   9
TORSDOF 3
