REMARK  4 active torsions:
REMARK  status: ('A' for Active; 'I' for Inactive)
REMARK    1  A    between atoms: C3_4  and  C4_5 
REMARK    2  A    between atoms: C5_9  and  S1_10 
REMARK    3  A    between atoms: S1_10  and  C6_11 
REMARK    4  A    between atoms: C11_18  and  N4_19 
ROOT
HETATM    1  N1  UNL     1       5.781   1.215   0.497  1.00  0.00    -0.191 NA
HETATM    2  C1  UNL     1       4.713   0.994   0.134  1.00  0.00     0.105 C 
HETATM    3  C2  UNL     1       3.376   0.709  -0.306  1.00  0.00     0.111 A 
HETATM    4  C3  UNL     1       2.773  -0.509  -0.060  1.00  0.00     0.045 A 
HETATM    5  N2  UNL     1       1.513  -0.743  -0.488  1.00  0.00    -0.338 N 
ATOM      6  H2  UNL     1       1.089  -1.650  -0.293  1.00  0.00     0.168 HD
HETATM    7  C5  UNL     1       0.797   0.177  -1.162  1.00  0.00     0.146 A 
HETATM    8  N3  UNL     1       1.367   1.371  -1.411  1.00  0.00    -0.322 N 
ATOM      9  H3  UNL     1       0.841   2.082  -1.919  1.00  0.00     0.169 HD
HETATM   10  C11 UNL     1       2.637   1.646  -0.995  1.00  0.00     0.123 A 
ENDROOT
BRANCH   4  11
HETATM   11  C4  UNL     1       3.556  -1.531   0.684  1.00  0.00     0.144 C 
HETATM   12 BR1  UNL     1       3.614  -1.099   2.561  1.00  0.00    -0.090 Br
ENDBRANCH   4  11
BRANCH  10  13
HETATM   13  N4  UNL     1       3.177   2.800  -1.242  1.00  0.00    -0.384 N 
ATOM     14  H42 UNL     1       4.126   3.006  -0.931  1.00  0.00     0.157 HD
ATOM     15  H41 UNL     1       2.630   3.494  -1.752  1.00  0.00     0.157 HD
ENDBRANCH  10  13
BRANCH   7  16
HETATM   16  S1  UNL     1      -0.857  -0.212  -1.690  1.00  0.00    -0.089 SA
BRANCH  16  17
HETATM   17  C6  UNL     1      -2.106   0.207  -0.506  1.00  0.00     0.055 C 
HETATM   18  C7  UNL     1      -2.067  -0.587   0.777  1.00  0.00     0.015 C 
HETATM   19  C8  UNL     1      -3.413  -0.166   1.383  1.00  0.00     0.001 C 
HETATM   20  C9  UNL     1      -4.334   0.018   0.190  1.00  0.00     0.001 C 
HETATM   21  C10 UNL     1      -3.461  -0.204  -1.047  1.00  0.00     0.015 C 
ENDBRANCH  16  17
ENDBRANCH   7  16
TORSDOF 4
