REMARK  12 active torsions:
REMARK  status: ('A' for Active; 'I' for Inactive)
REMARK    1  A    between atoms: N1_1  and  C1_5 
REMARK    2  A    between atoms: C1_5  and  C2_6 
REMARK    3  A    between atoms: C2_6  and  C3_7 
REMARK    4  A    between atoms: C2_6  and  N7_30 
REMARK    5  A    between atoms: C3_7  and  S1_8 
REMARK    6  A    between atoms: S1_8  and  S2_9 
REMARK    7  A    between atoms: S2_9  and  C4_10 
REMARK    8  A    between atoms: C4_10  and  C5_11 
REMARK    9  A    between atoms: C5_11  and  N2_12 
REMARK   10  A    between atoms: N2_12  and  C6_14 
REMARK   11  A    between atoms: C9_20  and  C10_21 
REMARK   12  A    between atoms: N5_23  and  O1_25 
ROOT
HETATM    1  N2  UNL     1       1.587   0.953  -0.352  1.00  0.00    -0.395 N 
ATOM      2  H2  UNL     1       1.577   1.478   0.522  1.00  0.00     0.155 HD
ENDROOT
BRANCH   1   3
HETATM    3  C5  UNL     1       0.397   0.616  -1.056  1.00  0.00     0.127 C 
BRANCH   3   4
HETATM    4  C4  UNL     1      -0.776   1.182  -0.276  1.00  0.00     0.105 C 
BRANCH   4   5
HETATM    5  S2  UNL     1      -0.855   0.499   1.388  1.00  0.00    -0.096 SA
BRANCH   5   6
HETATM    6  S1  UNL     1      -2.479   1.186   2.495  1.00  0.00    -0.096 SA
BRANCH   6   7
HETATM    7  C3  UNL     1      -3.959   0.220   2.479  1.00  0.00     0.113 C 
BRANCH   7   8
HETATM    8  C2  UNL     1      -4.647   0.119   1.156  1.00  0.00     0.119 C 
BRANCH   8   9
HETATM    9  C1  UNL     1      -5.949  -0.702   1.328  1.00  0.00     0.255 C 
BRANCH   9  10
HETATM   10  N1  UNL     1      -6.813  -0.015   2.301  1.00  0.00    -0.077 N 
ATOM     11  H13 UNL     1      -6.341   0.159   3.188  1.00  0.00     0.274 HD
ATOM     12  H12 UNL     1      -6.994   0.956   2.046  1.00  0.00     0.274 HD
ATOM     13  H11 UNL     1      -7.670  -0.556   2.414  1.00  0.00     0.274 HD
ENDBRANCH   9  10
ENDBRANCH   8   9
BRANCH   8  14
HETATM   14  N7  UNL     1      -3.880  -0.717   0.218  1.00  0.00    -0.360 N 
HETATM   15  C11 UNL     1      -4.126  -0.805  -1.023  1.00  0.00     0.197 C 
HETATM   16  N8  UNL     1      -5.185  -0.083  -1.607  1.00  0.00    -0.067 NA
HETATM   17  N9  UNL     1      -3.308  -1.652  -1.818  1.00  0.00    -0.067 NA
ATOM     18  H7  UNL     1      -3.101  -1.260   0.590  1.00  0.00     0.162 HD
ENDBRANCH   8  14
ENDBRANCH   7   8
ENDBRANCH   6   7
ENDBRANCH   5   6
ENDBRANCH   4   5
ENDBRANCH   3   4
ENDBRANCH   1   3
BRANCH   1  19
HETATM   19  C6  UNL     1       2.814   0.494  -0.970  1.00  0.00     0.284 C 
HETATM   20  C7  UNL     1       2.934  -0.969  -1.081  1.00  0.00     0.081 C 
HETATM   21  C8  UNL     1       3.526  -1.697   0.090  1.00  0.00     0.239 C 
HETATM   22  N3  UNL     1       4.538  -0.943   0.773  1.00  0.00    -0.039 N 
HETATM   23  C9  UNL     1       4.996   0.083  -0.179  1.00  0.00     0.450 C 
ATOM     24  H32 UNL     1       4.226  -0.559   1.665  1.00  0.00     0.280 HD
ATOM     25  H31 UNL     1       5.294  -1.520   1.143  1.00  0.00     0.280 HD
HETATM   26  N6  UNL     1       3.960   1.072  -0.328  1.00  0.00    -0.019 N 
ATOM     27  H62 UNL     1       4.293   1.903  -0.818  1.00  0.00     0.282 HD
ATOM     28  H61 UNL     1       3.719   1.509   0.562  1.00  0.00     0.282 HD
BRANCH  23  29
HETATM   29  C10 UNL     1       6.276   0.630   0.307  1.00  0.00     0.171 C 
HETATM   30  N4  UNL     1       7.329  -0.286   0.535  1.00  0.00    -0.082 NA
HETATM   31  N5  UNL     1       6.463   1.853   0.513  1.00  0.00    -0.256 N 
ATOM     32  H5  UNL     1       7.384   2.132   0.850  1.00  0.00     0.195 HD
BRANCH  31  33
HETATM   33  O1  UNL     1       5.553   2.834   0.328  1.00  0.00    -0.289 OA
ATOM     34  H1  UNL     1       5.695   3.760   0.484  1.00  0.00     0.244 HD
ENDBRANCH  31  33
ENDBRANCH  23  29
ENDBRANCH   1  19
TORSDOF 12
