REMARK  10 active torsions:
REMARK  status: ('A' for Active; 'I' for Inactive)
REMARK       I    between atoms: C1_4  and  N3_6 
REMARK    1  A    between atoms: N3_6  and  C2_7 
REMARK    2  A    between atoms: N3_6  and  C4_11 
REMARK    3  A    between atoms: C2_7  and  C3_8 
REMARK    4  A    between atoms: C3_8  and  O1_9 
REMARK    5  A    between atoms: C4_11  and  C5_12 
REMARK    6  A    between atoms: C5_12  and  S1_13 
REMARK    7  A    between atoms: S1_13  and  C6_15 
REMARK    8  A    between atoms: C6_15  and  C7_16 
REMARK    9  A    between atoms: C9_18  and  C10_19 
REMARK   10  A    between atoms: C10_19  and  O3_20 
ROOT
HETATM    1  S1  UNL     1       0.476  -2.065  -0.183  1.00  0.00     0.017 S 
HETATM    2  O2  UNL     1       0.184  -3.410  -1.055  1.00  0.00    -0.258 OA
ENDROOT
BRANCH   1   3
HETATM    3  C5  UNL     1      -0.775  -0.869  -0.172  1.00  0.00     0.128 C 
BRANCH   3   4
HETATM    4  C4  UNL     1      -2.079  -1.376   0.392  1.00  0.00     0.138 C 
BRANCH   4   5
HETATM    5  N3  UNL     1      -3.119  -0.376   0.382  1.00  0.00    -0.353 N 
HETATM    6  C1  UNL     1      -3.553   0.137   1.623  1.00  0.00     0.184 C 
HETATM    7  N1  UNL     1      -4.310  -0.554   2.391  1.00  0.00    -0.374 N 
HETATM    8  N2  UNL     1      -3.152   1.426   2.034  1.00  0.00    -0.064 NA
ATOM      9  H12 UNL     1      -4.624  -0.183   3.288  1.00  0.00     0.158 HD
ATOM     10  H11 UNL     1      -4.600  -1.486   2.094  1.00  0.00     0.158 HD
BRANCH   5  11
HETATM   11  C2  UNL     1      -3.728   0.124  -0.821  1.00  0.00     0.151 C 
BRANCH  11  12
HETATM   12  C3  UNL     1      -4.753   1.176  -0.596  1.00  0.00     0.183 C 
BRANCH  12  13
HETATM   13  O1  UNL     1      -5.823   0.809   0.175  1.00  0.00    -0.399 OA
ATOM     14  H1  UNL     1      -6.478   1.482   0.319  1.00  0.00     0.209 HD
ENDBRANCH  12  13
ENDBRANCH  11  12
ENDBRANCH   5  11
ENDBRANCH   4   5
ENDBRANCH   3   4
ENDBRANCH   1   3
BRANCH   1  15
HETATM   15  C6  UNL     1       2.113  -1.565  -0.037  1.00  0.00     0.122 C 
BRANCH  15  16
HETATM   16  C7  UNL     1       2.636  -0.632  -1.099  1.00  0.00     0.091 C 
HETATM   17  C8  UNL     1       4.121  -0.309  -0.812  1.00  0.00     0.042 C 
HETATM   18  C9  UNL     1       4.077   0.545   0.432  1.00  0.00     0.108 C 
HETATM   19  N4  UNL     1       2.742   1.146   0.398  1.00  0.00    -0.354 N 
HETATM   20  C11 UNL     1       2.082   0.744  -0.823  1.00  0.00     0.223 C 
ATOM     21  H4  UNL     1       2.344   1.749   1.118  1.00  0.00     0.162 HD
HETATM   22  O4  UNL     1       1.247   1.409  -1.476  1.00  0.00    -0.273 OA
BRANCH  18  23
HETATM   23  C10 UNL     1       5.084   1.676   0.367  1.00  0.00     0.189 C 
BRANCH  23  24
HETATM   24  O3  UNL     1       4.943   2.424  -0.791  1.00  0.00    -0.399 OA
ATOM     25  H3  UNL     1       5.574   3.133  -0.832  1.00  0.00     0.209 HD
ENDBRANCH  23  24
ENDBRANCH  18  23
ENDBRANCH  15  16
ENDBRANCH   1  15
TORSDOF 10
