REMARK  11 active torsions:
REMARK  status: ('A' for Active; 'I' for Inactive)
REMARK    1  A    between atoms: N1_1  and  C1_5 
REMARK    2  A    between atoms: C1_5  and  C2_6 
REMARK    3  A    between atoms: C2_6  and  C3_7 
REMARK    4  A    between atoms: C3_7  and  C4_8 
REMARK    5  A    between atoms: C4_8  and  C5_9 
REMARK    6  A    between atoms: C6_13  and  C7_14 
REMARK    7  A    between atoms: C7_14  and  C8_15 
REMARK    8  A    between atoms: C8_15  and  C9_16 
REMARK    9  A    between atoms: C9_16  and  N3_17 
REMARK       I    between atoms: N6_24  and  C12_25 
REMARK   10  A    between atoms: C12_25  and  C13_27 
REMARK   11  A    between atoms: C13_27  and  N7_28 
ROOT
HETATM    1  C5  UNL     1      -0.936  -0.017  -1.005  1.00  0.00     0.296 C 
HETATM    2  N2  UNL     1      -0.179  -1.196  -0.675  1.00  0.00    -0.041 N 
ATOM      3  H21 UNL     1      -0.104  -1.869  -1.438  1.00  0.00     0.280 HD
ATOM      4  H22 UNL     1      -0.647  -1.820  -0.018  1.00  0.00     0.280 HD
HETATM    5  C6  UNL     1       1.116  -0.685  -0.197  1.00  0.00     0.280 C 
HETATM    6  C11 UNL     1       0.701   0.531   0.542  1.00  0.00     0.259 C 
HETATM    7  O1  UNL     1       1.240   1.042   1.574  1.00  0.00    -0.271 OA
HETATM    8  N6  UNL     1      -0.470   1.034  -0.162  1.00  0.00    -0.255 N 
HETATM    9  C12 UNL     1      -0.927   2.363   0.071  1.00  0.00     0.253 C 
HETATM   10  O2  UNL     1      -0.294   3.112   0.872  1.00  0.00    -0.271 OA
ENDROOT
BRANCH   1  11
HETATM   11  C4  UNL     1      -2.395  -0.258  -1.082  1.00  0.00     0.055 C 
BRANCH  11  12
HETATM   12  C3  UNL     1      -3.058  -0.730   0.167  1.00  0.00     0.005 C 
BRANCH  12  13
HETATM   13  C2  UNL     1      -4.541  -0.909  -0.144  1.00  0.00     0.027 C 
BRANCH  13  14
HETATM   14  C1  UNL     1      -5.301  -1.388   1.068  1.00  0.00     0.229 C 
BRANCH  14  15
HETATM   15  N1  UNL     1      -6.690  -1.528   0.678  1.00  0.00    -0.079 N 
ATOM     16  H13 UNL     1      -7.079  -0.676   0.274  1.00  0.00     0.274 HD
ATOM     17  H12 UNL     1      -6.817  -2.129  -0.136  1.00  0.00     0.274 HD
ATOM     18  H11 UNL     1      -7.204  -1.852   1.497  1.00  0.00     0.274 HD
ENDBRANCH  14  15
ENDBRANCH  13  14
ENDBRANCH  12  13
ENDBRANCH  11  12
ENDBRANCH   1  11
BRANCH   5  19
HETATM   19  C7  UNL     1       1.971  -0.396  -1.376  1.00  0.00     0.044 C 
BRANCH  19  20
HETATM   20  C8  UNL     1       3.331   0.134  -1.046  1.00  0.00     0.022 C 
BRANCH  20  21
HETATM   21  C9  UNL     1       4.169  -0.771  -0.218  1.00  0.00     0.122 C 
BRANCH  21  22
HETATM   22  N3  UNL     1       5.442  -0.127   0.015  1.00  0.00    -0.367 N 
HETATM   23  C10 UNL     1       6.302  -0.647   0.813  1.00  0.00     0.196 C 
HETATM   24  N4  UNL     1       7.565  -0.060   1.079  1.00  0.00    -0.067 NA
HETATM   25  N5  UNL     1       5.956  -1.875   1.456  1.00  0.00    -0.067 NA
ATOM     26  H3  UNL     1       5.659   0.749  -0.460  1.00  0.00     0.161 HD
ENDBRANCH  21  22
ENDBRANCH  20  21
ENDBRANCH  19  20
ENDBRANCH   5  19
BRANCH   9  27
HETATM   27  C13 UNL     1      -2.114   2.899  -0.591  1.00  0.00     0.332 C 
BRANCH  27  28
HETATM   28  N7  UNL     1      -2.326   4.309  -0.214  1.00  0.00    -0.071 N 
ATOM     29  H73 UNL     1      -2.371   4.428   0.798  1.00  0.00     0.274 HD
ATOM     30  H72 UNL     1      -1.500   4.879  -0.398  1.00  0.00     0.274 HD
ATOM     31  H71 UNL     1      -3.155   4.683  -0.676  1.00  0.00     0.274 HD
ENDBRANCH  27  28
ENDBRANCH   9  27
TORSDOF 11
