REMARK  14 active torsions:
REMARK  status: ('A' for Active; 'I' for Inactive)
REMARK    1  A    between atoms: C2_2  and  C3_3 
REMARK    2  A    between atoms: C2_2  and  N2_31 
REMARK    3  A    between atoms: C3_3  and  C4_4 
REMARK    4  A    between atoms: C4_4  and  C5_5 
REMARK    5  A    between atoms: C5_5  and  C6_6 
REMARK    6  A    between atoms: C6_6  and  C7_7 
REMARK    7  A    between atoms: C7_7  and  C8_9 
REMARK    8  A    between atoms: C8_9  and  C9_10 
REMARK    9  A    between atoms: N2_31  and  C26_34 
REMARK   10  A    between atoms: C26_34  and  C27_35 
REMARK   11  A    between atoms: C27_35  and  N3_36 
REMARK   12  A    between atoms: N3_36  and  C28_39 
REMARK   13  A    between atoms: C28_39  and  C29_40 
REMARK   14  A    between atoms: C29_40  and  C30_41 
ROOT
HETATM    1  C9  UNL     1      -2.288   0.649   0.566  1.00  0.00    -0.071 C 
HETATM    2  C10 UNL     1      -1.580   1.762   0.226  1.00  0.00    -0.022 C 
HETATM    3  C11 UNL     1      -2.542   2.875  -0.133  1.00  0.00     0.040 C 
HETATM    4  C12 UNL     1      -3.656   1.995  -0.691  1.00  0.00     0.067 C 
HETATM    5  C13 UNL     1      -4.966   2.619  -0.690  1.00  0.00     0.132 C 
HETATM    6  O2  UNL     1      -5.318   3.329  -1.625  1.00  0.00    -0.298 OA
HETATM    7  C14 UNL     1      -5.874   2.380   0.462  1.00  0.00     0.084 C 
HETATM    8  C15 UNL     1      -6.016   0.921   0.846  1.00  0.00     0.011 C 
HETATM    9  C16 UNL     1      -4.793   0.128   0.362  1.00  0.00     0.000 C 
HETATM   10  C17 UNL     1      -4.998  -0.432  -0.996  1.00  0.00     0.008 C 
HETATM   11  C18 UNL     1      -6.125  -1.473  -0.816  1.00  0.00     0.026 C 
HETATM   12  C19 UNL     1      -7.354  -0.640  -0.611  1.00  0.00     0.097 C 
HETATM   13  N1  UNL     1      -8.525  -1.457  -0.671  1.00  0.00    -0.352 N 
ATOM     14  H1  UNL     1      -8.991  -1.623  -1.563  1.00  0.00     0.163 HD
HETATM   15  C20 UNL     1      -9.034  -2.035   0.520  1.00  0.00     0.241 C 
HETATM   16  O3  UNL     1      -9.789  -3.064   0.487  1.00  0.00    -0.269 OA
HETATM   17  C21 UNL     1      -8.658  -1.401   1.771  1.00  0.00     0.071 C 
HETATM   18  C22 UNL     1      -7.891  -0.359   1.760  1.00  0.00    -0.009 C 
HETATM   19  C23 UNL     1      -7.315   0.306   0.541  1.00  0.00    -0.001 C 
HETATM   20  C24 UNL     1      -8.395   1.366   0.209  1.00  0.00     0.022 C 
HETATM   21  C25 UNL     1      -3.666   1.033   0.514  1.00  0.00     0.030 C 
ENDROOT
BRANCH   1  22
HETATM   22  C8  UNL     1      -1.537  -0.597   0.957  1.00  0.00     0.112 C 
BRANCH  22  23
HETATM   23  C7  UNL     1      -0.088  -0.365   0.978  1.00  0.00     0.130 C 
HETATM   24  O1  UNL     1       0.377  -0.074   2.099  1.00  0.00    -0.298 OA
BRANCH  23  25
HETATM   25  C6  UNL     1       0.866  -0.428  -0.145  1.00  0.00     0.078 C 
BRANCH  25  26
HETATM   26  C5  UNL     1       2.223   0.029   0.353  1.00  0.00     0.007 C 
BRANCH  26  27
HETATM   27  C4  UNL     1       3.287   0.099  -0.662  1.00  0.00     0.002 C 
BRANCH  27  28
HETATM   28  C3  UNL     1       3.738  -1.104  -1.368  1.00  0.00     0.032 C 
BRANCH  28  29
HETATM   29  C2  UNL     1       4.414  -2.183  -0.616  1.00  0.00     0.182 C 
HETATM   30  C1  UNL     1       3.684  -2.847   0.494  1.00  0.00     0.040 C 
BRANCH  29  31
HETATM   31  N2  UNL     1       5.740  -1.786  -0.139  1.00  0.00    -0.070 N 
ATOM     32  H22 UNL     1       5.766  -0.795   0.103  1.00  0.00     0.277 HD
ATOM     33  H21 UNL     1       5.937  -2.180   0.781  1.00  0.00     0.277 HD
BRANCH  31  34
HETATM   34  C26 UNL     1       6.764  -2.119  -1.077  1.00  0.00     0.260 C 
BRANCH  34  35
HETATM   35  C27 UNL     1       8.106  -1.668  -0.565  1.00  0.00     0.259 C 
BRANCH  35  36
HETATM   36  N3  UNL     1       8.161  -0.262  -0.308  1.00  0.00    -0.073 N 
ATOM     37  H32 UNL     1       7.786   0.270  -1.093  1.00  0.00     0.277 HD
ATOM     38  H31 UNL     1       7.487   0.007   0.409  1.00  0.00     0.277 HD
BRANCH  36  39
HETATM   39  C28 UNL     1       9.496   0.188   0.036  1.00  0.00     0.233 C 
BRANCH  39  40
HETATM   40  C29 UNL     1       9.382   1.669   0.367  1.00  0.00     0.038 C 
BRANCH  40  41
HETATM   41  C30 UNL     1      10.711   2.296   0.711  1.00  0.00     0.088 C 
HETATM   42  S1  UNL     1      11.892   2.183  -0.666  1.00  0.00    -0.098 SA
ENDBRANCH  40  41
ENDBRANCH  39  40
ENDBRANCH  36  39
ENDBRANCH  35  36
ENDBRANCH  34  35
ENDBRANCH  31  34
ENDBRANCH  29  31
ENDBRANCH  28  29
ENDBRANCH  27  28
ENDBRANCH  26  27
ENDBRANCH  25  26
ENDBRANCH  23  25
ENDBRANCH  22  23
ENDBRANCH   1  22
TORSDOF 14
