REMARK  1 active torsions:
REMARK  status: ('A' for Active; 'I' for Inactive)
REMARK    1  A    between atoms: C4_9  and  C5_10 
ROOT
HETATM    1  C1  UNL     1       1.703   2.151  -1.374  1.00  0.00     0.070 C 
HETATM    2  C2  UNL     1       2.102   0.918  -0.672  1.00  0.00     0.034 A 
HETATM    3  N1  UNL     1       3.340   0.525  -0.475  1.00  0.00    -0.338 N 
ATOM      4  H1  UNL     1       4.181   0.985  -0.824  1.00  0.00     0.168 HD
HETATM    5  C3  UNL     1       3.300  -0.569   0.254  1.00  0.00     0.156 A 
HETATM    6  S1  UNL     1       4.769  -1.511   0.752  1.00  0.00    -0.013 SA
HETATM    7  N2  UNL     1       2.035  -0.865   0.521  1.00  0.00    -0.334 N 
ATOM      8  H2  UNL     1       1.710  -1.658   1.073  1.00  0.00     0.168 HD
HETATM    9  C4  UNL     1       1.245   0.076  -0.071  1.00  0.00     0.061 A 
ENDROOT
BRANCH   9  10
HETATM   10  C5  UNL     1      -0.199  -0.081  -0.072  1.00  0.00    -0.018 C 
HETATM   11  C6  UNL     1      -0.708  -0.547   1.255  1.00  0.00     0.039 C 
HETATM   12  C7  UNL     1      -2.051  -1.222   1.103  1.00  0.00     0.004 C 
HETATM   13  C8  UNL     1      -3.013  -0.252   0.416  1.00  0.00     0.004 C 
HETATM   14  C9  UNL     1      -2.432   0.016  -0.945  1.00  0.00     0.042 C 
HETATM   15  C10 UNL     1      -1.090   0.787  -0.792  1.00  0.00     0.201 C 
HETATM   16  F1  UNL     1      -1.474   1.976  -0.224  1.00  0.00    -0.245 F 
ENDBRANCH   9  10
TORSDOF 1
