REMARK  0 active torsions:
REMARK  status: ('A' for Active; 'I' for Inactive)
ROOT
HETATM    1  C1  UNL     1       3.129  -0.849  -0.214  1.00  0.00     0.070 C 
HETATM    2  C2  UNL     1       1.782  -0.203  -0.023  1.00  0.00     0.025 A 
HETATM    3  N1  UNL     1       1.536   1.041   0.420  1.00  0.00    -0.343 N 
ATOM      4  H1  UNL     1       2.246   1.722   0.690  1.00  0.00     0.167 HD
HETATM    5  C3  UNL     1       0.199   1.250   0.453  1.00  0.00     0.134 A 
HETATM    6  N2  UNL     1      -0.759   2.131   0.741  1.00  0.00    -0.285 N 
ATOM      7  H2  UNL     1      -0.579   3.073   1.088  1.00  0.00     0.188 HD
HETATM    8  N3  UNL     1      -1.966   1.645   0.526  1.00  0.00    -0.303 N 
ATOM      9  H3  UNL     1      -2.854   2.126   0.672  1.00  0.00     0.186 HD
HETATM   10  C4  UNL     1      -1.794   0.391   0.077  1.00  0.00     0.037 A 
HETATM   11  C5  UNL     1      -2.867  -0.543  -0.297  1.00  0.00     0.070 C 
HETATM   12  C6  UNL     1      -0.442   0.118   0.021  1.00  0.00     0.052 A 
HETATM   13  C7  UNL     1       0.559  -0.781  -0.272  1.00  0.00     0.049 A 
HETATM   14 BR1  UNL     1       0.258  -2.538  -0.920  1.00  0.00    -0.048 Br
ENDROOT
TORSDOF 0
