REMARK  0 active torsions:
REMARK  status: ('A' for Active; 'I' for Inactive)
ROOT
HETATM    1  C1  UNL     1      -0.738  -0.723   0.087  1.00  0.00     0.018 C 
HETATM    2  C2  UNL     1       0.693  -0.932  -0.316  1.00  0.00     0.013 C 
HETATM    3  C3  UNL     1       1.635   0.080   0.240  1.00  0.00     0.093 C 
HETATM    4  S1  UNL     1       1.020   1.780  -0.043  1.00  0.00    -0.066 SA
HETATM    5  N1  UNL     1      -0.719   1.731   0.236  1.00  0.00    -0.179 NA
HETATM    6  C4  UNL     1      -1.327   0.570  -0.378  1.00  0.00     0.122 C 
ENDROOT
TORSDOF 0
