REMARK  2 active torsions:
REMARK  status: ('A' for Active; 'I' for Inactive)
REMARK    1  A    between atoms: C7_8  and  S1_9 
REMARK    2  A    between atoms: S1_9  and  N2_10 
ROOT
HETATM    1  N1  UNL     1       6.738   2.584   2.235  1.00  0.00    -0.191 NA
HETATM    2  C1  UNL     1       5.811   2.088   1.760  1.00  0.00     0.099 C 
HETATM    3  C2  UNL     1       4.674   1.450   1.170  1.00  0.00     0.046 A 
HETATM    4  C3  UNL     1       4.791   0.413   0.277  1.00  0.00     0.024 A 
HETATM    5  C4  UNL     1       3.658  -0.202  -0.279  1.00  0.00     0.016 A 
HETATM    6  C5  UNL     1       2.450   0.282   0.116  1.00  0.00     0.005 A 
HETATM    7  C6  UNL     1       1.184  -0.104  -0.225  1.00  0.00     0.029 A 
HETATM    8  C7  UNL     1       0.883  -1.177  -1.032  1.00  0.00     0.092 C 
HETATM    9  C8  UNL     1      -0.286  -1.212  -1.815  1.00  0.00     0.027 C 
HETATM   10  C9  UNL     1      -1.501  -0.557  -1.668  1.00  0.00     0.016 C 
HETATM   11  C10 UNL     1      -1.940   0.129  -0.555  1.00  0.00     0.005 A 
HETATM   12  C11 UNL     1      -1.140   0.725   0.430  1.00  0.00     0.071 A 
HETATM   13  N3  UNL     1      -1.948   1.286   1.342  1.00  0.00    -0.353 N 
ATOM     14  H3  UNL     1      -1.648   1.792   2.175  1.00  0.00     0.166 HD
HETATM   15  C12 UNL     1      -3.238   1.064   0.964  1.00  0.00     0.043 A 
HETATM   16  C13 UNL     1      -4.418   1.430   1.549  1.00  0.00     0.030 A 
HETATM   17  C14 UNL     1      -5.594   1.061   0.930  1.00  0.00     0.002 A 
HETATM   18  C15 UNL     1      -5.628   0.350  -0.236  1.00  0.00     0.001 A 
HETATM   19  C16 UNL     1      -4.429  -0.023  -0.833  1.00  0.00     0.014 A 
HETATM   20  C17 UNL     1      -3.255   0.346  -0.213  1.00  0.00     0.003 A 
HETATM   21  C18 UNL     1       0.227   0.771   0.507  1.00  0.00     0.073 A 
HETATM   22  N4  UNL     1       0.979   1.598   1.225  1.00  0.00    -0.353 N 
ATOM     23  H4  UNL     1       0.621   2.327   1.842  1.00  0.00     0.166 HD
HETATM   24  C19 UNL     1       2.292   1.332   1.017  1.00  0.00     0.045 A 
HETATM   25  C20 UNL     1       3.430   1.906   1.536  1.00  0.00     0.053 A 
ENDROOT
BRANCH   8  26
HETATM   26  S1  UNL     1       1.982  -2.473  -1.065  1.00  0.00     0.257 S 
HETATM   27  O1  UNL     1       2.871  -2.596  -2.286  1.00  0.00    -0.201 OA
HETATM   28  O2  UNL     1       2.509  -3.016   0.191  1.00  0.00    -0.201 OA
BRANCH  26  29
HETATM   29  N2  UNL     1       0.929  -3.848  -1.518  1.00  0.00    -0.324 N 
ATOM     30  H22 UNL     1      -0.074  -3.840  -1.705  1.00  0.00     0.169 HD
ATOM     31  H21 UNL     1       1.589  -4.626  -1.538  1.00  0.00     0.169 HD
ENDBRANCH  26  29
ENDBRANCH   8  26
TORSDOF 2
