REMARK  5 active torsions:
REMARK  status: ('A' for Active; 'I' for Inactive)
REMARK    1  A    between atoms: C2_2  and  C4_4 
REMARK    2  A    between atoms: C4_4  and  C5_5 
REMARK    3  A    between atoms: C5_5  and  N1_6 
REMARK       I    between atoms: N1_6  and  C6_8 
REMARK    4  A    between atoms: C6_8  and  C7_10 
REMARK    5  A    between atoms: C7_10  and  C8_11 
ROOT
HETATM    1  C8  UNL     1      -1.815  -0.330   0.498  1.00  0.00    -0.031 C 
HETATM    2  C9  UNL     1      -2.801  -1.309   1.183  1.00  0.00     0.014 C 
HETATM    3  C10 UNL     1      -4.219  -0.979   0.855  1.00  0.00    -0.013 C 
HETATM    4  C11 UNL     1      -4.421  -1.049  -0.642  1.00  0.00     0.009 C 
HETATM    5  C12 UNL     1      -3.586   0.016  -1.266  1.00  0.00    -0.013 C 
HETATM    6  C13 UNL     1      -3.852   1.394  -0.701  1.00  0.00     0.009 C 
HETATM    7  C14 UNL     1      -3.557   1.358   0.775  1.00  0.00    -0.013 C 
HETATM    8  C15 UNL     1      -4.513   0.398   1.414  1.00  0.00     0.009 C 
HETATM    9  C16 UNL     1      -2.102   1.010   1.063  1.00  0.00     0.014 C 
HETATM   10  C17 UNL     1      -2.122  -0.303  -0.989  1.00  0.00     0.014 C 
ENDROOT
BRANCH   1  11
HETATM   11  C7  UNL     1      -0.456  -0.860   0.711  1.00  0.00     0.112 C 
BRANCH  11  12
HETATM   12  C6  UNL     1       0.681  -0.130   0.184  1.00  0.00     0.218 C 
HETATM   13  N1  UNL     1       1.995  -0.650   0.325  1.00  0.00    -0.361 N 
ATOM     14  H1  UNL     1       2.120  -1.543   0.802  1.00  0.00     0.162 HD
HETATM   15  O1  UNL     1       0.555   0.956  -0.399  1.00  0.00    -0.274 OA
BRANCH  13  16
HETATM   16  C5  UNL     1       3.164   0.039  -0.182  1.00  0.00     0.123 C 
BRANCH  16  17
HETATM   17  C4  UNL     1       4.422  -0.726   0.099  1.00  0.00     0.023 C 
BRANCH  17  18
HETATM   18  C2  UNL     1       5.655  -0.054  -0.406  1.00  0.00    -0.021 C 
HETATM   19  C1  UNL     1       5.671   0.169  -1.883  1.00  0.00     0.009 C 
HETATM   20  C3  UNL     1       5.794   1.272   0.314  1.00  0.00     0.009 C 
ENDBRANCH  17  18
ENDBRANCH  16  17
ENDBRANCH  13  16
ENDBRANCH  11  12
ENDBRANCH   1  11
TORSDOF 5
