REMARK  13 active torsions:
REMARK  status: ('A' for Active; 'I' for Inactive)
REMARK    1  A    between atoms: C2_2  and  C3_3 
REMARK    2  A    between atoms: C2_2  and  C15_18 
REMARK    3  A    between atoms: C4_4  and  C5_5 
REMARK    4  A    between atoms: C6_6  and  C7_7 
REMARK    5  A    between atoms: C7_7  and  N1_8 
REMARK    6  A    between atoms: N1_8  and  C8_9 
REMARK    7  A    between atoms: C8_9  and  C9_10 
REMARK    8  A    between atoms: C13_14  and  O1_16 
REMARK       I    between atoms: C15_18  and  N2_20 
REMARK    9  A    between atoms: N2_20  and  C16_22 
REMARK       I    between atoms: N3_25  and  C19_26 
REMARK   10  A    between atoms: C19_26  and  C20_28 
REMARK   11  A    between atoms: C20_28  and  O4_29 
REMARK   12  A    between atoms: C20_28  and  C21_31 
REMARK   13  A    between atoms: C21_31  and  C22_32 
ROOT
HETATM    1  C9  UNL     1       6.174   3.204   1.363  1.00  0.00    -0.079 C 
HETATM    2  C10 UNL     1       6.890   4.007   0.832  1.00  0.00    -0.109 C 
HETATM    3  C11 UNL     1       7.776   4.993   0.205  1.00  0.00     0.112 C 
ENDROOT
BRANCH   1   4
HETATM    4  C8  UNL     1       5.309   2.232   2.023  1.00  0.00     0.335 C 
BRANCH   4   5
HETATM    5  N1  UNL     1       5.318   1.008   1.268  1.00  0.00    -0.009 N 
HETATM    6  C12 UNL     1       4.990  -0.160   2.084  1.00  0.00     0.311 A 
HETATM    7  C13 UNL     1       6.336   0.032   1.419  1.00  0.00     0.251 A 
HETATM    8  C14 UNL     1       6.605  -0.956   0.315  1.00  0.00     0.081 C 
BRANCH   5   9
HETATM    9  C7  UNL     1       4.700   1.104  -0.027  1.00  0.00     0.336 C 
BRANCH   9  10
HETATM   10  C6  UNL     1       3.863  -0.047  -0.331  1.00  0.00    -0.064 C 
HETATM   11  C5  UNL     1       3.147  -1.006  -0.613  1.00  0.00    -0.013 C 
BRANCH  11  12
HETATM   12  C4  UNL     1       2.343  -2.121  -0.947  1.00  0.00    -0.009 C 
HETATM   13  C3  UNL     1       1.669  -3.080  -1.245  1.00  0.00    -0.048 C 
BRANCH  13  14
HETATM   14  C2  UNL     1       0.859  -4.212  -1.587  1.00  0.00     0.076 C 
HETATM   15  C1  UNL     1       1.400  -5.318  -2.026  1.00  0.00     0.039 C 
BRANCH  14  16
HETATM   16  C15 UNL     1      -0.571  -4.116  -1.440  1.00  0.00     0.259 C 
HETATM   17  O2  UNL     1      -1.264  -5.118  -1.746  1.00  0.00    -0.267 OA
HETATM   18  N2  UNL     1      -1.239  -2.952  -0.971  1.00  0.00    -0.350 N 
ATOM     19  H2  UNL     1      -0.666  -2.144  -0.727  1.00  0.00     0.163 HD
BRANCH  18  20
HETATM   20  C16 UNL     1      -2.653  -2.832  -0.817  1.00  0.00     0.104 C 
HETATM   21  C17 UNL     1      -3.069  -2.408   0.568  1.00  0.00     0.046 C 
HETATM   22  C18 UNL     1      -4.510  -1.943   0.302  1.00  0.00     0.128 C 
HETATM   23  N3  UNL     1      -4.418  -1.247  -0.934  1.00  0.00    -0.348 N 
HETATM   24  C19 UNL     1      -5.286  -0.264  -1.471  1.00  0.00     0.248 C 
HETATM   25  C25 UNL     1      -3.223  -1.708  -1.647  1.00  0.00     0.151 C 
HETATM   26  O3  UNL     1      -5.049   0.266  -2.617  1.00  0.00    -0.270 OA
BRANCH  24  27
HETATM   27  C20 UNL     1      -6.508   0.255  -0.826  1.00  0.00     0.210 C 
BRANCH  27  28
HETATM   28  O4  UNL     1      -6.795  -0.247   0.409  1.00  0.00    -0.386 OA
ATOM     29  H4  UNL     1      -7.582   0.087   0.824  1.00  0.00     0.210 HD
ENDBRANCH  27  28
BRANCH  27  30
HETATM   30  C21 UNL     1      -6.580   1.750  -0.802  1.00  0.00     0.045 C 
BRANCH  30  31
HETATM   31  C22 UNL     1      -5.426   2.336  -0.056  1.00  0.00    -0.020 C 
HETATM   32  C23 UNL     1      -5.365   1.885   1.386  1.00  0.00     0.009 C 
HETATM   33  C24 UNL     1      -5.521   3.844  -0.161  1.00  0.00     0.009 C 
ENDBRANCH  30  31
ENDBRANCH  27  30
ENDBRANCH  24  27
ENDBRANCH  18  20
ENDBRANCH  14  16
ENDBRANCH  13  14
ENDBRANCH  11  12
ENDBRANCH   9  10
ENDBRANCH   5   9
BRANCH   7  34
HETATM   34  O1  UNL     1       7.390   0.193   2.299  1.00  0.00    -0.363 OA
ATOM     35  H1  UNL     1       8.072  -0.461   2.400  1.00  0.00     0.212 HD
ENDBRANCH   7  34
ENDBRANCH   4   5
ENDBRANCH   1   4
TORSDOF 13
