REMARK  7 active torsions:
REMARK  status: ('A' for Active; 'I' for Inactive)
REMARK    1  A    between atoms: N1_1  and  N2_4 
REMARK    2  A    between atoms: N3_6  and  N4_8 
REMARK       I    between atoms: N4_8  and  C1_10 
REMARK       I    between atoms: C1_10  and  N6_15 
REMARK    3  A    between atoms: N5_11  and  O1_13 
REMARK    4  A    between atoms: N6_15  and  N7_17 
REMARK    5  A    between atoms: C2_19  and  C3_20 
REMARK    6  A    between atoms: C5_22  and  N8_23 
REMARK    7  A    between atoms: C7_27  and  N9_28 
ROOT
HETATM    1  N4  UNL     1       3.964   0.381  -1.516  1.00  0.00    -0.113 N 
ATOM      2  H4  UNL     1       3.740   0.211  -2.497  1.00  0.00     0.207 HD
HETATM    3  C1  UNL     1       3.020   1.055  -0.662  1.00  0.00     0.732 C 
HETATM    4  N5  UNL     1       2.752   2.305  -0.824  1.00  0.00    -0.096 N 
ATOM      5  H5  UNL     1       3.220   2.819  -1.571  1.00  0.00     0.213 HD
HETATM    6  N6  UNL     1       2.367   0.360   0.375  1.00  0.00    -0.129 N 
ATOM      7  H6  UNL     1       2.886  -0.270   0.987  1.00  0.00     0.205 HD
ENDROOT
BRANCH   6   8
HETATM    8  N7  UNL     1       1.007   0.549   0.546  1.00  0.00    -0.297 N 
HETATM    9  C2  UNL     1       0.217  -0.449   0.404  1.00  0.00     0.119 C 
ATOM     10  H7  UNL     1       0.639   1.470   0.782  1.00  0.00     0.186 HD
BRANCH   9  11
HETATM   11  C3  UNL     1      -1.221  -0.242   0.586  1.00  0.00    -0.015 A 
HETATM   12  C4  UNL     1      -1.723   0.984   0.902  1.00  0.00     0.049 A 
HETATM   13  C5  UNL     1      -3.097   1.140   1.067  1.00  0.00     0.106 A 
HETATM   14  C6  UNL     1      -3.942   0.061   0.912  1.00  0.00     0.072 A 
HETATM   15  C7  UNL     1      -3.451  -1.187   0.592  1.00  0.00     0.106 A 
HETATM   16  C8  UNL     1      -2.101  -1.317   0.435  1.00  0.00     0.049 A 
BRANCH  13  17
HETATM   17  N8  UNL     1      -3.602   2.427   1.396  1.00  0.00    -0.116 N 
HETATM   18  O2  UNL     1      -2.838   3.400   1.536  1.00  0.00    -0.532 OA
HETATM   19  O3  UNL     1      -4.951   2.621   1.567  1.00  0.00    -0.532 OA
ENDBRANCH  13  17
BRANCH  15  20
HETATM   20  N9  UNL     1      -4.354  -2.276   0.440  1.00  0.00    -0.116 N 
HETATM   21  O4  UNL     1      -3.981  -3.429   0.153  1.00  0.00    -0.532 OA
HETATM   22  O5  UNL     1      -5.704  -2.090   0.610  1.00  0.00    -0.532 OA
ENDBRANCH  15  20
ENDBRANCH   9  11
ENDBRANCH   6   8
BRANCH   1  23
HETATM   23  N3  UNL     1       5.184  -0.037  -0.992  1.00  0.00    -0.214 N 
HETATM   24  N2  UNL     1       5.562  -1.262  -1.025  1.00  0.00    -0.234 N 
ATOM     25  H2  UNL     1       6.464  -1.533  -0.633  1.00  0.00     0.209 HD
ATOM     26  H3  UNL     1       5.800   0.656  -0.566  1.00  0.00     0.210 HD
BRANCH  24  27
HETATM   27  N1  UNL     1       4.736  -2.212  -1.597  1.00  0.00    -0.330 N 
ATOM     28  H12 UNL     1       3.837  -1.925  -1.985  1.00  0.00     0.178 HD
ATOM     29  H11 UNL     1       5.037  -3.186  -1.623  1.00  0.00     0.178 HD
ENDBRANCH  24  27
ENDBRANCH   1  23
BRANCH   4  30
HETATM   30  O1  UNL     1       1.869   2.955  -0.033  1.00  0.00    -0.276 OA
ATOM     31  H1  UNL     1       1.671   3.877  -0.152  1.00  0.00     0.245 HD
ENDBRANCH   4  30
TORSDOF 7
