REMARK  8 active torsions:
REMARK  status: ('A' for Active; 'I' for Inactive)
REMARK    1  A    between atoms: N1_1  and  C1_4 
REMARK    2  A    between atoms: C2_7  and  S1_8 
REMARK    3  A    between atoms: S1_8  and  C3_9 
REMARK    4  A    between atoms: C3_9  and  C4_10 
REMARK    5  A    between atoms: C12_22  and  C13_23 
REMARK    6  A    between atoms: C13_23  and  N5_24 
REMARK    7  A    between atoms: C17_31  and  C18_32 
REMARK    8  A    between atoms: C18_32  and  O1_33 
ROOT
HETATM    1  C1  UNL     1      -0.419   1.133  -0.874  1.00  0.00     0.131 A 
HETATM    2  N2  UNL     1       0.786   1.452  -0.374  1.00  0.00    -0.321 N 
ATOM      3  H2  UNL     1       1.152   2.397  -0.491  1.00  0.00     0.169 HD
HETATM    4  C2  UNL     1       1.513   0.523   0.284  1.00  0.00     0.147 A 
HETATM    5  N3  UNL     1       1.072  -0.725   0.459  1.00  0.00    -0.321 N 
ATOM      6  H3  UNL     1       1.644  -1.405   0.959  1.00  0.00     0.169 HD
HETATM    7  C10 UNL     1      -0.132  -1.082  -0.028  1.00  0.00     0.134 A 
HETATM    8  C11 UNL     1      -0.899  -0.159  -0.703  1.00  0.00     0.117 A 
HETATM    9  N4  UNL     1      -2.160  -0.563  -1.203  1.00  0.00    -0.376 N 
ATOM     10  H4  UNL     1      -2.601  -0.027  -1.950  1.00  0.00     0.160 HD
HETATM   11  C12 UNL     1      -2.827  -1.719  -0.671  1.00  0.00     0.126 C 
HETATM   12  C17 UNL     1      -1.829  -2.845  -0.501  1.00  0.00     0.131 C 
HETATM   13  N8  UNL     1      -0.632  -2.389   0.137  1.00  0.00    -0.365 N 
ATOM     14  H8  UNL     1      -0.120  -3.037   0.736  1.00  0.00     0.161 HD
ENDROOT
BRANCH   4  15
HETATM   15  S1  UNL     1       3.099   1.030   0.914  1.00  0.00    -0.089 SA
BRANCH  15  16
HETATM   16  C3  UNL     1       4.324   0.702  -0.409  1.00  0.00     0.121 C 
BRANCH  16  17
HETATM   17  C4  UNL     1       5.652   1.123   0.109  1.00  0.00    -0.049 A 
HETATM   18  C5  UNL     1       6.129   2.422  -0.071  1.00  0.00     0.008 A 
HETATM   19  C6  UNL     1       7.359   2.808   0.409  1.00  0.00     0.001 A 
HETATM   20  C7  UNL     1       8.176   1.936   1.087  1.00  0.00     0.000 A 
HETATM   21  C8  UNL     1       7.729   0.652   1.277  1.00  0.00     0.001 A 
HETATM   22  C9  UNL     1       6.483   0.259   0.791  1.00  0.00     0.008 A 
ENDBRANCH  16  17
ENDBRANCH  15  16
ENDBRANCH   4  15
BRANCH   1  23
HETATM   23  N1  UNL     1      -1.144   1.989  -1.507  1.00  0.00    -0.383 N 
ATOM     24  H12 UNL     1      -0.791   2.938  -1.633  1.00  0.00     0.157 HD
ATOM     25  H11 UNL     1      -2.059   1.747  -1.887  1.00  0.00     0.157 HD
ENDBRANCH   1  23
BRANCH  12  26
HETATM   26  C18 UNL     1      -2.417  -3.979   0.309  1.00  0.00     0.191 C 
BRANCH  26  27
HETATM   27  O1  UNL     1      -3.584  -4.472  -0.254  1.00  0.00    -0.399 OA
ATOM     28  H1  UNL     1      -3.953  -5.184   0.255  1.00  0.00     0.209 HD
ENDBRANCH  26  27
ENDBRANCH  12  26
BRANCH  11  29
HETATM   29  C13 UNL     1      -3.443  -1.327   0.663  1.00  0.00     0.175 C 
BRANCH  29  30
HETATM   30  N5  UNL     1      -4.382  -0.249   0.423  1.00  0.00    -0.300 N 
HETATM   31  C14 UNL     1      -5.702  -0.435   0.138  1.00  0.00     0.113 A 
HETATM   32  C15 UNL     1      -6.305   0.794  -0.032  1.00  0.00     0.065 A 
HETATM   33  C16 UNL     1      -5.309   1.728   0.159  1.00  0.00     0.132 A 
HETATM   34  N6  UNL     1      -5.484   3.124   0.079  1.00  0.00    -0.081 NA
HETATM   35  N7  UNL     1      -4.151   1.059   0.435  1.00  0.00    -0.286 N 
ATOM     36  H7  UNL     1      -3.248   1.496   0.621  1.00  0.00     0.188 HD
ENDBRANCH  29  30
ENDBRANCH  11  29
TORSDOF 8
