REMARK  2 active torsions:
REMARK  status: ('A' for Active; 'I' for Inactive)
REMARK    1  A    between atoms: C2_2  and  N1_3 
REMARK    2  A    between atoms: N1_3  and  C3_6 
ROOT
HETATM    1  C3  UNL     1       2.254  -1.133  -0.529  1.00  0.00     0.186 C 
HETATM    2  C4  UNL     1       1.385  -0.656  -1.671  1.00  0.00     0.038 C 
HETATM    3  C5  UNL     1       0.696   0.637  -1.328  1.00  0.00     0.073 C 
HETATM    4  C6  UNL     1      -0.164   0.396  -0.112  1.00  0.00     0.197 C 
HETATM    5  C7  UNL     1       0.798   0.150   1.053  1.00  0.00     0.073 C 
HETATM    6  C8  UNL     1       1.468  -1.177   0.749  1.00  0.00     0.038 C 
HETATM    7  O1  UNL     1      -1.026   1.445   0.154  1.00  0.00    -0.347 OA
HETATM    8  C9  UNL     1      -2.239   0.924   0.643  1.00  0.00     0.243 C 
HETATM    9  C10 UNL     1      -2.871   0.165  -0.502  1.00  0.00     0.231 C 
HETATM   10  C11 UNL     1      -3.810  -0.907  -0.016  1.00  0.00     0.118 C 
HETATM   11  C12 UNL     1      -5.016  -0.371   0.617  1.00  0.00     0.070 C 
HETATM   12  N2  UNL     1      -5.454   0.784   0.269  1.00  0.00    -0.336 N 
ATOM     13  H2  UNL     1      -6.295   1.153   0.713  1.00  0.00     0.168 HD
HETATM   14  C13 UNL     1      -4.787   1.570  -0.732  1.00  0.00     0.219 C 
HETATM   15  N3  UNL     1      -5.211   2.733  -1.096  1.00  0.00    -0.365 N 
ATOM     16  H31 UNL     1      -4.738   3.291  -1.807  1.00  0.00     0.159 HD
ATOM     17  H32 UNL     1      -6.051   3.113  -0.660  1.00  0.00     0.159 HD
HETATM   18  O2  UNL     1      -3.628   1.046  -1.333  1.00  0.00    -0.279 OA
HETATM   19  O3  UNL     1      -1.848  -0.447  -1.207  1.00  0.00    -0.194 OA
HETATM   20  O4  UNL     1      -0.896  -0.765  -0.345  1.00  0.00    -0.198 OA
ENDROOT
BRANCH   1  21
HETATM   21  N1  UNL     1       3.409  -0.287  -0.465  1.00  0.00    -0.071 N 
ATOM     22  H12 UNL     1       3.130   0.691  -0.393  1.00  0.00     0.277 HD
ATOM     23  H11 UNL     1       3.885  -0.266  -1.367  1.00  0.00     0.277 HD
BRANCH  21  24
HETATM   24  C2  UNL     1       4.328  -0.622   0.577  1.00  0.00     0.228 C 
HETATM   25  C1  UNL     1       5.485   0.380   0.490  1.00  0.00     0.034 C 
ENDBRANCH  21  24
ENDBRANCH   1  21
TORSDOF 2
