REMARK  3 active torsions:
REMARK  status: ('A' for Active; 'I' for Inactive)
REMARK    1  A    between atoms: C2_2  and  O1_3 
REMARK    2  A    between atoms: O1_3  and  C3_4 
REMARK       I    between atoms: C3_4  and  N1_6 
REMARK    3  A    between atoms: N1_6  and  C4_8 
ROOT
HETATM    1  C4  UNL     1      -0.412   0.212   0.192  1.00  0.00     0.132 A 
HETATM    2  N2  UNL     1      -0.045   0.836  -0.939  1.00  0.00    -0.284 N 
ATOM      3  H2  UNL     1       0.934   0.890  -1.221  1.00  0.00     0.188 HD
HETATM    4  N3  UNL     1      -0.999   1.377  -1.672  1.00  0.00    -0.290 N 
ATOM      5  H3  UNL     1      -0.749   1.857  -2.537  1.00  0.00     0.187 HD
HETATM    6  C5  UNL     1      -2.316   1.311  -1.302  1.00  0.00     0.119 A 
HETATM    7  S1  UNL     1      -3.776   1.880  -1.983  1.00  0.00    -0.039 SA
HETATM    8  C6  UNL     1      -4.848   1.301  -0.792  1.00  0.00     0.145 A 
HETATM    9  S2  UNL     1      -6.498   1.441  -0.708  1.00  0.00    -0.052 SA
HETATM   10  N4  UNL     1      -4.045   0.697   0.077  1.00  0.00    -0.339 N 
ATOM     11  H4  UNL     1      -4.420   0.248   0.913  1.00  0.00     0.167 HD
HETATM   12  C7  UNL     1      -2.750   0.694  -0.171  1.00  0.00     0.079 A 
HETATM   13  C8  UNL     1      -1.734   0.117   0.609  1.00  0.00     0.013 A 
HETATM   14  C9  UNL     1      -2.006  -0.593   1.869  1.00  0.00     0.055 C 
ENDROOT
BRANCH   1  15
HETATM   15  N1  UNL     1       0.518  -0.338   0.943  1.00  0.00    -0.287 N 
HETATM   16  C3  UNL     1       1.858  -0.228   0.495  1.00  0.00     0.366 C 
HETATM   17  O2  UNL     1       2.533   0.811   0.704  1.00  0.00    -0.238 OA
ATOM     18  H1  UNL     1       0.285  -0.822   1.810  1.00  0.00     0.172 HD
BRANCH  16  19
HETATM   19  O1  UNL     1       2.506  -1.261  -0.200  1.00  0.00    -0.304 OA
BRANCH  19  20
HETATM   20  C2  UNL     1       3.844  -1.137  -0.641  1.00  0.00     0.176 C 
HETATM   21  C1  UNL     1       4.802  -0.908   0.490  1.00  0.00     0.034 C 
ENDBRANCH  19  20
ENDBRANCH  16  19
ENDBRANCH   1  15
TORSDOF 3
