REMARK  4 active torsions:
REMARK  status: ('A' for Active; 'I' for Inactive)
REMARK    1  A    between atoms: C4_9  and  N4_10 
REMARK    2  A    between atoms: N4_10  and  C5_12 
REMARK    3  A    between atoms: C5_12  and  C6_13 
REMARK    4  A    between atoms: C6_13  and  C7_14 
ROOT
HETATM    1  N1  UNL     1      -1.302   3.504   1.418  1.00  0.00    -0.191 NA
HETATM    2  C1  UNL     1      -1.898   2.536   1.157  1.00  0.00     0.104 C 
HETATM    3  C2  UNL     1      -2.640   1.345   0.861  1.00  0.00     0.106 A 
HETATM    4  C3  UNL     1      -3.982   1.087   1.004  1.00  0.00     0.133 A 
HETATM    5  N2  UNL     1      -4.184  -0.170   0.589  1.00  0.00    -0.309 N 
ATOM      6  H2  UNL     1      -5.084  -0.651   0.575  1.00  0.00     0.186 HD
HETATM    7  N3  UNL     1      -3.036  -0.687   0.202  1.00  0.00    -0.285 N 
ATOM      8  H3  UNL     1      -2.921  -1.634  -0.158  1.00  0.00     0.188 HD
HETATM    9  C4  UNL     1      -2.038   0.197   0.344  1.00  0.00     0.138 A 
ENDROOT
BRANCH   9  10
HETATM   10  N4  UNL     1      -0.772   0.061   0.073  1.00  0.00    -0.374 N 
ATOM     11  H4  UNL     1      -0.118   0.827   0.233  1.00  0.00     0.161 HD
BRANCH  10  12
HETATM   12  C5  UNL     1      -0.319  -1.193  -0.456  1.00  0.00     0.126 C 
BRANCH  12  13
HETATM   13  C6  UNL     1       0.927  -1.049  -1.300  1.00  0.00     0.058 C 
BRANCH  13  14
HETATM   14  C7  UNL     1       2.063  -0.481  -0.525  1.00  0.00    -0.054 A 
HETATM   15  C8  UNL     1       2.955  -1.278   0.163  1.00  0.00     0.024 A 
HETATM   16  C9  UNL     1       4.008  -0.719   0.880  1.00  0.00     0.088 A 
HETATM   17  N5  UNL     1       4.193   0.614   0.928  1.00  0.00    -0.375 N 
HETATM   18  C10 UNL     1       3.336   1.413   0.265  1.00  0.00     0.088 A 
ATOM     19  H5  UNL     1       4.969   1.011   1.457  1.00  0.00     0.164 HD
HETATM   20  C11 UNL     1       2.279   0.884  -0.456  1.00  0.00     0.024 A 
ENDBRANCH  13  14
ENDBRANCH  12  13
ENDBRANCH  10  12
ENDBRANCH   9  10
TORSDOF 4
