REMARK  14 active torsions:
REMARK  status: ('A' for Active; 'I' for Inactive)
REMARK    1  A    between atoms: C2_2  and  N2_6 
REMARK    2  A    between atoms: C3_7  and  O1_8 
REMARK    3  A    between atoms: C4_10  and  O2_11 
REMARK    4  A    between atoms: C5_13  and  O3_14 
REMARK    5  A    between atoms: N3_16  and  C6_17 
REMARK    6  A    between atoms: C7_18  and  O4_19 
REMARK    7  A    between atoms: C9_23  and  N5_24 
REMARK    8  A    between atoms: N5_24  and  C10_26 
REMARK    9  A    between atoms: C10_26  and  O5_27 
REMARK   10  A    between atoms: C10_26  and  C11_29 
REMARK   11  A    between atoms: C11_29  and  C12_30 
REMARK       I    between atoms: C12_30  and  N6_32 
REMARK   12  A    between atoms: N6_32  and  N7_34 
REMARK   13  A    between atoms: N7_34  and  C13_36 
REMARK   14  A    between atoms: N11_43  and  N12_44 
ROOT
HETATM    1  C6  UNL     1      -1.723  -0.266  -1.037  1.00  0.00     0.183 A 
HETATM    2  C7  UNL     1      -0.696   0.324  -1.745  1.00  0.00     0.141 A 
HETATM    3  C8  UNL     1       0.506  -0.259  -1.312  1.00  0.00     0.129 A 
HETATM    4  N4  UNL     1       1.767   0.079  -1.851  1.00  0.00    -0.095 NA
HETATM    5  C9  UNL     1       0.188  -1.167  -0.369  1.00  0.00     0.154 A 
HETATM    6  N11 UNL     1      -1.173  -1.160  -0.215  1.00  0.00    -0.224 N 
ENDROOT
BRANCH   5   7
HETATM    7  N5  UNL     1       1.062  -1.964   0.405  1.00  0.00    -0.346 N 
ATOM      8  H5  UNL     1       0.645  -2.676   1.004  1.00  0.00     0.163 HD
BRANCH   7   9
HETATM    9  C10 UNL     1       2.497  -1.846   0.411  1.00  0.00     0.228 C 
BRANCH   9  10
HETATM   10  O5  UNL     1       3.066  -2.950   1.105  1.00  0.00    -0.376 OA
ATOM     11  H5  UNL     1       4.013  -2.872   1.109  1.00  0.00     0.212 HD
ENDBRANCH   9  10
BRANCH   9  12
HETATM   12  C11 UNL     1       2.837  -0.655   1.319  1.00  0.00     0.158 C 
BRANCH  12  13
HETATM   13  C12 UNL     1       4.317  -0.436   1.396  1.00  0.00     0.240 C 
HETATM   14  O6  UNL     1       5.039  -1.264   0.783  1.00  0.00    -0.272 OA
HETATM   15  N6  UNL     1       4.850   0.656   2.125  1.00  0.00    -0.256 N 
ATOM     16  H6  UNL     1       4.218   1.299   2.602  1.00  0.00     0.190 HD
BRANCH  15  17
HETATM   17  N7  UNL     1       6.217   0.863   2.199  1.00  0.00    -0.127 N 
ATOM     18  H7  UNL     1       6.641   1.028   3.112  1.00  0.00     0.206 HD
BRANCH  17  19
HETATM   19  C13 UNL     1       7.049   0.853   1.049  1.00  0.00     0.728 A 
HETATM   20  N8  UNL     1       7.757  -0.024   0.303  1.00  0.00    -0.114 N 
HETATM   21  N9  UNL     1       8.173   0.912  -0.513  1.00  0.00    -0.214 N 
ATOM     22  H8  UNL     1       7.909  -1.031   0.356  1.00  0.00     0.207 HD
HETATM   23  N10 UNL     1       7.488   1.796   0.201  1.00  0.00    -0.114 N 
ATOM     24  H9  UNL     1       8.768   0.947  -1.341  1.00  0.00     0.209 HD
ATOM     25  H10 UNL     1       7.349   2.804   0.132  1.00  0.00     0.207 HD
ENDBRANCH  17  19
ENDBRANCH  15  17
ENDBRANCH  12  13
ENDBRANCH   9  12
ENDBRANCH   7   9
ENDBRANCH   5   7
BRANCH   6  26
HETATM   26  N12 UNL     1      -1.864  -1.983   0.675  1.00  0.00    -0.335 N 
ATOM     27 2H12 UNL     1      -2.878  -1.978   0.790  1.00  0.00     0.177 HD
ATOM     28 1H12 UNL     1      -1.443  -2.667   1.304  1.00  0.00     0.177 HD
ENDBRANCH   6  26
BRANCH   2  29
HETATM   29  O4  UNL     1      -0.791   1.318  -2.716  1.00  0.00    -0.355 OA
ATOM     30  H4  UNL     1      -0.084   1.724  -3.203  1.00  0.00     0.218 HD
ENDBRANCH   2  29
BRANCH   1  31
HETATM   31  N3  UNL     1      -3.096   0.073  -1.184  1.00  0.00    -0.234 N 
HETATM   32  N2  UNL     1      -3.965   0.612  -0.203  1.00  0.00    -0.243 N 
HETATM   33  C3  UNL     1      -5.254   0.919  -0.818  1.00  0.00     0.276 C 
HETATM   34  C4  UNL     1      -4.809   1.126  -2.259  1.00  0.00     0.218 C 
HETATM   35  C5  UNL     1      -3.870  -0.069  -2.412  1.00  0.00     0.276 C 
BRANCH  32  36
HETATM   36  C2  UNL     1      -3.697   0.843   1.165  1.00  0.00     0.091 C 
HETATM   37  C1  UNL     1      -4.586   0.207   2.169  1.00  0.00     0.090 C 
HETATM   38  N1  UNL     1      -2.725   1.578   1.603  1.00  0.00    -0.388 N 
ATOM     39  H12 UNL     1      -2.532   1.745   2.591  1.00  0.00     0.157 HD
ATOM     40  H11 UNL     1      -2.114   2.015   0.913  1.00  0.00     0.157 HD
ENDBRANCH  32  36
BRANCH  33  41
HETATM   41  O1  UNL     1      -5.849   2.024  -0.260  1.00  0.00    -0.372 OA
ATOM     42  H1  UNL     1      -6.687   2.224  -0.660  1.00  0.00     0.212 HD
ENDBRANCH  33  41
BRANCH  34  43
HETATM   43  O2  UNL     1      -5.866   1.091  -3.146  1.00  0.00    -0.387 OA
ATOM     44  H2  UNL     1      -5.588   1.220  -4.045  1.00  0.00     0.210 HD
ENDBRANCH  34  43
BRANCH  35  45
HETATM   45  O3  UNL     1      -4.540  -1.273  -2.366  1.00  0.00    -0.372 OA
ATOM     46  H3  UNL     1      -3.956  -2.016  -2.461  1.00  0.00     0.212 HD
ENDBRANCH  35  45
ENDBRANCH   1  31
TORSDOF 14
