REMARK  7 active torsions:
REMARK  status: ('A' for Active; 'I' for Inactive)
REMARK    1  A    between atoms: N1_2  and  C2_4 
REMARK    2  A    between atoms: C4_9  and  N4_10 
REMARK    3  A    between atoms: C5_12  and  C6_13 
REMARK    4  A    between atoms: C6_13  and  N5_14 
REMARK    5  A    between atoms: N5_14  and  C7_16 
REMARK    6  A    between atoms: C7_16  and  C8_17 
REMARK    7  A    between atoms: N7_23  and  N8_24 
ROOT
HETATM    1  N5  UNL     1      -1.252  -1.651   1.234  1.00  0.00    -0.416 N 
ATOM      2  H5  UNL     1      -0.969  -1.363   2.171  1.00  0.00     0.153 HD
ENDROOT
BRANCH   1   3
HETATM    3  C6  UNL     1      -0.332  -1.678   0.162  1.00  0.00     0.158 C 
BRANCH   3   4
HETATM    4  C5  UNL     1       0.970  -1.062   0.525  1.00  0.00     0.081 C 
HETATM    5  N4  UNL     1       1.978  -1.293  -0.211  1.00  0.00    -0.360 N 
ATOM      6  H4  UNL     1       1.852  -1.897  -1.023  1.00  0.00     0.165 HD
BRANCH   5   7
HETATM    7  C4  UNL     1       3.298  -0.747   0.038  1.00  0.00     0.118 A 
HETATM    8  C3  UNL     1       3.782   0.454  -0.427  1.00  0.00     0.152 A 
HETATM    9  N2  UNL     1       5.015   0.773  -0.089  1.00  0.00    -0.323 N 
HETATM   10  N3  UNL     1       2.931   1.303  -1.251  1.00  0.00    -0.080 NA
HETATM   11  C2  UNL     1       5.709  -0.066   0.667  1.00  0.00     0.147 A 
ATOM     12  H2  UNL     1       5.428   1.651  -0.404  1.00  0.00     0.169 HD
HETATM   13  S1  UNL     1       4.620  -1.351   0.927  1.00  0.00    -0.033 SA
BRANCH  11  14
HETATM   14  N1  UNL     1       6.943   0.079   1.107  1.00  0.00    -0.375 N 
HETATM   15  C1  UNL     1       7.644   1.286   0.735  1.00  0.00     0.148 C 
ATOM     16  H1  UNL     1       7.386  -0.633   1.688  1.00  0.00     0.161 HD
ENDBRANCH  11  14
ENDBRANCH   5   7
ENDBRANCH   3   4
ENDBRANCH   1   3
BRANCH   1  17
HETATM   17  C7  UNL     1      -2.591  -2.043   0.949  1.00  0.00     0.138 C 
BRANCH  17  18
HETATM   18  C8  UNL     1      -3.308  -1.053   0.083  1.00  0.00     0.189 C 
HETATM   19  C9  UNL     1      -4.723  -1.455  -0.247  1.00  0.00     0.233 C 
HETATM   20  O1  UNL     1      -5.258  -2.516   0.126  1.00  0.00    -0.273 OA
HETATM   21  N6  UNL     1      -5.400  -0.462  -1.056  1.00  0.00    -0.342 N 
HETATM   22  C10 UNL     1      -4.969   0.910  -1.006  1.00  0.00     0.276 C 
ATOM     23  H6  UNL     1      -6.178  -0.734  -1.658  1.00  0.00     0.164 HD
HETATM   24  N7  UNL     1      -4.261   1.216   0.225  1.00  0.00    -0.249 N 
HETATM   25  C11 UNL     1      -3.497   0.216   0.888  1.00  0.00     0.254 C 
HETATM   26  O2  UNL     1      -3.019   0.357   2.032  1.00  0.00    -0.271 OA
BRANCH  24  27
HETATM   27  N8  UNL     1      -4.332   2.479   0.754  1.00  0.00    -0.339 N 
ATOM     28  H82 UNL     1      -4.880   3.196   0.279  1.00  0.00     0.177 HD
ATOM     29  H81 UNL     1      -3.835   2.694   1.618  1.00  0.00     0.177 HD
ENDBRANCH  24  27
ENDBRANCH  17  18
ENDBRANCH   1  17
TORSDOF 7
