REMARK  10 active torsions:
REMARK  status: ('A' for Active; 'I' for Inactive)
REMARK    1  A    between atoms: N1_1  and  C1_4 
REMARK    2  A    between atoms: N3_9  and  C3_10 
REMARK    3  A    between atoms: C4_11  and  O2_12 
REMARK    4  A    between atoms: C5_14  and  N4_15 
REMARK    5  A    between atoms: C7_17  and  C8_18 
REMARK       I    between atoms: C8_18  and  N5_20 
REMARK       I    between atoms: N5_20  and  C9_22 
REMARK    6  A    between atoms: N7_24  and  C10_26 
REMARK    7  A    between atoms: C10_26  and  C11_27 
REMARK    8  A    between atoms: C11_27  and  N8_28 
REMARK    9  A    between atoms: C14_40  and  O5_41 
REMARK   10  A    between atoms: C14_40  and  C15_43 
ROOT
HETATM    1  N4  UNL     1      -1.552  -1.772  -0.457  1.00  0.00    -0.255 N 
HETATM    2  C6  UNL     1      -0.769  -1.814   0.626  1.00  0.00     0.151 A 
HETATM    3  C7  UNL     1       0.507  -1.528   0.212  1.00  0.00     0.134 A 
HETATM    4  N11 UNL     1       0.459  -1.320  -1.110  1.00  0.00    -0.280 N 
ATOM      5  H11 UNL     1       1.247  -1.086  -1.713  1.00  0.00     0.189 HD
HETATM    6  N12 UNL     1      -0.797  -1.474  -1.489  1.00  0.00    -0.238 N 
ATOM      7  H12 UNL     1      -1.133  -1.375  -2.447  1.00  0.00     0.208 HD
ENDROOT
BRANCH   1   8
HETATM    8  C5  UNL     1      -2.959  -2.010  -0.488  1.00  0.00     0.280 C 
HETATM    9  C4  UNL     1      -3.642  -1.077  -1.459  1.00  0.00     0.199 C 
HETATM   10  C3  UNL     1      -4.569  -0.309  -0.577  1.00  0.00     0.220 C 
HETATM   11  C14 UNL     1      -4.067  -0.539   0.797  1.00  0.00     0.281 C 
HETATM   12  O4  UNL     1      -3.557  -1.858   0.734  1.00  0.00    -0.315 OA
BRANCH   9  13
HETATM   13  O2  UNL     1      -4.349  -1.887  -2.373  1.00  0.00    -0.389 OA
ATOM     14  H2  UNL     1      -3.759  -2.376  -2.934  1.00  0.00     0.210 HD
ENDBRANCH   9  13
BRANCH  10  15
HETATM   15  N3  UNL     1      -4.739   1.073  -0.956  1.00  0.00    -0.214 N 
HETATM   16  C2  UNL     1      -4.949   1.455  -2.218  1.00  0.00     0.356 A 
HETATM   17  N2  UNL     1      -5.066   2.794  -2.247  1.00  0.00    -0.139 N 
HETATM   18  O1  UNL     1      -5.039   0.768  -3.272  1.00  0.00    -0.244 OA
HETATM   19  C1  UNL     1      -4.924   3.212  -0.984  1.00  0.00     0.694 A 
ATOM     20  H2  UNL     1      -5.230   3.376  -3.069  1.00  0.00     0.189 HD
HETATM   21  N13 UNL     1      -4.723   2.152  -0.198  1.00  0.00    -0.125 N 
ATOM     22  H13 UNL     1      -4.582   2.173   0.812  1.00  0.00     0.206 HD
BRANCH  19  23
HETATM   23  N1  UNL     1      -4.968   4.449  -0.555  1.00  0.00    -0.233 N 
ATOM     24  H12 UNL     1      -5.122   5.259  -1.156  1.00  0.00     0.174 HD
ATOM     25  H11 UNL     1      -4.860   4.768   0.408  1.00  0.00     0.174 HD
ENDBRANCH  19  23
ENDBRANCH  10  15
BRANCH  11  26
HETATM   26  O5  UNL     1      -3.011   0.255   1.184  1.00  0.00    -0.355 OA
ATOM     27  H5  UNL     1      -2.689   0.107   2.065  1.00  0.00     0.213 HD
ENDBRANCH  11  26
BRANCH  11  28
HETATM   28  C15 UNL     1      -5.172  -0.560   1.765  1.00  0.00     0.241 C 
HETATM   29  O6  UNL     1      -6.222  -1.221   1.581  1.00  0.00    -0.644 OA
HETATM   30  O7  UNL     1      -5.057   0.178   2.932  1.00  0.00    -0.644 OA
ENDBRANCH  11  28
ENDBRANCH   1   8
BRANCH   3  31
HETATM   31  C8  UNL     1       1.658  -1.475   1.100  1.00  0.00     0.277 C 
HETATM   32  O3  UNL     1       1.565  -1.689   2.337  1.00  0.00    -0.266 OA
HETATM   33  N5  UNL     1       2.929  -1.171   0.543  1.00  0.00    -0.296 N 
HETATM   34  C9  UNL     1       4.102  -1.101   1.341  1.00  0.00     0.191 C 
ATOM     35  H5  UNL     1       3.001  -0.998  -0.460  1.00  0.00     0.171 HD
HETATM   36  N6  UNL     1       4.039  -1.333   2.734  1.00  0.00    -0.063 NA
HETATM   37  N7  UNL     1       5.234  -0.824   0.803  1.00  0.00    -0.363 N 
ATOM     38  H7  UNL     1       6.074  -0.774   1.379  1.00  0.00     0.162 HD
BRANCH  37  39
HETATM   39  C10 UNL     1       5.318  -0.582  -0.625  1.00  0.00     0.144 C 
BRANCH  39  40
HETATM   40  C11 UNL     1       6.732  -0.232  -1.040  1.00  0.00     0.169 C 
BRANCH  40  41
HETATM   41  N8  UNL     1       7.123   0.952  -0.335  1.00  0.00    -0.285 N 
HETATM   42  C12 UNL     1       7.722   1.024   0.851  1.00  0.00     0.201 A 
HETATM   43  N9  UNL     1       7.912   2.319   1.150  1.00  0.00    -0.346 N 
HETATM   44  C13 UNL     1       7.429   3.039   0.144  1.00  0.00     0.198 A 
ATOM     45  H9  UNL     1       8.348   2.684   1.997  1.00  0.00     0.167 HD
HETATM   46  N10 UNL     1       6.944   2.184  -0.767  1.00  0.00    -0.293 N 
ATOM     47  H10 UNL     1       6.507   2.445  -1.651  1.00  0.00     0.188 HD
ENDBRANCH  40  41
ENDBRANCH  39  40
ENDBRANCH  37  39
ENDBRANCH   3  31
TORSDOF 10
