REMARK  15 active torsions:
REMARK  status: ('A' for Active; 'I' for Inactive)
REMARK    1  A    between atoms: C2_2  and  C4_4 
REMARK    2  A    between atoms: C4_4  and  C5_5 
REMARK    3  A    between atoms: C5_5  and  C6_6 
REMARK    4  A    between atoms: C6_6  and  N1_7 
REMARK    5  A    between atoms: C6_6  and  C19_30 
REMARK       I    between atoms: N1_7  and  C7_9 
REMARK    6  A    between atoms: C7_9  and  C8_11 
REMARK    7  A    between atoms: C11_17  and  C12_18 
REMARK       I    between atoms: C12_18  and  N3_20 
REMARK    8  A    between atoms: N3_20  and  C13_22 
REMARK    9  A    between atoms: C13_22  and  C14_23 
REMARK   10  A    between atoms: C13_22  and  C15_26 
REMARK   11  A    between atoms: C14_23  and  O3_24 
REMARK   12  A    between atoms: C15_26  and  C16_27 
REMARK   13  A    between atoms: C19_30  and  O4_31 
REMARK   14  A    between atoms: C19_30  and  C20_33 
REMARK   15  A    between atoms: C20_33  and  N4_34 
ROOT
HETATM    1  N1  UNL     1      -0.632  -0.401  -1.132  1.00  0.00    -0.354 N 
ATOM      2  H1  UNL     1      -0.812  -0.924  -1.989  1.00  0.00     0.163 HD
HETATM    3  C7  UNL     1       0.490  -0.712  -0.353  1.00  0.00     0.224 C 
HETATM    4  O1  UNL     1       0.689  -0.055   0.691  1.00  0.00    -0.273 OA
ENDROOT
BRANCH   3   5
HETATM    5  C8  UNL     1       1.408  -1.772  -0.734  1.00  0.00     0.118 C 
HETATM    6  C9  UNL     1       2.009  -1.650  -2.112  1.00  0.00     0.247 C 
HETATM    7  N2  UNL     1       2.928  -2.800  -2.092  1.00  0.00    -0.073 N 
HETATM    8  C10 UNL     1       3.443  -2.909  -0.754  1.00  0.00     0.247 C 
ATOM      9  H22 UNL     1       2.497  -3.662  -2.426  1.00  0.00     0.277 HD
ATOM     10  H21 UNL     1       3.661  -2.738  -2.799  1.00  0.00     0.277 HD
HETATM   11  C11 UNL     1       2.608  -1.956   0.126  1.00  0.00     0.118 C 
BRANCH  11  12
HETATM   12  C12 UNL     1       3.455  -0.794   0.355  1.00  0.00     0.224 C 
HETATM   13  O2  UNL     1       3.326   0.282  -0.244  1.00  0.00    -0.273 OA
HETATM   14  N3  UNL     1       4.495  -0.893   1.320  1.00  0.00    -0.354 N 
ATOM     15  H3  UNL     1       4.616  -1.772   1.824  1.00  0.00     0.162 HD
BRANCH  14  16
HETATM   16  C13 UNL     1       5.390   0.209   1.614  1.00  0.00     0.108 C 
BRANCH  16  17
HETATM   17  C14 UNL     1       5.046   0.664   3.034  1.00  0.00     0.189 C 
BRANCH  17  18
HETATM   18  O3  UNL     1       5.860   1.719   3.392  1.00  0.00    -0.399 OA
ATOM     19  H3  UNL     1       5.646   2.001   4.274  1.00  0.00     0.209 HD
ENDBRANCH  17  18
ENDBRANCH  16  17
BRANCH  16  20
HETATM   20  C15 UNL     1       6.839  -0.194   1.655  1.00  0.00     0.031 C 
BRANCH  20  21
HETATM   21  C16 UNL     1       7.364  -0.779   0.386  1.00  0.00    -0.021 C 
HETATM   22  C17 UNL     1       7.277   0.148  -0.798  1.00  0.00     0.009 C 
HETATM   23  C18 UNL     1       8.835  -1.120   0.617  1.00  0.00     0.009 C 
ENDBRANCH  20  21
ENDBRANCH  16  20
ENDBRANCH  14  16
ENDBRANCH  11  12
ENDBRANCH   3   5
BRANCH   1  24
HETATM   24  C6  UNL     1      -1.585   0.709  -0.714  1.00  0.00     0.114 C 
BRANCH  24  25
HETATM   25  C5  UNL     1      -1.629   1.605  -1.879  1.00  0.00     0.028 C 
BRANCH  25  26
HETATM   26  C4  UNL     1      -2.330   2.876  -1.949  1.00  0.00     0.006 C 
BRANCH  26  27
HETATM   27  C2  UNL     1      -1.900   4.028  -1.127  1.00  0.00    -0.023 C 
HETATM   28  C1  UNL     1      -1.906   3.882   0.350  1.00  0.00     0.009 C 
HETATM   29  C3  UNL     1      -2.872   5.193  -1.453  1.00  0.00     0.009 C 
ENDBRANCH  26  27
ENDBRANCH  25  26
ENDBRANCH  24  25
BRANCH  24  30
HETATM   30  C19 UNL     1      -2.916  -0.037  -0.567  1.00  0.00     0.169 C 
BRANCH  30  31
HETATM   31  O4  UNL     1      -3.275  -0.510  -1.804  1.00  0.00    -0.392 OA
ATOM     32  H4  UNL     1      -4.100  -0.972  -1.713  1.00  0.00     0.210 HD
ENDBRANCH  30  31
BRANCH  30  33
HETATM   33  C20 UNL     1      -3.963   0.670   0.136  1.00  0.00     0.306 C 
BRANCH  33  34
HETATM   34  N4  UNL     1      -5.149  -0.129   0.408  1.00  0.00     0.091 N 
HETATM   35  C21 UNL     1      -5.887  -0.478  -0.762  1.00  0.00     0.272 C 
HETATM   36  C22 UNL     1      -7.323  -0.757  -0.319  1.00  0.00     0.030 C 
HETATM   37  C23 UNL     1      -7.373  -2.215   0.072  1.00  0.00     0.002 C 
HETATM   38  C24 UNL     1      -7.049  -2.472   1.505  1.00  0.00     0.002 C 
HETATM   39  C25 UNL     1      -6.093  -1.496   2.115  1.00  0.00     0.030 C 
HETATM   40  C26 UNL     1      -4.863  -1.251   1.273  1.00  0.00     0.272 C 
ENDBRANCH  33  34
ENDBRANCH  30  33
ENDBRANCH  24  30
ENDBRANCH   1  24
TORSDOF 15
