REMARK  7 active torsions:
REMARK  status: ('A' for Active; 'I' for Inactive)
REMARK    1  A    between atoms: N1_1  and  C1_4 
REMARK    2  A    between atoms: C4_7  and  C5_8 
REMARK    3  A    between atoms: C8_11  and  C9_12 
REMARK    4  A    between atoms: C9_12  and  C10_13 
REMARK    5  A    between atoms: C12_19  and  N4_20 
REMARK    6  A    between atoms: N4_20  and  S1_22 
REMARK    7  A    between atoms: S1_22  and  C13_25 
ROOT
HETATM    1  C10 UNL     1      -0.219  -3.621   0.828  1.00  0.00     0.058 A 
HETATM    2  N2  UNL     1      -0.543  -4.405  -0.231  1.00  0.00    -0.303 N 
ATOM      3  H2  UNL     1       0.098  -5.051  -0.690  1.00  0.00     0.186 HD
HETATM    4  N3  UNL     1      -1.793  -4.219  -0.584  1.00  0.00    -0.309 N 
ATOM      5  H3  UNL     1      -2.278  -4.686  -1.350  1.00  0.00     0.186 HD
HETATM    6  C11 UNL     1      -2.319  -3.302   0.245  1.00  0.00     0.139 A 
HETATM    7  C12 UNL     1      -1.335  -2.904   1.156  1.00  0.00     0.083 A 
ENDROOT
BRANCH   1   8
HETATM    8  C9  UNL     1       1.114  -3.548   1.493  1.00  0.00     0.099 C 
BRANCH   8   9
HETATM    9  C8  UNL     1       1.804  -2.343   1.000  1.00  0.00    -0.052 A 
HETATM   10  C7  UNL     1       1.833  -1.122   1.626  1.00  0.00     0.008 A 
HETATM   11  C6  UNL     1       2.502  -0.036   1.084  1.00  0.00     0.013 A 
HETATM   12  C5  UNL     1       3.176  -0.127  -0.115  1.00  0.00    -0.025 A 
HETATM   13  C23 UNL     1       3.147  -1.359  -0.745  1.00  0.00     0.013 A 
HETATM   14  C22 UNL     1       2.484  -2.444  -0.214  1.00  0.00     0.008 A 
BRANCH  12  15
HETATM   15  C4  UNL     1       3.872   1.018  -0.691  1.00  0.00    -0.010 A 
HETATM   16  C3  UNL     1       5.007   0.892  -1.462  1.00  0.00     0.017 A 
HETATM   17  C2  UNL     1       5.622   2.006  -1.991  1.00  0.00     0.049 A 
HETATM   18  C1  UNL     1       5.115   3.268  -1.760  1.00  0.00     0.098 A 
HETATM   19  N6  UNL     1       4.007   3.395  -1.008  1.00  0.00    -0.352 N 
HETATM   20  C24 UNL     1       3.413   2.304  -0.495  1.00  0.00     0.102 A 
ATOM     21  H6  UNL     1       3.617   4.320  -0.827  1.00  0.00     0.166 HD
BRANCH  18  22
HETATM   22  N1  UNL     1       5.661   4.334  -2.239  1.00  0.00    -0.385 N 
ATOM     23  H12 UNL     1       6.501   4.238  -2.809  1.00  0.00     0.157 HD
ATOM     24  H11 UNL     1       5.286   5.267  -2.068  1.00  0.00     0.157 HD
ENDBRANCH  18  22
ENDBRANCH  12  15
ENDBRANCH   8   9
ENDBRANCH   1   8
BRANCH   7  25
HETATM   25  N4  UNL     1      -1.525  -1.968   2.203  1.00  0.00    -0.277 N 
ATOM     26  H4  UNL     1      -0.863  -1.920   2.977  1.00  0.00     0.179 HD
BRANCH  25  27
HETATM   27  S1  UNL     1      -2.881  -0.916   2.155  1.00  0.00     0.265 S 
HETATM   28  O1  UNL     1      -4.178  -1.687   2.136  1.00  0.00    -0.200 OA
HETATM   29  O2  UNL     1      -2.863   0.015   3.359  1.00  0.00    -0.200 OA
BRANCH  27  30
HETATM   30  C13 UNL     1      -2.772   0.103   0.736  1.00  0.00     0.107 A 
HETATM   31  C14 UNL     1      -1.705   0.103  -0.132  1.00  0.00     0.028 A 
HETATM   32  C15 UNL     1      -1.700   0.958  -1.218  1.00  0.00     0.003 A 
HETATM   33  C16 UNL     1      -2.720   1.830  -1.492  1.00  0.00     0.014 A 
HETATM   34  C17 UNL     1      -3.801   1.844  -0.629  1.00  0.00    -0.008 A 
HETATM   35  C18 UNL     1      -4.861   2.714  -0.866  1.00  0.00     0.015 A 
HETATM   36  C21 UNL     1      -3.820   0.999   0.457  1.00  0.00     0.066 A 
HETATM   37  C19 UNL     1      -5.907   2.686   0.022  1.00  0.00     0.018 A 
HETATM   38  C20 UNL     1      -5.885   1.824   1.094  1.00  0.00     0.088 A 
HETATM   39  N5  UNL     1      -4.858   0.986   1.318  1.00  0.00    -0.364 N 
ATOM     40  H5  UNL     1      -4.864   0.356   2.120  1.00  0.00     0.165 HD
ENDBRANCH  27  30
ENDBRANCH  25  27
ENDBRANCH   7  25
TORSDOF 7
