REMARK  8 active torsions:
REMARK  status: ('A' for Active; 'I' for Inactive)
REMARK    1  A    between atoms: C2_2  and  N1_3 
REMARK    2  A    between atoms: C2_2  and  C3_7 
REMARK    3  A    between atoms: C3_7  and  N4_13 
REMARK    4  A    between atoms: N2_8  and  N3_10 
REMARK    5  A    between atoms: N4_13  and  N5_14 
REMARK    6  A    between atoms: N4_13  and  N6_17 
REMARK       I    between atoms: N6_17  and  C4_19 
REMARK    7  A    between atoms: C4_19  and  C5_21 
REMARK    8  A    between atoms: C7_26  and  N8_28 
ROOT
HETATM    1  N6  UNL     1      -0.602   0.280  -0.442  1.00  0.00    -0.244 N 
ATOM      2  H6  UNL     1      -0.422   0.199  -1.443  1.00  0.00     0.192 HD
HETATM    3  C4  UNL     1       0.364  -0.127   0.491  1.00  0.00     0.296 C 
HETATM    4  O1  UNL     1       0.132  -0.024   1.719  1.00  0.00    -0.267 OA
ENDROOT
BRANCH   1   5
HETATM    5  N4  UNL     1      -1.812   0.797   0.020  1.00  0.00    -0.184 N 
BRANCH   5   6
HETATM    6  C3  UNL     1      -3.058   0.239  -0.356  1.00  0.00     0.166 C 
HETATM    7  N2  UNL     1      -3.698   0.772  -1.333  1.00  0.00    -0.291 N 
ATOM      8  H2  UNL     1      -4.600   0.385  -1.612  1.00  0.00     0.188 HD
BRANCH   6   9
HETATM    9  C2  UNL     1      -3.606  -0.915   0.359  1.00  0.00     0.251 C 
HETATM   10  C1  UNL     1      -4.938  -1.370  -0.202  1.00  0.00     0.048 C 
BRANCH   9  11
HETATM   11  N1  UNL     1      -3.754  -0.708   1.786  1.00  0.00    -0.068 N 
ATOM     12  H13 UNL     1      -4.514  -0.066   2.012  1.00  0.00     0.275 HD
ATOM     13  H12 UNL     1      -4.120  -1.531   2.265  1.00  0.00     0.275 HD
ATOM     14  H11 UNL     1      -2.857  -0.402   2.164  1.00  0.00     0.275 HD
ENDBRANCH   9  11
ENDBRANCH   6   9
BRANCH   7  15
HETATM   15  N3  UNL     1      -3.184   1.867  -2.017  1.00  0.00    -0.344 N 
ATOM     16  H32 UNL     1      -2.281   2.242  -1.725  1.00  0.00     0.176 HD
ATOM     17  H31 UNL     1      -3.692   2.290  -2.793  1.00  0.00     0.176 HD
ENDBRANCH   7  15
ENDBRANCH   5   6
BRANCH   5  18
HETATM   18  N5  UNL     1      -1.732   1.901   0.880  1.00  0.00    -0.322 N 
ATOM     19  H52 UNL     1      -2.617   2.279   1.218  1.00  0.00     0.179 HD
ATOM     20  H51 UNL     1      -0.835   2.303   1.151  1.00  0.00     0.179 HD
ENDBRANCH   5  18
ENDBRANCH   1   5
BRANCH   3  21
HETATM   21  C5  UNL     1       1.687  -0.690   0.114  1.00  0.00     0.477 C 
HETATM   22  N7  UNL     1       2.484  -1.020   1.278  1.00  0.00    -0.033 N 
HETATM   23  C6  UNL     1       3.795  -1.235   0.696  1.00  0.00     0.304 C 
ATOM     24  H72 UNL     1       2.453  -0.333   2.031  1.00  0.00     0.280 HD
ATOM     25  H71 UNL     1       2.129  -1.794   1.839  1.00  0.00     0.280 HD
HETATM   26  C7  UNL     1       3.869  -0.042  -0.260  1.00  0.00     0.307 C 
HETATM   27  C8  UNL     1       4.728  -0.453  -1.410  1.00  0.00     0.080 C 
HETATM   28  N9  UNL     1       2.504   0.235  -0.601  1.00  0.00    -0.001 N 
ATOM     29  H92 UNL     1       2.335   0.220  -1.607  1.00  0.00     0.283 HD
ATOM     30  H91 UNL     1       2.242   1.207  -0.436  1.00  0.00     0.283 HD
BRANCH  26  31
HETATM   31  N8  UNL     1       4.515   1.028   0.464  1.00  0.00    -0.043 N 
ATOM     32  H83 UNL     1       4.059   1.249   1.349  1.00  0.00     0.277 HD
ATOM     33  H82 UNL     1       5.421   0.764   0.850  1.00  0.00     0.277 HD
ATOM     34  H81 UNL     1       4.564   1.823  -0.173  1.00  0.00     0.277 HD
ENDBRANCH  26  31
ENDBRANCH   3  21
TORSDOF 8
