REMARK  8 active torsions:
REMARK  status: ('A' for Active; 'I' for Inactive)
REMARK    1  A    between atoms: C2_2  and  C3_3 
REMARK    2  A    between atoms: C4_4  and  C5_5 
REMARK    3  A    between atoms: C5_5  and  C6_6 
REMARK    4  A    between atoms: C8_11  and  C9_12 
REMARK    5  A    between atoms: C13_19  and  C14_20 
REMARK    6  A    between atoms: C14_20  and  C15_21 
REMARK    7  A    between atoms: C19_28  and  C20_29 
REMARK    8  A    between atoms: C20_29  and  C21_30 
ROOT
HETATM    1  C6  UNL     1       2.627   1.479  -1.132  1.00  0.00     0.160 C 
HETATM    2  C7  UNL     1       2.823   0.310  -2.013  1.00  0.00     0.230 C 
HETATM    3  O1  UNL     1       2.623   0.598  -3.253  1.00  0.00    -0.273 OA
HETATM    4  N1  UNL     1       3.176  -0.993  -1.698  1.00  0.00    -0.347 N 
ATOM      5  H1  UNL     1       4.009  -1.346  -2.170  1.00  0.00     0.163 HD
HETATM    6  C8  UNL     1       2.534  -1.925  -0.797  1.00  0.00     0.180 C 
HETATM    7  C12 UNL     1       1.324  -2.542  -1.343  1.00  0.00     0.241 C 
HETATM    8  O2  UNL     1       1.527  -3.536  -2.130  1.00  0.00    -0.271 OA
HETATM    9  N2  UNL     1      -0.013  -2.202  -1.128  1.00  0.00    -0.346 N 
ATOM     10  H2  UNL     1      -0.642  -2.339  -1.919  1.00  0.00     0.163 HD
HETATM   11  C13 UNL     1      -0.615  -1.680   0.078  1.00  0.00     0.177 C 
HETATM   12  C18 UNL     1      -1.831  -0.882  -0.243  1.00  0.00     0.241 C 
HETATM   13  O3  UNL     1      -2.220  -1.026  -1.470  1.00  0.00    -0.271 OA
HETATM   14  N3  UNL     1      -2.579  -0.037   0.559  1.00  0.00    -0.347 N 
ATOM     15  H3  UNL     1      -3.530  -0.366   0.727  1.00  0.00     0.163 HD
HETATM   16  C19 UNL     1      -2.279   1.209   1.199  1.00  0.00     0.161 C 
HETATM   17  C27 UNL     1      -0.926   1.246   1.804  1.00  0.00     0.200 C 
HETATM   18  O4  UNL     1      -0.696   0.488   2.731  1.00  0.00    -0.288 OA
HETATM   19  C28 UNL     1       0.179   2.154   1.359  1.00  0.00     0.236 C 
HETATM   20  N4  UNL     1       0.718   1.886   0.153  1.00  0.00    -0.403 NA
HETATM   21  C29 UNL     1       1.139   1.652  -0.921  1.00  0.00     0.178 C 
HETATM   22  N5  UNL     1       0.417   1.496  -2.154  1.00  0.00    -0.071 NA
ENDROOT
BRANCH  16  23
HETATM   23  C20 UNL     1      -2.589   2.428   0.398  1.00  0.00     0.038 C 
BRANCH  23  24
HETATM   24  C21 UNL     1      -3.975   2.679  -0.024  1.00  0.00    -0.012 C 
HETATM   25  C22 UNL     1      -4.997   2.810   1.078  1.00  0.00     0.005 C 
HETATM   26  C23 UNL     1      -6.223   3.459   0.424  1.00  0.00     0.000 C 
HETATM   27  C24 UNL     1      -6.731   2.697  -0.753  1.00  0.00     0.000 C 
HETATM   28  C25 UNL     1      -5.635   2.507  -1.805  1.00  0.00     0.000 C 
HETATM   29  C26 UNL     1      -4.531   1.738  -1.058  1.00  0.00     0.005 C 
ENDBRANCH  23  24
ENDBRANCH  16  23
BRANCH  11  30
HETATM   30  C14 UNL     1      -0.911  -2.741   1.110  1.00  0.00     0.038 C 
BRANCH  30  31
HETATM   31  C15 UNL     1      -1.843  -3.815   0.724  1.00  0.00    -0.020 C 
HETATM   32  C16 UNL     1      -1.963  -4.733   1.962  1.00  0.00     0.009 C 
HETATM   33  C17 UNL     1      -1.422  -4.726  -0.377  1.00  0.00     0.009 C 
ENDBRANCH  30  31
ENDBRANCH  11  30
BRANCH   1  34
HETATM   34  C5  UNL     1       3.401   1.458   0.145  1.00  0.00     0.049 C 
BRANCH  34  35
HETATM   35  C4  UNL     1       4.829   1.399  -0.204  1.00  0.00    -0.029 C 
HETATM   36  C3  UNL     1       5.675   2.322   0.161  1.00  0.00    -0.031 C 
BRANCH  36  37
HETATM   37  C2  UNL     1       5.432   3.550   0.947  1.00  0.00     0.022 C 
HETATM   38  C1  UNL     1       6.302   3.442   2.188  1.00  0.00     0.009 C 
ENDBRANCH  36  37
ENDBRANCH  34  35
ENDBRANCH   1  34
BRANCH   6  39
HETATM   39  C9  UNL     1       3.499  -3.025  -0.414  1.00  0.00     0.009 C 
HETATM   40  C10 UNL     1       2.915  -4.034   0.518  1.00  0.00     0.012 C 
HETATM   41  C11 UNL     1       4.121  -3.749  -1.558  1.00  0.00     0.012 C 
ENDBRANCH   6  39
TORSDOF 8
