REMARK  9 active torsions:
REMARK  status: ('A' for Active; 'I' for Inactive)
REMARK    1  A    between atoms: C2_2  and  C4_4 
REMARK    2  A    between atoms: C4_4  and  C5_5 
REMARK    3  A    between atoms: C7_7  and  N1_8 
REMARK    4  A    between atoms: C7_7  and  C27_36 
REMARK       I    between atoms: N1_8  and  C8_10 
REMARK    5  A    between atoms: C8_10  and  C9_12 
REMARK    6  A    between atoms: C9_12  and  N2_13 
REMARK       I    between atoms: N2_13  and  C10_15 
REMARK    7  A    between atoms: C10_15  and  C11_17 
REMARK       I    between atoms: C27_36  and  N4_38 
REMARK    8  A    between atoms: N4_38  and  S1_40 
REMARK    9  A    between atoms: S1_40  and  C28_43 
ROOT
HETATM    1  C9  UNL     1      -0.502  -0.195   0.310  1.00  0.00     0.114 C 
HETATM    2  C16 UNL     1      -1.143   0.610  -0.725  1.00  0.00     0.041 C 
HETATM    3  C17 UNL     1      -2.111   0.073  -1.687  1.00  0.00     0.003 C 
HETATM    4  C18 UNL     1      -3.310   0.990  -1.922  1.00  0.00     0.000 C 
HETATM    5  C19 UNL     1      -2.895   2.445  -1.890  1.00  0.00     0.000 C 
HETATM    6  C20 UNL     1      -3.635   3.218  -0.828  1.00  0.00     0.000 C 
HETATM    7  C21 UNL     1      -2.867   4.317  -0.175  1.00  0.00     0.000 C 
HETATM    8  C22 UNL     1      -2.752   4.100   1.341  1.00  0.00     0.000 C 
HETATM    9  C23 UNL     1      -1.350   3.798   1.782  1.00  0.00     0.000 C 
HETATM   10  C24 UNL     1      -1.250   2.642   2.755  1.00  0.00     0.000 C 
HETATM   11  C25 UNL     1      -1.543   1.297   2.105  1.00  0.00     0.003 C 
HETATM   12  C26 UNL     1      -0.334   0.631   1.572  1.00  0.00     0.041 C 
ENDROOT
BRANCH   1  13
HETATM   13  C8  UNL     1       0.916  -0.432  -0.134  1.00  0.00     0.247 C 
HETATM   14  N1  UNL     1       1.783   0.612  -0.494  1.00  0.00    -0.340 N 
ATOM     15  H1  UNL     1       1.427   1.566  -0.434  1.00  0.00     0.163 HD
HETATM   16  O1  UNL     1       1.322  -1.599  -0.179  1.00  0.00    -0.271 OA
BRANCH  14  17
HETATM   17  C7  UNL     1       3.144   0.431  -0.943  1.00  0.00     0.119 A 
HETATM   18  C5  UNL     1       3.412  -0.332  -2.191  1.00  0.00     0.026 A 
HETATM   19  C6  UNL     1       3.668   1.151  -2.133  1.00  0.00     0.049 A 
BRANCH  18  20
HETATM   20  C4  UNL     1       2.395  -0.861  -3.109  1.00  0.00     0.011 C 
BRANCH  20  21
HETATM   21  C2  UNL     1       2.644  -0.623  -4.560  1.00  0.00    -0.022 C 
HETATM   22  C1  UNL     1       1.489  -1.272  -5.357  1.00  0.00     0.009 C 
HETATM   23  C3  UNL     1       2.639   0.817  -5.000  1.00  0.00     0.009 C 
ENDBRANCH  20  21
ENDBRANCH  18  20
BRANCH  17  24
HETATM   24  C27 UNL     1       4.114   0.164   0.136  1.00  0.00     0.259 C 
HETATM   25  O3  UNL     1       5.330   0.027  -0.200  1.00  0.00    -0.270 OA
HETATM   26  N4  UNL     1       3.827   0.042   1.509  1.00  0.00    -0.252 N 
ATOM     27  H4  UNL     1       2.859   0.155   1.808  1.00  0.00     0.181 HD
BRANCH  26  28
HETATM   28  S1  UNL     1       5.002  -0.284   2.702  1.00  0.00     0.237 S 
HETATM   29  O4  UNL     1       4.888  -1.679   3.243  1.00  0.00    -0.205 OA
HETATM   30  O5  UNL     1       6.363  -0.193   2.025  1.00  0.00    -0.205 OA
BRANCH  28  31
HETATM   31  C28 UNL     1       5.016   0.845   4.048  1.00  0.00     0.130 A 
HETATM   32  C29 UNL     1       3.856   1.660   4.429  1.00  0.00     0.023 A 
HETATM   33  C30 UNL     1       4.929   2.345   3.678  1.00  0.00     0.023 A 
ENDBRANCH  28  31
ENDBRANCH  26  28
ENDBRANCH  17  24
ENDBRANCH  14  17
ENDBRANCH   1  13
BRANCH   1  34
HETATM   34  N2  UNL     1      -1.034  -1.437   0.705  1.00  0.00    -0.341 N 
HETATM   35  C10 UNL     1      -2.262  -1.897   1.119  1.00  0.00     0.249 C 
HETATM   36  O2  UNL     1      -3.263  -1.177   1.220  1.00  0.00    -0.271 OA
ATOM     37  H2  UNL     1      -0.336  -2.180   0.677  1.00  0.00     0.163 HD
BRANCH  35  38
HETATM   38  C11 UNL     1      -2.436  -3.343   1.477  1.00  0.00     0.277 C 
HETATM   39  C12 UNL     1      -2.002  -4.261   0.356  1.00  0.00     0.043 C 
HETATM   40  C13 UNL     1      -1.946  -5.662   0.958  1.00  0.00     0.004 C 
HETATM   41  C14 UNL     1      -3.298  -5.995   1.578  1.00  0.00     0.027 C 
HETATM   42  C15 UNL     1      -4.268  -4.848   1.320  1.00  0.00     0.233 C 
HETATM   43  N3  UNL     1      -3.761  -3.648   1.874  1.00  0.00    -0.062 N 
ATOM     44  H32 UNL     1      -3.835  -3.665   2.891  1.00  0.00     0.278 HD
ATOM     45  H31 UNL     1      -4.385  -2.868   1.668  1.00  0.00     0.278 HD
ENDBRANCH  35  38
ENDBRANCH   1  34
TORSDOF 9
