REMARK  6 active torsions:
REMARK  status: ('A' for Active; 'I' for Inactive)
REMARK    1  A    between atoms: O1_2  and  C2_3 
REMARK    2  A    between atoms: C4_5  and  O2_6 
REMARK    3  A    between atoms: C7_9  and  C8_10 
REMARK       I    between atoms: C8_10  and  N1_12 
REMARK    4  A    between atoms: N1_12  and  C9_14 
REMARK       I    between atoms: N2_20  and  C15_21 
REMARK    5  A    between atoms: C15_21  and  C16_23 
REMARK    6  A    between atoms: N3_27  and  C20_28 
ROOT
HETATM    1  C9  UNL     1       1.743  -0.471  -0.295  1.00  0.00     0.088 C 
HETATM    2  C10 UNL     1       1.321   0.612  -1.229  1.00  0.00     0.050 C 
HETATM    3  C11 UNL     1       0.320   0.147  -2.250  1.00  0.00     0.091 C 
HETATM    4  C12 UNL     1       1.053  -0.925  -3.075  1.00  0.00     0.050 C 
HETATM    5  C13 UNL     1       0.538  -1.820  -1.975  1.00  0.00     0.091 C 
HETATM    6  C14 UNL     1       1.456  -1.852  -0.788  1.00  0.00     0.050 C 
HETATM    7  N2  UNL     1      -0.556  -0.899  -1.794  1.00  0.00    -0.341 N 
HETATM    8  C15 UNL     1      -1.886  -0.999  -1.355  1.00  0.00     0.243 C 
HETATM    9  O4  UNL     1      -2.309  -2.151  -1.036  1.00  0.00    -0.271 OA
ENDROOT
BRANCH   1  10
HETATM   10  N1  UNL     1       3.184  -0.302  -0.086  1.00  0.00    -0.352 N 
HETATM   11  C8  UNL     1       3.732   0.140   1.136  1.00  0.00     0.252 C 
HETATM   12  O3  UNL     1       2.955   0.405   2.084  1.00  0.00    -0.268 OA
ATOM     13  H1  UNL     1       3.817  -0.513  -0.857  1.00  0.00     0.163 HD
BRANCH  11  14
HETATM   14  C7  UNL     1       5.160   0.281   1.283  1.00  0.00     0.037 A 
HETATM   15  C6  UNL     1       5.662   1.042   2.305  1.00  0.00     0.054 A 
HETATM   16  C4  UNL     1       7.019   1.208   2.506  1.00  0.00     0.071 A 
HETATM   17  C3  UNL     1       7.868   0.571   1.628  1.00  0.00     0.073 A 
HETATM   18  C2  UNL     1       7.406  -0.197   0.598  1.00  0.00     0.071 A 
HETATM   19  C27 UNL     1       6.021  -0.343   0.424  1.00  0.00     0.054 A 
BRANCH  16  20
HETATM   20  O2  UNL     1       7.545   1.970   3.529  1.00  0.00    -0.356 OA
HETATM   21  C5  UNL     1       6.753   2.658   4.471  1.00  0.00     0.210 C 
ENDBRANCH  16  20
BRANCH  18  22
HETATM   22  O1  UNL     1       8.272  -0.830  -0.273  1.00  0.00    -0.356 OA
HETATM   23  C1  UNL     1       7.754  -1.621  -1.333  1.00  0.00     0.210 C 
ENDBRANCH  18  22
ENDBRANCH  11  14
ENDBRANCH   1  10
BRANCH   8  24
HETATM   24  C16 UNL     1      -2.820   0.140  -1.237  1.00  0.00     0.176 C 
HETATM   25  C17 UNL     1      -3.227   0.649  -2.610  1.00  0.00     0.037 C 
HETATM   26  C18 UNL     1      -4.310  -0.359  -3.003  1.00  0.00     0.022 C 
HETATM   27  C19 UNL     1      -4.876  -0.852  -1.667  1.00  0.00     0.123 C 
HETATM   28  N3  UNL     1      -4.056  -0.300  -0.728  1.00  0.00    -0.374 N 
BRANCH  28  29
HETATM   29  C20 UNL     1      -4.197  -0.477   0.650  1.00  0.00    -0.015 C 
HETATM   30  C21 UNL     1      -4.028   0.751   1.495  1.00  0.00     0.052 C 
HETATM   31  C22 UNL     1      -4.877   1.913   1.094  1.00  0.00     0.006 C 
HETATM   32  C23 UNL     1      -6.349   1.681   1.269  1.00  0.00     0.000 C 
HETATM   33  C24 UNL     1      -6.661   0.491   2.126  1.00  0.00     0.000 C 
HETATM   34  C25 UNL     1      -6.641  -0.731   1.274  1.00  0.00     0.006 C 
HETATM   35  C26 UNL     1      -5.323  -1.364   1.081  1.00  0.00     0.052 C 
ENDBRANCH  28  29
ENDBRANCH   8  24
TORSDOF 6
