REMARK  9 active torsions:
REMARK  status: ('A' for Active; 'I' for Inactive)
REMARK    1  A    between atoms: C3_3  and  C4_4 
REMARK    2  A    between atoms: C11_11  and  O1_12 
REMARK    3  A    between atoms: O1_12  and  C12_13 
REMARK    4  A    between atoms: C20_22  and  O3_23 
REMARK    5  A    between atoms: O3_23  and  C21_24 
REMARK    6  A    between atoms: C21_24  and  C22_26 
REMARK    7  A    between atoms: C22_26  and  C23_27 
REMARK    8  A    between atoms: C22_26  and  N1_30 
REMARK    9  A    between atoms: C23_27  and  O5_28 
ROOT
HETATM    1  C1  UNL     1       8.906   4.041   0.747  1.00  0.00     0.112 C 
HETATM    2  C2  UNL     1       7.812   3.150   0.326  1.00  0.00    -0.106 C 
HETATM    3  C3  UNL     1       6.900   2.436  -0.019  1.00  0.00    -0.072 C 
ENDROOT
BRANCH   3   4
HETATM    4  C4  UNL     1       5.787   1.598  -0.429  1.00  0.00    -0.008 C 
HETATM    5  C5  UNL     1       5.249   1.661  -1.612  1.00  0.00    -0.010 C 
HETATM    6  C6  UNL     1       4.115   0.852  -2.123  1.00  0.00     0.033 C 
HETATM    7  C7  UNL     1       3.499   0.055  -1.034  1.00  0.00    -0.002 C 
HETATM    8  C8  UNL     1       3.725   0.671   0.325  1.00  0.00    -0.003 C 
HETATM    9  C15 UNL     1       2.013  -0.211  -1.214  1.00  0.00     0.002 C 
HETATM   10  C9  UNL     1       5.242   0.624   0.557  1.00  0.00     0.053 C 
HETATM   11  C10 UNL     1       2.980  -0.044   1.400  1.00  0.00     0.038 C 
HETATM   12  C11 UNL     1       2.387  -1.352   1.006  1.00  0.00     0.141 C 
HETATM   13  C13 UNL     1       1.548  -1.284  -0.253  1.00  0.00    -0.006 C 
HETATM   14  C14 UNL     1       1.862  -2.606  -0.990  1.00  0.00     0.019 C 
HETATM   15  C28 UNL     1       0.084  -1.293  -0.018  1.00  0.00    -0.030 C 
HETATM   16  C18 UNL     1      -0.599  -0.639  -1.208  1.00  0.00    -0.003 C 
HETATM   17  C27 UNL     1      -0.415  -0.593   1.197  1.00  0.00     0.013 C 
HETATM   18  C29 UNL     1      -0.447  -2.734   0.016  1.00  0.00     0.016 C 
HETATM   19  C17 UNL     1      -0.238   0.816  -1.334  1.00  0.00     0.006 C 
HETATM   20  C19 UNL     1      -2.081  -0.767  -1.180  1.00  0.00     0.038 C 
HETATM   21  C16 UNL     1       1.237   1.063  -1.112  1.00  0.00     0.006 C 
HETATM   22  C20 UNL     1      -2.652  -0.245   0.104  1.00  0.00     0.132 C 
HETATM   23  C26 UNL     1      -1.919  -0.668   1.325  1.00  0.00     0.033 C 
BRANCH  12  24
HETATM   24  O1  UNL     1       3.454  -2.296   0.899  1.00  0.00    -0.322 OA
BRANCH  24  25
HETATM   25  C12 UNL     1       3.627  -3.380   1.720  1.00  0.00     0.398 C 
HETATM   26  O2  UNL     1       2.794  -3.573   2.642  1.00  0.00    -0.276 OA
ENDBRANCH  24  25
ENDBRANCH  12  24
BRANCH  22  27
HETATM   27  O3  UNL     1      -4.022  -0.484   0.252  1.00  0.00    -0.314 OA
BRANCH  27  28
HETATM   28  C21 UNL     1      -4.995   0.487   0.305  1.00  0.00     0.295 C 
HETATM   29  O4  UNL     1      -4.560   1.680   0.209  1.00  0.00    -0.263 OA
BRANCH  28  30
HETATM   30  C22 UNL     1      -6.427   0.167   0.462  1.00  0.00     0.343 C 
BRANCH  30  31
HETATM   31  C23 UNL     1      -6.853  -0.849  -0.596  1.00  0.00     0.210 C 
BRANCH  31  32
HETATM   32  O5  UNL     1      -5.950  -1.919  -0.499  1.00  0.00    -0.398 OA
ATOM     33  H5  UNL     1      -6.215  -2.551  -1.157  1.00  0.00     0.209 HD
ENDBRANCH  31  32
ENDBRANCH  30  31
BRANCH  30  34
HETATM   34  N1  UNL     1      -7.263   1.328   0.487  1.00  0.00     0.096 N 
HETATM   35  C24 UNL     1      -7.253   2.112  -0.707  1.00  0.00     0.310 C 
HETATM   36  C25 UNL     1      -8.634   0.971   0.795  1.00  0.00     0.310 C 
ENDBRANCH  30  34
ENDBRANCH  28  30
ENDBRANCH  27  28
ENDBRANCH  22  27
ENDBRANCH   3   4
TORSDOF 9
