REMARK  4 active torsions:
REMARK  status: ('A' for Active; 'I' for Inactive)
REMARK    1  A    between atoms: C5_5  and  O1_6 
REMARK    2  A    between atoms: C5_5  and  C6_8 
REMARK    3  A    between atoms: C6_8  and  N1_9 
REMARK    4  A    between atoms: N2_23  and  O2_25 
ROOT
HETATM    1  C1  UNL     1      -0.797  -1.240   2.234  1.00  0.00     0.021 C 
HETATM    2  C2  UNL     1      -1.210  -0.591   0.890  1.00  0.00    -0.011 C 
HETATM    3  C3  UNL     1      -0.488   0.760   0.798  1.00  0.00     0.017 C 
HETATM    4  C4  UNL     1       0.824   0.681   0.104  1.00  0.00     0.041 C 
HETATM    5  C5  UNL     1       1.591  -0.587   0.222  1.00  0.00     0.088 C 
HETATM    6  C11 UNL     1       0.761  -1.797  -0.158  1.00  0.00     0.074 C 
HETATM    7  C12 UNL     1      -0.671  -1.372  -0.225  1.00  0.00    -0.072 C 
HETATM    8  C13 UNL     1      -1.358  -1.700  -1.276  1.00  0.00    -0.023 C 
HETATM    9  C14 UNL     1      -2.772  -1.286  -1.412  1.00  0.00     0.033 C 
HETATM   10  C15 UNL     1      -3.444  -1.195  -0.093  1.00  0.00    -0.000 C 
HETATM   11  C16 UNL     1      -4.853  -0.756  -0.257  1.00  0.00     0.006 C 
HETATM   12  C17 UNL     1      -5.153   0.687  -0.230  1.00  0.00     0.006 C 
HETATM   13  C18 UNL     1      -3.925   1.527  -0.083  1.00  0.00     0.055 C 
HETATM   14  C19 UNL     1      -3.139   0.986   1.035  1.00  0.00     0.015 C 
HETATM   15  N2  UNL     1      -2.854   1.690   2.047  1.00  0.00    -0.277 N 
ATOM     16  H2  UNL     1      -2.307   1.291   2.810  1.00  0.00     0.193 HD
HETATM   17  C20 UNL     1      -2.690  -0.429   0.954  1.00  0.00     0.050 C 
ENDROOT
BRANCH   5  18
HETATM   18  O1  UNL     1       2.189  -0.754   1.477  1.00  0.00    -0.388 OA
ATOM     19  H1  UNL     1       2.679  -1.564   1.552  1.00  0.00     0.210 HD
ENDBRANCH   5  18
BRANCH   5  20
HETATM   20  C6  UNL     1       2.727  -0.512  -0.778  1.00  0.00     0.310 C 
BRANCH  20  21
HETATM   21  N1  UNL     1       3.633   0.600  -0.516  1.00  0.00     0.091 N 
HETATM   22  C7  UNL     1       4.667   0.587  -1.564  1.00  0.00     0.272 C 
HETATM   23  C8  UNL     1       5.735   1.497  -0.986  1.00  0.00     0.032 C 
HETATM   24  C9  UNL     1       5.775   1.025   0.457  1.00  0.00     0.032 C 
HETATM   25  C10 UNL     1       4.419   0.412   0.671  1.00  0.00     0.272 C 
ENDBRANCH  20  21
ENDBRANCH   5  20
BRANCH  15  26
HETATM   26  O2  UNL     1      -3.281   2.986   2.116  1.00  0.00    -0.290 OA
ATOM     27  H2  UNL     1      -3.067   3.515   2.876  1.00  0.00     0.244 HD
ENDBRANCH  15  26
TORSDOF 4
