REMARK  3 active torsions:
REMARK  status: ('A' for Active; 'I' for Inactive)
REMARK    1  A    between atoms: C2_3  and  N2_4 
REMARK    2  A    between atoms: C5_7  and  C6_8 
REMARK    3  A    between atoms: C6_8  and  N3_9 
ROOT
HETATM    1  N1  UNL     1       3.328  -0.882   2.941  1.00  0.00    -0.195 NA
HETATM    2  C1  UNL     1       3.482  -0.599   1.836  1.00  0.00     0.081 C 
HETATM    3  C2  UNL     1       3.676  -0.249   0.451  1.00  0.00     0.279 C 
ENDROOT
BRANCH   3   4
HETATM    4  N2  UNL     1       2.367  -0.352  -0.205  1.00  0.00    -0.251 N 
HETATM    5  C3  UNL     1       1.936  -1.489  -0.772  1.00  0.00     0.121 A 
HETATM    6  C4  UNL     1       0.683  -1.209  -1.280  1.00  0.00     0.056 A 
HETATM    7  C5  UNL     1       0.416   0.120  -0.985  1.00  0.00     0.096 A 
HETATM    8  O1  UNL     1       1.474   0.557  -0.343  1.00  0.00    -0.238 OA
BRANCH   7   9
HETATM    9  C6  UNL     1      -0.831   0.840  -1.351  1.00  0.00     0.196 C 
BRANCH   9  10
HETATM   10  N3  UNL     1      -1.839   0.728  -0.313  1.00  0.00    -0.345 N 
HETATM   11  C7  UNL     1      -2.040   1.544   0.735  1.00  0.00     0.109 A 
HETATM   12  C8  UNL     1      -3.108   1.094   1.502  1.00  0.00     0.106 A 
HETATM   13  N4  UNL     1      -3.541  -0.013   0.884  1.00  0.00    -0.361 N 
HETATM   14  C9  UNL     1      -2.778  -0.235  -0.210  1.00  0.00     0.182 A 
ATOM     15  H4  UNL     1      -4.321  -0.595   1.190  1.00  0.00     0.166 HD
ENDBRANCH   9  10
ENDBRANCH   7   9
ENDBRANCH   3   4
TORSDOF 3
