REMARK  6 active torsions:
REMARK  status: ('A' for Active; 'I' for Inactive)
REMARK    1  A    between atoms: C1_4  and  O1_5 
REMARK    2  A    between atoms: C1_4  and  C2_7 
REMARK    3  A    between atoms: C2_7  and  C3_8 
REMARK    4  A    between atoms: C6_13  and  C7_14 
REMARK    5  A    between atoms: N4_18  and  C9_19 
REMARK    6  A    between atoms: N5_29  and  O3_30 
ROOT
HETATM    1  C3  UNL     1       5.730  -0.063   0.482  1.00  0.00     0.004 C 
HETATM    2  C4  UNL     1       4.783  -1.134   0.930  1.00  0.00     0.064 C 
HETATM    3  C5  UNL     1       3.455  -0.640   0.498  1.00  0.00     0.035 A 
HETATM    4  N2  UNL     1       2.184  -0.887   0.921  1.00  0.00    -0.356 N 
ATOM      5  H2  UNL     1       2.047  -1.536   1.696  1.00  0.00     0.166 HD
HETATM    6  C6  UNL     1       1.103  -0.317   0.366  1.00  0.00     0.063 A 
HETATM    7  C17 UNL     1       1.342   0.550  -0.676  1.00  0.00     0.153 A 
HETATM    8  N5  UNL     1       2.579   0.816  -1.116  1.00  0.00    -0.236 N 
HETATM    9  C18 UNL     1       3.646   0.230  -0.541  1.00  0.00     0.062 A 
HETATM   10  C19 UNL     1       5.117   0.363  -0.841  1.00  0.00     0.067 C 
ENDROOT
BRANCH   6  11
HETATM   11  C7  UNL     1      -0.240  -0.604   0.842  1.00  0.00     0.026 A 
HETATM   12  C8  UNL     1      -0.608  -1.447   1.867  1.00  0.00     0.122 A 
HETATM   13  N3  UNL     1      -1.950  -1.409   1.963  1.00  0.00    -0.307 N 
HETATM   14  N4  UNL     1      -2.461  -0.608   1.080  1.00  0.00    -0.273 N 
ATOM     15  H3  UNL     1      -2.494  -1.941   2.642  1.00  0.00     0.186 HD
HETATM   16  C16 UNL     1      -1.442  -0.093   0.370  1.00  0.00     0.128 A 
BRANCH  14  17
HETATM   17  C9  UNL     1      -3.877  -0.249   0.805  1.00  0.00     0.243 C 
HETATM   18  C10 UNL     1      -3.831   1.240   0.818  1.00  0.00     0.056 C 
HETATM   19  C11 UNL     1      -5.219   1.944   0.664  1.00  0.00     0.004 C 
HETATM   20  C12 UNL     1      -6.004   0.976   0.018  1.00  0.00     0.000 C 
HETATM   21  C13 UNL     1      -7.121   0.406  -0.618  1.00  0.00     0.002 C 
HETATM   22  C14 UNL     1      -6.670  -1.068  -0.882  1.00  0.00     0.026 C 
HETATM   23  C15 UNL     1      -5.189  -1.260  -0.955  1.00  0.00     0.170 C 
HETATM   24  O2  UNL     1      -4.275  -1.067  -0.092  1.00  0.00    -0.365 OA
ENDBRANCH  14  17
ENDBRANCH   6  11
BRANCH   8  25
HETATM   25  O3  UNL     1       2.791   1.691  -2.164  1.00  0.00    -0.283 OA
ATOM     26  H3  UNL     1       3.668   1.880  -2.476  1.00  0.00     0.245 HD
ENDBRANCH   8  25
BRANCH   1  27
HETATM   27  C2  UNL     1       7.105  -0.635   0.183  1.00  0.00     0.088 C 
BRANCH  27  28
HETATM   28  C1  UNL     1       7.973   0.480  -0.250  1.00  0.00     0.109 C 
HETATM   29  N1  UNL     1       8.519   0.478  -1.405  1.00  0.00    -0.384 N 
ATOM     30  H12 UNL     1       9.118   1.248  -1.704  1.00  0.00     0.157 HD
ATOM     31  H11 UNL     1       8.337  -0.316  -2.019  1.00  0.00     0.157 HD
BRANCH  28  32
HETATM   32  O1  UNL     1       8.223   1.571   0.594  1.00  0.00    -0.350 OA
ATOM     33  H1  UNL     1       7.817   1.572   1.453  1.00  0.00     0.219 HD
ENDBRANCH  28  32
ENDBRANCH  27  28
ENDBRANCH   1  27
TORSDOF 6
