REMARK  5 active torsions:
REMARK  status: ('A' for Active; 'I' for Inactive)
REMARK    1  A    between atoms: C5_5  and  C6_6 
REMARK    2  A    between atoms: C6_6  and  C7_7 
REMARK    3  A    between atoms: C7_7  and  C8_8 
REMARK    4  A    between atoms: C8_8  and  N1_9 
REMARK    5  A    between atoms: N1_9  and  C9_11 
ROOT
HETATM    1  C8  UNL     1      -0.083   0.794  -1.271  1.00  0.00     0.120 C 
ENDROOT
BRANCH   1   2
HETATM    2  C7  UNL     1       0.541   1.541  -0.134  1.00  0.00     0.024 C 
BRANCH   2   3
HETATM    3  C6  UNL     1       1.084   0.631   0.954  1.00  0.00     0.041 C 
BRANCH   3   4
HETATM    4  C5  UNL     1       2.150  -0.273   0.474  1.00  0.00    -0.047 A 
HETATM    5  C4  UNL     1       3.477   0.127   0.301  1.00  0.00    -0.020 A 
HETATM    6  C3  UNL     1       3.839   1.398   0.624  1.00  0.00     0.013 A 
HETATM    7  C22 UNL     1       4.436  -0.766  -0.189  1.00  0.00    -0.025 A 
HETATM    8  C2  UNL     1       5.168   1.779   0.456  1.00  0.00     0.001 A 
HETATM    9  C1  UNL     1       6.123   0.898  -0.031  1.00  0.00     0.001 A 
HETATM   10  C23 UNL     1       5.737  -0.380  -0.350  1.00  0.00     0.012 A 
HETATM   11  C21 UNL     1       4.096  -2.055  -0.509  1.00  0.00     0.012 A 
HETATM   12  C20 UNL     1       2.801  -2.442  -0.337  1.00  0.00     0.001 A 
HETATM   13  C19 UNL     1       1.844  -1.573   0.144  1.00  0.00     0.008 A 
ENDBRANCH   3   4
ENDBRANCH   2   3
ENDBRANCH   1   2
BRANCH   1  14
HETATM   14  N1  UNL     1      -1.211  -0.031  -0.910  1.00  0.00    -0.389 N 
ATOM     15  H1  UNL     1      -1.082  -1.042  -0.955  1.00  0.00     0.159 HD
BRANCH  14  16
HETATM   16  C9  UNL     1      -2.463   0.435  -0.504  1.00  0.00     0.039 A 
HETATM   17  C10 UNL     1      -2.733   1.782  -0.575  1.00  0.00     0.030 A 
HETATM   18  C11 UNL     1      -3.994   2.267  -0.196  1.00  0.00     0.003 A 
HETATM   19  C12 UNL     1      -4.978   1.427   0.247  1.00  0.00     0.012 A 
HETATM   20  C13 UNL     1      -4.706   0.080   0.317  1.00  0.00    -0.024 A 
HETATM   21  C14 UNL     1      -5.708  -0.741   0.767  1.00  0.00     0.012 A 
HETATM   22  C18 UNL     1      -3.460  -0.399  -0.056  1.00  0.00     0.001 A 
HETATM   23  C15 UNL     1      -5.498  -2.096   0.862  1.00  0.00     0.001 A 
HETATM   24  C16 UNL     1      -4.287  -2.620   0.507  1.00  0.00     0.001 A 
HETATM   25  C17 UNL     1      -3.285  -1.761   0.053  1.00  0.00     0.014 A 
ENDBRANCH  14  16
ENDBRANCH   1  14
TORSDOF 5
