REMARK  13 active torsions:
REMARK  status: ('A' for Active; 'I' for Inactive)
REMARK    1  A    between atoms: S1_2  and  C2_3 
REMARK    2  A    between atoms: C2_3  and  C3_4 
REMARK    3  A    between atoms: C4_8  and  C5_9 
REMARK    4  A    between atoms: C5_9  and  O1_10 
REMARK    5  A    between atoms: C6_12  and  N2_13 
REMARK    6  A    between atoms: N2_13  and  C7_15 
REMARK    7  A    between atoms: C8_18  and  N4_19 
REMARK    8  A    between atoms: N7_25  and  N8_26 
REMARK    9  A    between atoms: N9_28  and  N10_30 
REMARK   10  A    between atoms: C9_31  and  O2_32 
REMARK   11  A    between atoms: C10_34  and  O3_35 
REMARK   12  A    between atoms: C11_38  and  N11_39 
REMARK   13  A    between atoms: C12_42  and  O5_43 
ROOT
HETATM    1  C7  UNL     1       0.630  -1.422   0.697  1.00  0.00     0.713 C 
HETATM    2  N3  UNL     1       0.217  -2.558   1.182  1.00  0.00    -0.179 N 
ATOM      3  H3  UNL     1      -0.728  -2.669   1.550  1.00  0.00     0.181 HD
HETATM    4  C8  UNL     1       1.159  -3.653   1.174  1.00  0.00     0.409 C 
HETATM    5  N5  UNL     1       2.435  -3.077   1.598  1.00  0.00    -0.069 NA
HETATM    6  N6  UNL     1       2.886  -2.275   0.562  1.00  0.00     0.013 NA
HETATM    7  N7  UNL     1       1.951  -1.305   0.191  1.00  0.00     0.007 N 
ENDROOT
BRANCH   1   8
HETATM    8  N2  UNL     1      -0.208  -0.284   0.655  1.00  0.00    -0.214 N 
ATOM      9  H2  UNL     1       0.203   0.649   0.614  1.00  0.00     0.178 HD
BRANCH   8  10
HETATM   10  C6  UNL     1      -1.614  -0.434   0.670  1.00  0.00     0.163 C 
HETATM   11  C4  UNL     1      -2.231  -1.206  -0.441  1.00  0.00     0.235 C 
HETATM   12  N1  UNL     1      -3.534  -0.580  -0.714  1.00  0.00    -0.059 N 
HETATM   13  C3  UNL     1      -3.764   0.336   0.405  1.00  0.00     0.226 C 
ATOM     14  H12 UNL     1      -4.290  -1.249  -0.860  1.00  0.00     0.278 HD
ATOM     15  H11 UNL     1      -3.592  -0.134  -1.629  1.00  0.00     0.278 HD
HETATM   16  C12 UNL     1      -2.363   0.891   0.571  1.00  0.00     0.174 C 
BRANCH  11  17
HETATM   17  C5  UNL     1      -1.479  -1.178  -1.738  1.00  0.00     0.199 C 
BRANCH  17  18
HETATM   18  O1  UNL     1      -2.252  -1.916  -2.667  1.00  0.00    -0.399 OA
ATOM     19  H1  UNL     1      -1.776  -1.898  -3.489  1.00  0.00     0.209 HD
ENDBRANCH  17  18
ENDBRANCH  11  17
BRANCH  13  20
HETATM   20  C2  UNL     1      -4.811   1.340   0.094  1.00  0.00     0.109 C 
BRANCH  20  21
HETATM   21  S1  UNL     1      -5.148   2.464   1.437  1.00  0.00    -0.171 SA
HETATM   22  C1  UNL     1      -3.803   3.586   1.797  1.00  0.00     0.089 C 
ENDBRANCH  20  21
ENDBRANCH  13  20
BRANCH  16  23
HETATM   23  O5  UNL     1      -1.984   1.585  -0.577  1.00  0.00    -0.391 OA
ATOM     24  H5  UNL     1      -1.106   1.933  -0.473  1.00  0.00     0.210 HD
ENDBRANCH  16  23
ENDBRANCH   8  10
ENDBRANCH   1   8
BRANCH   7  25
HETATM   25  N8  UNL     1       2.311  -0.232  -0.665  1.00  0.00    -0.193 N 
HETATM   26  N9  UNL     1       3.513   0.091  -0.663  1.00  0.00    -0.214 N 
ATOM     27  H9  UNL     1       4.128  -0.442  -0.049  1.00  0.00     0.210 HD
ATOM     28  H8  UNL     1       1.625   0.247  -1.248  1.00  0.00     0.212 HD
BRANCH  26  29
HETATM   29  N10 UNL     1       4.107   1.107  -1.414  1.00  0.00    -0.176 N 
HETATM   30  C9  UNL     1       3.982   2.450  -1.240  1.00  0.00     0.226 A 
HETATM   31  C10 UNL     1       4.730   3.114  -2.190  1.00  0.00     0.240 A 
HETATM   32  O4  UNL     1       5.292   2.173  -2.917  1.00  0.00    -0.251 OA
HETATM   33  C11 UNL     1       4.934   0.983  -2.471  1.00  0.00     0.249 A 
BRANCH  30  34
HETATM   34  O2  UNL     1       3.197   3.003  -0.233  1.00  0.00    -0.341 OA
ATOM     35  H2  UNL     1       3.110   3.941  -0.111  1.00  0.00     0.219 HD
ENDBRANCH  30  34
BRANCH  31  36
HETATM   36  O3  UNL     1       4.856   4.509  -2.336  1.00  0.00    -0.337 OA
ATOM     37  H3  UNL     1       5.371   4.966  -2.990  1.00  0.00     0.220 HD
ENDBRANCH  31  36
BRANCH  33  38
HETATM   38  N11 UNL     1       5.349  -0.108  -3.012  1.00  0.00    -0.363 N 
ATOM     39 2H11 UNL     1       5.072  -1.027  -2.667  1.00  0.00     0.159 HD
ATOM     40 1H11 UNL     1       5.975  -0.202  -3.812  1.00  0.00     0.159 HD
ENDBRANCH  33  38
ENDBRANCH  26  29
ENDBRANCH   7  25
BRANCH   4  41
HETATM   41  N4  UNL     1       0.754  -4.725   2.062  1.00  0.00    -0.042 N 
ATOM     42  H43 UNL     1       0.595  -4.381   3.009  1.00  0.00     0.278 HD
ATOM     43  H42 UNL     1      -0.190  -5.047   1.847  1.00  0.00     0.278 HD
ATOM     44  H41 UNL     1       1.419  -5.498   2.056  1.00  0.00     0.278 HD
ENDBRANCH   4  41
TORSDOF 13
