REMARK  9 active torsions:
REMARK  status: ('A' for Active; 'I' for Inactive)
REMARK    1  A    between atoms: O1_1  and  C1_3 
REMARK    2  A    between atoms: C1_3  and  N2_23 
REMARK    3  A    between atoms: C2_4  and  S1_5 
REMARK    4  A    between atoms: S1_5  and  C3_6 
REMARK    5  A    between atoms: C6_11  and  C7_12 
REMARK       I    between atoms: C7_12  and  N1_14 
REMARK    6  A    between atoms: N1_14  and  C8_16 
REMARK    7  A    between atoms: C8_16  and  C9_17 
REMARK    8  A    between atoms: C9_17  and  C10_18 
REMARK    9  A    between atoms: N2_23  and  C14_25 
ROOT
HETATM    1  C3  UNL     1       0.872  -0.842  -2.247  1.00  0.00     0.049 A 
HETATM    2  C4  UNL     1      -0.116  -1.025  -3.141  1.00  0.00     0.059 A 
HETATM    3 CL1  UNL     1      -1.600  -2.011  -2.874  1.00  0.00    -0.082 Cl
HETATM    4  C5  UNL     1       0.046  -0.493  -4.398  1.00  0.00     0.075 A 
HETATM    5  S2  UNL     1       1.557   0.239  -4.311  1.00  0.00    -0.093 SA
HETATM    6  C6  UNL     1       1.981  -0.139  -2.653  1.00  0.00     0.091 A 
ENDROOT
BRANCH   1   7
HETATM    7  S1  UNL     1       0.771  -1.432  -0.530  1.00  0.00    -0.095 SA
BRANCH   7   8
HETATM    8  C2  UNL     1       0.176  -0.224   0.585  1.00  0.00     0.105 C 
HETATM    9  C1  UNL     1      -1.205   0.110   0.760  1.00  0.00     0.142 C 
BRANCH   9  10
HETATM   10  O1  UNL     1      -1.417   1.249   1.381  1.00  0.00    -0.346 OA
ATOM     11  H1  UNL     1      -2.333   1.471   1.497  1.00  0.00     0.219 HD
ENDBRANCH   9  10
BRANCH   9  12
HETATM   12  N2  UNL     1      -2.392  -0.537   0.412  1.00  0.00    -0.364 N 
ATOM     13  H2  UNL     1      -2.305  -1.430  -0.072  1.00  0.00     0.162 HD
BRANCH  12  14
HETATM   14  C14 UNL     1      -3.738  -0.061   0.673  1.00  0.00     0.116 C 
HETATM   15  C15 UNL     1      -4.335   0.611  -0.559  1.00  0.00     0.297 C 
HETATM   16  N3  UNL     1      -5.766   0.407  -0.513  1.00  0.00     0.090 N 
HETATM   17  C16 UNL     1      -6.328   0.538   0.818  1.00  0.00     0.273 C 
HETATM   18  C20 UNL     1      -6.106  -0.937  -0.971  1.00  0.00     0.273 C 
HETATM   19  C17 UNL     1      -5.864  -0.616   1.712  1.00  0.00     0.037 C 
HETATM   20  C18 UNL     1      -4.656  -1.206   1.030  1.00  0.00     0.013 C 
HETATM   21  C19 UNL     1      -5.180  -1.881  -0.249  1.00  0.00     0.037 C 
ENDBRANCH  12  14
ENDBRANCH   9  12
ENDBRANCH   7   8
ENDBRANCH   1   7
BRANCH   6  22
HETATM   22  C7  UNL     1       3.244   0.240  -2.049  1.00  0.00     0.259 C 
HETATM   23  O2  UNL     1       4.065   0.887  -2.781  1.00  0.00    -0.267 OA
HETATM   24  N1  UNL     1       3.653  -0.029  -0.760  1.00  0.00    -0.356 N 
ATOM     25  H1  UNL     1       3.025  -0.539  -0.139  1.00  0.00     0.162 HD
BRANCH  24  26
HETATM   26  C8  UNL     1       4.974   0.398  -0.250  1.00  0.00     0.128 C 
BRANCH  26  27
HETATM   27  C9  UNL     1       5.122   0.033   1.200  1.00  0.00     0.066 C 
BRANCH  27  28
HETATM   28  C10 UNL     1       6.479   0.456   1.689  1.00  0.00    -0.016 A 
HETATM   29  C11 UNL     1       7.624  -0.301   1.731  1.00  0.00     0.015 A 
HETATM   30  C12 UNL     1       8.731   0.284   2.201  1.00  0.00     0.008 A 
HETATM   31  C13 UNL     1       8.632   1.591   2.601  1.00  0.00     0.050 A 
HETATM   32  S3  UNL     1       6.994   1.956   2.306  1.00  0.00    -0.106 SA
ENDBRANCH  27  28
ENDBRANCH  26  27
ENDBRANCH  24  26
ENDBRANCH   6  22
TORSDOF 9
