REMARK  9 active torsions:
REMARK  status: ('A' for Active; 'I' for Inactive)
REMARK    1  A    between atoms: C3_3  and  C4_4 
REMARK    2  A    between atoms: C9_10  and  S1_11 
REMARK    3  A    between atoms: S1_11  and  N1_13 
REMARK    4  A    between atoms: S1_11  and  C14_20 
REMARK       I    between atoms: N1_13  and  C10_15 
REMARK    5  A    between atoms: C10_15  and  C11_17 
REMARK    6  A    between atoms: C14_20  and  C16_22 
REMARK    7  A    between atoms: C16_22  and  O3_24 
REMARK    8  A    between atoms: C16_22  and  C18_26 
REMARK    9  A    between atoms: C18_26  and  N2_27 
ROOT
HETATM    1  C1  UNL     1      -0.461   4.736  -2.133  1.00  0.00     0.112 C 
HETATM    2  C2  UNL     1      -1.171   4.103  -1.037  1.00  0.00    -0.105 C 
HETATM    3  C3  UNL     1      -1.760   3.558  -0.143  1.00  0.00    -0.066 C 
ENDROOT
BRANCH   3   4
HETATM    4  C4  UNL     1      -2.494   2.918   0.909  1.00  0.00     0.037 A 
HETATM    5  C5  UNL     1      -3.013   3.739   1.870  1.00  0.00     0.024 A 
HETATM    6  C6  UNL     1      -3.760   3.229   2.899  1.00  0.00     0.025 A 
HETATM    7  C7  UNL     1      -3.970   1.880   2.935  1.00  0.00     0.035 A 
HETATM    8 CL1  UNL     1      -4.920   1.152   4.233  1.00  0.00    -0.084 Cl
HETATM    9  C8  UNL     1      -3.440   1.076   1.961  1.00  0.00     0.047 A 
HETATM   10  C9  UNL     1      -2.709   1.532   0.950  1.00  0.00     0.059 A 
BRANCH  10  11
HETATM   11  S1  UNL     1      -1.904   0.567  -0.510  1.00  0.00     0.067 S 
HETATM   12  O1  UNL     1      -3.285   0.673  -1.324  1.00  0.00    -0.244 OA
BRANCH  11  13
HETATM   13  N1  UNL     1      -1.891  -1.268  -0.527  1.00  0.00    -0.282 N 
HETATM   14  C10 UNL     1      -2.199  -2.346   0.273  1.00  0.00     0.232 C 
HETATM   15  O2  UNL     1      -2.644  -2.256   1.416  1.00  0.00    -0.272 OA
ATOM     16  H1  UNL     1      -1.540  -1.599  -1.426  1.00  0.00     0.178 HD
BRANCH  14  17
HETATM   17  C11 UNL     1      -2.016  -3.777  -0.177  1.00  0.00     0.070 C 
HETATM   18  C12 UNL     1      -2.672  -4.667   0.833  1.00  0.00     0.019 C 
HETATM   19  C13 UNL     1      -2.485  -4.021  -1.555  1.00  0.00     0.019 C 
ENDBRANCH  14  17
ENDBRANCH  11  13
BRANCH  11  20
HETATM   20  C14 UNL     1      -0.214   0.693   0.229  1.00  0.00     0.124 C 
HETATM   21  C15 UNL     1      -0.089  -0.067   1.567  1.00  0.00     0.028 C 
BRANCH  20  22
HETATM   22  C16 UNL     1       0.982   0.099  -0.576  1.00  0.00     0.096 C 
HETATM   23  C17 UNL     1       1.016   0.857  -1.926  1.00  0.00     0.049 C 
BRANCH  22  24
HETATM   24  O3  UNL     1       0.795  -1.198  -0.871  1.00  0.00    -0.387 OA
ATOM     25  H3  UNL     1       1.524  -1.560  -1.361  1.00  0.00     0.210 HD
ENDBRANCH  22  24
BRANCH  22  26
HETATM   26  C18 UNL     1       2.248   0.393   0.090  1.00  0.00     0.310 C 
BRANCH  26  27
HETATM   27  N2  UNL     1       3.418   0.069  -0.685  1.00  0.00     0.092 N 
HETATM   28  C19 UNL     1       4.577   0.778  -0.077  1.00  0.00     0.282 C 
HETATM   29  C20 UNL     1       5.894   0.240  -0.604  1.00  0.00     0.104 C 
HETATM   30  S2  UNL     1       6.136  -1.317   0.377  1.00  0.00    -0.166 SA
HETATM   31  C21 UNL     1       4.369  -1.833   0.592  1.00  0.00     0.104 C 
HETATM   32  C22 UNL     1       3.724  -1.342  -0.718  1.00  0.00     0.282 C 
ENDBRANCH  26  27
ENDBRANCH  22  26
ENDBRANCH  20  22
ENDBRANCH  11  20
ENDBRANCH  10  11
ENDBRANCH   3   4
TORSDOF 9
