REMARK  8 active torsions:
REMARK  status: ('A' for Active; 'I' for Inactive)
REMARK    1  A    between atoms: C4_9  and  C5_10 
REMARK    2  A    between atoms: C5_10  and  C6_15 
REMARK    3  A    between atoms: N4_11  and  O1_13 
REMARK    4  A    between atoms: C6_15  and  N5_16 
REMARK    5  A    between atoms: C6_15  and  C7_20 
REMARK    6  A    between atoms: C7_20  and  N6_21 
REMARK    7  A    between atoms: N6_21  and  N7_23 
REMARK    8  A    between atoms: N7_23  and  C8_25 
ROOT
HETATM    1  C5  UNL     1       0.156  -0.522   0.537  1.00  0.00     0.079 C 
HETATM    2  N4  UNL     1      -0.358  -1.487   1.143  1.00  0.00    -0.270 N 
ATOM      3  H4  UNL     1      -1.362  -1.343   1.247  1.00  0.00     0.194 HD
ENDROOT
BRANCH   1   4
HETATM    4  C4  UNL     1       1.554  -0.422   0.232  1.00  0.00     0.009 A 
HETATM    5  C3  UNL     1       2.455  -1.355   0.639  1.00  0.00     0.050 A 
HETATM    6  C2  UNL     1       3.813  -1.238   0.310  1.00  0.00     0.096 A 
HETATM    7  N3  UNL     1       4.903  -1.956   0.549  1.00  0.00    -0.282 N 
HETATM    8  C11 UNL     1       4.213  -0.153  -0.435  1.00  0.00     0.151 A 
HETATM    9  N2  UNL     1       5.924  -1.354  -0.016  1.00  0.00    -0.239 N 
ATOM     10  H3  UNL     1       4.941  -2.826   1.080  1.00  0.00     0.188 HD
HETATM   11  N1  UNL     1       5.560  -0.246  -0.632  1.00  0.00    -0.265 N 
ATOM     12  H2  UNL     1       6.883  -1.701   0.017  1.00  0.00     0.208 HD
HETATM   13  C1  UNL     1       6.404   0.689  -1.369  1.00  0.00     0.181 C 
HETATM   14  N11 UNL     1       3.348   0.774  -0.845  1.00  0.00    -0.348 N 
HETATM   15  C10 UNL     1       2.030   0.633  -0.510  1.00  0.00     0.103 A 
ATOM     16  H11 UNL     1       3.663   1.572  -1.397  1.00  0.00     0.167 HD
ENDBRANCH   1   4
BRANCH   1  17
HETATM   17  C6  UNL     1      -0.724   0.640   0.106  1.00  0.00     0.275 C 
BRANCH  17  18
HETATM   18  N5  UNL     1      -0.299   1.788   0.915  1.00  0.00    -0.065 N 
ATOM     19  H53 UNL     1      -0.322   1.610   1.919  1.00  0.00     0.275 HD
ATOM     20  H52 UNL     1       0.699   1.986   0.848  1.00  0.00     0.275 HD
ATOM     21  H51 UNL     1      -0.890   2.568   0.626  1.00  0.00     0.275 HD
ENDBRANCH  17  18
BRANCH  17  22
HETATM   22  C7  UNL     1      -2.129   0.365   0.434  1.00  0.00     0.119 C 
BRANCH  22  23
HETATM   23  N6  UNL     1      -2.662  -0.785   0.210  1.00  0.00    -0.299 N 
ATOM     24  H6  UNL     1      -2.093  -1.522  -0.206  1.00  0.00     0.186 HD
BRANCH  23  25
HETATM   25  N7  UNL     1      -3.992  -1.051   0.519  1.00  0.00    -0.131 N 
ATOM     26  H7  UNL     1      -4.236  -1.844   1.112  1.00  0.00     0.205 HD
BRANCH  25  27
HETATM   27  C8  UNL     1      -4.911  -0.284   0.047  1.00  0.00     0.712 A 
HETATM   28  N8  UNL     1      -4.735   0.787  -0.740  1.00  0.00    -0.184 N 
HETATM   29  C9  UNL     1      -5.923   1.327  -1.025  1.00  0.00     0.215 A 
ATOM     30  H8  UNL     1      -3.835   1.135  -1.070  1.00  0.00     0.185 HD
HETATM   31  N9  UNL     1      -6.858   0.579  -0.403  1.00  0.00    -0.281 N 
HETATM   32  N10 UNL     1      -6.246  -0.394   0.244  1.00  0.00    -0.130 N 
ATOM     33  H9  UNL     1      -7.865   0.739  -0.429  1.00  0.00     0.188 HD
ATOM     34  H10 UNL     1      -6.705  -1.114   0.803  1.00  0.00     0.205 HD
ENDBRANCH  25  27
ENDBRANCH  23  25
ENDBRANCH  22  23
ENDBRANCH  17  22
ENDBRANCH   1  17
BRANCH   2  35
HETATM   35  O1  UNL     1      -0.005  -2.628   1.687  1.00  0.00    -0.290 OA
ATOM     36  H1  UNL     1      -0.396  -3.361   2.148  1.00  0.00     0.244 HD
ENDBRANCH   2  35
TORSDOF 8
