REMARK  21 active torsions:
REMARK  status: ('A' for Active; 'I' for Inactive)
REMARK    1  A    between atoms: C1_2  and  C2_3 
REMARK    2  A    between atoms: C1_2  and  C11_14 
REMARK    3  A    between atoms: C3_4  and  C4_5 
REMARK    4  A    between atoms: C4_5  and  C5_6 
REMARK    5  A    between atoms: C5_6  and  C6_7 
REMARK    6  A    between atoms: C6_7  and  C7_8 
REMARK    7  A    between atoms: C7_8  and  C8_9 
REMARK    8  A    between atoms: C8_9  and  C9_10 
REMARK    9  A    between atoms: C9_10  and  C10_11 
REMARK   10  A    between atoms: C10_11  and  O1_12 
REMARK   11  A    between atoms: C11_14  and  C12_15 
REMARK   12  A    between atoms: C13_16  and  N2_17 
REMARK   13  A    between atoms: C14_21  and  O2_22 
REMARK   14  A    between atoms: O2_22  and  C15_23 
REMARK   15  A    between atoms: C17_25  and  C18_26 
REMARK   16  A    between atoms: C19_27  and  C20_28 
REMARK   17  A    between atoms: C20_28  and  O3_29 
REMARK   18  A    between atoms: C20_28  and  O4_31 
REMARK   19  A    between atoms: C24_38  and  O5_39 
REMARK   20  A    between atoms: C25_41  and  O6_42 
REMARK   21  A    between atoms: C26_44  and  O7_45 
ROOT
HETATM    1  C12 UNL     1      -0.438   1.962  -1.125  1.00  0.00     0.055 C 
HETATM    2  C13 UNL     1      -1.160   0.780  -1.693  1.00  0.00     0.222 C 
HETATM    3  C14 UNL     1      -2.649   1.095  -1.877  1.00  0.00     0.191 C 
HETATM    4  C24 UNL     1      -2.887   2.266  -2.789  1.00  0.00     0.180 C 
HETATM    5  C25 UNL     1      -2.172   3.459  -2.146  1.00  0.00     0.178 C 
HETATM    6  C26 UNL     1      -0.717   3.165  -2.037  1.00  0.00     0.156 C 
ENDROOT
BRANCH   3   7
HETATM    7  O2  UNL     1      -3.300  -0.062  -2.243  1.00  0.00    -0.338 OA
BRANCH   7   8
HETATM    8  C15 UNL     1      -4.231  -0.806  -1.600  1.00  0.00     0.109 A 
HETATM    9  C16 UNL     1      -4.727  -0.495  -0.350  1.00  0.00     0.063 A 
HETATM   10  C17 UNL     1      -5.674  -1.247   0.311  1.00  0.00     0.059 A 
HETATM   11  C21 UNL     1      -6.152  -2.386  -0.331  1.00  0.00     0.138 A 
HETATM   12  F1  UNL     1      -7.080  -3.141   0.293  1.00  0.00    -0.204 F 
HETATM   13  C22 UNL     1      -5.693  -2.747  -1.582  1.00  0.00     0.089 A 
HETATM   14  C23 UNL     1      -4.746  -1.959  -2.195  1.00  0.00     0.152 A 
HETATM   15  F2  UNL     1      -4.298  -2.316  -3.422  1.00  0.00    -0.203 F 
BRANCH  10  16
HETATM   16  C18 UNL     1      -6.150  -0.867   1.615  1.00  0.00    -0.059 C 
HETATM   17  C19 UNL     1      -6.564  -0.559   2.713  1.00  0.00    -0.041 C 
BRANCH  17  18
HETATM   18  C20 UNL     1      -7.073  -0.205   4.052  1.00  0.00     0.338 C 
BRANCH  18  19
HETATM   19  O3  UNL     1      -6.545   1.033   4.472  1.00  0.00    -0.361 OA
ATOM     20  H3  UNL     1      -6.873   1.261   5.334  1.00  0.00     0.213 HD
ENDBRANCH  18  19
BRANCH  18  21
HETATM   21  O4  UNL     1      -8.466  -0.030   4.026  1.00  0.00    -0.361 OA
ATOM     22  H4  UNL     1      -8.794   0.198   4.888  1.00  0.00     0.213 HD
ENDBRANCH  18  21
ENDBRANCH  17  18
ENDBRANCH  10  16
ENDBRANCH   7   8
ENDBRANCH   3   7
BRANCH   2  23
HETATM   23  N2  UNL     1      -0.585   0.271  -2.911  1.00  0.00    -0.072 N 
ATOM     24  H23 UNL     1      -0.508   1.012  -3.608  1.00  0.00     0.274 HD
ATOM     25  H22 UNL     1       0.403   0.057  -2.778  1.00  0.00     0.274 HD
ATOM     26  H21 UNL     1      -1.077  -0.534  -3.298  1.00  0.00     0.274 HD
ENDBRANCH   2  23
BRANCH   4  27
HETATM   27  O5  UNL     1      -2.516   2.063  -4.089  1.00  0.00    -0.390 OA
ATOM     28  H5  UNL     1      -2.666   2.803  -4.665  1.00  0.00     0.210 HD
ENDBRANCH   4  27
BRANCH   1  29
HETATM   29  C11 UNL     1       1.024   1.848  -1.034  1.00  0.00     0.063 C 
BRANCH  29  30
HETATM   30  C1  UNL     1       1.635   0.779  -0.184  1.00  0.00     0.024 C 
HETATM   31  N1  UNL     1       1.285  -0.521  -0.605  1.00  0.00    -0.107 NA
BRANCH  30  32
HETATM   32  C2  UNL     1       1.614   1.105   1.256  1.00  0.00     0.018 C 
HETATM   33  C3  UNL     1       2.445   0.514   2.270  1.00  0.00    -0.025 C 
BRANCH  33  34
HETATM   34  C4  UNL     1       2.549  -0.863   2.710  1.00  0.00     0.027 C 
BRANCH  34  35
HETATM   35  C5  UNL     1       3.039  -1.913   1.802  1.00  0.00     0.004 C 
BRANCH  35  36
HETATM   36  C6  UNL     1       4.446  -1.522   1.283  1.00  0.00     0.000 C 
BRANCH  36  37
HETATM   37  C7  UNL     1       4.864  -2.616   0.386  1.00  0.00     0.000 C 
BRANCH  37  38
HETATM   38  C8  UNL     1       6.148  -2.556  -0.317  1.00  0.00     0.002 C 
BRANCH  38  39
HETATM   39  C9  UNL     1       7.431  -2.524   0.392  1.00  0.00     0.026 C 
BRANCH  39  40
HETATM   40  C10 UNL     1       7.706  -1.377   1.311  1.00  0.00     0.164 C 
BRANCH  40  41
HETATM   41  O1  UNL     1       7.618  -0.163   0.633  1.00  0.00    -0.401 OA
ATOM     42  H1  UNL     1       7.793   0.566   1.217  1.00  0.00     0.209 HD
ENDBRANCH  40  41
ENDBRANCH  39  40
ENDBRANCH  38  39
ENDBRANCH  37  38
ENDBRANCH  36  37
ENDBRANCH  35  36
ENDBRANCH  34  35
ENDBRANCH  33  34
ENDBRANCH  30  32
ENDBRANCH  29  30
ENDBRANCH   1  29
BRANCH   5  43
HETATM   43  O6  UNL     1      -2.783   3.652  -0.910  1.00  0.00    -0.390 OA
ATOM     44  H6  UNL     1      -2.340   4.392  -0.511  1.00  0.00     0.210 HD
ENDBRANCH   5  43
BRANCH   6  45
HETATM   45  O7  UNL     1      -0.026   4.280  -1.584  1.00  0.00    -0.392 OA
ATOM     46  H7  UNL     1      -0.199   5.024  -2.148  1.00  0.00     0.210 HD
ENDBRANCH   6  45
TORSDOF 21
