REMARK  2 active torsions:
REMARK  status: ('A' for Active; 'I' for Inactive)
REMARK    1  A    between atoms: C4_6  and  O1_7 
REMARK    2  A    between atoms: C4_6  and  O2_9 
ROOT
HETATM    1  C1  UNL     1      -0.581   1.623  -0.289  1.00  0.00     0.318 C 
HETATM    2  N1  UNL     1       0.011   0.458   0.267  1.00  0.00     0.159 N 
HETATM    3  C2  UNL     1       1.262   0.100  -0.383  1.00  0.00     0.290 C 
HETATM    4  C3  UNL     1       1.884  -0.953   0.546  1.00  0.00     0.112 C 
HETATM    5  S1  UNL     1       0.376  -1.975   0.811  1.00  0.00    -0.067 SA
HETATM    6  C4  UNL     1      -0.838  -0.720   0.224  1.00  0.00     0.422 C 
ENDROOT
BRANCH   6   7
HETATM    7  O1  UNL     1      -1.311  -1.016  -1.024  1.00  0.00    -0.333 OA
ATOM      8  H1  UNL     1      -1.866  -1.786  -1.052  1.00  0.00     0.216 HD
ENDBRANCH   6   7
BRANCH   6   9
HETATM    9  O2  UNL     1      -1.817  -0.650   1.192  1.00  0.00    -0.333 OA
ATOM     10  H2  UNL     1      -2.372  -1.420   1.164  1.00  0.00     0.216 HD
ENDBRANCH   6   9
TORSDOF 2
