REMARK  15 active torsions:
REMARK  status: ('A' for Active; 'I' for Inactive)
REMARK    1  A    between atoms: C2_2  and  C3_6 
REMARK       I    between atoms: C3_6  and  N2_8 
REMARK    2  A    between atoms: N2_8  and  C4_10 
REMARK    3  A    between atoms: C4_10  and  C5_11 
REMARK    4  A    between atoms: C4_10  and  N13_44 
REMARK    5  A    between atoms: C5_11  and  N3_12 
REMARK    6  A    between atoms: N3_12  and  C6_14 
REMARK    7  A    between atoms: N5_18  and  C8_19 
REMARK    8  A    between atoms: C8_19  and  C9_20 
REMARK    9  A    between atoms: C11_24  and  N7_25 
REMARK   10  A    between atoms: C12_30  and  N9_31 
REMARK   11  A    between atoms: N11_37  and  C16_38 
REMARK   12  A    between atoms: N13_44  and  C18_46 
REMARK   13  A    between atoms: C20_52  and  C21_53 
REMARK   14  A    between atoms: C21_53  and  O5_54 
REMARK   15  A    between atoms: O5_54  and  C22_55 
ROOT
HETATM    1  C6  UNL     1      -0.196  -0.021   0.684  1.00  0.00     0.191 A 
HETATM    2  N4  UNL     1      -0.964   0.715   1.399  1.00  0.00    -0.348 N 
ATOM      3  H4  UNL     1      -0.667   1.286   2.190  1.00  0.00     0.163 HD
HETATM    4  C7  UNL     1      -2.329   0.606   0.901  1.00  0.00     0.237 A 
HETATM    5  N5  UNL     1      -2.273  -0.249  -0.269  1.00  0.00    -0.205 NA
HETATM    6  N12 UNL     1      -0.948  -0.684  -0.330  1.00  0.00    -0.288 N 
ATOM      7  H12 UNL     1      -0.578  -1.366  -0.992  1.00  0.00     0.184 HD
ENDROOT
BRANCH   1   8
HETATM    8  N3  UNL     1       1.231  -0.192   0.846  1.00  0.00    -0.337 N 
ATOM      9  H3  UNL     1       1.795   0.567   1.229  1.00  0.00     0.168 HD
BRANCH   8  10
HETATM   10  C5  UNL     1       1.841  -1.403   0.476  1.00  0.00     0.110 C 
BRANCH  10  11
HETATM   11  C4  UNL     1       3.326  -1.506   0.457  1.00  0.00     0.220 C 
BRANCH  11  12
HETATM   12  N2  UNL     1       3.603  -2.916   0.071  1.00  0.00    -0.331 N 
HETATM   13  C3  UNL     1       4.387  -3.784   0.856  1.00  0.00     0.265 C 
HETATM   14  O1  UNL     1       4.899  -3.384   1.946  1.00  0.00    -0.266 OA
ATOM     15  H2  UNL     1       3.208  -3.270  -0.800  1.00  0.00     0.165 HD
BRANCH  13  16
HETATM   16  C2  UNL     1       4.651  -5.167   0.472  1.00  0.00     0.067 C 
HETATM   17  C1  UNL     1       5.467  -6.059   1.293  1.00  0.00     0.074 C 
HETATM   18  N1  UNL     1       4.118  -5.588  -0.658  1.00  0.00    -0.398 N 
ATOM     19  H12 UNL     1       4.303  -6.555  -0.926  1.00  0.00     0.156 HD
ATOM     20  H11 UNL     1       3.548  -4.965  -1.231  1.00  0.00     0.156 HD
ENDBRANCH  13  16
ENDBRANCH  11  12
BRANCH  11  21
HETATM   21  N13 UNL     1       3.937  -0.722  -0.563  1.00  0.00    -0.382 N 
ATOM     22  H13 UNL     1       4.428  -1.188  -1.326  1.00  0.00     0.156 HD
BRANCH  21  23
HETATM   23  C18 UNL     1       3.876   0.675  -0.537  1.00  0.00     0.208 C 
HETATM   24  C19 UNL     1       4.568   1.395   0.570  1.00  0.00     0.265 C 
HETATM   25  O4  UNL     1       4.365   1.629   1.792  1.00  0.00    -0.269 OA
HETATM   26  N14 UNL     1       5.597   1.730  -0.339  1.00  0.00    -0.242 N 
HETATM   27  N15 UNL     1       6.888   2.208  -0.621  1.00  0.00    -0.300 N 
HETATM   28  C24 UNL     1       4.827   1.359  -1.524  1.00  0.00     0.204 C 
HETATM   29  C20 UNL     1       7.785   1.517  -1.229  1.00  0.00     0.037 C 
ATOM     30  H15 UNL     1       7.126   3.155  -0.327  1.00  0.00     0.186 HD
HETATM   31  C23 UNL     1       7.470   0.134  -1.664  1.00  0.00     0.132 C 
HETATM   32  S1  UNL     1       5.834   0.189  -2.477  1.00  0.00    -0.133 SA
BRANCH  29  33
HETATM   33  C21 UNL     1       9.110   2.046  -1.506  1.00  0.00     0.234 C 
BRANCH  33  34
HETATM   34  O5  UNL     1       9.382   3.343  -1.099  1.00  0.00    -0.301 OA
BRANCH  34  35
HETATM   35  C22 UNL     1       9.377   3.776   0.211  1.00  0.00     0.372 C 
HETATM   36  N16 UNL     1       9.672   5.145   0.486  1.00  0.00    -0.032 NA
HETATM   37  O6  UNL     1       9.120   2.988   1.154  1.00  0.00    -0.242 OA
ENDBRANCH  34  35
ENDBRANCH  33  34
ENDBRANCH  29  33
ENDBRANCH  21  23
ENDBRANCH  11  21
ENDBRANCH  10  11
ENDBRANCH   8  10
ENDBRANCH   1   8
BRANCH   5  38
HETATM   38  C8  UNL     1      -3.169  -1.361  -0.054  1.00  0.00     0.178 C 
BRANCH  38  39
HETATM   39  C9  UNL     1      -4.556  -0.844   0.032  1.00  0.00     0.094 A 
HETATM   40  N6  UNL     1      -4.873   0.456  -0.118  1.00  0.00    -0.348 N 
HETATM   41  C10 UNL     1      -6.130   0.903  -0.053  1.00  0.00     0.123 A 
ATOM     42  H6  UNL     1      -4.123   1.126  -0.288  1.00  0.00     0.166 HD
HETATM   43  C11 UNL     1      -6.374   2.237  -0.216  1.00  0.00     0.145 A 
HETATM   44  C15 UNL     1      -7.189   0.050   0.174  1.00  0.00     0.163 A 
HETATM   45  N8  UNL     1      -7.652   2.675  -0.146  1.00  0.00    -0.175 N 
HETATM   46  C12 UNL     1      -8.681   1.844   0.077  1.00  0.00     0.682 A 
ATOM     47  H8  UNL     1      -7.839   3.670  -0.267  1.00  0.00     0.186 HD
HETATM   48  N10 UNL     1      -8.445   0.527   0.237  1.00  0.00    -0.173 N 
ATOM     49  H10 UNL     1      -9.222  -0.111   0.407  1.00  0.00     0.186 HD
HETATM   50  N11 UNL     1      -6.910  -1.266   0.331  1.00  0.00    -0.236 N 
HETATM   51  C17 UNL     1      -5.615  -1.696   0.260  1.00  0.00     0.279 A 
HETATM   52  O3  UNL     1      -5.412  -2.939   0.413  1.00  0.00    -0.265 OA
BRANCH  43  53
HETATM   53  N7  UNL     1      -5.436   3.088  -0.444  1.00  0.00    -0.383 N 
ATOM     54  H72 UNL     1      -4.472   2.758  -0.497  1.00  0.00     0.157 HD
ATOM     55  H71 UNL     1      -5.618   4.084  -0.566  1.00  0.00     0.157 HD
ENDBRANCH  43  53
BRANCH  46  56
HETATM   56  N9  UNL     1      -9.988   2.390   0.138  1.00  0.00    -0.226 N 
HETATM   57  C13 UNL     1     -10.764   2.517  -1.067  1.00  0.00     0.168 C 
HETATM   58  C14 UNL     1     -10.511   2.809   1.411  1.00  0.00     0.168 C 
ENDBRANCH  46  56
BRANCH  50  59
HETATM   59  C16 UNL     1      -7.937  -2.206   0.569  1.00  0.00     0.364 C 
HETATM   60  O2  UNL     1      -7.634  -3.433   0.711  1.00  0.00    -0.283 OA
ENDBRANCH  50  59
ENDBRANCH  38  39
ENDBRANCH   5  38
TORSDOF 15
