REMARK  23 active torsions:
REMARK  status: ('A' for Active; 'I' for Inactive)
REMARK    1  A    between atoms: O1_2  and  C2_3 
REMARK    2  A    between atoms: C2_3  and  C3_5 
REMARK    3  A    between atoms: C5_8  and  O4_9 
REMARK    4  A    between atoms: C6_11  and  O5_12 
REMARK    5  A    between atoms: C7_14  and  O6_15 
REMARK    6  A    between atoms: C8_17  and  O7_18 
REMARK    7  A    between atoms: C10_21  and  C11_22 
REMARK    8  A    between atoms: C11_22  and  O8_23 
REMARK    9  A    between atoms: O8_23  and  C12_24 
REMARK   10  A    between atoms: C15_28  and  O10_29 
REMARK   11  A    between atoms: C15_28  and  C17_33 
REMARK   12  A    between atoms: O10_29  and  C16_30 
REMARK   13  A    between atoms: C17_33  and  O12_34 
REMARK   14  A    between atoms: C17_33  and  C18_36 
REMARK   15  A    between atoms: C20_38  and  O13_39 
REMARK   16  A    between atoms: C21_41  and  O14_43 
REMARK   17  A    between atoms: C23_45  and  O15_46 
REMARK   18  A    between atoms: O15_46  and  C24_47 
REMARK   19  A    between atoms: C24_47  and  C25_49 
REMARK   20  A    between atoms: C25_49  and  C26_50 
REMARK   21  A    between atoms: N2_51  and  C27_53 
REMARK   22  A    between atoms: C27_53  and  C28_54 
REMARK   23  A    between atoms: C28_54  and  O17_55 
ROOT
HETATM    1  C3  UNL     1      -1.399   1.277   0.807  1.00  0.00     0.166 C 
HETATM    2  C4  UNL     1      -0.539   2.048  -0.104  1.00  0.00     0.184 C 
HETATM    3  O3  UNL     1      -0.855   3.214  -0.393  1.00  0.00    -0.293 OA
HETATM    4  C5  UNL     1       0.704   1.513  -0.707  1.00  0.00     0.199 C 
HETATM    5  C6  UNL     1       0.732   1.458  -2.160  1.00  0.00     0.124 C 
HETATM    6  C7  UNL     1      -0.306   1.544  -3.151  1.00  0.00     0.127 C 
HETATM    7  C8  UNL     1      -1.491   0.763  -3.422  1.00  0.00     0.079 C 
HETATM    8  C9  UNL     1      -2.345  -0.015  -2.492  1.00  0.00     0.074 C 
HETATM    9  C10 UNL     1      -2.450   0.396  -1.100  1.00  0.00     0.025 C 
HETATM   10  C14 UNL     1      -1.753  -0.046   0.083  1.00  0.00     0.054 C 
HETATM   11  C15 UNL     1      -0.785  -1.123   0.331  1.00  0.00     0.140 C 
HETATM   12  C21 UNL     1       0.589  -0.594   0.871  1.00  0.00     0.119 C 
HETATM   13  C22 UNL     1       0.826  -0.536   2.337  1.00  0.00     0.052 C 
HETATM   14  C23 UNL     1       1.284   0.464   0.131  1.00  0.00     0.217 C 
ENDROOT
BRANCH  11  15
HETATM   15  O10 UNL     1      -0.575  -2.173  -0.450  1.00  0.00    -0.288 OA
BRANCH  15  16
HETATM   16  C16 UNL     1      -0.220  -2.877  -1.453  1.00  0.00     0.373 C 
HETATM   17  N1  UNL     1      -0.285  -4.236  -1.816  1.00  0.00    -0.032 NA
HETATM   18  O11 UNL     1       0.311  -2.124  -2.292  1.00  0.00    -0.242 OA
ENDBRANCH  15  16
ENDBRANCH  11  15
BRANCH  11  19
HETATM   19  C17 UNL     1      -1.225  -1.940   1.557  1.00  0.00     0.187 C 
BRANCH  19  20
HETATM   20  O12 UNL     1      -0.172  -2.698   2.040  1.00  0.00    -0.388 OA
ATOM     21  H12 UNL     1      -0.444  -3.203   2.797  1.00  0.00     0.210 HD
ENDBRANCH  19  20
BRANCH  19  22
HETATM   22  C18 UNL     1      -2.359  -2.833   1.486  1.00  0.00    -0.031 C 
HETATM   23  C19 UNL     1      -3.798  -2.597   1.373  1.00  0.00     0.048 C 
HETATM   24  C20 UNL     1      -2.088  -4.125   1.515  1.00  0.00     0.136 C 
BRANCH  24  25
HETATM   25  O13 UNL     1      -0.859  -4.698   1.603  1.00  0.00    -0.372 OA
ATOM     26  H13 UNL     1      -0.664  -5.628   1.624  1.00  0.00     0.216 HD
ENDBRANCH  24  25
ENDBRANCH  19  22
ENDBRANCH  11  19
BRANCH  12  27
HETATM   27  O14 UNL     1       1.430  -1.746   0.583  1.00  0.00    -0.384 OA
ATOM     28  H14 UNL     1       2.262  -1.426   0.910  1.00  0.00     0.210 HD
ENDBRANCH  12  27
BRANCH   1  29
HETATM   29  C2  UNL     1      -2.564   2.054   1.277  1.00  0.00     0.270 C 
HETATM   30  O2  UNL     1      -3.050   1.820   2.415  1.00  0.00    -0.264 OA
BRANCH  29  31
HETATM   31  O1  UNL     1      -3.200   3.049   0.569  1.00  0.00    -0.326 OA
HETATM   32  C1  UNL     1      -4.291   3.722   1.103  1.00  0.00     0.213 C 
ENDBRANCH  29  31
ENDBRANCH   1  29
BRANCH   9  33
HETATM   33  C11 UNL     1      -4.006   0.373  -0.855  1.00  0.00     0.184 C 
BRANCH  33  34
HETATM   34  O8  UNL     1      -4.663   1.233  -1.705  1.00  0.00    -0.321 OA
BRANCH  34  35
HETATM   35  C12 UNL     1      -6.016   1.372  -1.661  1.00  0.00     0.254 C 
HETATM   36  C13 UNL     1      -6.808   2.271  -2.533  1.00  0.00     0.126 C 
HETATM   37  O9  UNL     1      -6.651   0.677  -0.805  1.00  0.00    -0.266 OA
ENDBRANCH  34  35
ENDBRANCH  33  34
ENDBRANCH   9  33
BRANCH  14  38
HETATM   38  O15 UNL     1       2.602   0.070  -0.267  1.00  0.00    -0.309 OA
BRANCH  38  39
HETATM   39  C24 UNL     1       3.789   0.399   0.212  1.00  0.00     0.264 C 
HETATM   40  O16 UNL     1       3.763   1.182   1.166  1.00  0.00    -0.265 OA
BRANCH  39  41
HETATM   41  C25 UNL     1       5.056  -0.110  -0.328  1.00  0.00     0.155 C 
BRANCH  41  42
HETATM   42  C26 UNL     1       6.255   0.430   0.357  1.00  0.00     0.070 C 
HETATM   43  N2  UNL     1       7.340   0.453  -0.295  1.00  0.00    -0.380 N 
ATOM     44  H2  UNL     1       7.292   0.092  -1.248  1.00  0.00     0.164 HD
BRANCH  43  45
HETATM   45  C27 UNL     1       8.605   0.911   0.122  1.00  0.00     0.086 C 
BRANCH  45  46
HETATM   46  C28 UNL     1       9.739   0.189  -0.585  1.00  0.00     0.208 C 
BRANCH  46  47
HETATM   47  O17 UNL     1      10.978   0.657  -0.160  1.00  0.00    -0.396 OA
ATOM     48  H17 UNL     1      11.687   0.205  -0.602  1.00  0.00     0.209 HD
ENDBRANCH  46  47
ENDBRANCH  45  46
ENDBRANCH  43  45
ENDBRANCH  41  42
ENDBRANCH  39  41
ENDBRANCH  38  39
ENDBRANCH  14  38
BRANCH   4  49
HETATM   49  O4  UNL     1       1.570   2.667  -0.449  1.00  0.00    -0.373 OA
ATOM     50  H4  UNL     1       2.367   2.324  -0.836  1.00  0.00     0.211 HD
ENDBRANCH   4  49
BRANCH   7  51
HETATM   51  O7  UNL     1      -1.947   0.680  -4.659  1.00  0.00    -0.362 OA
ATOM     52  H7  UNL     1      -2.726   0.166  -4.837  1.00  0.00     0.217 HD
ENDBRANCH   7  51
BRANCH   5  53
HETATM   53  O5  UNL     1       1.933   1.305  -2.647  1.00  0.00    -0.359 OA
ATOM     54  H5  UNL     1       1.951   1.269  -3.596  1.00  0.00     0.217 HD
ENDBRANCH   5  53
BRANCH   6  55
HETATM   55  O6  UNL     1      -0.222   2.517  -4.032  1.00  0.00    -0.356 OA
ATOM     56  H6  UNL     1      -0.908   2.574  -4.687  1.00  0.00     0.218 HD
ENDBRANCH   6  55
TORSDOF 23
