REMARK  13 active torsions:
REMARK  status: ('A' for Active; 'I' for Inactive)
REMARK    1  A    between atoms: C2_2  and  C3_3 
REMARK    2  A    between atoms: C3_3  and  C4_4 
REMARK    3  A    between atoms: C4_4  and  C5_5 
REMARK    4  A    between atoms: N1_10  and  C9_11 
REMARK    5  A    between atoms: C9_11  and  C10_12 
REMARK    6  A    between atoms: C10_12  and  N2_13 
REMARK    7  A    between atoms: N2_13  and  C11_15 
REMARK    8  A    between atoms: C12_18  and  N4_19 
REMARK    9  A    between atoms: C15_27  and  C16_28 
REMARK   10  A    between atoms: C16_28  and  C17_29 
REMARK   11  A    between atoms: C17_29  and  C18_30 
REMARK   12  A    between atoms: C18_30  and  O3_32 
REMARK   13  A    between atoms: O3_32  and  C19_33 
ROOT
HETATM    1  C11 UNL     1       0.507  -0.623  -1.133  1.00  0.00     0.681 A 
HETATM    2  N3  UNL     1      -0.298  -0.766  -2.194  1.00  0.00    -0.176 N 
ATOM      3  H3  UNL     1       0.092  -1.161  -3.050  1.00  0.00     0.186 HD
HETATM    4  C12 UNL     1      -1.615  -0.409  -2.186  1.00  0.00     0.131 A 
HETATM    5  C13 UNL     1      -2.168   0.125  -1.053  1.00  0.00     0.079 A 
HETATM    6  C14 UNL     1      -3.510   0.514  -0.972  1.00  0.00     0.051 A 
HETATM    7  N5  UNL     1      -4.299   0.409  -1.916  1.00  0.00    -0.398 N 
ATOM      8  H51 UNL     1      -5.277   0.692  -1.857  1.00  0.00     0.156 HD
ATOM      9  H52 UNL     1      -3.960   0.019  -2.795  1.00  0.00     0.156 HD
HETATM   10  C15 UNL     1      -3.980   1.055   0.248  1.00  0.00    -0.008 A 
HETATM   11  C21 UNL     1      -3.123   1.183   1.305  1.00  0.00     0.015 A 
HETATM   12  C22 UNL     1      -3.674   1.757   2.565  1.00  0.00     0.069 C 
HETATM   13  N6  UNL     1      -1.852   0.797   1.179  1.00  0.00    -0.344 N 
ATOM     14  H6  UNL     1      -1.228   0.899   1.979  1.00  0.00     0.167 HD
HETATM   15  C23 UNL     1      -1.358   0.275   0.032  1.00  0.00     0.137 A 
HETATM   16  N7  UNL     1      -0.044  -0.100  -0.029  1.00  0.00    -0.176 N 
ATOM     17  H7  UNL     1       0.540   0.023   0.798  1.00  0.00     0.186 HD
ENDROOT
BRANCH   1  18
HETATM   18  N2  UNL     1       1.731  -0.987  -1.234  1.00  0.00    -0.224 N 
ATOM     19  H2  UNL     1       2.016  -1.370  -2.135  1.00  0.00     0.177 HD
BRANCH  18  20
HETATM   20  C10 UNL     1       2.740  -0.917  -0.228  1.00  0.00     0.168 C 
BRANCH  20  21
HETATM   21  C9  UNL     1       3.735  -2.030  -0.462  1.00  0.00     0.296 C 
BRANCH  21  22
HETATM   22  N1  UNL     1       4.811  -2.081   0.465  1.00  0.00     0.121 N 
HETATM   23  C5  UNL     1       5.750  -0.997   0.401  1.00  0.00     0.359 C 
HETATM   24  O1  UNL     1       6.539  -1.251   1.526  1.00  0.00    -0.350 OA
HETATM   25  C6  UNL     1       5.660  -1.630   2.537  1.00  0.00     0.148 C 
HETATM   26  C7  UNL     1       5.252  -0.415   3.328  1.00  0.00     0.041 C 
HETATM   27  C8  UNL     1       4.460  -2.278   1.834  1.00  0.00     0.307 C 
BRANCH  23  28
HETATM   28  C4  UNL     1       6.541  -1.089  -0.872  1.00  0.00     0.064 C 
BRANCH  28  29
HETATM   29  C3  UNL     1       7.686  -0.101  -0.909  1.00  0.00     0.004 C 
BRANCH  29  30
HETATM   30  C2  UNL     1       7.232   1.320  -0.800  1.00  0.00    -0.004 C 
HETATM   31  C1  UNL     1       6.302   1.752  -1.894  1.00  0.00     0.005 C 
ENDBRANCH  29  30
ENDBRANCH  28  29
ENDBRANCH  23  28
ENDBRANCH  21  22
ENDBRANCH  20  21
ENDBRANCH  18  20
ENDBRANCH   1  18
BRANCH   4  32
HETATM   32  N4  UNL     1      -2.319  -0.573  -3.229  1.00  0.00    -0.384 N 
ATOM     33  H42 UNL     1      -1.907  -0.971  -4.073  1.00  0.00     0.157 HD
ATOM     34  H41 UNL     1      -3.303  -0.306  -3.223  1.00  0.00     0.157 HD
ENDBRANCH   4  32
BRANCH  10  35
HETATM   35  C16 UNL     1      -5.413   1.464   0.318  1.00  0.00     0.053 C 
BRANCH  35  36
HETATM   36  C17 UNL     1      -6.273   0.251   0.454  1.00  0.00     0.116 C 
BRANCH  36  37
HETATM   37  C18 UNL     1      -7.728   0.623   0.524  1.00  0.00     0.259 C 
HETATM   38  O2  UNL     1      -8.111   1.810   0.467  1.00  0.00    -0.265 OA
BRANCH  37  39
HETATM   39  O3  UNL     1      -8.700  -0.356   0.656  1.00  0.00    -0.322 OA
BRANCH  39  40
HETATM   40  C19 UNL     1     -10.079  -0.025   0.722  1.00  0.00     0.174 C 
HETATM   41  C20 UNL     1     -10.420   0.690  -0.573  1.00  0.00     0.034 C 
ENDBRANCH  39  40
ENDBRANCH  37  39
ENDBRANCH  36  37
ENDBRANCH  35  36
ENDBRANCH  10  35
TORSDOF 13
