REMARK  7 active torsions:
REMARK  status: ('A' for Active; 'I' for Inactive)
REMARK       I    between atoms: N1_1  and  C1_4 
REMARK       I    between atoms: C1_4  and  N2_5 
REMARK       I    between atoms: C1_4  and  N9_30 
REMARK    1  A    between atoms: N2_5  and  C2_7 
REMARK    2  A    between atoms: C2_7  and  N3_8 
REMARK    3  A    between atoms: C2_7  and  C3_11 
REMARK    4  A    between atoms: C5_17  and  C6_18 
REMARK    5  A    between atoms: N7_21  and  C7_22 
REMARK    6  A    between atoms: C7_22  and  O2_23 
REMARK    7  A    between atoms: N9_30  and  N10_32 
ROOT
HETATM    1  C3  UNL     1       1.277  -0.275   0.178  1.00  0.00     0.152 A 
HETATM    2  N4  UNL     1       0.458  -0.654  -0.821  1.00  0.00    -0.323 N 
ATOM      3  H4  UNL     1       0.767  -1.081  -1.694  1.00  0.00     0.169 HD
HETATM    4  C4  UNL     1      -0.813  -0.394  -0.512  1.00  0.00     0.141 A 
HETATM    5  N5  UNL     1      -1.990  -0.558  -1.114  1.00  0.00    -0.322 N 
ATOM      6  H5  UNL     1      -1.988  -0.982  -2.042  1.00  0.00     0.169 HD
HETATM    7  C5  UNL     1      -3.188  -0.207  -0.592  1.00  0.00     0.180 A 
HETATM    8  N7  UNL     1      -3.157   0.344   0.627  1.00  0.00    -0.272 N 
HETATM    9  C8  UNL     1      -1.992   0.541   1.296  1.00  0.00     0.281 A 
HETATM   10  O3  UNL     1      -1.988   1.069   2.455  1.00  0.00    -0.265 OA
HETATM   11  C9  UNL     1      -0.810   0.176   0.737  1.00  0.00     0.147 A 
HETATM   12  N8  UNL     1       0.495   0.237   1.140  1.00  0.00    -0.332 N 
ATOM     13  H8  UNL     1       0.822   0.612   2.030  1.00  0.00     0.168 HD
ENDROOT
BRANCH   1  14
HETATM   14  C2  UNL     1       2.721  -0.376   0.253  1.00  0.00     0.159 C 
BRANCH  14  15
HETATM   15  N2  UNL     1       3.483  -0.933  -0.810  1.00  0.00    -0.172 N 
HETATM   16  C1  UNL     1       4.837  -1.287  -0.665  1.00  0.00     0.697 C 
HETATM   17  N1  UNL     1       5.166  -2.486  -0.262  1.00  0.00    -0.233 N 
HETATM   18  N9  UNL     1       5.865  -0.346  -0.954  1.00  0.00    -0.072 N 
ATOM     19  H12 UNL     1       4.429  -3.160  -0.055  1.00  0.00     0.174 HD
ATOM     20  H11 UNL     1       6.148  -2.743  -0.157  1.00  0.00     0.174 HD
ATOM     21  H9  UNL     1       6.793  -0.659  -1.240  1.00  0.00     0.212 HD
ATOM     22  H2  UNL     1       3.031  -1.082  -1.712  1.00  0.00     0.186 HD
BRANCH  18  23
HETATM   23  N10 UNL     1       5.576   1.015  -0.838  1.00  0.00    -0.024 N 
HETATM   24  O4  UNL     1       4.761   1.605  -1.560  1.00  0.00    -0.516 OA
HETATM   25  O5  UNL     1       6.237   1.728   0.132  1.00  0.00    -0.516 OA
ENDBRANCH  18  23
ENDBRANCH  14  15
BRANCH  14  26
HETATM   26  N3  UNL     1       3.334   0.038   1.288  1.00  0.00    -0.382 N 
ATOM     27  H32 UNL     1       4.350  -0.033   1.341  1.00  0.00     0.157 HD
ATOM     28  H31 UNL     1       2.787   0.438   2.051  1.00  0.00     0.157 HD
ENDBRANCH  14  26
ENDBRANCH   1  14
BRANCH   7  29
HETATM   29  C6  UNL     1      -4.393  -0.426  -1.353  1.00  0.00     0.299 C 
HETATM   30  N6  UNL     1      -5.704  -0.046  -1.042  1.00  0.00    -0.054 NA
HETATM   31  O1  UNL     1      -4.266  -1.049  -2.470  1.00  0.00    -0.268 OA
ENDBRANCH   7  29
BRANCH   8  32
HETATM   32  C7  UNL     1      -4.354   0.742   1.331  1.00  0.00     0.300 C 
BRANCH  32  33
HETATM   33  O2  UNL     1      -4.730   2.045   1.009  1.00  0.00    -0.382 OA
ATOM     34  H2  UNL     1      -5.517   2.307   1.472  1.00  0.00     0.211 HD
ENDBRANCH  32  33
ENDBRANCH   8  32
TORSDOF 7
