REMARK  4 active torsions:
REMARK  status: ('A' for Active; 'I' for Inactive)
REMARK       I    between atoms: N1_2  and  C2_4 
REMARK    1  A    between atoms: C2_4  and  C3_6 
REMARK    2  A    between atoms: C3_6  and  C4_7 
REMARK    3  A    between atoms: C4_7  and  N2_8 
REMARK       I    between atoms: N2_8  and  C5_10 
REMARK       I    between atoms: C5_10  and  N3_12 
REMARK    4  A    between atoms: N3_12  and  C6_14 
ROOT
HETATM    1  C6  UNL     1      -0.645  -0.525  -0.637  1.00  0.00     0.091 C 
HETATM    2  C7  UNL     1      -1.746  -0.609  -1.630  1.00  0.00     0.030 C 
HETATM    3  C8  UNL     1      -3.085  -0.196  -1.133  1.00  0.00    -0.012 C 
HETATM    4  C9  UNL     1      -3.432  -0.958   0.135  1.00  0.00     0.010 C 
HETATM    5  C10 UNL     1      -3.070  -0.254   1.387  1.00  0.00    -0.010 C 
HETATM    6  C11 UNL     1      -2.986  -1.267   2.518  1.00  0.00     0.005 C 
HETATM    7  C12 UNL     1      -1.490  -1.323   2.219  1.00  0.00     0.006 C 
HETATM    8  C13 UNL     1      -1.655   0.022   1.622  1.00  0.00    -0.004 C 
HETATM    9  C14 UNL     1      -0.820   0.441   0.464  1.00  0.00     0.013 C 
HETATM   10  C15 UNL     1      -1.128   1.849   0.096  1.00  0.00     0.015 C 
HETATM   11  C16 UNL     1      -2.243   2.181  -0.777  1.00  0.00    -0.047 C 
HETATM   12  C17 UNL     1      -1.735   2.780  -2.105  1.00  0.00     0.015 C 
HETATM   13  C18 UNL     1      -2.941   3.414  -0.136  1.00  0.00     0.015 C 
HETATM   14  C19 UNL     1      -3.356   1.234  -0.994  1.00  0.00     0.013 C 
ENDROOT
BRANCH   1  15
HETATM   15  N3  UNL     1       0.615  -0.297  -1.322  1.00  0.00    -0.338 N 
HETATM   16  C5  UNL     1       1.690  -1.231  -1.311  1.00  0.00     0.316 C 
HETATM   17  N2  UNL     1       2.904  -0.979  -1.988  1.00  0.00    -0.343 N 
HETATM   18  O2  UNL     1       1.520  -2.298  -0.672  1.00  0.00    -0.247 OA
ATOM     19  H2  UNL     1       3.022  -0.107  -2.503  1.00  0.00     0.164 HD
ATOM     20  H3  UNL     1       0.736   0.575  -1.837  1.00  0.00     0.164 HD
BRANCH  17  21
HETATM   21  C4  UNL     1       3.967  -1.931  -1.959  1.00  0.00     0.133 C 
BRANCH  21  22
HETATM   22  C3  UNL     1       4.512  -2.257  -0.609  1.00  0.00     0.122 C 
BRANCH  22  23
HETATM   23  C2  UNL     1       5.061  -1.083   0.099  1.00  0.00     0.218 C 
HETATM   24  N1  UNL     1       5.619  -1.216   1.391  1.00  0.00    -0.365 N 
HETATM   25  C1  UNL     1       6.172  -0.098   2.131  1.00  0.00     0.149 C 
ATOM     26  H1  UNL     1       5.633  -2.140   1.822  1.00  0.00     0.161 HD
HETATM   27  O1  UNL     1       5.059   0.076  -0.408  1.00  0.00    -0.274 OA
ENDBRANCH  22  23
ENDBRANCH  21  22
ENDBRANCH  17  21
ENDBRANCH   1  15
TORSDOF 4
