REMARK  10 active torsions:
REMARK  status: ('A' for Active; 'I' for Inactive)
REMARK    1  A    between atoms: C4_9  and  C5_10 
REMARK    2  A    between atoms: C5_10  and  C6_11 
REMARK    3  A    between atoms: C7_12  and  N3_13 
REMARK    4  A    between atoms: N3_13  and  C8_14 
REMARK    5  A    between atoms: C10_16  and  C11_17 
REMARK    6  A    between atoms: C16_29  and  N7_30 
REMARK    7  A    between atoms: N7_30  and  C17_32 
REMARK    8  A    between atoms: C17_32  and  C18_33 
REMARK    9  A    between atoms: C18_33  and  C19_34 
REMARK   10  A    between atoms: C19_34  and  O2_35 
ROOT
HETATM    1  C6  UNL     1      -0.519   0.181   0.389  1.00  0.00     0.033 A 
HETATM    2  C7  UNL     1       0.513   1.021   0.883  1.00  0.00     0.138 A 
HETATM    3  C14 UNL     1       0.147   2.304   1.332  1.00  0.00     0.067 A 
HETATM    4 BR1  UNL     1       1.439   3.534   1.997  1.00  0.00    -0.046 Br
HETATM    5  C15 UNL     1      -1.163   2.698   1.282  1.00  0.00     0.112 A 
HETATM    6  N6  UNL     1      -2.090   1.870   0.803  1.00  0.00    -0.350 N 
ATOM      7  H6  UNL     1      -3.058   2.190   0.773  1.00  0.00     0.166 HD
HETATM    8  C16 UNL     1      -1.805   0.606   0.348  1.00  0.00     0.114 A 
ENDROOT
BRANCH   2   9
HETATM    9  N3  UNL     1       1.792   0.670   0.872  1.00  0.00    -0.384 NA
BRANCH   9  10
HETATM   10  C8  UNL     1       2.920   0.341   0.869  1.00  0.00     0.195 A 
HETATM   11  C9  UNL     1       4.015   1.123   0.484  1.00  0.00     0.092 A 
HETATM   12  C10 UNL     1       5.157   0.383   0.593  1.00  0.00     0.034 A 
HETATM   13  N4  UNL     1       4.758  -0.801   1.027  1.00  0.00    -0.302 N 
HETATM   14  N5  UNL     1       3.468  -0.879   1.203  1.00  0.00    -0.274 N 
ATOM     15  H4  UNL     1       5.396  -1.576   1.206  1.00  0.00     0.186 HD
ATOM     16  H5  UNL     1       2.955  -1.698   1.530  1.00  0.00     0.189 HD
BRANCH  12  17
HETATM   17  C11 UNL     1       6.507   0.924   0.252  1.00  0.00     0.037 A 
HETATM   18  C12 UNL     1       6.657   2.098  -0.606  1.00  0.00     0.011 A 
HETATM   19  C13 UNL     1       6.885   0.735  -1.227  1.00  0.00     0.011 A 
ENDBRANCH  12  17
ENDBRANCH   9  10
ENDBRANCH   2   9
BRANCH   1  20
HETATM   20  C5  UNL     1      -0.060  -1.135  -0.049  1.00  0.00     0.092 C 
BRANCH  20  21
HETATM   21  C4  UNL     1      -0.996  -2.107  -0.533  1.00  0.00     0.039 A 
HETATM   22  C2  UNL     1      -1.796  -2.999   0.195  1.00  0.00     0.034 A 
HETATM   23  C1  UNL     1      -1.854  -3.169   1.660  1.00  0.00     0.070 C 
HETATM   24  N1  UNL     1      -2.534  -3.744  -0.676  1.00  0.00    -0.302 N 
HETATM   25  N2  UNL     1      -2.209  -3.338  -1.913  1.00  0.00    -0.266 N 
ATOM     26  H1  UNL     1      -3.206  -4.472  -0.433  1.00  0.00     0.186 HD
HETATM   27  C3  UNL     1      -1.304  -2.372  -1.839  1.00  0.00     0.268 A 
ATOM     28  H2  UNL     1      -2.598  -3.715  -2.777  1.00  0.00     0.190 HD
HETATM   29  O1  UNL     1      -0.814  -1.797  -2.879  1.00  0.00    -0.266 OA
ENDBRANCH  20  21
ENDBRANCH   1  20
BRANCH   8  30
HETATM   30  N7  UNL     1      -2.754  -0.098  -0.159  1.00  0.00    -0.355 N 
ATOM     31  H7  UNL     1      -2.492  -1.008  -0.539  1.00  0.00     0.166 HD
BRANCH  30  32
HETATM   32  C17 UNL     1      -4.107   0.249  -0.246  1.00  0.00     0.064 C 
BRANCH  32  33
HETATM   33  C18 UNL     1      -4.484   1.197  -1.354  1.00  0.00     0.070 C 
BRANCH  33  34
HETATM   34  C19 UNL     1      -5.982   1.449  -1.308  1.00  0.00     0.169 C 
BRANCH  34  35
HETATM   35  O2  UNL     1      -6.301   2.009  -0.063  1.00  0.00    -0.401 OA
ATOM     36  H2  UNL     1      -7.237   2.167  -0.034  1.00  0.00     0.209 HD
ENDBRANCH  34  35
ENDBRANCH  33  34
ENDBRANCH  32  33
ENDBRANCH  30  32
ENDBRANCH   8  30
TORSDOF 10
