REMARK  4 active torsions:
REMARK  status: ('A' for Active; 'I' for Inactive)
REMARK       I    between atoms: N1_2  and  C2_4 
REMARK       I    between atoms: C2_4  and  N2_6 
REMARK    1  A    between atoms: N2_6  and  C3_7 
REMARK    2  A    between atoms: C3_7  and  C5_9 
REMARK    3  A    between atoms: C5_9  and  N3_12 
REMARK       I    between atoms: N3_12  and  C8_14 
REMARK       I    between atoms: C8_14  and  N4_16 
REMARK    4  A    between atoms: N4_16  and  C9_18 
ROOT
HETATM    1  N3  UNL     1       0.931  -0.197  -1.224  1.00  0.00    -0.332 N 
ATOM      2  H3  UNL     1       1.178  -1.167  -1.420  1.00  0.00     0.165 HD
HETATM    3  C8  UNL     1      -0.350   0.132  -0.675  1.00  0.00     0.317 C 
HETATM    4  O2  UNL     1      -0.644   1.343  -0.423  1.00  0.00    -0.247 OA
HETATM    5  N4  UNL     1      -1.324  -0.851  -0.394  1.00  0.00    -0.333 N 
ATOM      6  H4  UNL     1      -1.123  -1.832  -0.588  1.00  0.00     0.165 HD
ENDROOT
BRANCH   1   7
HETATM    7  C5  UNL     1       1.853   0.853  -1.491  1.00  0.00     0.059 C 
HETATM    8  C6  UNL     1       2.140   1.626  -0.237  1.00  0.00     0.041 C 
HETATM    9  C7  UNL     1       1.226   1.731  -2.572  1.00  0.00     0.041 C 
BRANCH   7  10
HETATM   10  C3  UNL     1       3.193   0.341  -2.061  1.00  0.00     0.192 C 
HETATM   11  C4  UNL     1       4.050   1.625  -2.222  1.00  0.00     0.050 C 
BRANCH  10  12
HETATM   12  N2  UNL     1       3.862  -0.478  -1.160  1.00  0.00    -0.389 NA
HETATM   13  C2  UNL     1       4.506  -1.265  -0.294  1.00  0.00     0.388 C 
HETATM   14  N1  UNL     1       4.793  -0.827   1.084  1.00  0.00    -0.336 N 
HETATM   15  O1  UNL     1       4.945  -2.439  -0.506  1.00  0.00    -0.231 OA
HETATM   16  C1  UNL     1       5.486  -1.649   2.021  1.00  0.00     0.152 C 
ATOM     17  H1  UNL     1       4.484   0.099   1.379  1.00  0.00     0.164 HD
ENDBRANCH  10  12
ENDBRANCH   7  10
ENDBRANCH   1   7
BRANCH   5  18
HETATM   18  C9  UNL     1      -2.579  -0.487   0.155  1.00  0.00     0.039 C 
HETATM   19  C10 UNL     1      -2.476   0.184   1.524  1.00  0.00     0.036 C 
HETATM   20  C11 UNL     1      -3.885  -0.105   2.057  1.00  0.00    -0.011 C 
HETATM   21  C12 UNL     1      -4.827   0.680   1.179  1.00  0.00     0.009 C 
HETATM   22  C16 UNL     1      -3.975  -1.594   1.788  1.00  0.00     0.012 C 
HETATM   23  C13 UNL     1      -4.747   0.278  -0.256  1.00  0.00    -0.011 C 
HETATM   24  C14 UNL     1      -4.801  -1.225  -0.457  1.00  0.00     0.012 C 
HETATM   25  C17 UNL     1      -3.308   0.552  -0.715  1.00  0.00     0.036 C 
HETATM   26  C15 UNL     1      -3.538  -1.626   0.317  1.00  0.00     0.014 C 
ENDBRANCH   5  18
TORSDOF 4
