REMARK  4 active torsions:
REMARK  status: ('A' for Active; 'I' for Inactive)
REMARK    1  A    between atoms: C2_2  and  C4_4 
REMARK    2  A    between atoms: C4_4  and  N1_5 
REMARK       I    between atoms: N1_5  and  C5_7 
REMARK       I    between atoms: C5_7  and  N2_9 
REMARK    3  A    between atoms: N2_9  and  C6_11 
REMARK    4  A    between atoms: C9_18  and  C10_19 
ROOT
HETATM    1  C6  UNL     1       0.308  -0.499   0.859  1.00  0.00     0.134 A 
HETATM    2  N3  UNL     1       0.652  -1.534   1.670  1.00  0.00    -0.285 N 
ATOM      3  H3  UNL     1       1.581  -1.713   2.052  1.00  0.00     0.188 HD
HETATM    4  N4  UNL     1      -0.443  -2.279   1.881  1.00  0.00    -0.303 N 
ATOM      5  H4  UNL     1      -0.491  -3.123   2.452  1.00  0.00     0.186 HD
HETATM    6  C7  UNL     1      -1.481  -1.714   1.201  1.00  0.00     0.038 A 
HETATM    7  C8  UNL     1      -1.032  -0.590   0.549  1.00  0.00     0.042 A 
HETATM    8  C9  UNL     1      -1.761   0.363  -0.313  1.00  0.00     0.228 C 
HETATM    9  N5  UNL     1      -2.626  -0.308  -1.261  1.00  0.00    -0.066 N 
ATOM     10  H51 UNL     1      -2.089  -0.968  -1.824  1.00  0.00     0.278 HD
ATOM     11  H52 UNL     1      -2.925   0.342  -1.988  1.00  0.00     0.278 HD
HETATM   12  C15 UNL     1      -3.752  -0.955  -0.685  1.00  0.00     0.237 C 
HETATM   13  C16 UNL     1      -3.467  -2.337  -0.145  1.00  0.00     0.013 C 
HETATM   14  C17 UNL     1      -2.710  -3.202  -1.110  1.00  0.00     0.012 C 
HETATM   15  C18 UNL     1      -2.831  -2.284   1.219  1.00  0.00     0.065 C 
ENDROOT
BRANCH   1  16
HETATM   16  N2  UNL     1       1.086   0.431   0.431  1.00  0.00    -0.293 N 
HETATM   17  C5  UNL     1       2.452   0.410   0.826  1.00  0.00     0.321 C 
HETATM   18  N1  UNL     1       3.514   0.185  -0.082  1.00  0.00    -0.342 N 
HETATM   19  O1  UNL     1       2.665   0.609   2.069  1.00  0.00    -0.247 OA
ATOM     20  H1  UNL     1       3.326   0.027  -1.072  1.00  0.00     0.164 HD
ATOM     21  H2  UNL     1       0.731   1.168  -0.179  1.00  0.00     0.172 HD
BRANCH  18  22
HETATM   22  C4  UNL     1       4.861   0.183   0.417  1.00  0.00     0.128 C 
BRANCH  22  23
HETATM   23  C2  UNL     1       5.888  -0.066  -0.641  1.00  0.00    -0.005 C 
HETATM   24  C1  UNL     1       5.710  -1.386  -1.323  1.00  0.00     0.011 C 
HETATM   25  C3  UNL     1       5.882   1.093  -1.611  1.00  0.00     0.011 C 
ENDBRANCH  22  23
ENDBRANCH  18  22
ENDBRANCH   1  16
BRANCH   8  26
HETATM   26  C10 UNL     1      -2.565   1.363   0.452  1.00  0.00     0.021 C 
HETATM   27  C11 UNL     1      -3.259   2.270  -0.545  1.00  0.00     0.007 C 
HETATM   28  C12 UNL     1      -3.288   3.644   0.046  1.00  0.00     0.000 C 
HETATM   29  C13 UNL     1      -2.726   3.478   1.443  1.00  0.00     0.000 C 
HETATM   30  C14 UNL     1      -1.681   2.385   1.179  1.00  0.00     0.007 C 
ENDBRANCH   8  26
TORSDOF 4
