REMARK  8 active torsions:
REMARK  status: ('A' for Active; 'I' for Inactive)
REMARK    1  A    between atoms: C2_2  and  N1_4 
REMARK    2  A    between atoms: N1_4  and  C3_6 
REMARK    3  A    between atoms: C4_11  and  N4_12 
REMARK    4  A    between atoms: N4_12  and  C5_14 
REMARK    5  A    between atoms: C5_14  and  N5_16 
REMARK    6  A    between atoms: N5_16  and  C6_18 
REMARK    7  A    between atoms: C6_18  and  C7_19 
REMARK    8  A    between atoms: C7_19  and  O1_20 
ROOT
HETATM    1  N4  UNL     1       0.643  -0.620  -0.890  1.00  0.00    -0.164 N 
ATOM      2  H4  UNL     1       0.252   0.312  -1.029  1.00  0.00     0.186 HD
ENDROOT
BRANCH   1   3
HETATM    3  C4  UNL     1       1.779  -0.777  -0.289  1.00  0.00     0.714 A 
HETATM    4  N3  UNL     1       2.396  -1.941  -0.045  1.00  0.00    -0.117 N 
HETATM    5  N2  UNL     1       3.527  -1.700   0.585  1.00  0.00    -0.117 N 
ATOM      6  H3  UNL     1       2.047  -2.863  -0.305  1.00  0.00     0.206 HD
HETATM    7  C3  UNL     1       3.633  -0.371   0.745  1.00  0.00     0.712 A 
ATOM      8  H2  UNL     1       4.202  -2.398   0.896  1.00  0.00     0.206 HD
HETATM    9  N6  UNL     1       2.551   0.200   0.205  1.00  0.00    -0.019 N 
ATOM     10  H6  UNL     1       2.350   1.199   0.175  1.00  0.00     0.203 HD
BRANCH   7  11
HETATM   11  N1  UNL     1       4.627   0.257   1.331  1.00  0.00    -0.184 N 
ATOM     12  H1  UNL     1       5.419  -0.256   1.719  1.00  0.00     0.185 HD
BRANCH  11  13
HETATM   13  C2  UNL     1       4.564   1.672   1.407  1.00  0.00     0.090 C 
HETATM   14  C1  UNL     1       5.464   2.471   0.524  1.00  0.00     0.082 C 
HETATM   15  S1  UNL     1       3.560   2.486   2.409  1.00  0.00    -0.065 SA
ENDBRANCH  11  13
ENDBRANCH   7  11
ENDBRANCH   1   3
BRANCH   1  16
HETATM   16  C5  UNL     1      -0.043  -1.763  -1.349  1.00  0.00     0.190 C 
HETATM   17  S2  UNL     1       0.655  -2.501  -2.663  1.00  0.00    -0.040 SA
BRANCH  16  18
HETATM   18  N5  UNL     1      -1.201  -2.243  -0.767  1.00  0.00    -0.343 N 
ATOM     19  H5  UNL     1      -1.584  -3.095  -1.176  1.00  0.00     0.167 HD
BRANCH  18  20
HETATM   20  C6  UNL     1      -1.920  -1.708   0.317  1.00  0.00     0.101 C 
BRANCH  20  21
HETATM   21  C7  UNL     1      -2.752  -0.534  -0.004  1.00  0.00     0.089 C 
HETATM   22  C8  UNL     1      -2.166   0.758  -0.365  1.00  0.00     0.043 C 
HETATM   23  C9  UNL     1      -3.383   1.715  -0.254  1.00  0.00     0.004 C 
HETATM   24  C10 UNL     1      -4.326   1.032   0.711  1.00  0.00     0.004 C 
HETATM   25  C11 UNL     1      -3.553  -0.132   1.278  1.00  0.00     0.043 C 
BRANCH  21  26
HETATM   26  O1  UNL     1      -3.712  -0.855  -0.999  1.00  0.00    -0.384 OA
ATOM     27  H1  UNL     1      -4.248  -0.099  -1.206  1.00  0.00     0.211 HD
ENDBRANCH  21  26
ENDBRANCH  20  21
ENDBRANCH  18  20
ENDBRANCH  16  18
ENDBRANCH   1  16
TORSDOF 8
