REMARK  6 active torsions:
REMARK  status: ('A' for Active; 'I' for Inactive)
REMARK    1  A    between atoms: C4_4  and  S1_5 
REMARK    2  A    between atoms: S1_5  and  N1_8 
REMARK    3  A    between atoms: N1_8  and  C5_10 
REMARK    4  A    between atoms: C5_10  and  C6_11 
REMARK    5  A    between atoms: C9_15  and  N2_16 
REMARK       I    between atoms: N2_16  and  C10_18 
REMARK       I    between atoms: C10_18  and  N4_22 
REMARK    6  A    between atoms: N4_22  and  C11_24 
ROOT
HETATM    1  C1  UNL     1       0.850  -0.976   2.720  1.00  0.00     0.050 C 
HETATM    2  C2  UNL     1       1.120  -1.084   1.248  1.00  0.00    -0.033 A 
HETATM    3  C3  UNL     1       2.404  -1.096   0.746  1.00  0.00     0.034 A 
HETATM    4  C4  UNL     1       2.655  -1.195  -0.603  1.00  0.00     0.080 A 
HETATM    5  C7  UNL     1       1.581  -1.283  -1.459  1.00  0.00     0.027 A 
HETATM    6  C8  UNL     1       0.296  -1.271  -0.963  1.00  0.00     0.032 A 
HETATM    7  C9  UNL     1       0.052  -1.173   0.380  1.00  0.00     0.055 A 
ENDROOT
BRANCH   7   8
HETATM    8  N2  UNL     1      -1.279  -1.159   0.907  1.00  0.00    -0.192 N 
HETATM    9  C10 UNL     1      -2.421  -1.247   0.072  1.00  0.00     0.672 C 
HETATM   10  N3  UNL     1      -3.034  -2.348  -0.161  1.00  0.00    -0.235 N 
HETATM   11  N4  UNL     1      -2.883  -0.024  -0.521  1.00  0.00    -0.218 N 
ATOM     12  H32 UNL     1      -2.706  -3.217   0.260  1.00  0.00     0.174 HD
ATOM     13  H31 UNL     1      -3.856  -2.411  -0.762  1.00  0.00     0.174 HD
ATOM     14  H4  UNL     1      -2.360   0.375  -1.301  1.00  0.00     0.178 HD
ATOM     15  H2  UNL     1      -1.410  -1.083   1.916  1.00  0.00     0.184 HD
BRANCH  11  16
HETATM   16  C11 UNL     1      -4.063   0.658  -0.049  1.00  0.00     0.036 C 
HETATM   17  C12 UNL     1      -5.268  -0.262  -0.187  1.00  0.00     0.038 C 
HETATM   18  C13 UNL     1      -3.857   1.071   1.384  1.00  0.00     0.038 C 
HETATM   19  C14 UNL     1      -4.275   1.881  -0.893  1.00  0.00     0.038 C 
ENDBRANCH  11  16
ENDBRANCH   7   8
BRANCH   4  20
HETATM   20  S1  UNL     1       4.300  -1.209  -1.221  1.00  0.00     0.258 S 
HETATM   21  O1  UNL     1       4.238  -1.931  -2.556  1.00  0.00    -0.201 OA
HETATM   22  O2  UNL     1       5.224  -1.926  -0.315  1.00  0.00    -0.201 OA
BRANCH  20  23
HETATM   23  N1  UNL     1       4.753   0.406  -1.529  1.00  0.00    -0.315 N 
ATOM     24  H1  UNL     1       5.002   0.745  -2.458  1.00  0.00     0.172 HD
BRANCH  23  25
HETATM   25  C5  UNL     1       4.752   1.241  -0.370  1.00  0.00     0.143 C 
BRANCH  25  26
HETATM   26  C6  UNL     1       5.165   2.647  -0.741  1.00  0.00     0.105 C 
HETATM   27 BR1  UNL     1       6.953   2.563  -1.497  1.00  0.00    -0.095 Br
ENDBRANCH  25  26
ENDBRANCH  23  25
ENDBRANCH  20  23
ENDBRANCH   4  20
TORSDOF 6
