REMARK  13 active torsions:
REMARK  status: ('A' for Active; 'I' for Inactive)
REMARK    1  A    between atoms: C2_2  and  C3_3 
REMARK    2  A    between atoms: C3_3  and  C4_4 
REMARK    3  A    between atoms: C3_3  and  C17_25 
REMARK    4  A    between atoms: C5_5  and  C6_6 
REMARK    5  A    between atoms: C6_6  and  C7_7 
REMARK    6  A    between atoms: C8_8  and  O1_9 
REMARK    7  A    between atoms: C10_12  and  O2_13 
REMARK    8  A    between atoms: C11_15  and  C12_16 
REMARK    9  A    between atoms: C12_16  and  C13_17 
REMARK   10  A    between atoms: C13_17  and  C14_18 
REMARK   11  A    between atoms: C14_18  and  O3_19 
REMARK   12  A    between atoms: C14_18  and  C15_21 
REMARK   13  A    between atoms: C15_21  and  C16_22 
ROOT
HETATM    1  C7  UNL     1       2.065  -0.351   0.848  1.00  0.00     0.024 C 
HETATM    2  C8  UNL     1       2.101   1.103   0.498  1.00  0.00     0.125 C 
HETATM    3  C9  UNL     1       2.767   1.248  -0.846  1.00  0.00     0.064 C 
HETATM    4  C10 UNL     1       3.290  -0.119  -1.245  1.00  0.00     0.125 C 
HETATM    5  C11 UNL     1       2.924  -1.066  -0.176  1.00  0.00     0.021 C 
ENDROOT
BRANCH   1   6
HETATM    6  C6  UNL     1       0.597  -0.814   0.671  1.00  0.00     0.034 C 
BRANCH   6   7
HETATM    7  C5  UNL     1      -0.292  -0.068   1.541  1.00  0.00    -0.030 C 
HETATM    8  C4  UNL     1      -1.281   0.671   1.320  1.00  0.00    -0.025 C 
BRANCH   8   9
HETATM    9  C3  UNL     1      -2.073   1.189   0.192  1.00  0.00     0.015 C 
BRANCH   9  10
HETATM   10  C2  UNL     1      -1.553   0.903  -1.160  1.00  0.00     0.005 C 
HETATM   11  C1  UNL     1      -2.388   1.501  -2.301  1.00  0.00     0.006 C 
ENDBRANCH   9  10
BRANCH   9  12
HETATM   12  C17 UNL     1      -3.490   0.686   0.450  1.00  0.00     0.016 C 
HETATM   13  C18 UNL     1      -4.541   1.226  -0.376  1.00  0.00    -0.016 C 
HETATM   14  C19 UNL     1      -5.625   0.501  -0.670  1.00  0.00    -0.055 C 
HETATM   15  C20 UNL     1      -6.707   1.085  -1.533  1.00  0.00     0.213 C 
HETATM   16  C23 UNL     1      -5.860  -0.882  -0.197  1.00  0.00     0.025 C 
HETATM   17  O6  UNL     1      -7.861   1.142  -0.744  1.00  0.00    -0.317 OA
HETATM   18  C21 UNL     1      -7.938   0.360   0.396  1.00  0.00     0.259 C 
HETATM   19  O7  UNL     1      -8.573   0.758   1.414  1.00  0.00    -0.265 OA
HETATM   20  C22 UNL     1      -7.251  -0.957   0.382  1.00  0.00     0.120 C 
HETATM   21  C24 UNL     1      -4.885  -1.273   0.897  1.00  0.00     0.010 C 
HETATM   22  C25 UNL     1      -3.512  -0.834   0.384  1.00  0.00     0.010 C 
ENDBRANCH   9  12
ENDBRANCH   8   9
ENDBRANCH   6   7
ENDBRANCH   1   6
BRANCH   2  23
HETATM   23  O1  UNL     1       2.788   1.862   1.457  1.00  0.00    -0.395 OA
ATOM     24  H1  UNL     1       2.811   2.785   1.235  1.00  0.00     0.210 HD
ENDBRANCH   2  23
BRANCH   5  25
HETATM   25  C12 UNL     1       3.942  -1.947   0.423  1.00  0.00     0.010 C 
BRANCH  25  26
HETATM   26  C13 UNL     1       4.950  -1.422   1.348  1.00  0.00     0.033 C 
BRANCH  26  27
HETATM   27  C14 UNL     1       5.927  -0.412   0.899  1.00  0.00     0.128 C 
BRANCH  27  28
HETATM   28  O3  UNL     1       6.779  -0.066   1.979  1.00  0.00    -0.395 OA
ATOM     29  H3  UNL     1       7.408   0.584   1.690  1.00  0.00     0.210 HD
ENDBRANCH  27  28
BRANCH  27  30
HETATM   30  C15 UNL     1       6.908  -0.980  -0.143  1.00  0.00     0.144 C 
BRANCH  30  31
HETATM   31  C16 UNL     1       7.840   0.097  -0.530  1.00  0.00     0.175 C 
HETATM   32  O4  UNL     1       8.743  -0.126  -1.368  1.00  0.00    -0.648 OA
HETATM   33  O5  UNL     1       7.745   1.364   0.014  1.00  0.00    -0.648 OA
ENDBRANCH  30  31
ENDBRANCH  27  30
ENDBRANCH  26  27
ENDBRANCH  25  26
ENDBRANCH   5  25
BRANCH   4  34
HETATM   34  O2  UNL     1       2.653  -0.439  -2.482  1.00  0.00    -0.395 OA
ATOM     35  H2  UNL     1       2.981  -1.295  -2.732  1.00  0.00     0.210 HD
ENDBRANCH   4  34
TORSDOF 13
