REMARK  14 active torsions:
REMARK  status: ('A' for Active; 'I' for Inactive)
REMARK    1  A    between atoms: C2_2  and  C3_3 
REMARK    2  A    between atoms: C3_3  and  C4_4 
REMARK    3  A    between atoms: C5_7  and  C6_8 
REMARK    4  A    between atoms: C6_8  and  C7_9 
REMARK    5  A    between atoms: C7_9  and  C8_10 
REMARK    6  A    between atoms: C8_10  and  C9_11 
REMARK       I    between atoms: C9_11  and  N2_13 
REMARK    7  A    between atoms: N2_13  and  C10_15 
REMARK    8  A    between atoms: C10_15  and  C11_16 
REMARK    9  A    between atoms: C11_16  and  N3_17 
REMARK   10  A    between atoms: N3_17  and  C14_20 
REMARK   11  A    between atoms: C17_24  and  C18_25 
REMARK   12  A    between atoms: C18_25  and  C19_26 
REMARK   13  A    between atoms: C19_26  and  C20_27 
REMARK   14  A    between atoms: C20_27  and  N4_28 
ROOT
HETATM    1  C4  UNL     1       2.396  -1.464   0.368  1.00  0.00     0.039 A 
HETATM    2  N1  UNL     1       1.138  -1.384  -0.054  1.00  0.00    -0.359 N 
ATOM      3  H1  UNL     1       0.491  -2.172  -0.082  1.00  0.00     0.166 HD
HETATM    4  C5  UNL     1       0.827  -0.145  -0.436  1.00  0.00     0.016 A 
HETATM    5  C15 UNL     1       1.962   0.635  -0.249  1.00  0.00    -0.027 A 
HETATM    6  C16 UNL     1       2.057   2.103  -0.550  1.00  0.00     0.051 C 
HETATM    7  C17 UNL     1       2.952  -0.170   0.252  1.00  0.00    -0.006 A 
ENDROOT
BRANCH   4   8
HETATM    8  C6  UNL     1      -0.485   0.300  -0.957  1.00  0.00     0.058 C 
BRANCH   8   9
HETATM    9  C7  UNL     1      -1.293   1.041   0.049  1.00  0.00     0.015 C 
BRANCH   9  10
HETATM   10  C8  UNL     1      -2.605   1.476  -0.515  1.00  0.00     0.103 C 
BRANCH  10  11
HETATM   11  C9  UNL     1      -3.487   0.352  -0.912  1.00  0.00     0.217 C 
HETATM   12  O1  UNL     1      -3.239  -0.852  -0.670  1.00  0.00    -0.274 OA
HETATM   13  N2  UNL     1      -4.712   0.604  -1.620  1.00  0.00    -0.359 N 
ATOM     14  H2  UNL     1      -4.937   1.576  -1.834  1.00  0.00     0.162 HD
BRANCH  13  15
HETATM   15  C10 UNL     1      -5.640  -0.392  -2.049  1.00  0.00     0.151 C 
BRANCH  15  16
HETATM   16  C11 UNL     1      -6.200  -1.155  -0.899  1.00  0.00     0.265 C 
BRANCH  16  17
HETATM   17  N3  UNL     1      -6.923  -0.369   0.070  1.00  0.00    -0.019 N 
HETATM   18  C12 UNL     1      -8.339  -0.758   0.063  1.00  0.00     0.281 C 
HETATM   19  C13 UNL     1      -6.361  -0.675   1.393  1.00  0.00     0.281 C 
BRANCH  17  20
HETATM   20  C14 UNL     1      -6.896   1.014  -0.193  1.00  0.00     0.458 C 
HETATM   21  O2  UNL     1      -7.688   1.574  -0.941  1.00  0.00    -0.276 OA
ENDBRANCH  17  20
ENDBRANCH  16  17
ENDBRANCH  15  16
ENDBRANCH  13  15
ENDBRANCH  10  11
ENDBRANCH   9  10
ENDBRANCH   8   9
ENDBRANCH   4   8
BRANCH   1  22
HETATM   22  C3  UNL     1       2.998  -2.559   0.808  1.00  0.00     0.003 C 
BRANCH  22  23
HETATM   23  C2  UNL     1       2.247  -3.831   0.854  1.00  0.00     0.025 C 
HETATM   24  C1  UNL     1       3.191  -5.022   0.933  1.00  0.00     0.009 C 
ENDBRANCH  22  23
ENDBRANCH   1  22
BRANCH   7  25
HETATM   25  C18 UNL     1       4.182   0.087   0.587  1.00  0.00    -0.011 C 
BRANCH  25  26
HETATM   26  C19 UNL     1       4.858   1.397   0.505  1.00  0.00     0.047 C 
BRANCH  26  27
HETATM   27  C20 UNL     1       6.167   1.363   1.309  1.00  0.00     0.126 C 
BRANCH  27  28
HETATM   28  N4  UNL     1       6.818   2.651   1.207  1.00  0.00    -0.367 N 
HETATM   29  C21 UNL     1       7.916   2.776   0.555  1.00  0.00     0.196 C 
HETATM   30  N5  UNL     1       8.489   1.639  -0.068  1.00  0.00    -0.067 NA
HETATM   31  N6  UNL     1       8.562   4.027   0.447  1.00  0.00    -0.067 NA
ATOM     32  H4  UNL     1       6.401   3.466   1.657  1.00  0.00     0.161 HD
ENDBRANCH  27  28
ENDBRANCH  26  27
ENDBRANCH  25  26
ENDBRANCH   7  25
TORSDOF 14
