REMARK  12 active torsions:
REMARK  status: ('A' for Active; 'I' for Inactive)
REMARK    1  A    between atoms: C2_2  and  C3_3 
REMARK    2  A    between atoms: C3_3  and  N1_4 
REMARK    3  A    between atoms: N1_4  and  C4_6 
REMARK    4  A    between atoms: C5_9  and  N3_10 
REMARK    5  A    between atoms: N3_10  and  C6_12 
REMARK    6  A    between atoms: C6_12  and  C7_13 
REMARK    7  A    between atoms: C7_13  and  C8_14 
REMARK    8  A    between atoms: C16_26  and  N6_27 
REMARK    9  A    between atoms: N6_27  and  C17_29 
REMARK   10  A    between atoms: C17_29  and  C18_30 
REMARK   11  A    between atoms: C21_33  and  C22_34 
REMARK       I    between atoms: N8_39  and  C25_40 
REMARK       I    between atoms: C25_40  and  N9_42 
REMARK   12  A    between atoms: N9_42  and  C26_44 
ROOT
HETATM    1  C4  UNL     1      -2.980   3.790   0.252  1.00  0.00     0.707 A 
HETATM    2  N2  UNL     1      -3.918   3.238   1.021  1.00  0.00    -0.022 N 
ATOM      3  H2  UNL     1      -4.762   3.765   1.246  1.00  0.00     0.203 HD
HETATM    4  C5  UNL     1      -3.760   1.972   1.511  1.00  0.00     0.707 A 
HETATM    5  N5  UNL     1      -2.636   1.316   1.191  1.00  0.00    -0.022 N 
ATOM      6  H5  UNL     1      -2.510   0.371   1.552  1.00  0.00     0.203 HD
HETATM    7  C16 UNL     1      -1.667   1.835   0.421  1.00  0.00     0.707 A 
HETATM    8  N12 UNL     1      -1.871   3.098  -0.043  1.00  0.00    -0.022 N 
ATOM      9  H12 UNL     1      -1.159   3.530  -0.632  1.00  0.00     0.203 HD
ENDROOT
BRANCH   7  10
HETATM   10  N6  UNL     1      -0.584   1.190   0.117  1.00  0.00    -0.221 N 
ATOM     11  H6  UNL     1       0.106   1.652  -0.475  1.00  0.00     0.178 HD
BRANCH  10  12
HETATM   12  C17 UNL     1      -0.308  -0.146   0.574  1.00  0.00     0.176 C 
BRANCH  12  13
HETATM   13  C18 UNL     1       1.036  -0.540   0.028  1.00  0.00    -0.040 A 
HETATM   14  C19 UNL     1       2.198  -0.336   0.731  1.00  0.00     0.010 A 
HETATM   15  C20 UNL     1       3.426  -0.714   0.174  1.00  0.00     0.014 A 
HETATM   16  C21 UNL     1       3.493  -1.287  -1.055  1.00  0.00    -0.007 A 
HETATM   17  C30 UNL     1       2.274  -1.489  -1.769  1.00  0.00     0.014 A 
HETATM   18  C31 UNL     1       1.107  -1.119  -1.222  1.00  0.00     0.010 A 
BRANCH  16  19
HETATM   19  C22 UNL     1       4.693  -1.817  -1.684  1.00  0.00     0.070 A 
HETATM   20  C23 UNL     1       4.803  -1.807  -3.107  1.00  0.00     0.119 A 
HETATM   21  N7  UNL     1       5.945  -2.376  -3.476  1.00  0.00    -0.359 N 
HETATM   22  C24 UNL     1       6.586  -2.759  -2.378  1.00  0.00     0.193 A 
ATOM     23  H7  UNL     1       6.272  -2.497  -4.434  1.00  0.00     0.166 HD
HETATM   24  N8  UNL     1       5.798  -2.410  -1.271  1.00  0.00    -0.258 N 
HETATM   25  C25 UNL     1       6.183  -2.753   0.036  1.00  0.00     0.333 C 
HETATM   26  O1  UNL     1       5.581  -2.546   1.073  1.00  0.00    -0.246 OA
HETATM   27  N9  UNL     1       7.450  -3.442   0.221  1.00  0.00    -0.293 N 
ATOM     28  H9  UNL     1       7.540  -4.432  -0.006  1.00  0.00     0.172 HD
BRANCH  27  29
HETATM   29  C26 UNL     1       8.464  -2.776   0.680  1.00  0.00     0.125 A 
HETATM   30  C27 UNL     1       8.468  -1.440   1.021  1.00  0.00     0.076 A 
HETATM   31  C28 UNL     1       9.755  -1.124   1.465  1.00  0.00     0.025 A 
HETATM   32  C29 UNL     1      10.151   0.218   1.918  1.00  0.00     0.070 C 
HETATM   33  N10 UNL     1      10.478  -2.255   1.381  1.00  0.00    -0.304 N 
HETATM   34  N11 UNL     1       9.704  -3.220   0.917  1.00  0.00    -0.285 N 
ATOM     35  H10 UNL     1      11.461  -2.352   1.634  1.00  0.00     0.186 HD
ATOM     36  H11 UNL     1      10.012  -4.180   0.760  1.00  0.00     0.188 HD
ENDBRANCH  27  29
ENDBRANCH  16  19
ENDBRANCH  12  13
ENDBRANCH  10  12
ENDBRANCH   7  10
BRANCH   4  37
HETATM   37  N3  UNL     1      -4.701   1.523   2.233  1.00  0.00    -0.225 N 
ATOM     38  H3  UNL     1      -5.490   2.152   2.380  1.00  0.00     0.177 HD
BRANCH  37  39
HETATM   39  C6  UNL     1      -4.794   0.243   2.867  1.00  0.00     0.142 C 
BRANCH  39  40
HETATM   40  C7  UNL     1      -6.162  -0.338   2.554  1.00  0.00     0.061 C 
BRANCH  40  41
HETATM   41  C8  UNL     1      -6.357  -0.502   1.092  1.00  0.00    -0.029 A 
HETATM   42  C9  UNL     1      -7.117   0.291   0.247  1.00  0.00     0.096 A 
HETATM   43  N4  UNL     1      -7.031  -0.194  -0.998  1.00  0.00    -0.365 N 
HETATM   44  C10 UNL     1      -6.244  -1.284  -1.037  1.00  0.00     0.042 A 
ATOM     45  H4  UNL     1      -7.500   0.209  -1.809  1.00  0.00     0.165 HD
HETATM   46  C11 UNL     1      -5.851  -2.126  -2.068  1.00  0.00     0.030 A 
HETATM   47  C15 UNL     1      -5.820  -1.482   0.264  1.00  0.00    -0.002 A 
HETATM   48  C12 UNL     1      -5.017  -3.193  -1.809  1.00  0.00     0.002 A 
HETATM   49  C13 UNL     1      -4.596  -3.388  -0.511  1.00  0.00     0.001 A 
HETATM   50  C14 UNL     1      -4.997  -2.536   0.513  1.00  0.00     0.014 A 
ENDBRANCH  40  41
ENDBRANCH  39  40
ENDBRANCH  37  39
ENDBRANCH   4  37
BRANCH   1  51
HETATM   51  N1  UNL     1      -3.118   4.968  -0.207  1.00  0.00    -0.222 N 
ATOM     52  H1  UNL     1      -2.382   5.363  -0.792  1.00  0.00     0.178 HD
BRANCH  51  53
HETATM   53  C3  UNL     1      -4.288   5.758   0.079  1.00  0.00     0.164 C 
BRANCH  53  54
HETATM   54  C2  UNL     1      -5.386   5.317  -0.815  1.00  0.00    -0.017 C 
HETATM   55  C1  UNL     1      -5.916   6.208  -1.644  1.00  0.00     0.008 C 
ENDBRANCH  53  54
ENDBRANCH  51  53
ENDBRANCH   1  51
TORSDOF 12
