REMARK  2 active torsions:
REMARK  status: ('A' for Active; 'I' for Inactive)
REMARK    1  A    between atoms: O1_2  and  C2_3 
REMARK    2  A    between atoms: C2_3  and  C3_4 
ROOT
HETATM    1  C3  UNL     1       1.278  -0.264  -0.744  1.00  0.00     0.020 A 
HETATM    2  C4  UNL     1       0.986  -0.955   0.487  1.00  0.00     0.006 A 
HETATM    3  C5  UNL     1       0.546  -0.284   1.733  1.00  0.00     0.011 C 
HETATM    4  C6  UNL     1      -0.831  -0.882   1.545  1.00  0.00    -0.007 C 
HETATM    5  C7  UNL     1      -1.872   0.083   1.684  1.00  0.00     0.014 C 
HETATM    6  C8  UNL     1      -2.301   1.173   0.778  1.00  0.00     0.037 C 
HETATM    7  C9  UNL     1      -2.835   0.429  -0.521  1.00  0.00     0.086 C 
HETATM    8  C10 UNL     1      -2.378   1.710  -1.217  1.00  0.00     0.057 C 
HETATM    9  C11 UNL     1      -1.392   1.971  -0.062  1.00  0.00     0.130 C 
HETATM   10  O2  UNL     1      -0.110   1.649  -0.317  1.00  0.00    -0.379 OA
HETATM   11  C12 UNL     1       0.326   0.860  -1.282  1.00  0.00     0.140 A 
HETATM   12  C13 UNL     1       0.141  -0.487  -1.636  1.00  0.00     0.052 A 
HETATM   13  C14 UNL     1      -0.916  -1.360  -0.972  1.00  0.00     0.089 A 
HETATM   14  N1  UNL     1      -2.091  -0.674  -0.811  1.00  0.00    -0.412 N 
ATOM     15  H1  UNL     1      -2.798  -1.377  -1.028  1.00  0.00     0.154 HD
HETATM   16  C15 UNL     1      -0.341  -1.690   0.435  1.00  0.00     0.017 A 
ENDROOT
BRANCH   1  17
HETATM   17  C2  UNL     1       2.666  -0.280  -1.327  1.00  0.00     0.180 C 
BRANCH  17  18
HETATM   18  O1  UNL     1       3.636   0.230  -0.606  1.00  0.00    -0.395 OA
HETATM   19  C1  UNL     1       4.111  -0.248   0.555  1.00  0.00     0.201 C 
ENDBRANCH  17  18
ENDBRANCH   1  17
TORSDOF 2
