REMARK  16 active torsions:
REMARK  status: ('A' for Active; 'I' for Inactive)
REMARK    1  A    between atoms: C2_2  and  C3_3 
REMARK    2  A    between atoms: C3_3  and  C4_5 
REMARK    3  A    between atoms: C4_5  and  N1_6 
REMARK    4  A    between atoms: C4_5  and  C14_19 
REMARK    5  A    between atoms: N1_6  and  C5_8 
REMARK    6  A    between atoms: C5_8  and  C6_9 
REMARK    7  A    between atoms: C5_8  and  C11_16 
REMARK    8  A    between atoms: C6_9  and  C7_10 
REMARK       I    between atoms: C7_10  and  N2_12 
REMARK       I    between atoms: C14_19  and  N3_21 
REMARK    9  A    between atoms: N3_21  and  C15_23 
REMARK   10  A    between atoms: C15_23  and  C16_24 
REMARK   11  A    between atoms: C15_23  and  C20_28 
REMARK   12  A    between atoms: C16_24  and  C17_25 
REMARK   13  A    between atoms: C20_28  and  N4_30 
REMARK       I    between atoms: N4_30  and  C22_32 
REMARK   14  A    between atoms: C22_32  and  C23_34 
REMARK   15  A    between atoms: C26_40  and  C27_41 
REMARK       I    between atoms: C27_41  and  N6_43 
REMARK   16  A    between atoms: N6_43  and  C28_45 
ROOT
HETATM    1  C15 UNL     1       0.524  -2.143   1.144  1.00  0.00     0.107 C 
ENDROOT
BRANCH   1   2
HETATM    2  N3  UNL     1      -0.046  -0.840   0.789  1.00  0.00    -0.349 N 
HETATM    3  C14 UNL     1      -1.349  -0.468   1.247  1.00  0.00     0.272 C 
HETATM    4  O3  UNL     1      -1.870  -1.407   1.971  1.00  0.00    -0.266 OA
ATOM      5  H3  UNL     1       0.491  -0.193   0.211  1.00  0.00     0.163 HD
BRANCH   3   6
HETATM    6  C4  UNL     1      -2.073   0.766   0.995  1.00  0.00     0.143 C 
BRANCH   6   7
HETATM    7  C3  UNL     1      -1.824   1.588  -0.175  1.00  0.00     0.180 C 
HETATM    8  O1  UNL     1      -2.800   2.295  -0.553  1.00  0.00    -0.291 OA
BRANCH   7   9
HETATM    9  C2  UNL     1      -0.624   1.743  -1.003  1.00  0.00     0.081 C 
HETATM   10  C1  UNL     1      -0.843   2.810  -2.087  1.00  0.00     0.013 C 
ENDBRANCH   7   9
ENDBRANCH   6   7
BRANCH   6  11
HETATM   11  N1  UNL     1      -3.376   0.787   1.517  1.00  0.00    -0.377 N 
ATOM     12  H1  UNL     1      -3.487   1.040   2.499  1.00  0.00     0.160 HD
BRANCH  11  13
HETATM   13  C5  UNL     1      -4.538   0.485   0.787  1.00  0.00     0.094 C 
BRANCH  13  14
HETATM   14  C6  UNL     1      -5.609   1.370   1.518  1.00  0.00     0.128 C 
BRANCH  14  15
HETATM   15  C7  UNL     1      -6.946   1.288   1.033  1.00  0.00     0.221 C 
HETATM   16  O2  UNL     1      -7.731   0.424   1.551  1.00  0.00    -0.273 OA
HETATM   17  N2  UNL     1      -7.471   2.107   0.008  1.00  0.00    -0.352 N 
HETATM   18  C8  UNL     1      -8.804   2.159  -0.627  1.00  0.00     0.127 C 
HETATM   19  C10 UNL     1      -7.054   3.212  -0.861  1.00  0.00     0.127 C 
HETATM   20  C9  UNL     1      -8.512   3.595  -1.054  1.00  0.00     0.040 C 
ENDBRANCH  14  15
ENDBRANCH  13  14
BRANCH  13  21
HETATM   21  C11 UNL     1      -4.964  -0.931   0.769  1.00  0.00     0.001 C 
HETATM   22  C12 UNL     1      -5.355  -1.554   2.052  1.00  0.00     0.011 C 
HETATM   23  C13 UNL     1      -5.988  -1.296  -0.297  1.00  0.00     0.011 C 
ENDBRANCH  13  21
ENDBRANCH  11  13
ENDBRANCH   6  11
ENDBRANCH   3   6
ENDBRANCH   1   2
BRANCH   1  24
HETATM   24  C16 UNL     1       0.874  -2.983  -0.037  1.00  0.00     0.031 C 
BRANCH  24  25
HETATM   25  C17 UNL     1      -0.318  -3.325  -0.926  1.00  0.00    -0.021 C 
HETATM   26  C18 UNL     1       0.247  -4.170  -2.079  1.00  0.00     0.009 C 
HETATM   27  C19 UNL     1      -1.276  -4.271  -0.194  1.00  0.00     0.009 C 
ENDBRANCH  24  25
ENDBRANCH   1  24
BRANCH   1  28
HETATM   28  C20 UNL     1       1.768  -1.924   1.966  1.00  0.00     0.103 C 
HETATM   29  C21 UNL     1       1.533  -1.157   3.237  1.00  0.00     0.034 C 
BRANCH  28  30
HETATM   30  N4  UNL     1       2.789  -1.325   1.138  1.00  0.00    -0.354 N 
HETATM   31  C22 UNL     1       3.948  -2.067   0.734  1.00  0.00     0.224 C 
HETATM   32  O4  UNL     1       4.047  -3.254   1.118  1.00  0.00    -0.273 OA
ATOM     33  H4  UNL     1       2.684  -0.357   0.835  1.00  0.00     0.162 HD
BRANCH  31  34
HETATM   34  C23 UNL     1       5.014  -1.477  -0.111  1.00  0.00     0.118 C 
HETATM   35  C24 UNL     1       5.967  -2.548  -0.546  1.00  0.00     0.247 C 
HETATM   36  N5  UNL     1       7.251  -2.178  -0.067  1.00  0.00    -0.073 N 
HETATM   37  C25 UNL     1       7.021  -1.365   1.126  1.00  0.00     0.247 C 
ATOM     38  H52 UNL     1       7.868  -2.974   0.097  1.00  0.00     0.277 HD
ATOM     39  H51 UNL     1       7.828  -1.715  -0.769  1.00  0.00     0.277 HD
HETATM   40  C26 UNL     1       5.808  -0.533   0.735  1.00  0.00     0.118 C 
BRANCH  40  41
HETATM   41  C27 UNL     1       6.269   0.659  -0.001  1.00  0.00     0.225 C 
HETATM   42  O5  UNL     1       7.528   0.788  -0.182  1.00  0.00    -0.273 OA
HETATM   43  N6  UNL     1       5.395   1.646  -0.506  1.00  0.00    -0.353 N 
ATOM     44  H6  UNL     1       4.395   1.526  -0.344  1.00  0.00     0.163 HD
BRANCH  43  45
HETATM   45  C28 UNL     1       5.822   2.800  -1.228  1.00  0.00     0.022 C 
HETATM   46  C29 UNL     1       6.541   2.427  -2.523  1.00  0.00     0.037 C 
HETATM   47  C30 UNL     1       6.760   3.692  -0.453  1.00  0.00     0.037 C 
HETATM   48  C31 UNL     1       4.612   3.668  -1.595  1.00  0.00     0.037 C 
ENDBRANCH  43  45
ENDBRANCH  40  41
ENDBRANCH  31  34
ENDBRANCH  28  30
ENDBRANCH   1  28
TORSDOF 16
