REMARK  4 active torsions:
REMARK  status: ('A' for Active; 'I' for Inactive)
REMARK    1  A    between atoms: C2_2  and  O1_3 
REMARK    2  A    between atoms: O1_3  and  N1_4 
REMARK    3  A    between atoms: N1_4  and  C3_5 
REMARK    4  A    between atoms: C15_17  and  O2_18 
ROOT
HETATM    1  C3  UNL     1       3.732  -0.857  -0.438  1.00  0.00     0.203 C 
HETATM    2  C4  UNL     1       2.937  -1.820  -1.237  1.00  0.00     0.046 C 
HETATM    3  C5  UNL     1       1.486  -1.918  -0.904  1.00  0.00     0.019 C 
HETATM    4  C6  UNL     1       0.836  -0.564  -0.704  1.00  0.00     0.002 C 
HETATM    5  C7  UNL     1       0.992   0.192  -2.037  1.00  0.00     0.022 C 
HETATM    6  C8  UNL     1       1.578   0.242   0.279  1.00  0.00     0.011 C 
HETATM    7  C9  UNL     1       0.984   0.946   1.189  1.00  0.00    -0.001 C 
HETATM    8  C10 UNL     1      -0.482   1.005   1.322  1.00  0.00     0.034 C 
HETATM    9  C11 UNL     1      -1.104   0.661   0.035  1.00  0.00    -0.001 C 
HETATM   10  C12 UNL     1      -2.590   0.629  -0.022  1.00  0.00    -0.002 C 
HETATM   11  C13 UNL     1      -3.263   1.901   0.409  1.00  0.00     0.008 C 
HETATM   12  C14 UNL     1      -4.688   1.857  -0.002  1.00  0.00     0.032 C 
HETATM   13  C15 UNL     1      -5.422   0.593   0.207  1.00  0.00     0.118 C 
HETATM   14  C16 UNL     1      -4.626  -0.661  -0.078  1.00  0.00     0.041 C 
HETATM   15  C17 UNL     1      -3.264  -0.517   0.636  1.00  0.00    -0.038 C 
HETATM   16  C18 UNL     1      -3.621  -0.337   2.082  1.00  0.00     0.015 C 
HETATM   17  C19 UNL     1      -2.570  -1.841   0.463  1.00  0.00     0.010 C 
HETATM   18  C20 UNL     1      -1.066  -1.728   0.486  1.00  0.00     0.007 C 
HETATM   19  C21 UNL     1      -0.618  -0.699  -0.483  1.00  0.00     0.004 C 
HETATM   20  N2  UNL     1       3.004   0.201   0.179  1.00  0.00    -0.373 N 
ATOM     21  H2  UNL     1       3.533   0.978   0.574  1.00  0.00     0.161 HD
ENDROOT
BRANCH   1  22
HETATM   22  N1  UNL     1       4.748  -0.265  -1.324  1.00  0.00    -0.076 NA
BRANCH  22  23
HETATM   23  O1  UNL     1       5.468   0.612  -0.586  1.00  0.00    -0.285 OA
BRANCH  23  24
HETATM   24  C2  UNL     1       6.611  -0.039  -0.133  1.00  0.00     0.191 C 
HETATM   25  C1  UNL     1       7.443   0.900   0.695  1.00  0.00     0.035 C 
ENDBRANCH  23  24
ENDBRANCH  22  23
ENDBRANCH   1  22
BRANCH  13  26
HETATM   26  O2  UNL     1      -6.525   0.572  -0.650  1.00  0.00    -0.396 OA
ATOM     27  H2  UNL     1      -6.997  -0.241  -0.516  1.00  0.00     0.210 HD
ENDBRANCH  13  26
TORSDOF 4
