REMARK  4 active torsions:
REMARK  status: ('A' for Active; 'I' for Inactive)
REMARK    1  A    between atoms: C5_6  and  C6_7 
REMARK    2  A    between atoms: C12_24  and  C13_25 
REMARK    3  A    between atoms: C13_25  and  C14_26 
REMARK    4  A    between atoms: C19_37  and  C20_38 
ROOT
HETATM    1  C14 UNL     1       7.224  -0.023   0.821  1.00  0.00     0.126 C 
HETATM    2  C15 UNL     1       8.549  -0.112   0.158  1.00  0.00     0.059 C 
HETATM    3  N6  UNL     1       9.583  -0.163  -0.360  1.00  0.00    -0.197 NA
ENDROOT
BRANCH   1   4
HETATM    4  C13 UNL     1       6.232   0.261  -0.252  1.00  0.00     0.047 C 
BRANCH   4   5
HETATM    5  C12 UNL     1       4.810   0.389   0.240  1.00  0.00     0.152 C 
HETATM    6  C11 UNL     1       4.316  -0.820   0.900  1.00  0.00     0.093 C 
HETATM    7  N4  UNL     1       3.534  -1.833   0.316  1.00  0.00    -0.377 N 
HETATM    8  N5  UNL     1       4.645  -0.963   2.165  1.00  0.00    -0.387 N 
HETATM    9  C10 UNL     1       2.486  -1.699  -0.645  1.00  0.00     0.148 C 
ATOM     10  H4  UNL     1       3.742  -2.785   0.617  1.00  0.00     0.160 HD
HETATM   11  C9  UNL     1       1.453  -2.783  -0.420  1.00  0.00     0.252 C 
HETATM   12  N3  UNL     1       0.159  -2.408  -0.923  1.00  0.00    -0.065 N 
HETATM   13  C8  UNL     1      -0.844  -2.941  -0.024  1.00  0.00     0.334 C 
ATOM     14  H32 UNL     1       0.014  -2.696  -1.891  1.00  0.00     0.277 HD
ATOM     15  H31 UNL     1       0.067  -1.402  -1.064  1.00  0.00     0.277 HD
HETATM   16  C7  UNL     1      -2.157  -3.113  -0.695  1.00  0.00     0.244 C 
HETATM   17  N2  UNL     1      -2.925  -2.049  -1.182  1.00  0.00    -0.344 N 
HETATM   18  O1  UNL     1      -2.590  -4.288  -0.826  1.00  0.00    -0.272 OA
HETATM   19  C6  UNL     1      -3.049  -0.753  -0.518  1.00  0.00     0.210 C 
ATOM     20  H2  UNL     1      -3.431  -2.187  -2.057  1.00  0.00     0.163 HD
HETATM   21  C21 UNL     1      -2.423   0.290  -1.374  1.00  0.00     0.243 C 
HETATM   22  N8  UNL     1      -1.387   1.146  -0.953  1.00  0.00    -0.344 N 
HETATM   23  O6  UNL     1      -2.876   0.387  -2.553  1.00  0.00    -0.271 OA
HETATM   24  C19 UNL     1      -1.323   1.776   0.351  1.00  0.00     0.197 C 
ATOM     25  H8  UNL     1      -0.630   1.336  -1.610  1.00  0.00     0.163 HD
HETATM   26  C18 UNL     1       0.104   1.710   0.844  1.00  0.00     0.145 C 
HETATM   27  S1  UNL     1       1.064   3.083   0.261  1.00  0.00     0.026 S 
HETATM   28  C17 UNL     1       2.794   2.759   0.329  1.00  0.00     0.211 C 
HETATM   29  O3  UNL     1       0.612   3.570  -1.264  1.00  0.00    -0.258 OA
HETATM   30  C16 UNL     1       3.318   2.091  -0.871  1.00  0.00     0.229 C 
HETATM   31  N7  UNL     1       4.019   0.858  -0.863  1.00  0.00    -0.349 N 
HETATM   32  O2  UNL     1       3.135   2.648  -1.985  1.00  0.00    -0.273 OA
ATOM     33  H7  UNL     1       3.957   0.268  -1.692  1.00  0.00     0.163 HD
ATOM     34  H52 UNL     1       4.301  -1.806   2.625  1.00  0.00     0.157 HD
ATOM     35  H51 UNL     1       5.212  -0.228   2.588  1.00  0.00     0.157 HD
BRANCH  19  36
HETATM   36  C5  UNL     1      -4.548  -0.443  -0.442  1.00  0.00     0.254 C 
HETATM   37  N1  UNL     1      -4.814   0.810   0.193  1.00  0.00     0.091 N 
HETATM   38  C1  UNL     1      -5.646   1.682  -0.642  1.00  0.00     0.310 C 
HETATM   39  C2  UNL     1      -5.570   0.545   1.392  1.00  0.00     0.272 C 
HETATM   40  C3  UNL     1      -6.332  -0.723   1.063  1.00  0.00     0.032 C 
HETATM   41  C4  UNL     1      -5.284  -1.517   0.311  1.00  0.00     0.040 C 
ENDBRANCH  19  36
BRANCH  24  42
HETATM   42  C20 UNL     1      -1.832   3.163   0.324  1.00  0.00     0.197 C 
HETATM   43  O4  UNL     1      -2.246   3.636  -0.755  1.00  0.00    -0.646 OA
HETATM   44  O5  UNL     1      -1.857   3.934   1.460  1.00  0.00    -0.646 OA
ENDBRANCH  24  42
ENDBRANCH   4   5
ENDBRANCH   1   4
TORSDOF 4
