REMARK  5 active torsions:
REMARK  status: ('A' for Active; 'I' for Inactive)
REMARK    1  A    between atoms: N1_1  and  N2_4 
REMARK    2  A    between atoms: N2_4  and  S1_6 
REMARK    3  A    between atoms: S1_6  and  N3_9 
REMARK    4  A    between atoms: N3_9  and  S2_11 
REMARK    5  A    between atoms: S2_11  and  N4_12 
ROOT
HETATM    1  S1  UNL     1       0.810  -0.964  -0.006  1.00  0.00     0.346 S 
HETATM    2  O1  UNL     1       1.723  -1.656  -0.990  1.00  0.00    -0.180 OA
HETATM    3  O2  UNL     1       0.316  -2.026   0.937  1.00  0.00    -0.180 OA
ENDROOT
BRANCH   1   4
HETATM    4  N2  UNL     1       1.638   0.240   0.895  1.00  0.00    -0.216 N 
ATOM      5  H2  UNL     1       1.377   0.502   1.845  1.00  0.00     0.201 HD
BRANCH   4   6
HETATM    6  N1  UNL     1       2.689   0.820   0.215  1.00  0.00    -0.335 N 
ATOM      7  H12 UNL     1       2.938   0.547  -0.736  1.00  0.00     0.177 HD
ATOM      8  H11 UNL     1       3.181   1.535   0.750  1.00  0.00     0.177 HD
ENDBRANCH   4   6
ENDBRANCH   1   4
BRANCH   1   9
HETATM    9  N3  UNL     1      -0.473  -0.239  -0.895  1.00  0.00    -0.176 N 
ATOM     10  H3  UNL     1      -0.370   0.129  -1.841  1.00  0.00     0.195 HD
BRANCH   9  11
HETATM   11  S2  UNL     1      -1.946  -0.204  -0.013  1.00  0.00     0.327 S 
HETATM   12  O3  UNL     1      -2.061  -1.355   0.940  1.00  0.00    -0.182 OA
HETATM   13  O4  UNL     1      -3.100  -0.289  -0.975  1.00  0.00    -0.182 OA
BRANCH  11  14
HETATM   14  N4  UNL     1      -2.003   1.288   0.884  1.00  0.00    -0.311 N 
ATOM     15  H42 UNL     1      -1.279   2.006   0.876  1.00  0.00     0.170 HD
ATOM     16  H41 UNL     1      -2.878   1.309   1.408  1.00  0.00     0.170 HD
ENDBRANCH  11  14
ENDBRANCH   9  11
ENDBRANCH   1   9
TORSDOF 5
