REMARK  8 active torsions:
REMARK  status: ('A' for Active; 'I' for Inactive)
REMARK    1  A    between atoms: N1_1  and  N2_4 
REMARK    2  A    between atoms: N2_4  and  O1_5 
REMARK    3  A    between atoms: N2_4  and  N3_7 
REMARK    4  A    between atoms: N3_7  and  C1_9 
REMARK    5  A    between atoms: C1_9  and  C2_10 
REMARK    6  A    between atoms: C4_13  and  C5_14 
REMARK    7  A    between atoms: C5_14  and  O3_15 
REMARK    8  A    between atoms: C6_18  and  O5_19 
ROOT
HETATM    1  C2  UNL     1       0.529  -0.687   0.343  1.00  0.00     0.195 C 
HETATM    2  O2  UNL     1      -0.555  -1.151   1.143  1.00  0.00    -0.377 OA
HETATM    3  C3  UNL     1      -1.709  -1.200   0.377  1.00  0.00     0.202 C 
HETATM    4  C4  UNL     1      -1.805  -0.122  -0.651  1.00  0.00     0.172 C 
HETATM    5  O4  UNL     1      -0.976   0.928  -0.527  1.00  0.00    -0.349 OA
HETATM    6  C6  UNL     1       0.213   0.754   0.139  1.00  0.00     0.288 C 
ENDROOT
BRANCH   1   7
HETATM    7  C1  UNL     1       1.797  -0.972   1.062  1.00  0.00     0.180 C 
BRANCH   7   8
HETATM    8  N3  UNL     1       3.016  -0.617   0.427  1.00  0.00    -0.293 N 
ATOM      9  H3  UNL     1       3.644  -1.379   0.172  1.00  0.00     0.184 HD
BRANCH   8  10
HETATM   10  N2  UNL     1       3.431   0.672   0.122  1.00  0.00    -0.106 N 
BRANCH  10  11
HETATM   11  N1  UNL     1       3.870   0.942  -1.063  1.00  0.00    -0.304 N 
ATOM     12  H12 UNL     1       4.175   1.889  -1.287  1.00  0.00     0.180 HD
ATOM     13  H11 UNL     1       3.869   0.156  -1.713  1.00  0.00     0.180 HD
ENDBRANCH  10  11
BRANCH  10  14
HETATM   14  O1  UNL     1       3.433   1.731   0.997  1.00  0.00    -0.254 OA
ATOM     15  H1  UNL     1       3.110   1.533   1.868  1.00  0.00     0.248 HD
ENDBRANCH  10  14
ENDBRANCH   8  10
ENDBRANCH   7   8
ENDBRANCH   1   7
BRANCH   6  16
HETATM   16  O5  UNL     1       0.100   1.346   1.415  1.00  0.00    -0.369 OA
ATOM     17  H5  UNL     1      -0.102   2.265   1.285  1.00  0.00     0.212 HD
ENDBRANCH   6  16
BRANCH   4  18
HETATM   18  C5  UNL     1      -3.247   0.382  -0.681  1.00  0.00     0.198 C 
BRANCH  18  19
HETATM   19  O3  UNL     1      -3.585   1.065   0.464  1.00  0.00    -0.398 OA
ATOM     20  H3  UNL     1      -4.482   1.378   0.445  1.00  0.00     0.209 HD
ENDBRANCH  18  19
ENDBRANCH   4  18
TORSDOF 8
