REMARK  18 active torsions:
REMARK  status: ('A' for Active; 'I' for Inactive)
REMARK    1  A    between atoms: O1_2  and  C2_3 
REMARK    2  A    between atoms: C2_3  and  C3_4 
REMARK    3  A    between atoms: C3_4  and  O2_5 
REMARK    4  A    between atoms: O2_5  and  C4_6 
REMARK    5  A    between atoms: C4_6  and  C5_7 
REMARK    6  A    between atoms: C5_7  and  O3_8 
REMARK    7  A    between atoms: O3_8  and  C6_9 
REMARK    8  A    between atoms: C6_9  and  C7_10 
REMARK    9  A    between atoms: C7_10  and  O4_11 
REMARK   10  A    between atoms: O4_11  and  C8_12 
REMARK   11  A    between atoms: C8_12  and  C9_13 
REMARK   12  A    between atoms: C9_13  and  O5_14 
REMARK   13  A    between atoms: O5_14  and  C10_15 
REMARK   14  A    between atoms: C10_15  and  C11_16 
REMARK   15  A    between atoms: C11_16  and  O6_17 
REMARK   16  A    between atoms: O6_17  and  C12_18 
REMARK   17  A    between atoms: C12_18  and  C13_19 
REMARK   18  A    between atoms: C13_19  and  N1_20 
ROOT
HETATM    1  C11 UNL     1      -0.809  -1.729   2.677  1.00  0.00     0.193 C 
ENDROOT
BRANCH   1   2
HETATM    2  C10 UNL     1      -0.038  -1.459   1.426  1.00  0.00     0.193 C 
BRANCH   2   3
HETATM    3  O5  UNL     1       0.857  -2.561   1.211  1.00  0.00    -0.387 OA
BRANCH   3   4
HETATM    4  C9  UNL     1       1.555  -2.212   0.030  1.00  0.00     0.193 C 
BRANCH   4   5
HETATM    5  C8  UNL     1       2.553  -3.299  -0.321  1.00  0.00     0.193 C 
BRANCH   5   6
HETATM    6  O4  UNL     1       3.480  -3.511   0.649  1.00  0.00    -0.387 OA
BRANCH   6   7
HETATM    7  C7  UNL     1       4.301  -2.519   1.036  1.00  0.00     0.193 C 
BRANCH   7   8
HETATM    8  C6  UNL     1       5.251  -1.973  -0.027  1.00  0.00     0.193 C 
BRANCH   8   9
HETATM    9  O3  UNL     1       4.527  -1.473  -1.058  1.00  0.00    -0.387 OA
BRANCH   9  10
HETATM   10  C5  UNL     1       5.126  -0.968  -2.153  1.00  0.00     0.193 C 
BRANCH  10  11
HETATM   11  C4  UNL     1       6.031   0.192  -1.964  1.00  0.00     0.193 C 
BRANCH  11  12
HETATM   12  O2  UNL     1       7.087  -0.092  -1.149  1.00  0.00    -0.387 OA
BRANCH  12  13
HETATM   13  C3  UNL     1       7.943   0.979  -0.952  1.00  0.00     0.193 C 
BRANCH  13  14
HETATM   14  C2  UNL     1       7.239   2.160  -0.315  1.00  0.00     0.193 C 
BRANCH  14  15
HETATM   15  O1  UNL     1       6.714   1.816   0.921  1.00  0.00    -0.394 OA
HETATM   16  C1  UNL     1       6.076   2.917   1.478  1.00  0.00     0.201 C 
ENDBRANCH  14  15
ENDBRANCH  13  14
ENDBRANCH  12  13
ENDBRANCH  11  12
ENDBRANCH  10  11
ENDBRANCH   9  10
ENDBRANCH   8   9
ENDBRANCH   7   8
ENDBRANCH   6   7
ENDBRANCH   5   6
ENDBRANCH   4   5
ENDBRANCH   3   4
ENDBRANCH   2   3
ENDBRANCH   1   2
BRANCH   1  17
HETATM   17  O6  UNL     1      -1.699  -0.898   3.145  1.00  0.00    -0.387 OA
BRANCH  17  18
HETATM   18  C12 UNL     1      -2.841  -0.452   2.692  1.00  0.00     0.198 C 
BRANCH  18  19
HETATM   19  C13 UNL     1      -2.795   0.308   1.412  1.00  0.00     0.299 C 
BRANCH  19  20
HETATM   20  N1  UNL     1      -4.156   0.797   1.053  1.00  0.00     0.098 N 
HETATM   21  C14 UNL     1      -3.999   1.502  -0.186  1.00  0.00     0.312 C 
HETATM   22  C15 UNL     1      -5.290   1.855  -0.831  1.00  0.00    -0.018 A 
HETATM   23  C16 UNL     1      -5.371   2.930  -1.705  1.00  0.00     0.010 A 
HETATM   24  C24 UNL     1      -6.411   1.115  -0.573  1.00  0.00    -0.010 A 
HETATM   25  C17 UNL     1      -6.572   3.240  -2.301  1.00  0.00     0.002 A 
HETATM   26  C18 UNL     1      -7.694   2.484  -2.031  1.00  0.00     0.012 A 
HETATM   27  C19 UNL     1      -7.647   1.404  -1.163  1.00  0.00    -0.025 A 
HETATM   28  C20 UNL     1      -8.782   0.669  -0.912  1.00  0.00     0.012 A 
HETATM   29  C21 UNL     1      -8.706  -0.389  -0.050  1.00  0.00     0.002 A 
HETATM   30  C22 UNL     1      -7.503  -0.691   0.542  1.00  0.00     0.010 A 
HETATM   31  C23 UNL     1      -6.340   0.053   0.291  1.00  0.00    -0.018 A 
HETATM   32  C25 UNL     1      -5.077  -0.302   0.950  1.00  0.00     0.312 C 
ENDBRANCH  19  20
ENDBRANCH  18  19
ENDBRANCH  17  18
ENDBRANCH   1  17
TORSDOF 18
