REMARK  5 active torsions:
REMARK  status: ('A' for Active; 'I' for Inactive)
REMARK    1  A    between atoms: S1_2  and  C2_3 
REMARK    2  A    between atoms: C2_3  and  C3_7 
REMARK    3  A    between atoms: C3_7  and  C4_8 
REMARK    4  A    between atoms: C4_8  and  S2_9 
REMARK    5  A    between atoms: S2_9  and  C5_10 
ROOT
HETATM    1  C4  UNL     1       1.001   0.269   0.450  1.00  0.00     0.083 C 
ENDROOT
BRANCH   1   2
HETATM    2  C3  UNL     1       1.855  -0.730  -0.294  1.00  0.00     0.074 C 
BRANCH   2   3
HETATM    3  C2  UNL     1       3.077  -1.128   0.436  1.00  0.00     0.040 C 
HETATM    4  N1  UNL     1       3.162  -2.331   0.868  1.00  0.00    -0.397 N 
ATOM      5  H12 UNL     1       4.005  -2.606   1.372  1.00  0.00     0.156 HD
ATOM      6  H11 UNL     1       2.386  -2.970   0.694  1.00  0.00     0.156 HD
BRANCH   3   7
HETATM    7  S1  UNL     1       4.431  -0.013   0.739  1.00  0.00    -0.122 SA
HETATM    8  C1  UNL     1       4.205   1.601  -0.020  1.00  0.00     0.097 C 
ENDBRANCH   3   7
ENDBRANCH   2   3
ENDBRANCH   1   2
BRANCH   1   9
HETATM    9  S2  UNL     1      -0.438   0.637  -0.577  1.00  0.00    -0.135 SA
BRANCH   9  10
HETATM   10  C5  UNL     1      -1.515  -0.823  -0.759  1.00  0.00     0.221 C 
HETATM   11  N2  UNL     1      -2.107  -1.186   0.511  1.00  0.00    -0.120 NA
HETATM   12  N3  UNL     1      -3.338  -0.632   0.745  1.00  0.00    -0.337 N 
HETATM   13  C6  UNL     1      -3.492   0.756   0.460  1.00  0.00     0.145 C 
ATOM     14  H3  UNL     1      -4.111  -1.189   1.108  1.00  0.00     0.175 HD
HETATM   15  C7  UNL     1      -3.707   1.044  -1.016  1.00  0.00     0.097 C 
HETATM   16  S3  UNL     1      -2.857  -0.313  -1.903  1.00  0.00    -0.134 SA
ENDBRANCH   9  10
ENDBRANCH   1   9
TORSDOF 5
