REMARK  2 active torsions:
REMARK  status: ('A' for Active; 'I' for Inactive)
REMARK    1  A    between atoms: N2_4  and  N3_6 
REMARK    2  A    between atoms: N4_8  and  C1_10 
ROOT
HETATM    1  N3  UNL     1       1.618   0.057   0.720  1.00  0.00    -0.233 N 
ATOM      2  H3  UNL     1       1.177   0.643   1.429  1.00  0.00     0.209 HD
HETATM    3  N4  UNL     1       0.888  -0.685  -0.024  1.00  0.00    -0.313 N 
ATOM      4  H4  UNL     1       1.307  -1.279  -0.739  1.00  0.00     0.182 HD
ENDROOT
BRANCH   3   5
HETATM    5  C1  UNL     1      -0.517  -0.662   0.169  1.00  0.00     0.152 C 
HETATM    6  C2  UNL     1      -1.341  -0.339  -1.086  1.00  0.00     0.260 C 
HETATM    7  N5  UNL     1      -2.300   0.255  -0.141  1.00  0.00    -0.071 N 
HETATM    8  C3  UNL     1      -1.108   0.671   0.621  1.00  0.00     0.260 C 
ATOM      9  H52 UNL     1      -3.012   0.922  -0.439  1.00  0.00     0.277 HD
ATOM     10  H51 UNL     1      -3.051  -0.290   0.283  1.00  0.00     0.277 HD
ENDBRANCH   3   5
BRANCH   1  11
HETATM   11  N2  UNL     1       3.011   0.079   0.579  1.00  0.00    -0.235 N 
HETATM   12  N1  UNL     1       3.485   0.511  -0.512  1.00  0.00    -0.330 N 
ATOM     13  H12 UNL     1       2.860   0.829  -1.253  1.00  0.00     0.178 HD
ATOM     14  H11 UNL     1       4.500   0.527  -0.615  1.00  0.00     0.178 HD
ATOM     15  H2  UNL     1       3.622  -0.242   1.330  1.00  0.00     0.209 HD
ENDBRANCH   1  11
TORSDOF 2
