REMARK  2 active torsions:
REMARK  status: ('A' for Active; 'I' for Inactive)
REMARK    1  A    between atoms: N1_1  and  N2_4 
REMARK    2  A    between atoms: N3_6  and  O1_7 
ROOT
HETATM    1  N2  UNL     1      -0.973  -0.057  -0.071  1.00  0.00    -0.251 N 
HETATM    2  C1  UNL     1       0.106  -0.783   0.058  1.00  0.00     0.240 A 
HETATM    3  N3  UNL     1       1.410  -0.219   0.006  1.00  0.00    -0.214 N 
HETATM    4  C2  UNL     1       1.563   1.051  -0.174  1.00  0.00     0.215 A 
HETATM    5  N4  UNL     1       0.392   1.868  -0.318  1.00  0.00    -0.345 N 
ATOM      6  H4  UNL     1       0.493   2.873  -0.460  1.00  0.00     0.167 HD
HETATM    7  C3  UNL     1      -0.798   1.341  -0.269  1.00  0.00     0.208 A 
ENDROOT
BRANCH   1   8
HETATM    8  N1  UNL     1      -2.245  -0.619  -0.018  1.00  0.00    -0.337 N 
ATOM      9  H12 UNL     1      -2.370  -1.621   0.124  1.00  0.00     0.177 HD
ATOM     10  H11 UNL     1      -3.087  -0.052  -0.119  1.00  0.00     0.177 HD
ENDBRANCH   1   8
BRANCH   3  11
HETATM   11  O1  UNL     1       2.545  -0.986   0.142  1.00  0.00    -0.281 OA
ATOM     12  H1  UNL     1       3.416  -0.609   0.107  1.00  0.00     0.245 HD
ENDBRANCH   3  11
TORSDOF 2
