REMARK  5 active torsions:
REMARK  status: ('A' for Active; 'I' for Inactive)
REMARK    1  A    between atoms: O1_2  and  N1_3 
REMARK    2  A    between atoms: N1_3  and  C2_4 
REMARK    3  A    between atoms: C2_4  and  N2_5 
REMARK    4  A    between atoms: C2_4  and  C3_9 
REMARK    5  A    between atoms: C4_14  and  N5_15 
ROOT
HETATM    1  C3  UNL     1       0.635   0.341   0.047  1.00  0.00     0.161 A 
HETATM    2  N3  UNL     1       0.726   1.433  -0.742  1.00  0.00    -0.271 N 
ATOM      3  H3  UNL     1      -0.049   1.838  -1.267  1.00  0.00     0.189 HD
HETATM    4  N4  UNL     1       1.966   1.905  -0.738  1.00  0.00    -0.131 N 
ATOM      5  H4  UNL     1       2.300   2.721  -1.250  1.00  0.00     0.205 HD
HETATM    6  C4  UNL     1       2.703   1.116   0.061  1.00  0.00     0.692 A 
HETATM    7  N6  UNL     1       1.884   0.165   0.536  1.00  0.00    -0.175 N 
ATOM      8  H6  UNL     1       2.163  -0.582   1.173  1.00  0.00     0.185 HD
ENDROOT
BRANCH   1   9
HETATM    9  C2  UNL     1      -0.584  -0.488   0.316  1.00  0.00     0.371 C 
BRANCH   9  10
HETATM   10  N1  UNL     1      -1.231  -0.707  -0.966  1.00  0.00    -0.060 NA
BRANCH  10  11
HETATM   11  O1  UNL     1      -2.326  -1.454  -0.895  1.00  0.00    -0.289 OA
HETATM   12  C1  UNL     1      -3.404  -0.786  -0.307  1.00  0.00     0.231 C 
ENDBRANCH  10  11
ENDBRANCH   9  10
BRANCH   9  13
HETATM   13  N2  UNL     1      -0.175  -1.724   0.929  1.00  0.00    -0.052 N 
ATOM     14  H23 UNL     1      -0.958  -2.372   1.015  1.00  0.00     0.276 HD
ATOM     15  H22 UNL     1       0.417  -2.270   0.303  1.00  0.00     0.276 HD
ATOM     16  H21 UNL     1       0.279  -1.570   1.829  1.00  0.00     0.276 HD
ENDBRANCH   9  13
ENDBRANCH   1   9
BRANCH   6  17
HETATM   17  N5  UNL     1       3.957   1.265   0.309  1.00  0.00    -0.233 N 
ATOM     18  H52 UNL     1       4.580   1.988  -0.052  1.00  0.00     0.174 HD
ATOM     19  H51 UNL     1       4.517   0.666   0.916  1.00  0.00     0.174 HD
ENDBRANCH   6  17
TORSDOF 5
