REMARK  6 active torsions:
REMARK  status: ('A' for Active; 'I' for Inactive)
REMARK    1  A    between atoms: C2_5  and  C3_6 
REMARK    2  A    between atoms: C3_6  and  O1_7 
REMARK    3  A    between atoms: C3_6  and  C4_9 
REMARK    4  A    between atoms: C4_9  and  C5_15 
REMARK    5  A    between atoms: N3_10  and  N4_12 
REMARK    6  A    between atoms: C6_18  and  N6_19 
ROOT
HETATM    1  C3  UNL     1       0.749  -1.003   0.196  1.00  0.00     0.229 C 
ENDROOT
BRANCH   1   2
HETATM    2  C2  UNL     1      -0.689  -0.639   0.185  1.00  0.00     0.107 A 
HETATM    3  N2  UNL     1      -1.147   0.548   0.604  1.00  0.00    -0.282 N 
HETATM    4  N1  UNL     1      -2.457   0.532   0.457  1.00  0.00    -0.237 N 
ATOM      5  H2  UNL     1      -0.587   1.319   0.968  1.00  0.00     0.188 HD
HETATM    6  C1  UNL     1      -3.334   1.657   0.807  1.00  0.00     0.200 C 
HETATM    7  N7  UNL     1      -2.855  -0.613  -0.038  1.00  0.00    -0.268 N 
HETATM    8  C6  UNL     1      -1.768  -1.376  -0.223  1.00  0.00     0.142 A 
ATOM      9  H7  UNL     1      -3.818  -0.877  -0.245  1.00  0.00     0.190 HD
BRANCH   8  10
HETATM   10  N6  UNL     1      -1.719  -2.596  -0.699  1.00  0.00    -0.383 N 
ATOM     11  H62 UNL     1      -0.892  -3.176  -0.840  1.00  0.00     0.157 HD
ATOM     12  H61 UNL     1      -2.523  -3.145  -1.003  1.00  0.00     0.157 HD
ENDBRANCH   8  10
ENDBRANCH   1   2
BRANCH   1  13
HETATM   13  O1  UNL     1       1.083  -1.233   1.547  1.00  0.00    -0.383 OA
ATOM     14  H1  UNL     1       2.004  -1.466   1.554  1.00  0.00     0.211 HD
ENDBRANCH   1  13
BRANCH   1  15
HETATM   15  C4  UNL     1       1.552   0.118  -0.338  1.00  0.00     0.125 C 
HETATM   16  N3  UNL     1       0.981   1.196  -0.722  1.00  0.00    -0.304 N 
ATOM     17  H3  UNL     1      -0.035   1.246  -0.644  1.00  0.00     0.186 HD
BRANCH  16  18
HETATM   18  N4  UNL     1       1.637   2.295  -1.234  1.00  0.00    -0.345 N 
ATOM     19  H42 UNL     1       2.652   2.227  -1.305  1.00  0.00     0.176 HD
ATOM     20  H41 UNL     1       1.182   3.155  -1.540  1.00  0.00     0.176 HD
ENDBRANCH  16  18
BRANCH  15  21
HETATM   21  C5  UNL     1       2.986  -0.011  -0.422  1.00  0.00     0.281 C 
HETATM   22  N5  UNL     1       3.598  -1.210   0.009  1.00  0.00    -0.056 NA
HETATM   23  O2  UNL     1       3.678   0.926  -0.870  1.00  0.00    -0.270 OA
ENDBRANCH  15  21
ENDBRANCH   1  15
TORSDOF 6
