REMARK  4 active torsions:
REMARK  status: ('A' for Active; 'I' for Inactive)
REMARK       I    between atoms: C2_2  and  N1_4 
REMARK    1  A    between atoms: N1_4  and  C3_6 
REMARK    2  A    between atoms: C5_8  and  O2_9 
REMARK    3  A    between atoms: O2_9  and  C6_10 
REMARK    4  A    between atoms: C9_13  and  C10_14 
REMARK       I    between atoms: C10_14  and  N2_16 
ROOT
HETATM    1  C3  UNL     1       3.294  -1.136   1.194  1.00  0.00     0.059 A 
HETATM    2  C4  UNL     1       2.933  -0.352   0.123  1.00  0.00     0.069 A 
HETATM    3  C5  UNL     1       1.711   0.283  -0.022  1.00  0.00     0.087 A 
HETATM    4  C9  UNL     1       0.789   0.096   1.013  1.00  0.00     0.067 A 
HETATM    5  C19 UNL     1       1.114  -0.680   2.097  1.00  0.00     0.046 A 
HETATM    6  C20 UNL     1       2.325  -1.290   2.210  1.00  0.00     0.061 A 
HETATM    7 CL1  UNL     1       2.737  -2.286   3.605  1.00  0.00    -0.082 Cl
ENDROOT
BRANCH   4   8
HETATM    8  C10 UNL     1      -0.507   0.735   0.917  1.00  0.00     0.257 C 
HETATM    9  O3  UNL     1      -0.712   1.909   1.383  1.00  0.00    -0.267 OA
HETATM   10  N2  UNL     1      -1.626   0.106   0.305  1.00  0.00    -0.343 N 
HETATM   11  C11 UNL     1      -1.583  -1.227  -0.279  1.00  0.00     0.127 C 
HETATM   12  C18 UNL     1      -2.965   0.549   0.109  1.00  0.00     0.091 C 
HETATM   13  C12 UNL     1      -2.979  -1.796   0.007  1.00  0.00     0.026 C 
HETATM   14  C13 UNL     1      -3.745  -0.671   0.623  1.00  0.00     0.010 C 
HETATM   15  C14 UNL     1      -5.136  -0.515   0.121  1.00  0.00     0.007 C 
HETATM   16  C15 UNL     1      -5.730   0.716   0.769  1.00  0.00     0.001 C 
HETATM   17  C16 UNL     1      -4.892   1.931   0.643  1.00  0.00     0.002 C 
HETATM   18  C17 UNL     1      -3.416   1.703   0.925  1.00  0.00     0.026 C 
ENDBRANCH   4   8
BRANCH   3  19
HETATM   19  O2  UNL     1       1.319   1.061  -1.058  1.00  0.00    -0.346 OA
BRANCH  19  20
HETATM   20  C6  UNL     1       2.062   1.372  -2.168  1.00  0.00     0.120 C 
HETATM   21  C7  UNL     1       1.384   0.956  -3.473  1.00  0.00     0.040 C 
HETATM   22  C8  UNL     1       2.331   2.884  -2.275  1.00  0.00     0.040 C 
ENDBRANCH  19  20
ENDBRANCH   3  19
BRANCH   1  23
HETATM   23  N1  UNL     1       4.538  -1.780   1.338  1.00  0.00    -0.326 N 
HETATM   24  C2  UNL     1       5.612  -1.742   0.443  1.00  0.00     0.218 C 
HETATM   25  C1  UNL     1       6.883  -2.520   0.796  1.00  0.00     0.117 C 
HETATM   26  O1  UNL     1       5.612  -1.119  -0.631  1.00  0.00    -0.274 OA
ATOM     27  H1  UNL     1       4.670  -2.333   2.185  1.00  0.00     0.169 HD
ENDBRANCH   1  23
TORSDOF 4
