REMARK  3 active torsions:
REMARK  status: ('A' for Active; 'I' for Inactive)
REMARK    1  A    between atoms: N1_2  and  C2_4 
REMARK    2  A    between atoms: N4_10  and  N5_12 
REMARK    3  A    between atoms: N5_12  and  N6_14 
ROOT
HETATM    1  C2  UNL     1       1.805   0.559   0.435  1.00  0.00     0.689 C 
HETATM    2  N2  UNL     1       1.371   1.685  -0.023  1.00  0.00    -0.131 N 
ATOM      3  H2  UNL     1       2.041   2.420  -0.250  1.00  0.00     0.205 HD
HETATM    4  N3  UNL     1       0.012   1.923  -0.216  1.00  0.00    -0.271 N 
ATOM      5  H3  UNL     1      -0.305   2.822  -0.579  1.00  0.00     0.189 HD
HETATM    6  C3  UNL     1      -0.929   0.906   0.096  1.00  0.00     0.149 C 
HETATM    7  N4  UNL     1      -2.171   1.206   0.231  1.00  0.00    -0.266 N 
ATOM      8  H4  UNL     1      -2.847   0.475   0.455  1.00  0.00     0.190 HD
HETATM    9  C4  UNL     1      -0.438  -0.470   0.254  1.00  0.00     0.168 C 
HETATM   10  C5  UNL     1      -1.361  -1.300   1.154  1.00  0.00     0.048 C 
HETATM   11  C6  UNL     1      -1.177  -2.732   0.730  1.00  0.00     0.011 C 
HETATM   12  C7  UNL     1      -0.472  -2.680  -0.610  1.00  0.00     0.081 C 
HETATM   13  C8  UNL     1      -0.492  -1.252  -1.002  1.00  0.00     0.163 C 
HETATM   14  O3  UNL     1      -0.542  -0.788  -2.127  1.00  0.00    -0.295 OA
HETATM   15  N7  UNL     1       0.910  -0.511   0.772  1.00  0.00    -0.202 N 
ATOM     16  H7  UNL     1       1.218  -1.283   1.364  1.00  0.00     0.179 HD
ENDROOT
BRANCH   7  17
HETATM   17  N5  UNL     1      -2.604   2.527   0.073  1.00  0.00    -0.181 N 
ATOM     18  H5  UNL     1      -2.563   3.159   0.873  1.00  0.00     0.214 HD
BRANCH  17  19
HETATM   19  N6  UNL     1      -3.089   3.007  -1.139  1.00  0.00    -0.024 N 
HETATM   20  O1  UNL     1      -3.922   2.303  -1.750  1.00  0.00    -0.515 OA
HETATM   21  O2  UNL     1      -2.689   4.206  -1.676  1.00  0.00    -0.515 OA
ENDBRANCH  17  19
ENDBRANCH   7  17
BRANCH   1  22
HETATM   22  N1  UNL     1       3.193   0.318   0.632  1.00  0.00    -0.229 N 
HETATM   23  C1  UNL     1       4.168   0.328  -0.429  1.00  0.00     0.165 C 
ATOM     24  H1  UNL     1       3.517   0.127   1.580  1.00  0.00     0.177 HD
ENDBRANCH   1  22
TORSDOF 3
