REMARK  1 active torsions:
REMARK  status: ('A' for Active; 'I' for Inactive)
REMARK    1  A    between atoms: O1_1  and  C1_3 
ROOT
HETATM    1  C1  UNL     1      -1.118   0.988  -0.489  1.00  0.00     0.204 C 
HETATM    2  C2  UNL     1      -2.009   0.547   0.652  1.00  0.00     0.204 C 
HETATM    3  O2  UNL     1      -2.389  -0.739   0.412  1.00  0.00    -0.388 OA
HETATM    4  C3  UNL     1      -1.400  -1.656   0.271  1.00  0.00     0.173 C 
HETATM    5  C4  UNL     1      -0.180  -1.238  -0.453  1.00  0.00     0.097 C 
HETATM    6  C5  UNL     1       0.181   0.211  -0.302  1.00  0.00     0.194 C 
HETATM    7  O3  UNL     1       1.108   0.573  -1.251  1.00  0.00    -0.350 OA
HETATM    8  C6  UNL     1       2.371   0.343  -0.708  1.00  0.00     0.198 C 
HETATM    9  C7  UNL     1       2.099   0.192   0.755  1.00  0.00     0.198 C 
HETATM   10  O4  UNL     1       0.746   0.443   0.948  1.00  0.00    -0.350 OA
ENDROOT
BRANCH   1  11
HETATM   11  O1  UNL     1      -0.935   2.337  -0.563  1.00  0.00    -0.388 OA
ATOM     12  H1  UNL     1      -0.376   2.614  -1.279  1.00  0.00     0.210 HD
ENDBRANCH   1  11
TORSDOF 1
