REMARK  3 active torsions:
REMARK  status: ('A' for Active; 'I' for Inactive)
REMARK    1  A    between atoms: C1_2  and  C2_4 
REMARK    2  A    between atoms: C4_8  and  C5_9 
REMARK    3  A    between atoms: C7_15  and  N5_16 
ROOT
HETATM    1  C2  UNL     1       1.641   0.178   0.144  1.00  0.00     0.172 A 
HETATM    2  N2  UNL     1       0.585   0.937  -0.179  1.00  0.00    -0.334 N 
ATOM      3  H2  UNL     1       0.626   1.923  -0.436  1.00  0.00     0.168 HD
HETATM    4  C3  UNL     1      -0.546   0.192  -0.111  1.00  0.00     0.095 A 
HETATM    5  C4  UNL     1      -1.864   0.513  -0.350  1.00  0.00     0.127 A 
HETATM    6  N4  UNL     1      -2.827  -0.412  -0.218  1.00  0.00    -0.357 N 
ATOM      7  H4  UNL     1      -3.799  -0.162  -0.398  1.00  0.00     0.165 HD
HETATM    8  C6  UNL     1      -2.519  -1.654   0.147  1.00  0.00     0.127 A 
HETATM    9  C7  UNL     1      -1.190  -2.032   0.402  1.00  0.00     0.147 A 
HETATM   10  C8  UNL     1      -0.200  -1.082   0.266  1.00  0.00     0.098 A 
HETATM   11  N6  UNL     1       1.139  -1.047   0.410  1.00  0.00    -0.334 N 
ATOM     12  H6  UNL     1       1.705  -1.849   0.687  1.00  0.00     0.168 HD
ENDROOT
BRANCH   1  13
HETATM   13  C1  UNL     1       3.048   0.524   0.213  1.00  0.00     0.298 C 
HETATM   14  N1  UNL     1       3.486   1.847  -0.090  1.00  0.00    -0.054 NA
HETATM   15  O1  UNL     1       3.905  -0.342   0.541  1.00  0.00    -0.268 OA
ENDBRANCH   1  13
BRANCH   5  16
HETATM   16  C5  UNL     1      -2.177   1.879  -0.747  1.00  0.00     0.283 C 
HETATM   17  N3  UNL     1      -1.146   2.825  -0.874  1.00  0.00    -0.056 NA
HETATM   18  O2  UNL     1      -3.365   2.177  -0.966  1.00  0.00    -0.269 OA
ENDBRANCH   5  16
BRANCH   9  19
HETATM   19  N5  UNL     1      -0.859  -3.336   0.782  1.00  0.00    -0.112 N 
HETATM   20  O3  UNL     1      -1.574  -4.291   0.422  1.00  0.00    -0.532 OA
HETATM   21  O4  UNL     1       0.234  -3.589   1.543  1.00  0.00    -0.532 OA
ENDBRANCH   9  19
TORSDOF 3
