REMARK  5 active torsions:
REMARK  status: ('A' for Active; 'I' for Inactive)
REMARK    1  A    between atoms: C2_2  and  C3_4 
REMARK    2  A    between atoms: C5_8  and  C6_9 
REMARK    3  A    between atoms: N2_10  and  N3_12 
REMARK    4  A    between atoms: N4_14  and  C7_16 
REMARK    5  A    between atoms: C8_17  and  O1_18 
ROOT
HETATM    1  N3  UNL     1      -0.534  -0.661  -1.172  1.00  0.00    -0.241 N 
ATOM      2  H3  UNL     1       0.216  -1.103  -1.704  1.00  0.00     0.208 HD
HETATM    3  N4  UNL     1      -1.728  -1.019  -1.370  1.00  0.00    -0.267 N 
ATOM      4  H4  UNL     1      -1.950  -1.742  -2.055  1.00  0.00     0.190 HD
ENDROOT
BRANCH   1   5
HETATM    5  N2  UNL     1      -0.229   0.304  -0.262  1.00  0.00    -0.295 N 
HETATM    6  C6  UNL     1       0.906   0.562   0.189  1.00  0.00     0.138 C 
ATOM      7  H2  UNL     1      -1.003   0.871   0.085  1.00  0.00     0.187 HD
BRANCH   6   8
HETATM    8  C5  UNL     1       2.120  -0.112  -0.168  1.00  0.00     0.050 A 
HETATM    9  N1  UNL     1       2.388  -1.113  -0.997  1.00  0.00    -0.364 N 
HETATM   10  C4  UNL     1       3.726  -1.384  -0.974  1.00  0.00     0.101 A 
ATOM     11  H1  UNL     1       1.699  -1.605  -1.565  1.00  0.00     0.165 HD
HETATM   12  C3  UNL     1       4.350  -0.533  -0.101  1.00  0.00    -0.002 A 
HETATM   13  C12 UNL     1       3.354   0.260   0.403  1.00  0.00     0.045 A 
BRANCH  12  14
HETATM   14  C2  UNL     1       5.787  -0.474   0.233  1.00  0.00     0.017 C 
HETATM   15  C1  UNL     1       6.365   0.878   0.466  1.00  0.00     0.062 C 
HETATM   16  S1  UNL     1       6.637  -1.840   0.327  1.00  0.00    -0.084 SA
ENDBRANCH  12  14
ENDBRANCH   6   8
ENDBRANCH   1   5
BRANCH   3  17
HETATM   17  C7  UNL     1      -2.754  -0.392  -0.618  1.00  0.00     0.177 A 
HETATM   18  C8  UNL     1      -3.188   0.919  -0.632  1.00  0.00     0.191 A 
HETATM   19  N5  UNL     1      -4.191   1.048   0.257  1.00  0.00    -0.306 N 
HETATM   20  C9  UNL     1      -4.921   2.261   0.549  1.00  0.00     0.161 C 
HETATM   21  C10 UNL     1      -4.387  -0.157   0.820  1.00  0.00     0.183 A 
HETATM   22  S2  UNL     1      -5.502  -0.500   1.962  1.00  0.00    -0.040 SA
HETATM   23  N6  UNL     1      -3.508  -1.039   0.285  1.00  0.00    -0.309 N 
HETATM   24  C11 UNL     1      -3.406  -2.436   0.634  1.00  0.00     0.160 C 
BRANCH  18  25
HETATM   25  O1  UNL     1      -2.646   1.909  -1.448  1.00  0.00    -0.343 OA
ATOM     26  H1  UNL     1      -2.945   2.811  -1.458  1.00  0.00     0.219 HD
ENDBRANCH  18  25
ENDBRANCH   3  17
TORSDOF 5
