REMARK  21 active torsions:
REMARK  status: ('A' for Active; 'I' for Inactive)
REMARK    1  A    between atoms: C2_2  and  O2_4 
REMARK    2  A    between atoms: O2_4  and  C3_5 
REMARK    3  A    between atoms: C6_8  and  C7_9 
REMARK    4  A    between atoms: C8_10  and  C9_11 
REMARK    5  A    between atoms: C9_11  and  C11_13 
REMARK    6  A    between atoms: C11_13  and  C12_14 
REMARK    7  A    between atoms: C12_14  and  C13_15 
REMARK    8  A    between atoms: C13_15  and  O3_16 
REMARK    9  A    between atoms: C13_15  and  C14_18 
REMARK   10  A    between atoms: C14_18  and  C16_20 
REMARK   11  A    between atoms: C16_20  and  C17_21 
REMARK   12  A    between atoms: C17_21  and  C18_23 
REMARK   13  A    between atoms: C18_23  and  C20_25 
REMARK   14  A    between atoms: C20_25  and  O5_26 
REMARK   15  A    between atoms: C20_25  and  C21_28 
REMARK   16  A    between atoms: C23_30  and  C24_31 
REMARK   17  A    between atoms: C24_31  and  C25_32 
REMARK   18  A    between atoms: C31_40  and  C32_41 
REMARK   19  A    between atoms: C32_41  and  O8_42 
REMARK   20  A    between atoms: C33_44  and  O9_45 
REMARK   21  A    between atoms: C34_47  and  O10_48 
ROOT
HETATM    1  C13 UNL     1      -0.568  -0.006  -0.543  1.00  0.00     0.170 C 
ENDROOT
BRANCH   1   2
HETATM    2  C12 UNL     1      -0.376  -0.642   0.781  1.00  0.00     0.009 C 
BRANCH   2   3
HETATM    3  C11 UNL     1      -1.235  -1.123   1.625  1.00  0.00     0.005 C 
BRANCH   3   4
HETATM    4  C9  UNL     1      -2.667  -1.292   1.741  1.00  0.00    -0.062 C 
HETATM    5  C10 UNL     1      -3.238  -0.571   2.947  1.00  0.00     0.048 C 
BRANCH   4   6
HETATM    6  C8  UNL     1      -3.420  -1.227   0.516  1.00  0.00     0.003 C 
HETATM    7  C7  UNL     1      -4.386  -0.500   0.058  1.00  0.00    -0.021 C 
BRANCH   7   8
HETATM    8  C6  UNL     1      -5.162   0.606   0.598  1.00  0.00     0.023 C 
HETATM    9  C4  UNL     1      -6.636   0.299   0.731  1.00  0.00     0.022 C 
HETATM   10  C3  UNL     1      -7.381   0.357  -0.576  1.00  0.00     0.167 C 
HETATM   11  C5  UNL     1      -6.873  -1.059   1.316  1.00  0.00     0.013 C 
HETATM   12  C34 UNL     1      -7.117   1.601  -1.376  1.00  0.00     0.177 C 
HETATM   13  C33 UNL     1      -5.633   1.719  -1.621  1.00  0.00     0.156 C 
HETATM   14  C31 UNL     1      -4.932   1.802  -0.315  1.00  0.00     0.049 C 
BRANCH  10  15
HETATM   15  O2  UNL     1      -8.763   0.327  -0.268  1.00  0.00    -0.313 OA
BRANCH  15  16
HETATM   16  C2  UNL     1      -9.597  -0.691  -0.723  1.00  0.00     0.255 C 
HETATM   17  C1  UNL     1     -11.024  -0.637  -0.350  1.00  0.00     0.126 C 
HETATM   18  O1  UNL     1      -9.069  -1.586  -1.421  1.00  0.00    -0.266 OA
ENDBRANCH  15  16
ENDBRANCH  10  15
BRANCH  12  19
HETATM   19  O10 UNL     1      -7.699   2.737  -0.867  1.00  0.00    -0.390 OA
ATOM     20  H10 UNL     1      -7.532   3.524  -1.373  1.00  0.00     0.210 HD
ENDBRANCH  12  19
BRANCH  13  21
HETATM   21  O9  UNL     1      -5.415   2.886  -2.325  1.00  0.00    -0.392 OA
ATOM     22  H9  UNL     1      -5.864   2.833  -3.161  1.00  0.00     0.210 HD
ENDBRANCH  13  21
BRANCH  14  23
HETATM   23  C32 UNL     1      -5.179   3.042   0.477  1.00  0.00     0.172 C 
BRANCH  23  24
HETATM   24  O8  UNL     1      -5.001   4.206  -0.253  1.00  0.00    -0.400 OA
ATOM     25  H8  UNL     1      -5.158   4.996   0.251  1.00  0.00     0.209 HD
ENDBRANCH  23  24
ENDBRANCH  14  23
ENDBRANCH   7   8
ENDBRANCH   4   6
ENDBRANCH   3   4
ENDBRANCH   2   3
ENDBRANCH   1   2
BRANCH   1  26
HETATM   26  O3  UNL     1      -0.113   1.348  -0.489  1.00  0.00    -0.387 OA
ATOM     27  H3  UNL     1      -0.236   1.756  -1.338  1.00  0.00     0.210 HD
ENDBRANCH   1  26
BRANCH   1  28
HETATM   28  C14 UNL     1       0.122  -0.717  -1.677  1.00  0.00    -0.048 C 
HETATM   29  C15 UNL     1      -0.329  -2.129  -1.770  1.00  0.00     0.046 C 
BRANCH  28  30
HETATM   30  C16 UNL     1       1.489  -0.351  -2.028  1.00  0.00     0.056 C 
BRANCH  30  31
HETATM   31  C17 UNL     1       2.592  -0.431  -1.101  1.00  0.00     0.156 C 
HETATM   32  O4  UNL     1       2.690   0.486  -0.277  1.00  0.00    -0.293 OA
BRANCH  31  33
HETATM   33  C18 UNL     1       3.642  -1.479  -1.008  1.00  0.00     0.088 C 
HETATM   34  C19 UNL     1       3.164  -2.850  -0.737  1.00  0.00     0.021 C 
BRANCH  33  35
HETATM   35  C20 UNL     1       4.758  -0.978  -0.160  1.00  0.00     0.157 C 
BRANCH  35  36
HETATM   36  O5  UNL     1       4.173  -0.699   1.114  1.00  0.00    -0.390 OA
ATOM     37  H5  UNL     1       4.885  -0.379   1.655  1.00  0.00     0.210 HD
ENDBRANCH  35  36
BRANCH  35  38
HETATM   38  C21 UNL     1       5.909  -1.828   0.083  1.00  0.00    -0.058 C 
HETATM   39  C22 UNL     1       5.751  -3.052   0.961  1.00  0.00     0.046 C 
HETATM   40  C23 UNL     1       7.125  -1.636  -0.405  1.00  0.00    -0.019 C 
BRANCH  40  41
HETATM   41  C24 UNL     1       7.564  -0.534  -1.284  1.00  0.00     0.060 C 
BRANCH  41  42
HETATM   42  C25 UNL     1       8.723   0.187  -0.694  1.00  0.00     0.140 C 
HETATM   43  O6  UNL     1       9.212   1.263  -1.483  1.00  0.00    -0.315 OA
HETATM   44  C26 UNL     1       9.907   2.145  -0.654  1.00  0.00     0.263 C 
HETATM   45  O7  UNL     1      10.515   3.155  -1.046  1.00  0.00    -0.265 OA
HETATM   46  C27 UNL     1       9.790   1.669   0.738  1.00  0.00     0.087 C 
HETATM   47  C28 UNL     1       9.663   2.790   1.732  1.00  0.00     0.021 C 
HETATM   48  C29 UNL     1       8.458   0.883   0.619  1.00  0.00     0.025 C 
HETATM   49  C30 UNL     1       7.320   1.889   0.493  1.00  0.00     0.013 C 
ENDBRANCH  41  42
ENDBRANCH  40  41
ENDBRANCH  35  38
ENDBRANCH  33  35
ENDBRANCH  31  33
ENDBRANCH  30  31
ENDBRANCH  28  30
ENDBRANCH   1  28
TORSDOF 21
