REMARK  15 active torsions:
REMARK  status: ('A' for Active; 'I' for Inactive)
REMARK    1  A    between atoms: C2_2  and  C3_3 
REMARK    2  A    between atoms: C3_3  and  N1_4 
REMARK    3  A    between atoms: C5_6  and  C6_7 
REMARK    4  A    between atoms: N2_8  and  O1_10 
REMARK    5  A    between atoms: N5_16  and  N6_18 
REMARK    6  A    between atoms: N6_18  and  C7_20 
REMARK    7  A    between atoms: C7_20  and  N7_22 
REMARK    8  A    between atoms: C9_27  and  C10_28 
REMARK    9  A    between atoms: C10_28  and  O2_29 
REMARK   10  A    between atoms: C10_28  and  C15_48 
REMARK   11  A    between atoms: O2_29  and  C11_30 
REMARK   12  A    between atoms: C11_30  and  C12_31 
REMARK       I    between atoms: C12_31  and  N9_33 
REMARK   13  A    between atoms: C14_40  and  S3_41 
REMARK   14  A    between atoms: S3_41  and  N12_42 
REMARK   15  A    between atoms: C15_48  and  C16_50 
ROOT
HETATM    1  N7  UNL     1      -1.277  -1.628  -1.147  1.00  0.00    -0.232 N 
HETATM    2  N8  UNL     1      -0.621  -2.594  -1.726  1.00  0.00    -0.281 N 
ATOM      3  H8  UNL     1      -0.992  -3.165  -2.485  1.00  0.00     0.188 HD
HETATM    4  C8  UNL     1       0.607  -2.743  -1.197  1.00  0.00     0.127 A 
HETATM    5  S2  UNL     1       1.728  -3.834  -1.643  1.00  0.00    -0.058 SA
HETATM    6  C9  UNL     1       0.730  -1.788  -0.202  1.00  0.00     0.042 A 
HETATM    7  C17 UNL     1      -0.475  -1.114  -0.207  1.00  0.00     0.045 A 
HETATM    8  C18 UNL     1      -0.845   0.011   0.684  1.00  0.00     0.071 C 
ENDROOT
BRANCH   6   9
HETATM    9  C10 UNL     1       1.917  -1.541   0.693  1.00  0.00     0.241 C 
BRANCH   9  10
HETATM   10  O2  UNL     1       2.932  -0.903   0.025  1.00  0.00    -0.364 OA
BRANCH  10  11
HETATM   11  C11 UNL     1       3.247   0.335   0.589  1.00  0.00     0.272 C 
BRANCH  11  12
HETATM   12  C12 UNL     1       4.342   0.940  -0.209  1.00  0.00     0.247 C 
HETATM   13  O3  UNL     1       4.836   0.355  -1.219  1.00  0.00    -0.271 OA
HETATM   14  N9  UNL     1       4.896   2.217   0.124  1.00  0.00    -0.304 N 
HETATM   15  C13 UNL     1       6.208   2.279   0.075  1.00  0.00     0.168 A 
ATOM     16  H9  UNL     1       4.317   3.017   0.380  1.00  0.00     0.171 HD
HETATM   17  N10 UNL     1       6.987   3.335   0.334  1.00  0.00    -0.278 N 
HETATM   18  S4  UNL     1       7.363   1.083  -0.322  1.00  0.00    -0.020 SA
HETATM   19  N11 UNL     1       8.245   3.201   0.232  1.00  0.00    -0.281 N 
ATOM     20  H10 UNL     1       6.579   4.229   0.608  1.00  0.00     0.189 HD
HETATM   21  C14 UNL     1       8.766   2.037  -0.123  1.00  0.00     0.208 A 
ATOM     22  H11 UNL     1       8.857   3.994   0.424  1.00  0.00     0.188 HD
BRANCH  21  23
HETATM   23  S3  UNL     1      10.481   1.640  -0.322  1.00  0.00     0.280 S 
HETATM   24  O4  UNL     1      10.600   0.546  -1.365  1.00  0.00    -0.199 OA
HETATM   25  O5  UNL     1      11.248   2.855  -0.719  1.00  0.00    -0.199 OA
BRANCH  23  26
HETATM   26  N12 UNL     1      11.089   1.072   1.188  1.00  0.00    -0.323 N 
ATOM     27 2H12 UNL     1      10.541   0.985   2.044  1.00  0.00     0.169 HD
ATOM     28 1H12 UNL     1      12.076   0.843   1.073  1.00  0.00     0.169 HD
ENDBRANCH  23  26
ENDBRANCH  21  23
ENDBRANCH  11  12
ENDBRANCH  10  11
ENDBRANCH   9  10
BRANCH   9  29
HETATM   29  C15 UNL     1       2.413  -2.843   1.195  1.00  0.00     0.258 C 
HETATM   30  O6  UNL     1       1.622  -3.599   1.848  1.00  0.00    -0.282 OA
BRANCH  29  31
HETATM   31  C16 UNL     1       3.766  -3.338   0.996  1.00  0.00     0.249 C 
HETATM   32  O7  UNL     1       4.594  -2.641   0.362  1.00  0.00    -0.642 OA
HETATM   33  O8  UNL     1       4.176  -4.563   1.487  1.00  0.00    -0.642 OA
ENDBRANCH  29  31
ENDBRANCH   9  29
ENDBRANCH   6   9
BRANCH   1  34
HETATM   34  C7  UNL     1      -2.620  -1.244  -1.509  1.00  0.00     0.212 C 
HETATM   35  S1  UNL     1      -2.860   0.132  -2.347  1.00  0.00    -0.037 SA
BRANCH  34  36
HETATM   36  N6  UNL     1      -3.730  -2.025  -1.158  1.00  0.00    -0.275 N 
ATOM     37  H6  UNL     1      -3.593  -2.889  -0.633  1.00  0.00     0.189 HD
BRANCH  36  38
HETATM   38  N5  UNL     1      -5.011  -1.638  -1.516  1.00  0.00    -0.305 N 
HETATM   39  C2  UNL     1      -5.875  -1.218  -0.676  1.00  0.00     0.019 C 
HETATM   40  C1  UNL     1      -5.524  -1.126   0.762  1.00  0.00     0.066 C 
ATOM     41  H5  UNL     1      -5.277  -1.691  -2.499  1.00  0.00     0.186 HD
BRANCH  39  42
HETATM   42  C3  UNL     1      -7.214  -0.833  -1.162  1.00  0.00     0.203 C 
BRANCH  42  43
HETATM   43  N1  UNL     1      -7.432   0.557  -0.838  1.00  0.00    -0.281 N 
HETATM   44  C4  UNL     1      -7.996   0.962   0.331  1.00  0.00     0.144 A 
HETATM   45  C5  UNL     1      -8.041   2.322   0.280  1.00  0.00     0.083 A 
HETATM   46  N3  UNL     1      -7.513   2.690  -0.895  1.00  0.00    -0.283 N 
HETATM   47  N4  UNL     1      -7.140   1.628  -1.582  1.00  0.00    -0.240 N 
ATOM     48  H3  UNL     1      -7.414   3.654  -1.213  1.00  0.00     0.188 HD
ATOM     49  H4  UNL     1      -6.710   1.625  -2.507  1.00  0.00     0.208 HD
BRANCH  45  50
HETATM   50  C6  UNL     1      -8.571   3.184   1.328  1.00  0.00     0.146 C 
HETATM   51  N2  UNL     1      -8.569   4.458   1.183  1.00  0.00    -0.278 N 
ATOM     52  H2  UNL     1      -8.942   5.054   1.922  1.00  0.00     0.193 HD
BRANCH  51  53
HETATM   53  O1  UNL     1      -8.070   5.020   0.043  1.00  0.00    -0.290 OA
ATOM     54  H1  UNL     1      -8.069   5.964  -0.064  1.00  0.00     0.244 HD
ENDBRANCH  51  53
ENDBRANCH  45  50
ENDBRANCH  42  43
ENDBRANCH  39  42
ENDBRANCH  36  38
ENDBRANCH  34  36
ENDBRANCH   1  34
TORSDOF 15
