REMARK  0 active torsions:
REMARK  status: ('A' for Active; 'I' for Inactive)
ROOT
HETATM    1  C1  UNL     1      -4.383   1.248   0.220  1.00  0.00     0.000 C 
HETATM    2  C2  UNL     1      -4.326  -0.256   0.146  1.00  0.00     0.000 C 
HETATM    3  C3  UNL     1      -3.306  -0.853   1.078  1.00  0.00     0.002 C 
HETATM    4  C4  UNL     1      -2.287  -1.693   0.385  1.00  0.00     0.038 C 
HETATM    5  C5  UNL     1      -1.119  -0.986  -0.169  1.00  0.00     0.253 C 
HETATM    6  C6  UNL     1      -1.033   0.478   0.194  1.00  0.00     0.219 C 
HETATM    7  C7  UNL     1      -2.054   1.267  -0.562  1.00  0.00     0.035 C 
HETATM    8  C8  UNL     1      -3.053   1.899   0.378  1.00  0.00     0.002 C 
HETATM    9  N1  UNL     1       0.287   0.932  -0.278  1.00  0.00    -0.069 N 
ATOM     10  H11 UNL     1       0.490   0.622  -1.228  1.00  0.00     0.277 HD
ATOM     11  H12 UNL     1       1.055   0.454   0.193  1.00  0.00     0.277 HD
HETATM   12  C9  UNL     1       0.360   2.375  -0.137  1.00  0.00     0.234 C 
HETATM   13  C10 UNL     1       1.670   2.803   0.513  1.00  0.00     0.055 C 
HETATM   14  C11 UNL     1       2.856   2.490  -0.343  1.00  0.00     0.234 C 
HETATM   15  N2  UNL     1       3.802   1.732   0.467  1.00  0.00    -0.073 N 
ATOM     16  H21 UNL     1       3.444   1.585   1.411  1.00  0.00     0.277 HD
ATOM     17  H22 UNL     1       4.626   2.290   0.691  1.00  0.00     0.277 HD
HETATM   18  C12 UNL     1       4.170   0.485  -0.151  1.00  0.00     0.258 C 
HETATM   19  C13 UNL     1       3.731  -0.675   0.716  1.00  0.00     0.195 C 
HETATM   20  O1  UNL     1       3.333  -1.731  -0.100  1.00  0.00    -0.389 OA
HETATM   21  C14 UNL     1       2.600  -2.692   0.580  1.00  0.00     0.175 C 
HETATM   22  C15 UNL     1       1.457  -3.114  -0.289  1.00  0.00     0.066 C 
HETATM   23  C16 UNL     1       0.110  -2.976   0.433  1.00  0.00     0.281 C 
HETATM   24  N3  UNL     1       0.159  -1.577   0.144  1.00  0.00     0.096 N 
HETATM   25  C17 UNL     1       0.943  -1.882  -1.039  1.00  0.00     0.281 C 
ENDROOT
TORSDOF 0
