REMARK  3 active torsions:
REMARK  status: ('A' for Active; 'I' for Inactive)
REMARK    1  A    between atoms: N1_1  and  N2_4 
REMARK    2  A    between atoms: C14_19  and  O1_20 
REMARK    3  A    between atoms: C15_22  and  O2_23 
ROOT
HETATM    1  N2  UNL     1      -1.245   2.824  -0.295  1.00  0.00    -0.315 N 
ATOM      2  H2  UNL     1      -2.202   2.537  -0.502  1.00  0.00     0.185 HD
HETATM    3  C1  UNL     1      -0.465   2.008   0.356  1.00  0.00     0.006 C 
HETATM    4  C2  UNL     1       0.931   2.394   0.673  1.00  0.00     0.054 C 
HETATM    5  C3  UNL     1       1.773   2.118  -0.556  1.00  0.00     0.006 C 
HETATM    6  C4  UNL     1       3.173   1.706  -0.203  1.00  0.00     0.000 C 
HETATM    7  C5  UNL     1       3.389   0.281  -0.661  1.00  0.00     0.000 C 
HETATM    8  C6  UNL     1       3.054  -0.703   0.407  1.00  0.00     0.000 C 
HETATM    9  C7  UNL     1       2.485  -2.009  -0.159  1.00  0.00     0.000 C 
HETATM   10  C8  UNL     1       1.580  -2.589   0.874  1.00  0.00     0.000 C 
HETATM   11  C9  UNL     1       0.157  -2.761   0.424  1.00  0.00     0.000 C 
HETATM   12  C10 UNL     1      -0.288  -1.783  -0.605  1.00  0.00     0.007 C 
HETATM   13  C11 UNL     1      -1.703  -1.356  -0.531  1.00  0.00     0.023 C 
HETATM   14  C12 UNL     1      -2.491  -1.944   0.609  1.00  0.00     0.010 C 
HETATM   15  C13 UNL     1      -3.825  -1.212   0.393  1.00  0.00     0.035 C 
HETATM   16  C14 UNL     1      -3.354   0.205   0.152  1.00  0.00     0.153 C 
HETATM   17  C15 UNL     1      -1.906   0.121  -0.306  1.00  0.00     0.092 C 
HETATM   18  C16 UNL     1      -1.036   0.693   0.760  1.00  0.00     0.095 C 
ENDROOT
BRANCH   1  19
HETATM   19  N1  UNL     1      -0.811   4.070  -0.714  1.00  0.00    -0.345 N 
ATOM     20  H12 UNL     1       0.148   4.341  -0.499  1.00  0.00     0.176 HD
ATOM     21  H11 UNL     1      -1.422   4.709  -1.224  1.00  0.00     0.176 HD
ENDBRANCH   1  19
BRANCH  17  22
HETATM   22  O2  UNL     1      -1.771   0.745  -1.543  1.00  0.00    -0.386 OA
ATOM     23  H2  UNL     1      -1.899   1.676  -1.401  1.00  0.00     0.210 HD
ENDBRANCH  17  22
BRANCH  16  24
HETATM   24  O1  UNL     1      -4.146   0.849  -0.806  1.00  0.00    -0.393 OA
ATOM     25  H1  UNL     1      -3.850   1.739  -0.957  1.00  0.00     0.210 HD
ENDBRANCH  16  24
TORSDOF 3
