REMARK  6 active torsions:
REMARK  status: ('A' for Active; 'I' for Inactive)
REMARK    1  A    between atoms: C1_2  and  C2_4 
REMARK    2  A    between atoms: C2_4  and  O3_5 
REMARK    3  A    between atoms: O3_5  and  C3_6 
REMARK    4  A    between atoms: C5_8  and  C6_9 
REMARK    5  A    between atoms: C7_12  and  C8_13 
REMARK    6  A    between atoms: C9_16  and  C10_17 
ROOT
HETATM    1  C3  UNL     1       1.080   0.165  -0.200  1.00  0.00     0.067 A 
HETATM    2  C4  UNL     1       0.348   1.374  -0.715  1.00  0.00     0.054 C 
HETATM    3  C5  UNL     1      -1.077   1.459  -0.334  1.00  0.00     0.105 C 
HETATM    4  C7  UNL     1      -1.811   0.154  -0.276  1.00  0.00     0.116 C 
HETATM    5  C9  UNL     1      -1.067  -1.011  -0.819  1.00  0.00     0.109 C 
HETATM    6  C11 UNL     1       0.364  -1.104  -0.409  1.00  0.00     0.038 A 
HETATM    7  C12 UNL     1       0.638  -0.573   0.981  1.00  0.00     0.047 A 
ENDROOT
BRANCH   1   8
HETATM    8  O3  UNL     1       2.439   0.239  -0.432  1.00  0.00    -0.369 OA
BRANCH   8   9
HETATM    9  C2  UNL     1       3.186  -0.819   0.005  1.00  0.00     0.281 C 
BRANCH   9  10
HETATM   10  C1  UNL     1       4.617  -0.533  -0.366  1.00  0.00     0.197 C 
HETATM   11  O1  UNL     1       5.464  -1.412  -0.037  1.00  0.00    -0.646 OA
HETATM   12  O2  UNL     1       4.999   0.610  -1.022  1.00  0.00    -0.646 OA
ENDBRANCH   9  10
ENDBRANCH   8   9
ENDBRANCH   1   8
BRANCH   3  13
HETATM   13  C6  UNL     1      -1.265   2.252   0.907  1.00  0.00     0.178 C 
HETATM   14  O4  UNL     1      -0.293   2.769   1.508  1.00  0.00    -0.648 OA
HETATM   15  O5  UNL     1      -2.521   2.455   1.455  1.00  0.00    -0.648 OA
ENDBRANCH   3  13
BRANCH   5  16
HETATM   16  C10 UNL     1      -1.733  -2.253  -0.327  1.00  0.00     0.178 C 
HETATM   17  O8  UNL     1      -2.747  -2.204   0.415  1.00  0.00    -0.648 OA
HETATM   18  O9  UNL     1      -1.282  -3.525  -0.655  1.00  0.00    -0.648 OA
ENDBRANCH   5  16
BRANCH   4  19
HETATM   19  C8  UNL     1      -3.130   0.233  -0.965  1.00  0.00     0.178 C 
HETATM   20  O6  UNL     1      -3.393  -0.510  -1.944  1.00  0.00    -0.648 OA
HETATM   21  O7  UNL     1      -4.120   1.119  -0.567  1.00  0.00    -0.648 OA
ENDBRANCH   4  19
TORSDOF 6
