REMARK  3 active torsions:
REMARK  status: ('A' for Active; 'I' for Inactive)
REMARK    1  A    between atoms: C4_8  and  C5_9 
REMARK    2  A    between atoms: C5_9  and  C6_10 
REMARK    3  A    between atoms: C6_10  and  N3_11 
ROOT
HETATM    1  C6  UNL     1      -1.436   0.529   0.162  1.00  0.00     0.158 C 
ENDROOT
BRANCH   1   2
HETATM    2  C5  UNL     1      -2.333  -0.362  -0.583  1.00  0.00    -0.012 A 
HETATM    3  C15 UNL     1      -1.917  -1.181  -1.742  1.00  0.00     0.013 A 
HETATM    4  C16 UNL     1      -2.047  -1.866  -0.440  1.00  0.00     0.013 A 
BRANCH   2   5
HETATM    5  C4  UNL     1      -3.827  -0.081  -0.506  1.00  0.00     0.069 C 
HETATM    6  C1  UNL     1      -4.212   1.248  -0.976  1.00  0.00     0.101 C 
HETATM    7  N1  UNL     1      -3.703   2.046  -2.041  1.00  0.00    -0.087 NA
HETATM    8  N2  UNL     1      -5.199   1.696  -0.235  1.00  0.00    -0.319 N 
HETATM    9  C2  UNL     1      -5.544   0.767   0.746  1.00  0.00     0.223 C 
ATOM     10  H2  UNL     1      -5.652   2.601  -0.360  1.00  0.00     0.169 HD
HETATM   11  O1  UNL     1      -6.610   0.624   1.367  1.00  0.00    -0.273 OA
HETATM   12  C3  UNL     1      -4.313  -0.076   0.921  1.00  0.00     0.115 C 
ENDBRANCH   2   5
ENDBRANCH   1   2
BRANCH   1  13
HETATM   13  N3  UNL     1      -0.037   0.321   0.121  1.00  0.00    -0.264 N 
HETATM   14  N4  UNL     1       0.861   0.857  -0.796  1.00  0.00    -0.136 NA
HETATM   15  C7  UNL     1       2.191   1.014  -0.269  1.00  0.00     0.145 C 
HETATM   16  C8  UNL     1       2.798  -0.199   0.317  1.00  0.00    -0.017 C 
HETATM   17  C9  UNL     1       3.707   0.243   1.470  1.00  0.00     0.011 C 
HETATM   18  C12 UNL     1       3.712  -0.897  -0.672  1.00  0.00     0.011 C 
HETATM   19  C13 UNL     1       1.845  -1.204   0.864  1.00  0.00     0.115 C 
HETATM   20  C10 UNL     1       5.080   0.374   0.875  1.00  0.00     0.001 C 
HETATM   21  C11 UNL     1       5.109  -0.476  -0.365  1.00  0.00     0.001 C 
HETATM   22  C14 UNL     1       0.542  -0.523   1.113  1.00  0.00     0.236 C 
HETATM   23  O2  UNL     1      -0.027  -0.721   2.228  1.00  0.00    -0.272 OA
ENDBRANCH   1  13
TORSDOF 3
