REMARK  6 active torsions:
REMARK  status: ('A' for Active; 'I' for Inactive)
REMARK    1  A    between atoms: N1_2  and  C3_4 
REMARK    2  A    between atoms: C3_4  and  C4_5 
REMARK    3  A    between atoms: C4_5  and  C5_6 
REMARK    4  A    between atoms: C5_6  and  O1_7 
REMARK    5  A    between atoms: C5_6  and  C6_9 
REMARK    6  A    between atoms: C17_20  and  C18_21 
ROOT
HETATM    1  C6  UNL     1       0.224  -0.038  -0.387  1.00  0.00     0.028 C 
HETATM    2  C7  UNL     1      -0.289  -1.386  -0.973  1.00  0.00     0.009 C 
HETATM    3  C8  UNL     1      -1.005  -2.243  -0.035  1.00  0.00     0.006 C 
HETATM    4  C9  UNL     1      -2.488  -2.142  -0.322  1.00  0.00    -0.006 A 
HETATM    5  C10 UNL     1      -2.929  -2.186  -1.741  1.00  0.00     0.006 A 
HETATM    6  C11 UNL     1      -3.329  -0.709  -1.616  1.00  0.00     0.010 A 
HETATM    7  C12 UNL     1      -2.973  -0.729  -0.191  1.00  0.00    -0.035 A 
HETATM    8  C13 UNL     1      -4.310  -0.813   0.607  1.00  0.00     0.016 C 
HETATM    9  C14 UNL     1      -2.143   0.225   0.487  1.00  0.00     0.011 C 
HETATM   10  C15 UNL     1      -3.006   1.477   0.630  1.00  0.00     0.034 C 
HETATM   11  C16 UNL     1      -2.387   2.404  -0.305  1.00  0.00    -0.015 C 
HETATM   12  C17 UNL     1      -1.139   2.019  -0.602  1.00  0.00    -0.015 C 
HETATM   13  C19 UNL     1      -0.847   0.797   0.154  1.00  0.00    -0.004 C 
HETATM   14  C20 UNL     1      -0.379   1.469   1.491  1.00  0.00     0.021 C 
ENDROOT
BRANCH   1  15
HETATM   15  C5  UNL     1       1.471  -0.387   0.296  1.00  0.00     0.125 C 
BRANCH  15  16
HETATM   16  C4  UNL     1       2.314   0.645   0.967  1.00  0.00     0.062 C 
BRANCH  16  17
HETATM   17  C3  UNL     1       3.780   0.128   1.063  1.00  0.00     0.274 C 
BRANCH  17  18
HETATM   18  N1  UNL     1       4.311  -0.133  -0.232  1.00  0.00     0.080 N 
HETATM   19  C1  UNL     1       5.671  -0.608  -0.061  1.00  0.00     0.309 C 
HETATM   20  C2  UNL     1       4.368   1.060  -1.056  1.00  0.00     0.309 C 
ENDBRANCH  17  18
ENDBRANCH  16  17
ENDBRANCH  15  16
BRANCH  15  21
HETATM   21  O1  UNL     1       1.452  -1.594   1.010  1.00  0.00    -0.395 OA
ATOM     22  H1  UNL     1       0.915  -2.251   0.583  1.00  0.00     0.210 HD
ENDBRANCH  15  21
ENDBRANCH   1  15
BRANCH  12  23
HETATM   23  C18 UNL     1      -0.313   2.775  -1.509  1.00  0.00     0.266 C 
HETATM   24  O2  UNL     1       0.841   2.502  -1.821  1.00  0.00    -0.302 OA
ENDBRANCH  12  23
TORSDOF 6
