REMARK  2 active torsions:
REMARK  status: ('A' for Active; 'I' for Inactive)
REMARK    1  A    between atoms: C2_2  and  N1_3 
REMARK       I    between atoms: N1_3  and  C3_5 
REMARK    2  A    between atoms: C3_5  and  C4_7 
REMARK       I    between atoms: N2_12  and  C9_13 
REMARK       I    between atoms: N3_19  and  C14_20 
ROOT
HETATM    1  C4  UNL     1       1.108  -0.163   1.216  1.00  0.00     0.183 C 
HETATM    2  C5  UNL     1      -0.225   0.305   0.748  1.00  0.00     0.027 C 
HETATM    3  C6  UNL     1      -1.211   0.642   1.811  1.00  0.00     0.032 C 
HETATM    4  C7  UNL     1      -2.564   0.799   1.178  1.00  0.00     0.083 C 
HETATM    5  C8  UNL     1      -3.590  -0.143   1.755  1.00  0.00     0.032 C 
HETATM    6  N2  UNL     1      -2.605   0.701  -0.241  1.00  0.00    -0.348 N 
HETATM    7  C9  UNL     1      -3.463   1.528  -1.012  1.00  0.00     0.216 C 
HETATM    8  C10 UNL     1      -3.559   1.483  -2.477  1.00  0.00     0.117 C 
HETATM    9  O2  UNL     1      -4.186   2.353  -0.402  1.00  0.00    -0.274 OA
HETATM   10  C11 UNL     1      -1.777  -0.250  -1.009  1.00  0.00     0.133 C 
HETATM   11  C12 UNL     1      -0.857  -0.871  -0.014  1.00  0.00     0.028 C 
HETATM   12  C13 UNL     1       0.358  -1.526  -0.578  1.00  0.00     0.133 C 
HETATM   13  N3  UNL     1       1.258  -1.465   0.593  1.00  0.00    -0.338 N 
HETATM   14  C14 UNL     1       2.118  -2.500   1.035  1.00  0.00     0.216 C 
HETATM   15  C15 UNL     1       2.211  -3.798   0.341  1.00  0.00     0.117 C 
HETATM   16  O3  UNL     1       2.822  -2.301   2.050  1.00  0.00    -0.274 OA
ENDROOT
BRANCH   1  17
HETATM   17  C3  UNL     1       2.161   0.713   0.646  1.00  0.00     0.241 C 
HETATM   18  N1  UNL     1       3.095   0.278  -0.334  1.00  0.00    -0.360 N 
ATOM     19  H1  UNL     1       3.044  -0.685  -0.666  1.00  0.00     0.162 HD
HETATM   20  O1  UNL     1       2.255   1.917   1.035  1.00  0.00    -0.271 OA
BRANCH  18  21
HETATM   21  C2  UNL     1       4.111   1.144  -0.876  1.00  0.00     0.118 C 
HETATM   22  C1  UNL     1       3.508   2.355  -1.565  1.00  0.00     0.026 C 
ENDBRANCH  18  21
ENDBRANCH   1  17
TORSDOF 2
