REMARK  6 active torsions:
REMARK  status: ('A' for Active; 'I' for Inactive)
REMARK    1  A    between atoms: C2_2  and  N1_3 
REMARK       I    between atoms: N1_3  and  C3_5 
REMARK    2  A    between atoms: C3_5  and  C4_7 
REMARK       I    between atoms: N2_11  and  C8_12 
REMARK    3  A    between atoms: C8_12  and  C9_14 
REMARK    4  A    between atoms: C9_14  and  C10_15 
REMARK    5  A    between atoms: C9_14  and  N3_19 
REMARK    6  A    between atoms: C10_15  and  C11_16 
REMARK       I    between atoms: N3_19  and  C12_21 
REMARK       I    between atoms: C12_21  and  N4_23 
ROOT
HETATM    1  C4  UNL     1       0.512   0.619  -0.770  1.00  0.00     0.179 C 
HETATM    2  C5  UNL     1       0.993   1.620  -1.808  1.00  0.00     0.037 C 
HETATM    3  C6  UNL     1       0.558   1.040  -3.112  1.00  0.00     0.022 C 
HETATM    4  C7  UNL     1      -0.430  -0.013  -2.774  1.00  0.00     0.127 C 
HETATM    5  N2  UNL     1      -0.662   0.056  -1.347  1.00  0.00    -0.337 N 
HETATM    6  C8  UNL     1      -1.832  -0.353  -0.639  1.00  0.00     0.244 C 
HETATM    7  O2  UNL     1      -2.765  -0.882  -1.297  1.00  0.00    -0.271 OA
ENDROOT
BRANCH   6   8
HETATM    8  C9  UNL     1      -2.039  -0.207   0.816  1.00  0.00     0.188 C 
BRANCH   8   9
HETATM    9  C10 UNL     1      -3.099   0.894   1.025  1.00  0.00     0.148 C 
BRANCH   9  10
HETATM   10  C11 UNL     1      -2.587   2.137   0.428  1.00  0.00     0.175 C 
HETATM   11  O3  UNL     1      -2.682   2.332  -0.812  1.00  0.00    -0.648 OA
HETATM   12  O4  UNL     1      -1.981   3.148   1.174  1.00  0.00    -0.648 OA
ENDBRANCH   9  10
ENDBRANCH   8   9
BRANCH   8  13
HETATM   13  N3  UNL     1      -2.659  -1.411   1.377  1.00  0.00    -0.329 N 
HETATM   14  C12 UNL     1      -2.158  -2.053   2.521  1.00  0.00     0.326 C 
HETATM   15  O5  UNL     1      -1.142  -1.591   3.097  1.00  0.00    -0.247 OA
HETATM   16  N4  UNL     1      -2.757  -3.217   3.064  1.00  0.00    -0.275 N 
HETATM   17 BR1  UNL     1      -2.104  -4.089   4.593  1.00  0.00     0.051 Br
ATOM     18  H4  UNL     1      -3.582  -3.599   2.602  1.00  0.00     0.178 HD
ATOM     19  H3  UNL     1      -3.485  -1.797   0.919  1.00  0.00     0.165 HD
ENDBRANCH   8  13
ENDBRANCH   6   8
BRANCH   1  20
HETATM   20  C3  UNL     1       1.607  -0.375  -0.595  1.00  0.00     0.240 C 
HETATM   21  N1  UNL     1       2.835   0.058  -0.034  1.00  0.00    -0.360 N 
ATOM     22  H1  UNL     1       2.957   1.032   0.242  1.00  0.00     0.162 HD
HETATM   23  O1  UNL     1       1.404  -1.561  -0.951  1.00  0.00    -0.271 OA
BRANCH  21  24
HETATM   24  C2  UNL     1       3.923  -0.896   0.147  1.00  0.00     0.118 C 
HETATM   25  C1  UNL     1       5.118  -0.212   0.756  1.00  0.00     0.026 C 
ENDBRANCH  21  24
ENDBRANCH   1  20
TORSDOF 6
