REMARK  6 active torsions:
REMARK  status: ('A' for Active; 'I' for Inactive)
REMARK    1  A    between atoms: C2_2  and  O1_3 
REMARK    2  A    between atoms: C2_2  and  C3_5 
REMARK    3  A    between atoms: C3_5  and  C4_6 
REMARK    4  A    between atoms: C4_6  and  C5_7 
REMARK    5  A    between atoms: C5_7  and  C6_9 
REMARK    6  A    between atoms: C8_11  and  O3_12 
ROOT
HETATM    1  C6  UNL     1      -2.747  -0.640  -0.183  1.00  0.00     0.066 C 
HETATM    2  C7  UNL     1      -3.083  -1.601  -1.308  1.00  0.00     0.045 C 
HETATM    3  C8  UNL     1      -1.682  -1.883  -1.866  1.00  0.00     0.124 C 
HETATM    4  C9  UNL     1      -0.786  -1.885  -0.682  1.00  0.00     0.028 C 
HETATM    5  C10 UNL     1       0.564  -1.273  -0.916  1.00  0.00     0.002 C 
HETATM    6  C11 UNL     1       0.573  -0.014  -1.697  1.00  0.00     0.006 C 
HETATM    7  C12 UNL     1       1.404   1.098  -1.121  1.00  0.00     0.006 C 
HETATM    8  C13 UNL     1       2.734   0.578  -0.706  1.00  0.00     0.004 C 
HETATM    9  C14 UNL     1       3.446   1.659   0.070  1.00  0.00     0.026 C 
HETATM   10  C15 UNL     1       3.655   2.928  -0.677  1.00  0.00     0.128 C 
HETATM   11  N1  UNL     1       4.893   3.450  -0.118  1.00  0.00    -0.360 N 
ATOM     12  H1  UNL     1       5.261   4.387  -0.280  1.00  0.00     0.162 HD
HETATM   13  C16 UNL     1       5.521   2.441   0.701  1.00  0.00     0.226 C 
HETATM   14  O4  UNL     1       6.414   2.623   1.571  1.00  0.00    -0.273 OA
HETATM   15  C17 UNL     1       4.874   1.172   0.278  1.00  0.00     0.049 C 
HETATM   16  C18 UNL     1       5.522   0.748  -1.014  1.00  0.00     0.026 C 
HETATM   17  C19 UNL     1       4.842   0.114   1.313  1.00  0.00     0.098 C 
HETATM   18  C20 UNL     1       3.485  -0.508   1.379  1.00  0.00     0.133 C 
HETATM   19  O5  UNL     1       3.110  -0.855   2.485  1.00  0.00    -0.297 OA
HETATM   20  C21 UNL     1       2.717  -0.651   0.129  1.00  0.00     0.068 C 
HETATM   21  C22 UNL     1       1.338  -1.227   0.381  1.00  0.00    -0.029 C 
HETATM   22  C23 UNL     1       1.583  -2.700   0.760  1.00  0.00     0.016 C 
HETATM   23  C24 UNL     1       0.606  -0.609   1.515  1.00  0.00     0.011 C 
HETATM   24  C25 UNL     1      -0.840  -0.341   1.298  1.00  0.00     0.011 C 
HETATM   25  C26 UNL     1      -1.568  -1.313   0.454  1.00  0.00    -0.027 C 
HETATM   26  C27 UNL     1      -2.138  -2.427   1.346  1.00  0.00     0.016 C 
ENDROOT
BRANCH   1  27
HETATM   27  C5  UNL     1      -3.869  -0.386   0.730  1.00  0.00     0.132 C 
HETATM   28  O2  UNL     1      -3.893  -0.607   1.924  1.00  0.00    -0.298 OA
BRANCH  27  29
HETATM   29  C4  UNL     1      -5.119   0.203   0.149  1.00  0.00     0.085 C 
BRANCH  29  30
HETATM   30  C3  UNL     1      -5.228   1.670   0.431  1.00  0.00     0.071 C 
BRANCH  30  31
HETATM   31  C2  UNL     1      -6.484   2.186  -0.168  1.00  0.00     0.034 C 
HETATM   32  C1  UNL     1      -7.307   1.387  -0.821  1.00  0.00     0.045 C 
BRANCH  31  33
HETATM   33  O1  UNL     1      -6.818   3.530  -0.050  1.00  0.00    -0.366 OA
ATOM     34  H1  UNL     1      -6.226   4.105   0.420  1.00  0.00     0.217 HD
ENDBRANCH  31  33
ENDBRANCH  30  31
ENDBRANCH  29  30
ENDBRANCH  27  29
ENDBRANCH   1  27
BRANCH   3  35
HETATM   35  O3  UNL     1      -1.773  -3.150  -2.470  1.00  0.00    -0.395 OA
ATOM     36  H3  UNL     1      -0.905  -3.325  -2.816  1.00  0.00     0.210 HD
ENDBRANCH   3  35
TORSDOF 6
