REMARK  10 active torsions:
REMARK  status: ('A' for Active; 'I' for Inactive)
REMARK    1  A    between atoms: C2_2  and  C4_4 
REMARK    2  A    between atoms: C4_4  and  N1_5 
REMARK    3  A    between atoms: C4_4  and  C5_9 
REMARK       I    between atoms: C5_9  and  N2_11 
REMARK    4  A    between atoms: N2_11  and  C6_13 
REMARK    5  A    between atoms: C6_13  and  C9_16 
REMARK    6  A    between atoms: C9_16  and  C10_17 
REMARK    7  A    between atoms: C9_16  and  N4_28 
REMARK    8  A    between atoms: C16_24  and  C17_25 
REMARK    9  A    between atoms: C17_25  and  O2_26 
REMARK   10  A    between atoms: N4_28  and  C19_30 
ROOT
HETATM    1  C9  UNL     1      -0.506   1.277  -0.102  1.00  0.00     0.020 C 
ENDROOT
BRANCH   1   2
HETATM    2  C6  UNL     1       0.972   1.385   0.056  1.00  0.00     0.064 C 
HETATM    3  C7  UNL     1       1.360   1.146   1.539  1.00  0.00     0.044 C 
HETATM    4  C8  UNL     1       1.563   2.719  -0.377  1.00  0.00     0.044 C 
BRANCH   2   5
HETATM    5  N2  UNL     1       1.727   0.377  -0.629  1.00  0.00    -0.345 N 
HETATM    6  C5  UNL     1       3.161   0.303  -0.553  1.00  0.00     0.249 C 
HETATM    7  O1  UNL     1       3.869   1.100   0.118  1.00  0.00    -0.271 OA
ATOM      8  H2  UNL     1       1.229  -0.313  -1.191  1.00  0.00     0.163 HD
BRANCH   6   9
HETATM    9  C4  UNL     1       3.951  -0.740  -1.282  1.00  0.00     0.278 C 
BRANCH   9  10
HETATM   10  C2  UNL     1       3.964  -2.042  -0.503  1.00  0.00     0.017 C 
HETATM   11  C1  UNL     1       4.563  -1.902   0.864  1.00  0.00     0.012 C 
HETATM   12  C3  UNL     1       2.638  -2.706  -0.468  1.00  0.00     0.012 C 
ENDBRANCH   9  10
BRANCH   9  13
HETATM   13  N1  UNL     1       5.344  -0.304  -1.420  1.00  0.00    -0.066 N 
ATOM     14  H13 UNL     1       5.830  -0.230  -0.526  1.00  0.00     0.275 HD
ATOM     15  H12 UNL     1       5.945  -1.014  -1.838  1.00  0.00     0.275 HD
ATOM     16  H11 UNL     1       5.335   0.571  -1.944  1.00  0.00     0.275 HD
ENDBRANCH   9  13
ENDBRANCH   6   9
ENDBRANCH   2   5
ENDBRANCH   1   2
BRANCH   1  17
HETATM   17  C10 UNL     1      -1.043   0.019   0.454  1.00  0.00     0.093 C 
HETATM   18  C11 UNL     1      -2.533  -0.179   0.475  1.00  0.00     0.250 C 
HETATM   19  N3  UNL     1      -2.215  -1.616   0.369  1.00  0.00    -0.059 N 
HETATM   20  C12 UNL     1      -1.787  -2.238   1.603  1.00  0.00     0.238 C 
HETATM   21  C15 UNL     1      -3.356  -2.308  -0.042  1.00  0.00     0.238 C 
HETATM   22  C16 UNL     1      -1.156  -1.195  -0.478  1.00  0.00     0.225 C 
HETATM   23  C13 UNL     1      -2.457  -3.599   1.671  1.00  0.00     0.029 C 
HETATM   24  C14 UNL     1      -3.064  -3.765   0.264  1.00  0.00     0.029 C 
BRANCH  22  25
HETATM   25  C17 UNL     1      -1.531  -0.967  -1.890  1.00  0.00     0.198 C 
BRANCH  25  26
HETATM   26  O2  UNL     1      -1.985  -2.184  -2.429  1.00  0.00    -0.399 OA
ATOM     27  H2  UNL     1      -2.226  -2.038  -3.336  1.00  0.00     0.209 HD
ENDBRANCH  25  26
ENDBRANCH  22  25
ENDBRANCH   1  17
BRANCH   1  28
HETATM   28  N4  UNL     1      -1.343   2.359  -0.290  1.00  0.00    -0.385 N 
HETATM   29  C18 UNL     1      -1.255   3.080  -1.547  1.00  0.00     0.149 C 
BRANCH  28  30
HETATM   30  C19 UNL     1      -2.196   2.929   0.635  1.00  0.00     0.075 C 
HETATM   31  C20 UNL     1      -1.468   3.552   1.808  1.00  0.00     0.032 C 
HETATM   32  C21 UNL     1      -3.005   4.116   0.059  1.00  0.00     0.032 C 
ENDBRANCH  28  30
ENDBRANCH   1  28
TORSDOF 10
