REMARK  8 active torsions:
REMARK  status: ('A' for Active; 'I' for Inactive)
REMARK    1  A    between atoms: C3_5  and  C4_6 
REMARK    2  A    between atoms: C4_6  and  C5_7 
REMARK    3  A    between atoms: C5_7  and  C6_8 
REMARK    4  A    between atoms: N2_13  and  C9_14 
REMARK    5  A    between atoms: C9_14  and  C10_15 
REMARK    6  A    between atoms: C10_15  and  N3_16 
REMARK    7  A    between atoms: C13_20  and  C14_21 
REMARK    8  A    between atoms: C14_21  and  N4_22 
ROOT
HETATM    1  N3  UNL     1       1.035   0.112  -0.616  1.00  0.00    -0.375 N 
ATOM      2  H3  UNL     1       1.169   0.289  -1.612  1.00  0.00     0.161 HD
HETATM    3  C11 UNL     1       2.041  -0.274   0.076  1.00  0.00     0.103 A 
HETATM    4  C12 UNL     1       3.249  -0.428  -0.568  1.00  0.00     0.075 A 
HETATM    5  C13 UNL     1       4.395  -0.831   0.085  1.00  0.00     0.032 A 
HETATM    6  N5  UNL     1       4.321  -1.080   1.392  1.00  0.00    -0.354 N 
ATOM      7  H5  UNL     1       5.150  -1.380   1.906  1.00  0.00     0.166 HD
HETATM    8  C18 UNL     1       3.131  -0.931   2.036  1.00  0.00     0.182 A 
HETATM    9  N6  UNL     1       2.009  -0.535   1.392  1.00  0.00    -0.339 N 
ATOM     10  H6  UNL     1       1.135  -0.434   1.909  1.00  0.00     0.168 HD
ENDROOT
BRANCH   1  11
HETATM   11  C10 UNL     1      -0.287   0.310  -0.051  1.00  0.00     0.141 C 
BRANCH  11  12
HETATM   12  C9  UNL     1      -1.055  -0.992  -0.311  1.00  0.00     0.150 C 
BRANCH  12  13
HETATM   13  N2  UNL     1      -2.389  -0.876   0.259  1.00  0.00    -0.338 N 
HETATM   14  C2  UNL     1      -2.730  -1.227   1.516  1.00  0.00     0.080 A 
HETATM   15  C1  UNL     1      -1.756  -1.781   2.503  1.00  0.00     0.089 C 
HETATM   16  N1  UNL     1      -4.030  -0.990   1.697  1.00  0.00    -0.348 N 
HETATM   17  C3  UNL     1      -4.561  -0.473   0.545  1.00  0.00     0.033 A 
ATOM     18  H1  UNL     1      -4.548  -1.166   2.558  1.00  0.00     0.167 HD
HETATM   19  C7  UNL     1      -3.518  -0.411  -0.341  1.00  0.00     0.032 A 
HETATM   20  C8  UNL     1      -3.508   0.034  -1.774  1.00  0.00     0.070 C 
BRANCH  17  21
HETATM   21  C4  UNL     1      -5.956  -0.028   0.352  1.00  0.00     0.069 C 
BRANCH  21  22
HETATM   22  C5  UNL     1      -6.225   1.403   0.637  1.00  0.00     0.119 C 
BRANCH  22  23
HETATM   23  C6  UNL     1      -5.507   2.409  -0.124  1.00  0.00     0.172 C 
HETATM   24  O1  UNL     1      -5.899   2.708  -1.299  1.00  0.00    -0.648 OA
HETATM   25  O2  UNL     1      -4.389   3.096   0.339  1.00  0.00    -0.648 OA
ENDBRANCH  22  23
ENDBRANCH  21  22
ENDBRANCH  17  21
ENDBRANCH  12  13
ENDBRANCH  11  12
ENDBRANCH   1  11
BRANCH   5  26
HETATM   26  C14 UNL     1       5.682  -0.990  -0.628  1.00  0.00     0.185 C 
BRANCH  26  27
HETATM   27  N4  UNL     1       6.419   0.299  -0.687  1.00  0.00    -0.354 N 
HETATM   28  C15 UNL     1       6.246   1.135  -1.676  1.00  0.00     0.098 A 
HETATM   29  C16 UNL     1       6.965   2.301  -1.655  1.00  0.00     0.068 A 
HETATM   30  S1  UNL     1       7.861   2.144  -0.212  1.00  0.00    -0.095 SA
HETATM   31  C17 UNL     1       7.276   0.621   0.278  1.00  0.00     0.140 A 
ENDBRANCH  26  27
ENDBRANCH   5  26
TORSDOF 8
