REMARK  16 active torsions:
REMARK  status: ('A' for Active; 'I' for Inactive)
REMARK    1  A    between atoms: C2_2  and  C3_3 
REMARK    2  A    between atoms: C3_3  and  O2_5 
REMARK    3  A    between atoms: O2_5  and  C4_6 
REMARK    4  A    between atoms: C5_7  and  C6_8 
REMARK    5  A    between atoms: C8_10  and  O3_11 
REMARK    6  A    between atoms: C9_13  and  O4_14 
REMARK    7  A    between atoms: C10_18  and  C11_19 
REMARK    8  A    between atoms: C12_22  and  O9_23 
REMARK    9  A    between atoms: O9_23  and  S1_24 
REMARK   10  A    between atoms: C14_28  and  C15_29 
REMARK   11  A    between atoms: C17_34  and  O15_35 
REMARK   12  A    between atoms: C17_34  and  C18_37 
REMARK   13  A    between atoms: C18_37  and  N1_43 
REMARK   14  A    between atoms: C19_38  and  C20_39 
REMARK   15  A    between atoms: C20_39  and  O17_41 
REMARK   16  A    between atoms: N1_43  and  S2_45 
ROOT
HETATM    1  C4  UNL     1      -1.612  -1.095  -0.200  1.00  0.00     0.200 C 
HETATM    2  C5  UNL     1      -1.732  -0.048  -1.253  1.00  0.00     0.212 C 
HETATM    3  O6  UNL     1      -0.947   1.026  -1.123  1.00  0.00    -0.349 OA
HETATM    4  C10 UNL     1       0.363   0.882  -0.662  1.00  0.00     0.219 C 
HETATM    5  C12 UNL     1       0.362   1.688   0.632  1.00  0.00     0.231 C 
HETATM    6  C14 UNL     1      -0.495   0.947   1.586  1.00  0.00     0.256 C 
HETATM    7  O14 UNL     1      -0.244  -0.402   1.660  1.00  0.00    -0.361 OA
HETATM    8  C16 UNL     1      -0.262  -1.113   0.509  1.00  0.00     0.199 C 
HETATM    9  C17 UNL     1       0.724  -0.574  -0.467  1.00  0.00     0.173 C 
ENDROOT
BRANCH   9  10
HETATM   10  O15 UNL     1       0.423  -1.225  -1.706  1.00  0.00    -0.377 OA
ATOM     11  H15 UNL     1       0.650  -2.139  -1.584  1.00  0.00     0.211 HD
ENDBRANCH   9  10
BRANCH   9  12
HETATM   12  C18 UNL     1       2.142  -0.851  -0.257  1.00  0.00     0.069 C 
HETATM   13  C19 UNL     1       2.807  -1.499  -1.245  1.00  0.00     0.111 C 
BRANCH  13  14
HETATM   14  C20 UNL     1       4.171  -1.873  -1.283  1.00  0.00     0.284 C 
HETATM   15  O16 UNL     1       4.967  -1.614  -0.367  1.00  0.00    -0.260 OA
BRANCH  14  16
HETATM   16  O17 UNL     1       4.701  -2.568  -2.380  1.00  0.00    -0.323 OA
HETATM   17  C21 UNL     1       6.060  -2.947  -2.431  1.00  0.00     0.213 C 
ENDBRANCH  14  16
ENDBRANCH  13  14
BRANCH  12  18
HETATM   18  N1  UNL     1       2.932  -0.528   0.861  1.00  0.00    -0.266 N 
ATOM     19  H1  UNL     1       3.552   0.272   0.734  1.00  0.00     0.181 HD
BRANCH  18  20
HETATM   20  S2  UNL     1       3.014  -1.264   2.389  1.00  0.00     0.209 S 
HETATM   21  O18 UNL     1       2.129  -2.468   2.562  1.00  0.00    -0.578 OA
HETATM   22  O19 UNL     1       2.692  -0.292   3.503  1.00  0.00    -0.578 OA
HETATM   23  O20 UNL     1       4.571  -1.859   2.773  1.00  0.00    -0.578 OA
ENDBRANCH  18  20
ENDBRANCH  12  18
ENDBRANCH   9  12
BRANCH   4  24
HETATM   24  C11 UNL     1       1.234   1.428  -1.696  1.00  0.00     0.216 C 
HETATM   25  O7  UNL     1       0.697   1.911  -2.753  1.00  0.00    -0.646 OA
HETATM   26  O8  UNL     1       2.608   1.503  -1.702  1.00  0.00    -0.646 OA
ENDBRANCH   4  24
BRANCH   5  27
HETATM   27  O9  UNL     1       1.562   2.151   1.053  1.00  0.00    -0.264 OA
BRANCH  27  28
HETATM   28  S1  UNL     1       1.890   3.756   0.835  1.00  0.00     0.262 S 
HETATM   29  C13 UNL     1       3.653   4.063   0.600  1.00  0.00     0.194 C 
HETATM   30  O10 UNL     1       1.224   4.321  -0.414  1.00  0.00    -0.199 OA
HETATM   31  O11 UNL     1       1.550   4.638   2.003  1.00  0.00    -0.199 OA
ENDBRANCH  27  28
ENDBRANCH   5  27
BRANCH   1  32
HETATM   32  O2  UNL     1      -2.693  -1.105   0.707  1.00  0.00    -0.307 OA
BRANCH  32  33
HETATM   33  C3  UNL     1      -3.589  -2.123   0.840  1.00  0.00     0.282 C 
HETATM   34  O1  UNL     1      -3.486  -3.135   0.134  1.00  0.00    -0.260 OA
BRANCH  33  35
HETATM   35  C2  UNL     1      -4.681  -2.025   1.821  1.00  0.00     0.072 C 
HETATM   36  C1  UNL     1      -5.566  -2.993   1.976  1.00  0.00     0.017 C 
ENDBRANCH  33  35
ENDBRANCH  32  33
ENDBRANCH   1  32
BRANCH   2  37
HETATM   37  C6  UNL     1      -3.175   0.391  -1.291  1.00  0.00     0.090 A 
HETATM   38  C7  UNL     1      -4.162  -0.098  -2.145  1.00  0.00     0.077 A 
HETATM   39  C8  UNL     1      -5.336   0.560  -1.862  1.00  0.00     0.126 A 
HETATM   40  C9  UNL     1      -5.033   1.431  -0.845  1.00  0.00     0.217 A 
HETATM   41  O5  UNL     1      -3.783   1.293  -0.556  1.00  0.00    -0.287 OA
BRANCH  39  42
HETATM   42  O3  UNL     1      -6.555   0.368  -2.484  1.00  0.00    -0.356 OA
ATOM     43  H3  UNL     1      -7.366   0.823  -2.289  1.00  0.00     0.218 HD
ENDBRANCH  39  42
BRANCH  40  44
HETATM   44  O4  UNL     1      -5.891   2.322  -0.207  1.00  0.00    -0.339 OA
ATOM     45  H4  UNL     1      -5.681   2.925   0.497  1.00  0.00     0.220 HD
ENDBRANCH  40  44
ENDBRANCH   2  37
BRANCH   6  46
HETATM   46  C15 UNL     1      -0.603   1.476   2.961  1.00  0.00     0.206 C 
HETATM   47  O12 UNL     1      -0.422   0.774   3.991  1.00  0.00    -0.646 OA
HETATM   48  O13 UNL     1      -0.919   2.804   3.211  1.00  0.00    -0.646 OA
ENDBRANCH   6  46
TORSDOF 16
