REMARK  10 active torsions:
REMARK  status: ('A' for Active; 'I' for Inactive)
REMARK    1  A    between atoms: C3_4  and  O1_5 
REMARK    2  A    between atoms: C3_4  and  N2_7 
REMARK    3  A    between atoms: N2_7  and  O2_8 
REMARK    4  A    between atoms: O2_8  and  N3_9 
REMARK    5  A    between atoms: C6_15  and  N5_16 
REMARK    6  A    between atoms: C7_22  and  S1_23 
REMARK    7  A    between atoms: S1_23  and  C8_24 
REMARK    8  A    between atoms: C8_24  and  C9_25 
REMARK    9  A    between atoms: C9_25  and  N8_30 
REMARK   10  A    between atoms: N7_26  and  O3_28 
ROOT
HETATM    1  C1  UNL     1      -0.662  -2.280  -2.176  1.00  0.00     0.171 C 
HETATM    2  N1  UNL     1      -0.355  -1.748  -0.841  1.00  0.00    -0.324 N 
HETATM    3  C2  UNL     1      -1.412  -1.665   0.131  1.00  0.00     0.225 C 
HETATM    4  C3  UNL     1      -1.216  -0.552   1.118  1.00  0.00     0.255 C 
HETATM    5  N6  UNL     1       0.176  -0.238   1.356  1.00  0.00    -0.321 N 
ATOM      6  H6  UNL     1       0.409   0.291   2.196  1.00  0.00     0.166 HD
HETATM    7  C7  UNL     1       1.240  -0.619   0.495  1.00  0.00     0.158 C 
HETATM    8  N9  UNL     1       0.943  -1.334  -0.534  1.00  0.00    -0.282 N 
ATOM      9  H9  UNL     1       1.698  -1.614  -1.160  1.00  0.00     0.189 HD
ENDROOT
BRANCH   4  10
HETATM   10  O1  UNL     1      -1.765  -0.935   2.352  1.00  0.00    -0.354 OA
ATOM     11  H1  UNL     1      -1.641  -0.230   2.977  1.00  0.00     0.214 HD
ENDBRANCH   4  10
BRANCH   4  12
HETATM   12  N2  UNL     1      -1.906   0.639   0.597  1.00  0.00    -0.016 NA
BRANCH  12  13
HETATM   13  O2  UNL     1      -3.203   0.301   0.478  1.00  0.00    -0.182 OA
BRANCH  13  14
HETATM   14  N3  UNL     1      -3.983   1.349   0.139  1.00  0.00    -0.118 NA
HETATM   15  C4  UNL     1      -4.778   1.797   1.279  1.00  0.00     0.154 C 
HETATM   16  C5  UNL     1      -5.694   0.584   1.467  1.00  0.00     0.253 C 
HETATM   17  N4  UNL     1      -5.732  -0.072   0.183  1.00  0.00    -0.030 N 
HETATM   18  C6  UNL     1      -5.031   0.835  -0.736  1.00  0.00     0.483 C 
ATOM     19  H42 UNL     1      -5.354  -1.019   0.194  1.00  0.00     0.281 HD
ATOM     20  H41 UNL     1      -6.672  -0.322  -0.123  1.00  0.00     0.281 HD
BRANCH  18  21
HETATM   21  N5  UNL     1      -5.974   1.865  -1.101  1.00  0.00    -0.035 N 
ATOM     22  H53 UNL     1      -6.367   2.319  -0.276  1.00  0.00     0.278 HD
ATOM     23  H52 UNL     1      -5.504   2.669  -1.516  1.00  0.00     0.278 HD
ATOM     24  H51 UNL     1      -6.707   1.506  -1.713  1.00  0.00     0.278 HD
ENDBRANCH  18  21
ENDBRANCH  13  14
ENDBRANCH  12  13
ENDBRANCH   4  12
BRANCH   7  25
HETATM   25  S1  UNL     1       2.921  -0.101   0.863  1.00  0.00    -0.085 SA
BRANCH  25  26
HETATM   26  C8  UNL     1       3.984  -0.778  -0.457  1.00  0.00     0.160 C 
BRANCH  26  27
HETATM   27  C9  UNL     1       5.387  -0.426  -0.272  1.00  0.00     0.108 C 
HETATM   28  N7  UNL     1       6.279  -1.333  -0.135  1.00  0.00    -0.256 N 
ATOM     29  H7  UNL     1       7.257  -1.075  -0.007  1.00  0.00     0.195 HD
BRANCH  28  30
HETATM   30  O3  UNL     1       5.913  -2.654  -0.161  1.00  0.00    -0.288 OA
ATOM     31  H3  UNL     1       6.575  -3.327  -0.059  1.00  0.00     0.244 HD
ENDBRANCH  28  30
BRANCH  27  32
HETATM   32  N8  UNL     1       5.781   0.933  -0.243  1.00  0.00    -0.377 N 
HETATM   33  C10 UNL     1       6.625   1.497  -1.305  1.00  0.00     0.150 C 
HETATM   34  C11 UNL     1       5.328   1.751   0.865  1.00  0.00     0.150 C 
ENDBRANCH  27  32
ENDBRANCH  26  27
ENDBRANCH  25  26
ENDBRANCH   7  25
TORSDOF 10
