REMARK  8 active torsions:
REMARK  status: ('A' for Active; 'I' for Inactive)
REMARK    1  A    between atoms: N1_2  and  O1_3 
REMARK    2  A    between atoms: N1_2  and  C2_5 
REMARK    3  A    between atoms: N3_8  and  C3_9 
REMARK    4  A    between atoms: C5_14  and  C6_15 
REMARK    5  A    between atoms: C6_15  and  N7_19 
REMARK    6  A    between atoms: N7_19  and  N8_21 
REMARK    7  A    between atoms: C7_23  and  C8_24 
REMARK    8  A    between atoms: C11_31  and  O2_32 
ROOT
HETATM    1  C3  UNL     1      -2.021   0.118  -0.060  1.00  0.00     0.160 A 
HETATM    2  N4  UNL     1      -2.153   0.061  -1.394  1.00  0.00    -0.327 N 
ATOM      3  H4  UNL     1      -3.039  -0.118  -1.867  1.00  0.00     0.168 HD
HETATM    4  C4  UNL     1      -1.002   0.264  -2.035  1.00  0.00     0.135 A 
HETATM    5  N5  UNL     1      -0.747   0.279  -3.429  1.00  0.00    -0.082 NA
HETATM    6  C5  UNL     1      -0.062   0.466  -1.055  1.00  0.00     0.087 A 
HETATM    7  C11 UNL     1      -0.694   0.376   0.193  1.00  0.00     0.129 A 
ENDROOT
BRANCH   6   8
HETATM    8  C6  UNL     1       1.357   0.732  -1.233  1.00  0.00     0.130 C 
HETATM    9  N6  UNL     1       1.814   0.791  -2.435  1.00  0.00    -0.384 N 
ATOM     10  H62 UNL     1       1.194   0.654  -3.233  1.00  0.00     0.157 HD
ATOM     11  H61 UNL     1       2.809   0.978  -2.560  1.00  0.00     0.157 HD
BRANCH   8  12
HETATM   12  N7  UNL     1       2.219   0.922  -0.124  1.00  0.00    -0.285 N 
ATOM     13  H7  UNL     1       2.275   0.217   0.611  1.00  0.00     0.188 HD
BRANCH  12  14
HETATM   14  N8  UNL     1       2.986   2.077  -0.047  1.00  0.00    -0.308 N 
HETATM   15  C7  UNL     1       4.267   2.117  -0.092  1.00  0.00     0.139 C 
ATOM     16  H8  UNL     1       2.492   2.963   0.053  1.00  0.00     0.186 HD
BRANCH  15  17
HETATM   17  C8  UNL     1       5.050   0.904  -0.233  1.00  0.00     0.079 A 
HETATM   18  C9  UNL     1       6.438   0.809  -0.294  1.00  0.00     0.139 A 
HETATM   19  N9  UNL     1       6.794  -0.473  -0.426  1.00  0.00    -0.289 N 
HETATM   20  C10 UNL     1       8.125  -1.044  -0.529  1.00  0.00     0.174 C 
HETATM   21  N10 UNL     1       5.666  -1.178  -0.448  1.00  0.00    -0.021 NA
HETATM   22  N11 UNL     1       4.624  -0.364  -0.333  1.00  0.00    -0.281 N 
ATOM     23  H11 UNL     1       3.647  -0.658  -0.322  1.00  0.00     0.184 HD
ENDBRANCH  15  17
ENDBRANCH  12  14
ENDBRANCH   8  12
ENDBRANCH   6   8
BRANCH   7  24
HETATM   24  O2  UNL     1      -0.060   0.525   1.398  1.00  0.00    -0.356 OA
ATOM     25  H2  UNL     1       0.857   0.703   1.573  1.00  0.00     0.218 HD
ENDBRANCH   7  24
BRANCH   1  26
HETATM   26  N3  UNL     1      -3.081  -0.059   0.907  1.00  0.00    -0.253 N 
HETATM   27  N2  UNL     1      -4.407  -0.319   0.538  1.00  0.00    -0.264 N 
HETATM   28  C2  UNL     1      -5.187  -0.445   1.528  1.00  0.00     0.217 A 
ATOM     29  H2  UNL     1      -4.714  -0.399  -0.431  1.00  0.00     0.190 HD
HETATM   30  N12 UNL     1      -4.412  -0.271   2.716  1.00  0.00    -0.341 N 
HETATM   31  C12 UNL     1      -3.035  -0.014   2.330  1.00  0.00     0.275 A 
ATOM     32  H12 UNL     1      -4.765  -0.319   3.672  1.00  0.00     0.164 HD
BRANCH  28  33
HETATM   33  N1  UNL     1      -6.585  -0.713   1.440  1.00  0.00    -0.233 N 
HETATM   34  C1  UNL     1      -7.150  -1.380   0.287  1.00  0.00     0.188 C 
BRANCH  33  35
HETATM   35  O1  UNL     1      -7.418  -0.346   2.435  1.00  0.00    -0.285 OA
ATOM     36  H1  UNL     1      -7.047   0.092   3.192  1.00  0.00     0.245 HD
ENDBRANCH  33  35
ENDBRANCH  28  33
ENDBRANCH   1  26
TORSDOF 8
