REMARK  4 active torsions:
REMARK  status: ('A' for Active; 'I' for Inactive)
REMARK    1  A    between atoms: N1_11  and  C8_12 
REMARK    2  A    between atoms: C8_12  and  C9_13 
REMARK    3  A    between atoms: C9_13  and  C10_14 
REMARK    4  A    between atoms: N2_24  and  C18_25 
ROOT
HETATM    1  C1  UNL     1       3.428   1.805   2.638  1.00  0.00     0.048 C 
HETATM    2  C2  UNL     1       2.605   1.109   1.880  1.00  0.00     0.084 A 
HETATM    3  C3  UNL     1       1.197   0.750   2.195  1.00  0.00     0.215 A 
HETATM    4  O1  UNL     1       0.671   1.109   3.269  1.00  0.00    -0.285 OA
HETATM    5  C4  UNL     1       0.617  -0.026   1.109  1.00  0.00     0.105 A 
HETATM    6  C5  UNL     1      -0.632  -0.546   1.019  1.00  0.00     0.108 A 
HETATM    7  C6  UNL     1      -1.686  -0.436   2.014  1.00  0.00     0.256 A 
HETATM    8  O2  UNL     1      -1.681   0.143   3.117  1.00  0.00    -0.281 OA
HETATM    9  C7  UNL     1      -2.878  -1.160   1.514  1.00  0.00     0.301 A 
HETATM   10  O3  UNL     1      -3.980  -1.251   2.164  1.00  0.00    -0.263 OA
HETATM   11  N1  UNL     1      -2.563  -1.693   0.258  1.00  0.00    -0.277 N 
HETATM   12  C16 UNL     1      -1.194  -1.329  -0.065  1.00  0.00     0.266 A 
HETATM   13  O4  UNL     1      -0.655  -1.676  -1.132  1.00  0.00    -0.267 OA
HETATM   14  C17 UNL     1       1.691  -0.133   0.131  1.00  0.00     0.268 A 
HETATM   15  O5  UNL     1       1.687  -0.713  -0.990  1.00  0.00    -0.267 OA
HETATM   16  N2  UNL     1       2.865   0.557   0.623  1.00  0.00    -0.274 N 
ENDROOT
BRANCH  16  17
HETATM   17  C18 UNL     1       4.083   0.616  -0.129  1.00  0.00     0.060 A 
HETATM   18  C19 UNL     1       4.193   1.481  -1.197  1.00  0.00     0.032 A 
HETATM   19  C20 UNL     1       5.369   1.542  -1.935  1.00  0.00     0.009 A 
HETATM   20  C21 UNL     1       6.461   0.754  -1.637  1.00  0.00    -0.061 A 
HETATM   21  C22 UNL     1       7.728   0.815  -2.429  1.00  0.00     0.048 C 
HETATM   22  C23 UNL     1       6.327  -0.109  -0.559  1.00  0.00     0.028 A 
HETATM   23  C24 UNL     1       5.163  -0.179   0.183  1.00  0.00     0.038 A 
HETATM   24 BR1  UNL     1       5.053  -1.382   1.644  1.00  0.00    -0.049 Br
ENDBRANCH  16  17
BRANCH  11  25
HETATM   25  C8  UNL     1      -3.440  -2.479  -0.586  1.00  0.00     0.140 C 
BRANCH  25  26
HETATM   26  C9  UNL     1      -4.249  -1.726  -1.566  1.00  0.00     0.059 C 
BRANCH  26  27
HETATM   27  C10 UNL     1      -5.184  -0.731  -0.987  1.00  0.00    -0.057 A 
HETATM   28  C11 UNL     1      -4.819   0.586  -0.809  1.00  0.00     0.007 A 
HETATM   29  C12 UNL     1      -5.709   1.486  -0.272  1.00  0.00     0.001 A 
HETATM   30  C13 UNL     1      -6.995   1.135   0.113  1.00  0.00     0.000 A 
HETATM   31  C14 UNL     1      -7.344  -0.184  -0.071  1.00  0.00     0.001 A 
HETATM   32  C15 UNL     1      -6.470  -1.095  -0.605  1.00  0.00     0.007 A 
ENDBRANCH  26  27
ENDBRANCH  25  26
ENDBRANCH  11  25
TORSDOF 4
