REMARK  19 active torsions:
REMARK  status: ('A' for Active; 'I' for Inactive)
REMARK    1  A    between atoms: C2_2  and  C3_3 
REMARK    2  A    between atoms: C3_3  and  C4_4 
REMARK    3  A    between atoms: C4_4  and  C5_5 
REMARK    4  A    between atoms: C5_5  and  C6_6 
REMARK    5  A    between atoms: C6_6  and  C7_7 
REMARK    6  A    between atoms: C7_7  and  C8_8 
REMARK    7  A    between atoms: C8_8  and  C9_9 
REMARK    8  A    between atoms: C9_9  and  C10_10 
REMARK    9  A    between atoms: C10_10  and  N1_11 
REMARK   10  A    between atoms: N1_11  and  C11_12 
REMARK   11  A    between atoms: N1_11  and  C12_14 
REMARK   12  A    between atoms: C13_15  and  O2_16 
REMARK   13  A    between atoms: C15_19  and  C16_20 
REMARK   14  A    between atoms: C16_20  and  O3_21 
REMARK   15  A    between atoms: C17_24  and  O5_25 
REMARK   16  A    between atoms: O5_25  and  C18_26 
REMARK   17  A    between atoms: C21_30  and  O7_31 
REMARK   18  A    between atoms: C22_33  and  O8_34 
REMARK   19  A    between atoms: C26_39  and  O9_40 
ROOT
HETATM    1  C12 UNL     1      -0.798  -2.250   0.789  1.00  0.00     0.149 C 
HETATM    2  C13 UNL     1      -1.073  -2.868  -0.553  1.00  0.00     0.146 C 
HETATM    3  C14 UNL     1      -2.575  -3.024  -0.736  1.00  0.00     0.068 C 
HETATM    4  C15 UNL     1      -3.343  -3.148   0.519  1.00  0.00     0.150 C 
HETATM    5  O4  UNL     1      -3.350  -2.137   1.381  1.00  0.00    -0.351 OA
HETATM    6  C17 UNL     1      -2.862  -0.913   1.109  1.00  0.00     0.294 C 
HETATM    7  C26 UNL     1      -1.369  -0.856   0.780  1.00  0.00     0.198 C 
ENDROOT
BRANCH   6   8
HETATM    8  O5  UNL     1      -3.596  -0.131   0.221  1.00  0.00    -0.328 OA
BRANCH   8   9
HETATM    9  C18 UNL     1      -4.138   1.020   0.787  1.00  0.00     0.270 C 
HETATM   10  O6  UNL     1      -3.519   2.173   0.337  1.00  0.00    -0.353 OA
HETATM   11  C19 UNL     1      -3.985   2.723  -0.811  1.00  0.00     0.152 C 
HETATM   12  C20 UNL     1      -3.591   1.960  -2.071  1.00  0.00     0.042 C 
HETATM   13  C21 UNL     1      -5.441   3.035  -0.776  1.00  0.00     0.181 C 
HETATM   14  C22 UNL     1      -6.255   2.246   0.155  1.00  0.00     0.094 C 
HETATM   15  C23 UNL     1      -7.258   1.324  -0.553  1.00  0.00     0.042 C 
HETATM   16  C25 UNL     1      -5.617   1.078   0.812  1.00  0.00     0.078 C 
HETATM   17  C24 UNL     1      -6.352   0.186  -0.162  1.00  0.00     0.015 C 
BRANCH  13  18
HETATM   18  O7  UNL     1      -5.647   4.422  -0.576  1.00  0.00    -0.390 OA
ATOM     19  H7  UNL     1      -6.576   4.621  -0.554  1.00  0.00     0.210 HD
ENDBRANCH  13  18
BRANCH  14  20
HETATM   20  O8  UNL     1      -6.988   3.067   1.027  1.00  0.00    -0.387 OA
ATOM     21  H8  UNL     1      -7.515   2.556   1.630  1.00  0.00     0.210 HD
ENDBRANCH  14  20
ENDBRANCH   8   9
ENDBRANCH   6   8
BRANCH   7  22
HETATM   22  O9  UNL     1      -1.157  -0.203  -0.431  1.00  0.00    -0.388 OA
ATOM     23  H9  UNL     1      -1.517   0.676  -0.437  1.00  0.00     0.210 HD
ENDBRANCH   7  22
BRANCH   4  24
HETATM   24  C16 UNL     1      -4.761  -3.597   0.127  1.00  0.00     0.196 C 
BRANCH  24  25
HETATM   25  O3  UNL     1      -4.630  -4.666  -0.778  1.00  0.00    -0.398 OA
ATOM     26  H3  UNL     1      -5.506  -4.943  -1.020  1.00  0.00     0.209 HD
ENDBRANCH  24  25
ENDBRANCH   4  24
BRANCH   1  27
HETATM   27  N1  UNL     1       0.555  -2.381   1.210  1.00  0.00    -0.349 N 
BRANCH  27  28
HETATM   28  C10 UNL     1       1.713  -1.886   0.524  1.00  0.00     0.126 C 
BRANCH  28  29
HETATM   29  C9  UNL     1       2.123  -0.552   1.033  1.00  0.00     0.020 C 
BRANCH  29  30
HETATM   30  C8  UNL     1       3.361  -0.013   0.330  1.00  0.00     0.002 C 
BRANCH  30  31
HETATM   31  C7  UNL     1       4.552  -0.901   0.494  1.00  0.00     0.000 C 
BRANCH  31  32
HETATM   32  C6  UNL     1       5.780  -0.362  -0.200  1.00  0.00     0.000 C 
BRANCH  32  33
HETATM   33  C5  UNL     1       6.200   0.987   0.310  1.00  0.00     0.000 C 
BRANCH  33  34
HETATM   34  C4  UNL     1       7.439   1.391  -0.479  1.00  0.00     0.000 C 
BRANCH  34  35
HETATM   35  C3  UNL     1       7.869   2.750   0.029  1.00  0.00    -0.000 C 
BRANCH  35  36
HETATM   36  C2  UNL     1       9.100   3.251  -0.691  1.00  0.00    -0.005 C 
HETATM   37  C1  UNL     1      10.266   2.295  -0.495  1.00  0.00     0.005 C 
ENDBRANCH  35  36
ENDBRANCH  34  35
ENDBRANCH  33  34
ENDBRANCH  32  33
ENDBRANCH  31  32
ENDBRANCH  30  31
ENDBRANCH  29  30
ENDBRANCH  28  29
ENDBRANCH  27  28
BRANCH  27  38
HETATM   38  C11 UNL     1       0.824  -3.124   2.423  1.00  0.00     0.351 C 
HETATM   39  O1  UNL     1       2.006  -3.291   2.797  1.00  0.00    -0.284 OA
ENDBRANCH  27  38
ENDBRANCH   1  27
BRANCH   2  40
HETATM   40  O2  UNL     1      -0.550  -2.154  -1.620  1.00  0.00    -0.393 OA
ATOM     41  H2  UNL     1      -0.724  -2.545  -2.468  1.00  0.00     0.210 HD
ENDBRANCH   2  40
TORSDOF 19
