REMARK  3 active torsions:
REMARK  status: ('A' for Active; 'I' for Inactive)
REMARK    1  A    between atoms: C2_2  and  C3_3 
REMARK    2  A    between atoms: C3_3  and  C4_4 
REMARK    3  A    between atoms: C4_4  and  C5_5 
ROOT
HETATM    1  C5  UNL     1       0.076   0.325  -0.083  1.00  0.00     0.297 C 
HETATM    2  O1  UNL     1       0.227   0.334   1.283  1.00  0.00    -0.208 OA
HETATM    3  O2  UNL     1       1.497   0.569   1.578  1.00  0.00    -0.230 OA
HETATM    4  C6  UNL     1       2.182  -0.613   1.291  1.00  0.00     0.189 C 
HETATM    5  C7  UNL     1       3.677  -0.408   1.043  1.00  0.00     0.040 C 
HETATM    6  C8  UNL     1       3.274   0.033  -0.365  1.00  0.00     0.037 C 
HETATM    7  C9  UNL     1       2.058  -0.878  -0.171  1.00  0.00     0.157 C 
HETATM    8  O3  UNL     1       0.919  -0.490  -0.768  1.00  0.00    -0.350 OA
ENDROOT
BRANCH   1   9
HETATM    9  C4  UNL     1      -1.353  -0.060  -0.432  1.00  0.00     0.067 C 
BRANCH   9  10
HETATM   10  C3  UNL     1      -2.354   0.906   0.148  1.00  0.00     0.031 C 
BRANCH  10  11
HETATM   11  C2  UNL     1      -3.706   0.439  -0.250  1.00  0.00    -0.037 C 
HETATM   12  C1  UNL     1      -4.645   0.107   0.614  1.00  0.00     0.007 C 
ENDBRANCH  10  11
ENDBRANCH   9  10
ENDBRANCH   1   9
TORSDOF 3
