REMARK  2 active torsions:
REMARK  status: ('A' for Active; 'I' for Inactive)
REMARK    1  A    between atoms: C1_4  and  C2_5 
REMARK    2  A    between atoms: C2_5  and  C3_6 
ROOT
HETATM    1  C3  UNL     1       0.437  -0.188  -0.580  1.00  0.00    -0.001 C 
HETATM    2  C4  UNL     1      -0.503   0.627  -1.439  1.00  0.00     0.040 C 
HETATM    3  C5  UNL     1      -1.796   0.563  -0.616  1.00  0.00     0.161 C 
HETATM    4  C6  UNL     1      -1.213   0.937   0.756  1.00  0.00     0.042 C 
HETATM    5  C7  UNL     1      -0.116  -0.134   0.834  1.00  0.00     0.019 C 
HETATM    6  C8  UNL     1      -0.853  -1.448   1.057  1.00  0.00     0.215 C 
HETATM    7  O1  UNL     1      -2.197  -1.198   0.730  1.00  0.00    -0.240 OA
HETATM    8  O2  UNL     1      -2.232  -0.743  -0.506  1.00  0.00    -0.236 OA
ENDROOT
BRANCH   1   9
HETATM    9  C2  UNL     1       1.811   0.455  -0.542  1.00  0.00     0.049 C 
BRANCH   9  10
HETATM   10  C1  UNL     1       2.756  -0.315   0.289  1.00  0.00     0.053 C 
HETATM   11  N1  UNL     1       2.484  -1.502   0.687  1.00  0.00    -0.411 N 
ATOM     12  H12 UNL     1       1.589  -1.909   0.414  1.00  0.00     0.155 HD
ATOM     13  H11 UNL     1       3.137  -2.034   1.262  1.00  0.00     0.155 HD
ENDBRANCH   9  10
ENDBRANCH   1   9
TORSDOF 2
