REMARK  2 active torsions:
REMARK  status: ('A' for Active; 'I' for Inactive)
REMARK    1  A    between atoms: N1_2  and  C1_4 
REMARK    2  A    between atoms: C1_4  and  C2_5 
ROOT
HETATM    1  C2  UNL     1       0.645  -0.290  -0.906  1.00  0.00     0.071 C 
HETATM    2  C3  UNL     1       0.081  -1.194   0.126  1.00  0.00     0.017 C 
HETATM    3  C4  UNL     1      -0.992  -0.603   0.981  1.00  0.00     0.002 C 
HETATM    4  C5  UNL     1      -2.149  -0.038   0.243  1.00  0.00     0.010 C 
HETATM    5  C6  UNL     1      -1.737   1.223  -0.499  1.00  0.00     0.074 C 
HETATM    6  S1  UNL     1      -0.630   0.631  -1.817  1.00  0.00    -0.162 SA
ENDROOT
BRANCH   1   7
HETATM    7  C1  UNL     1       1.630   0.715  -0.350  1.00  0.00     0.216 C 
BRANCH   7   8
HETATM    8  N1  UNL     1       2.762   0.062   0.280  1.00  0.00    -0.155 N 
HETATM    9  O1  UNL     1       2.954   0.297   1.487  1.00  0.00    -0.536 OA
HETATM   10  O2  UNL     1       3.529  -0.756  -0.489  1.00  0.00    -0.536 OA
ENDBRANCH   7   8
ENDBRANCH   1   7
TORSDOF 2
