REMARK  10 active torsions:
REMARK  status: ('A' for Active; 'I' for Inactive)
REMARK    1  A    between atoms: C2_2  and  C3_3 
REMARK    2  A    between atoms: C3_3  and  N1_4 
REMARK    3  A    between atoms: N1_4  and  C4_6 
REMARK    4  A    between atoms: C5_9  and  N3_10 
REMARK    5  A    between atoms: N3_10  and  C6_12 
REMARK    6  A    between atoms: C12_21  and  N6_22 
REMARK    7  A    between atoms: N6_22  and  C13_24 
REMARK    8  A    between atoms: C13_24  and  C14_25 
REMARK    9  A    between atoms: C14_25  and  N7_26 
REMARK   10  A    between atoms: N11_34  and  O1_36 
ROOT
HETATM    1  C4  UNL     1      -0.986  -0.637   0.064  1.00  0.00     0.163 C 
HETATM    2  N2  UNL     1      -1.262   0.677   0.074  1.00  0.00    -0.172 N 
ATOM      3  H2  UNL     1      -2.224   0.933   0.296  1.00  0.00     0.186 HD
HETATM    4  C5  UNL     1      -0.422   1.692  -0.173  1.00  0.00     0.699 C 
HETATM    5  N5  UNL     1       0.902   1.591  -0.380  1.00  0.00    -0.022 N 
ATOM      6  H5  UNL     1       1.339   2.401  -0.820  1.00  0.00     0.203 HD
HETATM    7  C12 UNL     1       1.735   0.573  -0.089  1.00  0.00     0.694 C 
HETATM    8  N10 UNL     1       1.446  -0.755   0.001  1.00  0.00    -0.171 N 
ATOM      9  H10 UNL     1       2.236  -1.400  -0.034  1.00  0.00     0.186 HD
HETATM   10  C16 UNL     1       0.220  -1.304   0.132  1.00  0.00     0.185 C 
HETATM   11  N11 UNL     1       0.141  -2.587   0.344  1.00  0.00    -0.247 N 
ATOM     12  H11 UNL     1      -0.777  -3.019   0.446  1.00  0.00     0.196 HD
ENDROOT
BRANCH   4  13
HETATM   13  N3  UNL     1      -0.867   2.883  -0.226  1.00  0.00    -0.191 N 
ATOM     14  H3  UNL     1      -0.192   3.624  -0.415  1.00  0.00     0.184 HD
BRANCH  13  15
HETATM   15  C6  UNL     1      -2.218   3.269  -0.045  1.00  0.00     0.051 A 
HETATM   16  C7  UNL     1      -2.817   3.417   1.188  1.00  0.00     0.030 A 
HETATM   17  C8  UNL     1      -4.147   3.798   1.318  1.00  0.00     0.004 A 
HETATM   18  C9  UNL     1      -4.904   4.040   0.192  1.00  0.00     0.027 A 
HETATM   19  C10 UNL     1      -4.331   3.900  -1.059  1.00  0.00     0.048 A 
HETATM   20  N4  UNL     1      -5.113   4.149  -2.205  1.00  0.00    -0.102 NA
HETATM   21  C11 UNL     1      -2.999   3.517  -1.155  1.00  0.00     0.056 A 
ENDBRANCH  13  15
ENDBRANCH   4  13
BRANCH   1  22
HETATM   22  N1  UNL     1      -1.999  -1.425  -0.022  1.00  0.00    -0.373 N 
ATOM     23  H1  UNL     1      -1.837  -2.432  -0.032  1.00  0.00     0.161 HD
BRANCH  22  24
HETATM   24  C3  UNL     1      -3.364  -0.938  -0.105  1.00  0.00     0.121 C 
BRANCH  24  25
HETATM   25  C2  UNL     1      -4.326  -2.049  -0.445  1.00  0.00     0.015 C 
HETATM   26  C1  UNL     1      -4.240  -3.093   0.635  1.00  0.00     0.006 C 
ENDBRANCH  24  25
ENDBRANCH  22  24
ENDBRANCH   1  22
BRANCH   7  27
HETATM   27  N6  UNL     1       2.980   0.866   0.140  1.00  0.00    -0.224 N 
ATOM     28  H6  UNL     1       3.279   1.840   0.092  1.00  0.00     0.177 HD
BRANCH  27  29
HETATM   29  C13 UNL     1       3.943  -0.144   0.458  1.00  0.00     0.157 C 
BRANCH  29  30
HETATM   30  C14 UNL     1       5.225   0.557   0.916  1.00  0.00     0.142 C 
BRANCH  30  31
HETATM   31  N7  UNL     1       6.212  -0.437   1.243  1.00  0.00    -0.365 N 
HETATM   32  C15 UNL     1       6.874  -1.009   0.312  1.00  0.00     0.197 C 
HETATM   33  N8  UNL     1       6.661  -0.688  -1.036  1.00  0.00    -0.067 NA
HETATM   34  N9  UNL     1       7.849  -1.993   0.670  1.00  0.00    -0.067 NA
ATOM     35  H7  UNL     1       6.383  -0.685   2.217  1.00  0.00     0.161 HD
ENDBRANCH  30  31
ENDBRANCH  29  30
ENDBRANCH  27  29
ENDBRANCH   7  27
BRANCH  11  36
HETATM   36  O1  UNL     1       1.265  -3.371   0.434  1.00  0.00    -0.284 OA
HETATM   37  C17 UNL     1       1.192  -4.728   0.067  1.00  0.00     0.237 C 
ENDBRANCH  11  36
TORSDOF 10
