REMARK  11 active torsions:
REMARK  status: ('A' for Active; 'I' for Inactive)
REMARK    1  A    between atoms: C2_2  and  N1_3 
REMARK    2  A    between atoms: N1_3  and  C3_5 
REMARK    3  A    between atoms: C3_5  and  O1_6 
REMARK    4  A    between atoms: C3_5  and  C4_8 
REMARK    5  A    between atoms: C6_11  and  N3_12 
REMARK    6  A    between atoms: N3_12  and  C7_14 
REMARK    7  A    between atoms: C8_15  and  C9_16 
REMARK       I    between atoms: C9_16  and  N4_18 
REMARK    8  A    between atoms: N4_18  and  N5_20 
REMARK    9  A    between atoms: C11_24  and  N6_25 
REMARK   10  A    between atoms: N8_34  and  N9_35 
REMARK   11  A    between atoms: C16_37  and  C17_38 
ROOT
HETATM    1  C4  UNL     1      -1.765   2.072  -1.134  1.00  0.00     0.084 A 
HETATM    2  C5  UNL     1      -0.406   2.008  -1.479  1.00  0.00     0.096 A 
HETATM    3  N2  UNL     1       0.146   2.992  -2.381  1.00  0.00    -0.099 NA
HETATM    4  C6  UNL     1       0.444   1.039  -0.994  1.00  0.00     0.129 A 
HETATM    5  C15 UNL     1      -0.110   0.119  -0.140  1.00  0.00     0.296 A 
HETATM    6  O4  UNL     1       0.608  -0.778   0.330  1.00  0.00    -0.264 OA
HETATM    7  N8  UNL     1      -1.407   0.163   0.203  1.00  0.00    -0.204 N 
HETATM    8  C22 UNL     1      -2.253   1.129  -0.281  1.00  0.00     0.158 A 
HETATM    9  N11 UNL     1      -3.622   1.075   0.155  1.00  0.00    -0.080 NA
ENDROOT
BRANCH   4  10
HETATM   10  N3  UNL     1       1.794   0.979  -1.339  1.00  0.00    -0.345 N 
ATOM     11  H3  UNL     1       2.125   1.711  -1.968  1.00  0.00     0.166 HD
BRANCH  10  12
HETATM   12  C7  UNL     1       2.747   0.048  -0.935  1.00  0.00     0.118 A 
HETATM   13  C8  UNL     1       3.549   0.216   0.182  1.00  0.00     0.069 A 
HETATM   14  C10 UNL     1       4.474  -0.742   0.545  1.00  0.00     0.068 A 
HETATM   15  C11 UNL     1       4.601  -1.902  -0.234  1.00  0.00     0.106 A 
HETATM   16  N7  UNL     1       3.810  -2.029  -1.305  1.00  0.00    -0.303 N 
HETATM   17  C13 UNL     1       3.927  -3.233  -2.134  1.00  0.00     0.161 C 
HETATM   18  C14 UNL     1       2.905  -1.104  -1.670  1.00  0.00     0.276 A 
HETATM   19  O3  UNL     1       2.199  -1.329  -2.717  1.00  0.00    -0.265 OA
BRANCH  13  20
HETATM   20  C9  UNL     1       3.458   1.420   1.005  1.00  0.00     0.272 C 
HETATM   21  O2  UNL     1       2.635   2.347   0.694  1.00  0.00    -0.266 OA
HETATM   22  N4  UNL     1       4.237   1.640   2.154  1.00  0.00    -0.272 N 
ATOM     23  H4  UNL     1       4.911   0.933   2.450  1.00  0.00     0.189 HD
BRANCH  22  24
HETATM   24  N5  UNL     1       4.098   2.822   2.899  1.00  0.00    -0.342 N 
ATOM     25  H52 UNL     1       3.420   3.518   2.589  1.00  0.00     0.176 HD
ATOM     26  H51 UNL     1       4.663   2.982   3.733  1.00  0.00     0.176 HD
ENDBRANCH  22  24
ENDBRANCH  13  20
BRANCH  15  27
HETATM   27  N6  UNL     1       5.545  -2.898   0.120  1.00  0.00    -0.380 N 
HETATM   28  C12 UNL     1       6.408  -2.790   1.267  1.00  0.00     0.147 C 
ATOM     29  H6  UNL     1       5.616  -3.730  -0.465  1.00  0.00     0.160 HD
ENDBRANCH  15  27
ENDBRANCH  10  12
ENDBRANCH   4  10
BRANCH   1  30
HETATM   30  C3  UNL     1      -2.570   3.114  -1.687  1.00  0.00     0.151 C 
BRANCH  30  31
HETATM   31  N1  UNL     1      -3.934   3.385  -1.497  1.00  0.00    -0.371 N 
ATOM     32  H1  UNL     1      -4.517   2.807  -0.892  1.00  0.00     0.161 HD
BRANCH  31  33
HETATM   33  C2  UNL     1      -4.483   4.560  -2.225  1.00  0.00     0.117 C 
HETATM   34  C1  UNL     1      -5.937   4.702  -1.911  1.00  0.00     0.026 C 
ENDBRANCH  31  33
ENDBRANCH  30  31
BRANCH  30  35
HETATM   35  O1  UNL     1      -1.921   3.923  -2.485  1.00  0.00    -0.346 OA
ATOM     36  H1  UNL     1      -0.998   3.740  -2.614  1.00  0.00     0.219 HD
ENDBRANCH  30  35
ENDBRANCH   1  30
BRANCH   7  37
HETATM   37  N9  UNL     1      -1.940  -0.790   1.075  1.00  0.00    -0.299 N 
HETATM   38  C16 UNL     1      -2.712  -1.729   0.644  1.00  0.00     0.137 C 
ATOM     39  H9  UNL     1      -1.715  -0.742   2.069  1.00  0.00     0.186 HD
BRANCH  38  40
HETATM   40  C17 UNL     1      -3.277  -2.733   1.549  1.00  0.00     0.049 A 
HETATM   41  C18 UNL     1      -4.097  -3.721   1.049  1.00  0.00     0.031 A 
HETATM   42  C19 UNL     1      -4.644  -4.684   1.891  1.00  0.00     0.004 A 
HETATM   43  C20 UNL     1      -4.357  -4.648   3.258  1.00  0.00     0.017 A 
HETATM   44  C21 UNL     1      -3.539  -3.649   3.705  1.00  0.00     0.088 A 
HETATM   45  N10 UNL     1      -3.024  -2.730   2.861  1.00  0.00    -0.365 N 
ATOM     46  H10 UNL     1      -2.417  -2.003   3.240  1.00  0.00     0.165 HD
ENDBRANCH  38  40
ENDBRANCH   7  37
TORSDOF 11
