REMARK  15 active torsions:
REMARK  status: ('A' for Active; 'I' for Inactive)
REMARK    1  A    between atoms: C2_2  and  C3_3 
REMARK    2  A    between atoms: C2_2  and  C23_27 
REMARK    3  A    between atoms: C3_3  and  C4_4 
REMARK    4  A    between atoms: C4_4  and  C5_5 
REMARK    5  A    between atoms: C17_17  and  C19_19 
REMARK    6  A    between atoms: C19_19  and  O1_21 
REMARK    7  A    between atoms: C23_27  and  C25_29 
REMARK    8  A    between atoms: C25_29  and  C26_30 
REMARK    9  A    between atoms: C26_30  and  C27_31 
REMARK   10  A    between atoms: C28_32  and  C29_33 
REMARK   11  A    between atoms: C28_32  and  C30_36 
REMARK   12  A    between atoms: C29_33  and  O3_34 
REMARK   13  A    between atoms: C30_36  and  C31_37 
REMARK   14  A    between atoms: C31_37  and  C32_38 
REMARK   15  A    between atoms: C32_38  and  O5_40 
ROOT
HETATM    1  C19 UNL     1      -7.899   0.049  -1.138  1.00  0.00     0.150 C 
HETATM    2  C20 UNL     1      -8.155  -1.404  -1.075  1.00  0.00     0.063 C 
HETATM    3  C21 UNL     1      -7.887   0.551  -2.537  1.00  0.00     0.098 C 
HETATM    4  N1  UNL     1      -7.868   0.946  -3.624  1.00  0.00    -0.194 NA
ENDROOT
BRANCH   1   5
HETATM    5  C17 UNL     1      -6.724   0.605  -0.466  1.00  0.00     0.004 C 
HETATM    6  C13 UNL     1      -5.367   0.155  -0.868  1.00  0.00     0.006 C 
HETATM    7  C12 UNL     1      -5.088  -1.289  -0.910  1.00  0.00     0.035 C 
HETATM    8  C14 UNL     1      -4.544   0.788   0.251  1.00  0.00     0.005 C 
HETATM    9  C11 UNL     1      -3.654  -1.506  -1.159  1.00  0.00     0.007 C 
HETATM   10  C10 UNL     1      -2.768  -0.678  -0.670  1.00  0.00     0.051 C 
HETATM   11  C8  UNL     1      -3.102   0.515   0.150  1.00  0.00     0.009 C 
HETATM   12  O2  UNL     1      -1.429  -1.003  -0.982  1.00  0.00    -0.351 OA
HETATM   13  C7  UNL     1      -2.363   0.431   1.437  1.00  0.00     0.021 C 
HETATM   14  C9  UNL     1      -2.502   1.697  -0.643  1.00  0.00     0.023 C 
HETATM   15  C6  UNL     1      -1.722  -0.832   1.817  1.00  0.00     0.037 C 
HETATM   16  C5  UNL     1      -0.465  -1.259   1.143  1.00  0.00    -0.056 C 
HETATM   17  C22 UNL     1      -0.272  -0.616  -0.213  1.00  0.00     0.209 C 
HETATM   18  C15 UNL     1      -5.261   0.307   1.462  1.00  0.00     0.007 C 
HETATM   19  C16 UNL     1      -6.733   0.459   1.043  1.00  0.00     0.014 C 
HETATM   20  C18 UNL     1      -6.752   2.124  -0.728  1.00  0.00     0.020 C 
BRANCH  16  21
HETATM   21  C4  UNL     1       0.739  -1.433   1.976  1.00  0.00     0.005 C 
BRANCH  21  22
HETATM   22  C3  UNL     1       1.330  -0.351   2.741  1.00  0.00     0.007 C 
BRANCH  22  23
HETATM   23  C2  UNL     1       1.918   0.827   2.103  1.00  0.00    -0.064 C 
HETATM   24  C1  UNL     1       1.245   1.978   2.232  1.00  0.00     0.019 C 
BRANCH  23  25
HETATM   25  C23 UNL     1       3.208   0.918   1.400  1.00  0.00     0.014 C 
HETATM   26  C24 UNL     1       4.324   0.651   2.417  1.00  0.00     0.015 C 
BRANCH  25  27
HETATM   27  C25 UNL     1       3.397   0.117   0.169  1.00  0.00     0.012 C 
BRANCH  27  28
HETATM   28  C26 UNL     1       4.821   0.438  -0.325  1.00  0.00     0.028 C 
BRANCH  28  29
HETATM   29  C27 UNL     1       5.135  -0.320  -1.551  1.00  0.00    -0.022 C 
HETATM   30  C28 UNL     1       6.083  -1.200  -1.599  1.00  0.00    -0.060 C 
BRANCH  30  31
HETATM   31  C29 UNL     1       6.337  -1.929  -2.899  1.00  0.00     0.198 C 
BRANCH  31  32
HETATM   32  O3  UNL     1       6.179  -3.301  -2.753  1.00  0.00    -0.397 OA
ATOM     33  H3  UNL     1       6.339  -3.759  -3.570  1.00  0.00     0.209 HD
ENDBRANCH  31  32
ENDBRANCH  30  31
BRANCH  30  34
HETATM   34  C30 UNL     1       6.930  -1.580  -0.465  1.00  0.00     0.046 C 
BRANCH  34  35
HETATM   35  C31 UNL     1       8.404  -1.265  -0.760  1.00  0.00     0.115 C 
BRANCH  35  36
HETATM   36  C32 UNL     1       8.543   0.208  -1.004  1.00  0.00     0.258 C 
HETATM   37  O4  UNL     1       8.170   0.753  -2.057  1.00  0.00    -0.265 OA
BRANCH  36  38
HETATM   38  O5  UNL     1       9.116   0.952   0.018  1.00  0.00    -0.326 OA
HETATM   39  C33 UNL     1       9.293   2.346  -0.109  1.00  0.00     0.213 C 
ENDBRANCH  36  38
ENDBRANCH  35  36
ENDBRANCH  34  35
ENDBRANCH  30  34
ENDBRANCH  28  29
ENDBRANCH  27  28
ENDBRANCH  25  27
ENDBRANCH  23  25
ENDBRANCH  22  23
ENDBRANCH  21  22
ENDBRANCH  16  21
ENDBRANCH   1   5
BRANCH   1  40
HETATM   40  O1  UNL     1      -9.033   0.685  -0.564  1.00  0.00    -0.375 OA
ATOM     41  H1  UNL     1      -9.796   0.324  -1.000  1.00  0.00     0.211 HD
ENDBRANCH   1  40
TORSDOF 15
