REMARK  5 active torsions:
REMARK  status: ('A' for Active; 'I' for Inactive)
REMARK    1  A    between atoms: C6_7  and  N2_8 
REMARK       I    between atoms: N2_8  and  C7_10 
REMARK    2  A    between atoms: C7_10  and  C8_12 
REMARK    3  A    between atoms: C12_16  and  N3_17 
REMARK       I    between atoms: N3_17  and  C13_19 
REMARK    4  A    between atoms: C13_19  and  C14_21 
REMARK    5  A    between atoms: C17_24  and  C18_25 
ROOT
HETATM    1  C8  UNL     1       2.990  -2.624  -1.070  1.00  0.00     0.034 A 
HETATM    2  C9  UNL     1       2.933  -3.974  -1.293  1.00  0.00     0.017 A 
HETATM    3  C10 UNL     1       1.708  -4.596  -1.289  1.00  0.00     0.003 A 
HETATM    4  C11 UNL     1       0.609  -3.836  -1.063  1.00  0.00     0.029 A 
HETATM    5  C12 UNL     1       0.636  -2.448  -0.830  1.00  0.00     0.035 A 
HETATM    6  C26 UNL     1       1.856  -1.836  -0.836  1.00  0.00     0.046 A 
ENDROOT
BRANCH   5   7
HETATM    7  N3  UNL     1      -0.583  -1.762  -0.628  1.00  0.00    -0.323 N 
HETATM    8  C13 UNL     1      -0.763  -0.488  -0.080  1.00  0.00     0.256 C 
HETATM    9  O2  UNL     1       0.208   0.218   0.325  1.00  0.00    -0.267 OA
ATOM     10  H3  UNL     1      -1.430  -2.253  -0.915  1.00  0.00     0.169 HD
BRANCH   8  11
HETATM   11  C14 UNL     1      -2.115   0.068   0.041  1.00  0.00     0.032 A 
HETATM   12  C15 UNL     1      -2.399   1.073   0.956  1.00  0.00     0.018 A 
HETATM   13  C16 UNL     1      -3.655   1.625   1.087  1.00  0.00     0.013 A 
HETATM   14  C17 UNL     1      -4.653   1.144   0.266  1.00  0.00    -0.026 A 
HETATM   15  C24 UNL     1      -4.399   0.156  -0.642  1.00  0.00     0.013 A 
HETATM   16  C25 UNL     1      -3.129  -0.381  -0.754  1.00  0.00     0.018 A 
BRANCH  14  17
HETATM   17  C18 UNL     1      -6.020   1.661   0.328  1.00  0.00    -0.026 A 
HETATM   18  C19 UNL     1      -6.828   1.705  -0.786  1.00  0.00     0.012 A 
HETATM   19  C20 UNL     1      -8.131   2.196  -0.726  1.00  0.00     0.001 A 
HETATM   20  C21 UNL     1      -8.651   2.657   0.465  1.00  0.00     0.000 A 
HETATM   21  C22 UNL     1      -7.837   2.611   1.578  1.00  0.00     0.001 A 
HETATM   22  C23 UNL     1      -6.528   2.119   1.525  1.00  0.00     0.012 A 
ENDBRANCH  14  17
ENDBRANCH   8  11
ENDBRANCH   5   7
BRANCH   1  23
HETATM   23  C7  UNL     1       4.292  -1.906  -1.080  1.00  0.00     0.256 C 
HETATM   24  N2  UNL     1       4.468  -0.781  -0.260  1.00  0.00    -0.321 N 
ATOM     25  H2  UNL     1       3.684  -0.494   0.326  1.00  0.00     0.169 HD
HETATM   26  O1  UNL     1       5.172  -2.368  -1.843  1.00  0.00    -0.267 OA
BRANCH  24  27
HETATM   27  C6  UNL     1       5.647  -0.023  -0.190  1.00  0.00     0.059 A 
HETATM   28  C1  UNL     1       5.652   1.070   0.697  1.00  0.00     0.073 A 
HETATM   29  N1  UNL     1       4.469   1.313   1.448  1.00  0.00    -0.100 NA
HETATM   30  C2  UNL     1       6.744   1.891   0.855  1.00  0.00     0.029 A 
HETATM   31  C3  UNL     1       7.905   1.688   0.148  1.00  0.00     0.002 A 
HETATM   32  C4  UNL     1       7.924   0.629  -0.722  1.00  0.00     0.002 A 
HETATM   33  C5  UNL     1       6.809  -0.211  -0.885  1.00  0.00     0.031 A 
ENDBRANCH  24  27
ENDBRANCH   1  23
TORSDOF 5
