REMARK  8 active torsions:
REMARK  status: ('A' for Active; 'I' for Inactive)
REMARK    1  A    between atoms: N1_2  and  C2_5 
REMARK    2  A    between atoms: C2_5  and  C3_6 
REMARK    3  A    between atoms: C3_6  and  C4_7 
REMARK    4  A    between atoms: C6_11  and  N3_12 
REMARK    5  A    between atoms: N3_12  and  C7_14 
REMARK    6  A    between atoms: C7_14  and  C8_15 
REMARK    7  A    between atoms: C8_15  and  N4_16 
REMARK    8  A    between atoms: C9_22  and  N6_23 
ROOT
HETATM    1  C4  UNL     1       1.942  -0.967   0.580  1.00  0.00     0.085 A 
HETATM    2  N2  UNL     1       0.900  -0.158   0.817  1.00  0.00    -0.340 N 
ATOM      3  H2  UNL     1       0.967   0.790   1.186  1.00  0.00     0.167 HD
HETATM    4  C5  UNL     1      -0.244  -0.781   0.496  1.00  0.00     0.123 A 
HETATM    5  C6  UNL     1      -1.567  -0.428   0.537  1.00  0.00     0.147 A 
HETATM    6  N5  UNL     1      -2.477  -1.327   0.125  1.00  0.00    -0.175 N 
ATOM      7  H5  UNL     1      -3.462  -1.065   0.156  1.00  0.00     0.186 HD
HETATM    8  C9  UNL     1      -2.157  -2.562  -0.329  1.00  0.00     0.679 A 
HETATM    9  N7  UNL     1      -0.866  -2.914  -0.371  1.00  0.00    -0.174 N 
ATOM     10  H7  UNL     1      -0.602  -3.839  -0.709  1.00  0.00     0.186 HD
HETATM   11  C10 UNL     1       0.079  -2.055   0.029  1.00  0.00     0.153 A 
HETATM   12  N8  UNL     1       1.434  -2.111   0.104  1.00  0.00    -0.330 N 
ATOM     13  H8  UNL     1       1.993  -2.920  -0.167  1.00  0.00     0.168 HD
ENDROOT
BRANCH   5  14
HETATM   14  N3  UNL     1      -1.922   0.719   0.957  1.00  0.00    -0.372 N 
ATOM     15  H3  UNL     1      -1.187   1.358   1.258  1.00  0.00     0.161 HD
BRANCH  14  16
HETATM   16  C7  UNL     1      -3.271   1.180   1.039  1.00  0.00     0.148 C 
BRANCH  16  17
HETATM   17  C8  UNL     1      -3.636   1.748  -0.337  1.00  0.00     0.249 C 
BRANCH  17  18
HETATM   18  N4  UNL     1      -2.685   2.829  -0.567  1.00  0.00    -0.078 N 
ATOM     19  H43 UNL     1      -2.667   3.528   0.176  1.00  0.00     0.274 HD
ATOM     20  H42 UNL     1      -1.709   2.544  -0.484  1.00  0.00     0.274 HD
ATOM     21  H41 UNL     1      -2.928   3.207  -1.483  1.00  0.00     0.274 HD
ENDBRANCH  17  18
ENDBRANCH  16  17
ENDBRANCH  14  16
ENDBRANCH   5  14
BRANCH   8  22
HETATM   22  N6  UNL     1      -3.099  -3.381  -0.714  1.00  0.00    -0.234 N 
ATOM     23  H62 UNL     1      -4.083  -3.113  -0.682  1.00  0.00     0.174 HD
ATOM     24  H61 UNL     1      -2.858  -4.311  -1.056  1.00  0.00     0.174 HD
ENDBRANCH   8  22
BRANCH   1  25
HETATM   25  C3  UNL     1       3.401  -0.674   0.783  1.00  0.00     0.104 C 
BRANCH  25  26
HETATM   26  C2  UNL     1       4.021  -0.125  -0.458  1.00  0.00     0.239 C 
BRANCH  26  27
HETATM   27  N1  UNL     1       3.455   1.084  -0.953  1.00  0.00    -0.079 N 
HETATM   28  C1  UNL     1       3.690   2.239  -0.117  1.00  0.00     0.267 C 
ATOM     29  H12 UNL     1       2.456   0.966  -1.124  1.00  0.00     0.276 HD
ATOM     30  H11 UNL     1       3.775   1.263  -1.905  1.00  0.00     0.276 HD
ENDBRANCH  26  27
ENDBRANCH  25  26
ENDBRANCH   1  25
TORSDOF 8
