REMARK  9 active torsions:
REMARK  status: ('A' for Active; 'I' for Inactive)
REMARK    1  A    between atoms: C2_2  and  C3_3 
REMARK    2  A    between atoms: C3_3  and  N1_4 
REMARK    3  A    between atoms: N1_4  and  C4_6 
REMARK    4  A    between atoms: C5_9  and  N3_10 
REMARK    5  A    between atoms: C11_18  and  N5_19 
REMARK    6  A    between atoms: N5_19  and  C12_21 
REMARK    7  A    between atoms: C12_21  and  C13_22 
REMARK    8  A    between atoms: C13_22  and  C14_23 
REMARK    9  A    between atoms: C14_23  and  O1_24 
ROOT
HETATM    1  C4  UNL     1      -0.399   1.894  -0.328  1.00  0.00     0.707 A 
HETATM    2  N2  UNL     1      -1.436   1.043  -0.261  1.00  0.00    -0.021 N 
ATOM      3  H2  UNL     1      -2.381   1.396  -0.412  1.00  0.00     0.203 HD
HETATM    4  C5  UNL     1      -1.255  -0.280   0.004  1.00  0.00     0.709 A 
HETATM    5  N4  UNL     1       0.011  -0.688   0.193  1.00  0.00    -0.021 N 
ATOM      6  H4  UNL     1       0.172  -1.675   0.393  1.00  0.00     0.203 HD
HETATM    7  C11 UNL     1       1.078   0.126   0.135  1.00  0.00     0.707 A 
HETATM    8  N6  UNL     1       0.850   1.438  -0.132  1.00  0.00    -0.022 N 
ATOM      9  H6  UNL     1       1.637   2.085  -0.184  1.00  0.00     0.203 HD
ENDROOT
BRANCH   7  10
HETATM   10  N5  UNL     1       2.287  -0.225   0.308  1.00  0.00    -0.225 N 
ATOM     11  H5  UNL     1       2.988   0.512   0.231  1.00  0.00     0.177 HD
BRANCH  10  12
HETATM   12  C12 UNL     1       2.778  -1.546   0.600  1.00  0.00     0.140 C 
BRANCH  12  13
HETATM   13  C13 UNL     1       4.078  -1.679  -0.208  1.00  0.00     0.046 C 
BRANCH  13  14
HETATM   14  C14 UNL     1       4.996  -0.581   0.290  1.00  0.00     0.168 C 
BRANCH  14  15
HETATM   15  O1  UNL     1       6.219  -0.547  -0.331  1.00  0.00    -0.396 OA
HETATM   16  C15 UNL     1       6.978  -1.679  -0.207  1.00  0.00     0.201 C 
ENDBRANCH  14  15
ENDBRANCH  13  14
ENDBRANCH  12  13
ENDBRANCH  10  12
ENDBRANCH   7  10
BRANCH   4  17
HETATM   17  N3  UNL     1      -2.378  -1.163   0.070  1.00  0.00    -0.217 N 
HETATM   18  C6  UNL     1      -2.762  -1.833  -1.144  1.00  0.00     0.141 C 
HETATM   19  C7  UNL     1      -4.141  -2.401  -0.962  1.00  0.00     0.020 C 
HETATM   20  C8  UNL     1      -4.123  -3.279   0.261  1.00  0.00     0.003 C 
HETATM   21  C9  UNL     1      -3.841  -2.524   1.519  1.00  0.00     0.020 C 
HETATM   22  C10 UNL     1      -3.024  -1.297   1.345  1.00  0.00     0.141 C 
ENDBRANCH   4  17
BRANCH   1  23
HETATM   23  N1  UNL     1      -0.523   3.152  -0.572  1.00  0.00    -0.225 N 
ATOM     24  H1  UNL     1       0.335   3.703  -0.600  1.00  0.00     0.177 HD
BRANCH  23  25
HETATM   25  C3  UNL     1      -1.748   3.850  -0.807  1.00  0.00     0.137 C 
BRANCH  25  26
HETATM   26  C2  UNL     1      -1.519   5.297  -0.420  1.00  0.00     0.016 C 
HETATM   27  C1  UNL     1      -1.131   5.351   1.045  1.00  0.00     0.006 C 
ENDBRANCH  25  26
ENDBRANCH  23  25
ENDBRANCH   1  23
TORSDOF 9
