REMARK  5 active torsions:
REMARK  status: ('A' for Active; 'I' for Inactive)
REMARK    1  A    between atoms: N1_2  and  C3_4 
REMARK    2  A    between atoms: C6_7  and  C7_8 
REMARK    3  A    between atoms: C8_9  and  N2_10 
REMARK       I    between atoms: N2_10  and  C9_12 
REMARK    4  A    between atoms: C9_12  and  C10_14 
REMARK    5  A    between atoms: C10_14  and  C11_15 
ROOT
HETATM    1  C7  UNL     1      -0.422   1.432  -0.750  1.00  0.00     0.045 A 
HETATM    2  C8  UNL     1       0.848   0.988  -0.960  1.00  0.00     0.093 A 
HETATM    3  S1  UNL     1       1.623   2.325  -1.743  1.00  0.00    -0.044 SA
HETATM    4  C13 UNL     1       0.287   3.393  -1.767  1.00  0.00     0.140 A 
HETATM    5  C14 UNL     1      -0.718   2.686  -1.168  1.00  0.00     0.090 A 
HETATM    6  N3  UNL     1      -1.923   3.443  -1.044  1.00  0.00    -0.322 N 
ATOM      7  H3  UNL     1      -2.740   3.017  -0.607  1.00  0.00     0.169 HD
HETATM    8  C15 UNL     1      -2.003   4.780  -1.519  1.00  0.00     0.246 C 
HETATM    9  O2  UNL     1      -3.138   5.324  -1.725  1.00  0.00    -0.271 OA
HETATM   10  C16 UNL     1      -0.816   5.581  -1.788  1.00  0.00     0.279 C 
HETATM   11  O3  UNL     1       0.176   4.692  -2.263  1.00  0.00    -0.332 OA
ENDROOT
BRANCH   2  12
HETATM   12  N2  UNL     1       1.514  -0.250  -0.696  1.00  0.00    -0.320 N 
HETATM   13  C9  UNL     1       2.915  -0.363  -1.029  1.00  0.00     0.228 C 
HETATM   14  O1  UNL     1       3.552   0.588  -1.538  1.00  0.00    -0.273 OA
ATOM     15  H2  UNL     1       1.011  -1.035  -0.282  1.00  0.00     0.169 HD
BRANCH  13  16
HETATM   16  C10 UNL     1       3.598  -1.625  -0.762  1.00  0.00     0.181 C 
BRANCH  16  17
HETATM   17  C11 UNL     1       5.053  -1.561  -1.172  1.00  0.00     0.248 C 
HETATM   18  C12 UNL     1       5.653  -2.927  -0.845  1.00  0.00     0.090 C 
HETATM   19  F1  UNL     1       5.664  -0.564  -0.453  1.00  0.00    -0.206 F 
HETATM   20  F2  UNL     1       5.179  -1.306  -2.524  1.00  0.00    -0.206 F 
ENDBRANCH  16  17
ENDBRANCH  13  16
ENDBRANCH   2  12
BRANCH   1  21
HETATM   21  C6  UNL     1      -1.373   0.548  -0.019  1.00  0.00     0.022 A 
HETATM   22  C5  UNL     1      -2.727   0.433  -0.131  1.00  0.00     0.023 A 
HETATM   23  C4  UNL     1      -3.345  -0.507   0.602  1.00  0.00     0.038 A 
HETATM   24  C3  UNL     1      -2.578  -1.288   1.410  1.00  0.00     0.072 A 
HETATM   25  S2  UNL     1      -1.013  -0.684   1.122  1.00  0.00    -0.072 SA
BRANCH  24  26
HETATM   26  N1  UNL     1      -3.001  -2.357   2.288  1.00  0.00    -0.384 N 
HETATM   27  C1  UNL     1      -2.057  -3.087   3.077  1.00  0.00     0.149 C 
HETATM   28  C2  UNL     1      -4.413  -2.654   2.329  1.00  0.00     0.149 C 
ENDBRANCH  24  26
ENDBRANCH   1  21
TORSDOF 5
