REMARK  5 active torsions:
REMARK  status: ('A' for Active; 'I' for Inactive)
REMARK    1  A    between atoms: O1_1  and  C1_3 
REMARK    2  A    between atoms: C1_3  and  C2_4 
REMARK    3  A    between atoms: C3_6  and  O3_7 
REMARK    4  A    between atoms: C4_9  and  C5_10 
REMARK    5  A    between atoms: C13_18  and  O4_19 
ROOT
HETATM    1  C2  UNL     1      -2.355   0.729  -0.291  1.00  0.00     0.180 C 
HETATM    2  O2  UNL     1      -1.144   0.818   0.327  1.00  0.00    -0.351 OA
HETATM    3  C3  UNL     1      -0.769  -0.253   1.094  1.00  0.00     0.265 C 
HETATM    4  C4  UNL     1       0.110  -1.239   0.424  1.00  0.00     0.067 C 
HETATM    5  C11 UNL     1      -0.563  -1.760  -0.786  1.00  0.00    -0.018 C 
HETATM    6  C12 UNL     1      -1.791  -1.510  -1.243  1.00  0.00     0.004 C 
HETATM    7  C13 UNL     1      -2.822  -0.630  -0.651  1.00  0.00     0.171 C 
ENDROOT
BRANCH   4   8
HETATM    8  C5  UNL     1       1.480  -0.799   0.078  1.00  0.00    -0.002 C 
HETATM    9  C6  UNL     1       2.321  -0.363   1.252  1.00  0.00     0.005 C 
HETATM   10  C7  UNL     1       3.749  -0.214   0.704  1.00  0.00     0.000 C 
HETATM   11  C8  UNL     1       3.750   0.990  -0.177  1.00  0.00     0.000 C 
HETATM   12  C9  UNL     1       2.391   1.447  -0.596  1.00  0.00     0.000 C 
HETATM   13  C10 UNL     1       1.566   0.224  -1.019  1.00  0.00     0.005 C 
ENDBRANCH   4   8
BRANCH   3  14
HETATM   14  O3  UNL     1      -0.244   0.105   2.342  1.00  0.00    -0.371 OA
ATOM     15  H3  UNL     1       0.016  -0.638   2.874  1.00  0.00     0.212 HD
ENDBRANCH   3  14
BRANCH   1  16
HETATM   16  C1  UNL     1      -3.402   1.373   0.602  1.00  0.00     0.199 C 
BRANCH  16  17
HETATM   17  O1  UNL     1      -4.670   1.328   0.051  1.00  0.00    -0.398 OA
ATOM     18  H1  UNL     1      -5.325   1.731   0.609  1.00  0.00     0.209 HD
ENDBRANCH  16  17
ENDBRANCH   1  16
BRANCH   7  19
HETATM   19  O4  UNL     1      -3.820  -0.472  -1.645  1.00  0.00    -0.389 OA
ATOM     20  H4  UNL     1      -4.119  -1.344  -1.876  1.00  0.00     0.210 HD
ENDBRANCH   7  19
TORSDOF 5
