REMARK  2 active torsions:
REMARK  status: ('A' for Active; 'I' for Inactive)
REMARK    1  A    between atoms: C6_7  and  O2_8 
REMARK    2  A    between atoms: C8_11  and  O3_12 
ROOT
HETATM    1  C1  UNL     1       2.116  -1.859  -0.268  1.00  0.00     0.042 C 
HETATM    2  C2  UNL     1       1.112  -0.797   0.079  1.00  0.00     0.147 C 
HETATM    3  O1  UNL     1       0.002  -0.945  -0.729  1.00  0.00    -0.371 OA
HETATM    4  C3  UNL     1      -1.080  -0.195  -0.315  1.00  0.00     0.080 C 
HETATM    5  C4  UNL     1      -2.123  -0.310  -1.436  1.00  0.00     0.048 C 
HETATM    6  C5  UNL     1      -1.694  -0.926   0.877  1.00  0.00     0.048 C 
HETATM    7  C6  UNL     1      -0.794   1.229  -0.038  1.00  0.00     0.154 C 
HETATM    8  C7  UNL     1       0.607   1.609   0.194  1.00  0.00     0.069 C 
HETATM    9  C8  UNL     1       1.641   0.595  -0.154  1.00  0.00     0.149 C 
ENDROOT
BRANCH   7  10
HETATM   10  O2  UNL     1      -1.567   1.632   1.077  1.00  0.00    -0.392 OA
ATOM     11  H2  UNL     1      -1.383   2.547   1.255  1.00  0.00     0.210 HD
ENDBRANCH   7  10
BRANCH   9  12
HETATM   12  O3  UNL     1       2.786   0.825   0.627  1.00  0.00    -0.393 OA
ATOM     13  H3  UNL     1       3.119   1.702   0.480  1.00  0.00     0.210 HD
ENDBRANCH   9  12
TORSDOF 2
