REMARK  6 active torsions:
REMARK  status: ('A' for Active; 'I' for Inactive)
REMARK    1  A    between atoms: N1_1  and  C1_4 
REMARK    2  A    between atoms: C2_7  and  C3_8 
REMARK    3  A    between atoms: C3_8  and  C4_9 
REMARK    4  A    between atoms: C3_8  and  C5_14 
REMARK    5  A    between atoms: C4_9  and  N3_10 
REMARK    6  A    between atoms: C5_14  and  N4_15 
ROOT
HETATM    1  C3  UNL     1      -0.803  -0.095  -0.400  1.00  0.00     0.114 C 
ENDROOT
BRANCH   1   2
HETATM    2  C2  UNL     1       0.653   0.206  -0.255  1.00  0.00     0.170 A 
HETATM    3  N2  UNL     1       1.443   0.813  -1.159  1.00  0.00    -0.170 N 
HETATM    4  C1  UNL     1       2.679   0.887  -0.638  1.00  0.00     0.697 A 
ATOM      5  H2  UNL     1       1.155   1.156  -2.076  1.00  0.00     0.186 HD
HETATM    6  N5  UNL     1       2.642   0.326   0.581  1.00  0.00    -0.090 N 
HETATM    7  O1  UNL     1       1.428  -0.063   0.768  1.00  0.00    -0.209 OA
ATOM      8  H5  UNL     1       3.422   0.227   1.231  1.00  0.00     0.213 HD
BRANCH   4   9
HETATM    9  N1  UNL     1       3.730   1.399  -1.186  1.00  0.00    -0.233 N 
ATOM     10  H12 UNL     1       3.758   1.825  -2.112  1.00  0.00     0.174 HD
ATOM     11  H11 UNL     1       4.668   1.455  -0.790  1.00  0.00     0.174 HD
ENDBRANCH   4   9
ENDBRANCH   1   2
BRANCH   1  12
HETATM   12  C4  UNL     1      -0.970  -1.594  -0.398  1.00  0.00     0.244 C 
BRANCH  12  13
HETATM   13  N3  UNL     1      -2.337  -2.000  -0.532  1.00  0.00    -0.079 N 
ATOM     14  H33 UNL     1      -2.919  -1.567   0.185  1.00  0.00     0.274 HD
ATOM     15  H32 UNL     1      -2.761  -1.586  -1.362  1.00  0.00     0.274 HD
ATOM     16  H31 UNL     1      -2.450  -3.014  -0.531  1.00  0.00     0.274 HD
ENDBRANCH  12  13
ENDBRANCH   1  12
BRANCH   1  17
HETATM   17  C5  UNL     1      -1.600   0.491   0.735  1.00  0.00     0.244 C 
BRANCH  17  18
HETATM   18  N4  UNL     1      -1.493   1.910   0.835  1.00  0.00    -0.079 N 
ATOM     19  H43 UNL     1      -0.515   2.194   0.896  1.00  0.00     0.274 HD
ATOM     20  H42 UNL     1      -1.744   2.354  -0.049  1.00  0.00     0.274 HD
ATOM     21  H41 UNL     1      -2.033   2.307   1.604  1.00  0.00     0.274 HD
ENDBRANCH  17  18
ENDBRANCH   1  17
TORSDOF 6
