REMARK  4 active torsions:
REMARK  status: ('A' for Active; 'I' for Inactive)
REMARK    1  A    between atoms: C4_6  and  N2_7 
REMARK    2  A    between atoms: N2_7  and  N3_9 
REMARK    3  A    between atoms: N3_9  and  N4_10 
REMARK    4  A    between atoms: N5_14  and  O1_15 
ROOT
HETATM    1  C1  UNL     1      -3.708   0.195   0.190  1.00  0.00     0.091 C 
HETATM    2  C2  UNL     1      -2.218  -0.020   0.188  1.00  0.00     0.105 A 
HETATM    3  N1  UNL     1      -1.739  -1.276   0.217  1.00  0.00    -0.352 N 
ATOM      4  H1  UNL     1      -2.376  -2.072   0.239  1.00  0.00     0.166 HD
HETATM    5  C3  UNL     1      -0.414  -1.466   0.216  1.00  0.00     0.121 A 
HETATM    6  C4  UNL     1       0.499  -0.418   0.186  1.00  0.00     0.079 A 
HETATM    7  C5  UNL     1      -0.031   0.856   0.156  1.00  0.00     0.156 A 
HETATM    8  N5  UNL     1      -1.372   1.021   0.158  1.00  0.00    -0.222 N 
ENDROOT
BRANCH   6   9
HETATM    9  N2  UNL     1       1.900  -0.644   0.185  1.00  0.00    -0.282 N 
ATOM     10  H2  UNL     1       2.275  -1.592   0.207  1.00  0.00     0.184 HD
BRANCH   9  11
HETATM   11  N3  UNL     1       2.749   0.453   0.154  1.00  0.00    -0.029 NA
BRANCH  11  12
HETATM   12  N4  UNL     1       4.056   0.134  -0.207  1.00  0.00    -0.329 N 
ATOM     13  H42 UNL     1       4.345  -0.820  -0.425  1.00  0.00     0.174 HD
ATOM     14  H41 UNL     1       4.680   0.940  -0.230  1.00  0.00     0.174 HD
ENDBRANCH  11  12
ENDBRANCH   9  11
ENDBRANCH   6   9
BRANCH   8  15
HETATM   15  O1  UNL     1      -1.911   2.278   0.129  1.00  0.00    -0.282 OA
ATOM     16  H1  UNL     1      -1.312   3.015   0.108  1.00  0.00     0.245 HD
ENDBRANCH   8  15
TORSDOF 4
