REMARK  12 active torsions:
REMARK  status: ('A' for Active; 'I' for Inactive)
REMARK    1  A    between atoms: C2_2  and  N1_3 
REMARK    2  A    between atoms: C5_8  and  C6_9 
REMARK    3  A    between atoms: C6_9  and  C7_10 
REMARK    4  A    between atoms: C10_16  and  C11_17 
REMARK    5  A    between atoms: C11_17  and  C12_18 
REMARK    6  A    between atoms: C14_25  and  C15_26 
REMARK    7  A    between atoms: C15_26  and  C16_27 
REMARK    8  A    between atoms: C19_32  and  O4_33 
REMARK    9  A    between atoms: C20_35  and  C21_36 
REMARK   10  A    between atoms: C21_36  and  C22_37 
REMARK   11  A    between atoms: C26_44  and  C27_45 
REMARK   12  A    between atoms: C27_45  and  C28_46 
ROOT
HETATM    1  C7  UNL     1       2.324  -0.543   0.165  1.00  0.00     0.102 C 
HETATM    2  C8  UNL     1       1.844  -1.708  -0.681  1.00  0.00     0.137 C 
HETATM    3  N3  UNL     1       1.368  -2.840   0.027  1.00  0.00    -0.358 N 
ATOM      4  H3  UNL     1       1.933  -3.679  -0.104  1.00  0.00     0.162 HD
HETATM    5  C9  UNL     1       0.279  -3.019   0.864  1.00  0.00     0.240 C 
HETATM    6  O1  UNL     1       0.532  -3.411   2.067  1.00  0.00    -0.271 OA
HETATM    7  C10 UNL     1      -1.177  -2.813   0.549  1.00  0.00     0.184 C 
HETATM    8  N5  UNL     1      -1.474  -2.898  -0.837  1.00  0.00    -0.346 N 
ATOM      9  H5  UNL     1      -0.789  -3.423  -1.381  1.00  0.00     0.163 HD
HETATM   10  C13 UNL     1      -2.532  -2.393  -1.583  1.00  0.00     0.241 C 
HETATM   11  O3  UNL     1      -3.043  -3.206  -2.437  1.00  0.00    -0.271 OA
HETATM   12  C14 UNL     1      -3.164  -1.066  -1.554  1.00  0.00     0.175 C 
HETATM   13  N6  UNL     1      -3.354  -0.468  -0.272  1.00  0.00    -0.359 N 
ATOM     14  H6  UNL     1      -3.708  -1.102   0.444  1.00  0.00     0.162 HD
HETATM   15  C19 UNL     1      -3.135   0.848   0.169  1.00  0.00     0.135 C 
HETATM   16  C20 UNL     1      -1.863   1.556   0.402  1.00  0.00     0.159 C 
HETATM   17  N7  UNL     1      -0.850   1.078  -0.512  1.00  0.00    -0.347 N 
ATOM     18  H7  UNL     1      -0.825   0.063  -0.606  1.00  0.00     0.163 HD
HETATM   19  C25 UNL     1       0.090   1.735  -1.282  1.00  0.00     0.241 C 
HETATM   20  O5  UNL     1       0.015   1.639  -2.562  1.00  0.00    -0.271 OA
HETATM   21  C26 UNL     1       1.235   2.580  -0.812  1.00  0.00     0.177 C 
HETATM   22  N8  UNL     1       2.484   1.851  -0.843  1.00  0.00    -0.347 N 
ATOM     23  H8  UNL     1       3.317   2.438  -0.880  1.00  0.00     0.163 HD
HETATM   24  C31 UNL     1       2.738   0.492  -0.831  1.00  0.00     0.224 C 
HETATM   25  O6  UNL     1       3.431  -0.001  -1.799  1.00  0.00    -0.273 OA
ENDROOT
BRANCH   1  26
HETATM   26  C6  UNL     1       3.467  -0.943   1.074  1.00  0.00     0.092 C 
BRANCH  26  27
HETATM   27  C5  UNL     1       4.690  -1.395   0.443  1.00  0.00     0.083 A 
HETATM   28  N1  UNL     1       5.778  -0.643   0.207  1.00  0.00    -0.346 N 
HETATM   29  C3  UNL     1       6.711  -1.400  -0.438  1.00  0.00     0.109 A 
HETATM   30  C4  UNL     1       6.151  -2.626  -0.581  1.00  0.00     0.106 A 
HETATM   31  N2  UNL     1       4.932  -2.618  -0.047  1.00  0.00    -0.354 N 
ATOM     32  H2  UNL     1       4.290  -3.410  -0.016  1.00  0.00     0.166 HD
BRANCH  28  33
HETATM   33  C2  UNL     1       6.080   0.745   0.574  1.00  0.00     0.125 C 
HETATM   34  C1  UNL     1       6.787   0.655   1.944  1.00  0.00     0.027 C 
ENDBRANCH  28  33
ENDBRANCH  26  27
ENDBRANCH   1  26
BRANCH  21  35
HETATM   35  C27 UNL     1       1.255   3.793  -1.712  1.00  0.00     0.038 C 
BRANCH  35  36
HETATM   36  C28 UNL     1       2.331   4.778  -1.411  1.00  0.00    -0.020 C 
HETATM   37  C29 UNL     1       2.257   5.346  -0.028  1.00  0.00     0.009 C 
HETATM   38  C30 UNL     1       2.117   5.954  -2.377  1.00  0.00     0.009 C 
ENDBRANCH  35  36
ENDBRANCH  21  35
BRANCH   7  39
HETATM   39  C11 UNL     1      -1.941  -3.890   1.297  1.00  0.00     0.134 C 
BRANCH  39  40
HETATM   40  C12 UNL     1      -1.515  -5.244   0.859  1.00  0.00     0.233 C 
HETATM   41  N4  UNL     1      -1.028  -6.251   1.733  1.00  0.00    -0.062 NA
HETATM   42  O2  UNL     1      -1.604  -5.491  -0.393  1.00  0.00    -0.277 OA
ENDBRANCH  39  40
ENDBRANCH   7  39
BRANCH  16  43
HETATM   43  C21 UNL     1      -1.329   1.317   1.789  1.00  0.00     0.037 C 
BRANCH  43  44
HETATM   44  C22 UNL     1      -2.155   1.737   2.936  1.00  0.00    -0.020 C 
HETATM   45  C23 UNL     1      -2.490   3.212   2.974  1.00  0.00     0.009 C 
HETATM   46  C24 UNL     1      -3.354   0.950   3.280  1.00  0.00     0.009 C 
ENDBRANCH  43  44
ENDBRANCH  16  43
BRANCH  12  47
HETATM   47  C15 UNL     1      -4.431  -0.991  -2.379  1.00  0.00     0.038 C 
BRANCH  47  48
HETATM   48  C16 UNL     1      -5.538  -1.891  -2.010  1.00  0.00    -0.020 C 
HETATM   49  C17 UNL     1      -6.670  -1.581  -3.029  1.00  0.00     0.009 C 
HETATM   50  C18 UNL     1      -6.172  -1.540  -0.663  1.00  0.00     0.009 C 
ENDBRANCH  47  48
ENDBRANCH  12  47
BRANCH  15  51
HETATM   51  O4  UNL     1      -4.169   1.596   0.426  1.00  0.00    -0.348 OA
ATOM     52  H4  UNL     1      -4.021   2.486   0.724  1.00  0.00     0.219 HD
ENDBRANCH  15  51
TORSDOF 12
