REMARK  7 active torsions:
REMARK  status: ('A' for Active; 'I' for Inactive)
REMARK    1  A    between atoms: O1_2  and  C2_3 
REMARK    2  A    between atoms: N1_9  and  C8_10 
REMARK    3  A    between atoms: C10_12  and  O2_13 
REMARK    4  A    between atoms: O2_13  and  C11_14 
REMARK    5  A    between atoms: C21_29  and  C22_30 
REMARK    6  A    between atoms: C23_31  and  C24_32 
REMARK    7  A    between atoms: N5_41  and  O3_42 
ROOT
HETATM    1  C11 UNL     1       4.492  -0.391   0.083  1.00  0.00     0.090 A 
HETATM    2  C12 UNL     1       4.874  -1.546   0.708  1.00  0.00     0.040 A 
HETATM    3  C13 UNL     1       6.221  -1.753   0.959  1.00  0.00     0.028 A 
HETATM    4  C14 UNL     1       7.183  -0.839   0.602  1.00  0.00     0.072 A 
HETATM    5  C15 UNL     1       8.578  -1.070   0.870  1.00  0.00     0.102 C 
HETATM    6  N2  UNL     1       9.697  -1.253   1.099  1.00  0.00    -0.191 NA
HETATM    7  C16 UNL     1       6.823   0.333  -0.029  1.00  0.00     0.066 A 
HETATM    8  N3  UNL     1       7.545   1.379  -0.479  1.00  0.00    -0.364 N 
ATOM      9  H3  UNL     1       8.558   1.478  -0.419  1.00  0.00     0.165 HD
HETATM   10  C17 UNL     1       6.694   2.270  -1.022  1.00  0.00     0.089 A 
HETATM   11  C18 UNL     1       5.407   1.763  -0.906  1.00  0.00     0.033 A 
HETATM   12  C19 UNL     1       5.491   0.537  -0.277  1.00  0.00     0.027 A 
ENDROOT
BRANCH   1  13
HETATM   13  O2  UNL     1       3.224  -0.085  -0.209  1.00  0.00    -0.293 OA
BRANCH  13  14
HETATM   14  C10 UNL     1       2.022  -0.661  -0.049  1.00  0.00     0.150 A 
HETATM   15  C9  UNL     1       0.908   0.042  -0.525  1.00  0.00     0.088 A 
HETATM   16  C8  UNL     1      -0.345  -0.479  -0.398  1.00  0.00     0.065 A 
HETATM   17  C21 UNL     1      -0.572  -1.722   0.206  1.00  0.00     0.060 A 
HETATM   18  C20 UNL     1       0.558  -2.371   0.656  1.00  0.00     0.113 A 
HETATM   19  N4  UNL     1       1.800  -1.852   0.529  1.00  0.00    -0.345 N 
ATOM     20  H4  UNL     1       2.595  -2.383   0.884  1.00  0.00     0.167 HD
BRANCH  16  21
HETATM   21  N1  UNL     1      -1.490   0.217  -0.873  1.00  0.00    -0.302 N 
HETATM   22  C6  UNL     1      -1.813   1.490  -0.505  1.00  0.00     0.072 A 
HETATM   23  C5  UNL     1      -2.978   1.874  -1.140  1.00  0.00     0.091 A 
HETATM   24  C7  UNL     1      -1.201   2.387   0.340  1.00  0.00     0.069 A 
HETATM   25  C4  UNL     1      -3.521   3.123  -0.938  1.00  0.00     0.037 A 
HETATM   26  N5  UNL     1      -3.350   0.816  -1.892  1.00  0.00    -0.218 N 
HETATM   27  C3  UNL     1      -2.891   3.996  -0.090  1.00  0.00     0.039 A 
HETATM   28  C2  UNL     1      -1.735   3.644   0.553  1.00  0.00     0.070 A 
HETATM   29  C30 UNL     1      -2.449  -0.163  -1.720  1.00  0.00     0.222 A 
BRANCH  28  30
HETATM   30  O1  UNL     1      -1.073   4.510   1.419  1.00  0.00    -0.356 OA
HETATM   31  C1  UNL     1      -1.575   5.808   1.673  1.00  0.00     0.210 C 
ENDBRANCH  28  30
BRANCH  26  32
HETATM   32  O3  UNL     1      -4.466   0.774  -2.692  1.00  0.00    -0.282 OA
ATOM     33  H3  UNL     1      -4.728   0.030  -3.221  1.00  0.00     0.245 HD
ENDBRANCH  26  32
ENDBRANCH  16  21
BRANCH  17  34
HETATM   34  C22 UNL     1      -1.896  -2.268   0.337  1.00  0.00    -0.058 C 
HETATM   35  C23 UNL     1      -3.002  -2.733   0.467  1.00  0.00    -0.058 C 
BRANCH  35  36
HETATM   36  C24 UNL     1      -4.313  -3.296   0.597  1.00  0.00     0.059 A 
HETATM   37  C25 UNL     1      -5.016  -3.062   1.753  1.00  0.00     0.066 A 
HETATM   38  C26 UNL     1      -6.276  -3.597   1.891  1.00  0.00     0.117 A 
HETATM   39  F1  UNL     1      -6.979  -3.364   3.044  1.00  0.00    -0.206 F 
HETATM   40  C27 UNL     1      -6.860  -4.361   0.906  1.00  0.00     0.045 A 
HETATM   41  C28 UNL     1      -6.169  -4.604  -0.257  1.00  0.00     0.047 A 
HETATM   42  C29 UNL     1      -4.908  -4.063  -0.382  1.00  0.00     0.135 A 
HETATM   43  F2  UNL     1      -4.235  -4.319  -1.555  1.00  0.00    -0.205 F 
ENDBRANCH  35  36
ENDBRANCH  17  34
ENDBRANCH  13  14
ENDBRANCH   1  13
TORSDOF 7
