REMARK  8 active torsions:
REMARK  status: ('A' for Active; 'I' for Inactive)
REMARK    1  A    between atoms: C2_2  and  C3_3 
REMARK    2  A    between atoms: C3_3  and  C4_4 
REMARK    3  A    between atoms: C4_4  and  N1_5 
REMARK    4  A    between atoms: C4_4  and  N2_9 
REMARK    5  A    between atoms: C4_4  and  C6_12 
REMARK    6  A    between atoms: C6_12  and  N3_13 
REMARK    7  A    between atoms: N4_19  and  C9_20 
REMARK    8  A    between atoms: C9_20  and  C10_21 
ROOT
HETATM    1  C6  UNL     1      -0.716  -0.405   0.096  1.00  0.00     0.180 C 
HETATM    2  C7  UNL     1      -0.147   0.878   0.533  1.00  0.00     0.087 C 
HETATM    3  C8  UNL     1       1.273   1.170   0.266  1.00  0.00     0.060 C 
HETATM    4  N4  UNL     1       2.122   0.168  -0.230  1.00  0.00    -0.393 N 
HETATM    5  C12 UNL     1       1.546  -1.116  -0.456  1.00  0.00     0.124 C 
HETATM    6  C13 UNL     1       0.162  -0.972  -1.047  1.00  0.00     0.063 C 
ENDROOT
BRANCH   1   7
HETATM    7  C4  UNL     1      -2.087  -0.337  -0.500  1.00  0.00     0.228 C 
BRANCH   7   8
HETATM    8  C3  UNL     1      -3.214  -0.015   0.408  1.00  0.00     0.090 C 
BRANCH   8   9
HETATM    9  C2  UNL     1      -3.154   1.242   1.164  1.00  0.00    -0.033 C 
HETATM   10  C1  UNL     1      -3.224   1.219   2.487  1.00  0.00     0.007 C 
ENDBRANCH   8   9
ENDBRANCH   7   8
BRANCH   7  11
HETATM   11  N1  UNL     1      -2.002   0.759  -1.502  1.00  0.00    -0.050 N 
ATOM     12  H13 UNL     1      -2.880   0.917  -1.996  1.00  0.00     0.277 HD
ATOM     13  H12 UNL     1      -1.921   1.683  -1.077  1.00  0.00     0.277 HD
ATOM     14  H11 UNL     1      -1.227   0.537  -2.127  1.00  0.00     0.277 HD
ENDBRANCH   7  11
BRANCH   7  15
HETATM   15  N2  UNL     1      -2.446  -1.496  -1.283  1.00  0.00    -0.393 N 
HETATM   16  C5  UNL     1      -2.687  -2.695  -0.586  1.00  0.00     0.142 C 
ATOM     17  H2  UNL     1      -2.522  -1.448  -2.299  1.00  0.00     0.155 HD
ENDBRANCH   7  15
ENDBRANCH   1   7
BRANCH   1  18
HETATM   18  N3  UNL     1      -0.600  -1.391   1.164  1.00  0.00    -0.066 N 
ATOM     19  H33 UNL     1      -1.301  -1.227   1.886  1.00  0.00     0.275 HD
ATOM     20  H32 UNL     1      -0.901  -2.311   0.842  1.00  0.00     0.275 HD
ATOM     21  H31 UNL     1       0.334  -1.437   1.570  1.00  0.00     0.275 HD
ENDBRANCH   1  18
BRANCH   4  22
HETATM   22  C9  UNL     1       3.031   0.587  -1.267  1.00  0.00     0.121 C 
BRANCH  22  23
HETATM   23  C10 UNL     1       4.074   1.547  -0.736  1.00  0.00     0.015 C 
HETATM   24  C11 UNL     1       4.906   0.929   0.359  1.00  0.00     0.006 C 
ENDBRANCH  22  23
ENDBRANCH   4  22
TORSDOF 8
