REMARK  7 active torsions:
REMARK  status: ('A' for Active; 'I' for Inactive)
REMARK    1  A    between atoms: C5_5  and  C6_6 
REMARK    2  A    between atoms: C6_6  and  C7_7 
REMARK    3  A    between atoms: C7_7  and  N1_8 
REMARK    4  A    between atoms: C7_7  and  C8_12 
REMARK    5  A    between atoms: C8_12  and  N2_13 
REMARK    6  A    between atoms: C8_12  and  C9_17 
REMARK    7  A    between atoms: C9_17  and  C10_18 
ROOT
HETATM    1  C7  UNL     1       0.691  -0.842   0.180  1.00  0.00     0.218 C 
ENDROOT
BRANCH   1   2
HETATM    2  C6  UNL     1      -0.488  -1.363   0.966  1.00  0.00     0.073 C 
BRANCH   2   3
HETATM    3  C5  UNL     1      -1.790  -0.838   0.555  1.00  0.00    -0.056 A 
HETATM    4  C4  UNL     1      -2.550  -1.448  -0.448  1.00  0.00     0.007 A 
HETATM    5  C3  UNL     1      -3.780  -0.954  -0.828  1.00  0.00     0.007 A 
HETATM    6  C2  UNL     1      -4.306   0.164  -0.228  1.00  0.00    -0.062 A 
HETATM    7  C1  UNL     1      -5.650   0.684  -0.659  1.00  0.00     0.048 C 
HETATM    8  C14 UNL     1      -3.577   0.777   0.758  1.00  0.00     0.007 A 
HETATM    9  C13 UNL     1      -2.331   0.278   1.143  1.00  0.00     0.007 A 
ENDBRANCH   2   3
ENDBRANCH   1   2
BRANCH   1  10
HETATM   10  N1  UNL     1       1.871  -1.517   0.772  1.00  0.00    -0.073 N 
ATOM     11  H13 UNL     1       1.957  -1.391   1.780  1.00  0.00     0.274 HD
ATOM     12  H12 UNL     1       1.801  -2.534   0.788  1.00  0.00     0.274 HD
ATOM     13  H11 UNL     1       2.668  -1.165   0.241  1.00  0.00     0.274 HD
ENDBRANCH   1  10
BRANCH   1  14
HETATM   14  C8  UNL     1       0.902   0.621   0.305  1.00  0.00     0.219 C 
BRANCH  14  15
HETATM   15  N2  UNL     1       1.173   1.052   1.681  1.00  0.00    -0.073 N 
ATOM     16  H23 UNL     1       0.436   0.737   2.311  1.00  0.00     0.274 HD
ATOM     17  H22 UNL     1       1.961   0.537   2.074  1.00  0.00     0.274 HD
ATOM     18  H21 UNL     1       1.318   2.058   1.767  1.00  0.00     0.274 HD
ENDBRANCH  14  15
BRANCH  14  19
HETATM   19  C9  UNL     1       1.897   1.211  -0.652  1.00  0.00     0.093 C 
BRANCH  19  20
HETATM   20  C10 UNL     1       3.260   0.680  -0.565  1.00  0.00     0.029 A 
HETATM   21  C11 UNL     1       4.235   1.194   0.297  1.00  0.00     0.045 A 
HETATM   22  C12 UNL     1       5.360   0.433   0.049  1.00  0.00     0.109 A 
HETATM   23  N3  UNL     1       5.102  -0.483  -0.894  1.00  0.00    -0.312 N 
HETATM   24  N4  UNL     1       3.850  -0.323  -1.249  1.00  0.00    -0.305 N 
ATOM     25  H3  UNL     1       5.755  -1.173  -1.265  1.00  0.00     0.186 HD
ATOM     26  H4  UNL     1       3.379  -0.888  -1.956  1.00  0.00     0.186 HD
ENDBRANCH  19  20
ENDBRANCH  14  19
ENDBRANCH   1  14
TORSDOF 7
