REMARK  10 active torsions:
REMARK  status: ('A' for Active; 'I' for Inactive)
REMARK       I    between atoms: N1_2  and  C2_4 
REMARK    1  A    between atoms: C2_4  and  C3_6 
REMARK    2  A    between atoms: C3_6  and  O2_7 
REMARK    3  A    between atoms: O2_7  and  C4_8 
REMARK    4  A    between atoms: C4_8  and  C5_10 
REMARK    5  A    between atoms: C5_10  and  C6_11 
REMARK    6  A    between atoms: C6_11  and  C7_12 
REMARK    7  A    between atoms: C20_25  and  O4_26 
REMARK    8  A    between atoms: C21_28  and  C22_29 
REMARK    9  A    between atoms: N2_30  and  N3_32 
REMARK   10  A    between atoms: N3_32  and  C23_34 
ROOT
HETATM    1  C7  UNL     1       0.576   0.325   0.242  1.00  0.00    -0.002 C 
HETATM    2  C8  UNL     1       0.697   1.734   0.800  1.00  0.00     0.024 C 
HETATM    3  C9  UNL     1       0.392  -0.664   1.294  1.00  0.00    -0.013 C 
HETATM    4  C10 UNL     1      -0.827  -1.472   1.503  1.00  0.00     0.001 C 
HETATM    5  C11 UNL     1      -1.676  -2.054   0.478  1.00  0.00    -0.061 C 
HETATM    6  C12 UNL     1      -0.752  -2.411  -0.726  1.00  0.00    -0.016 C 
HETATM    7  C13 UNL     1      -1.459  -3.509  -1.519  1.00  0.00     0.020 C 
HETATM    8  C14 UNL     1       0.486  -3.101  -0.275  1.00  0.00     0.020 C 
HETATM    9  C15 UNL     1      -0.727  -1.092  -1.386  1.00  0.00     0.027 C 
HETATM   10  C16 UNL     1      -2.017  -1.018  -2.234  1.00  0.00     0.011 C 
HETATM   11  C17 UNL     1      -3.204  -1.449  -1.478  1.00  0.00     0.017 C 
HETATM   12  C18 UNL     1      -2.995  -1.580   0.041  1.00  0.00     0.007 C 
HETATM   13  C19 UNL     1      -4.088  -2.602   0.459  1.00  0.00     0.023 C 
HETATM   14  C20 UNL     1      -3.565  -0.280   0.544  1.00  0.00     0.143 C 
HETATM   15  C21 UNL     1      -3.080   0.943  -0.195  1.00  0.00     0.078 C 
HETATM   16  C24 UNL     1      -1.621   0.980  -0.059  1.00  0.00    -0.010 C 
HETATM   17  C25 UNL     1      -0.622   0.189  -0.723  1.00  0.00    -0.066 C 
ENDROOT
BRANCH   1  18
HETATM   18  C6  UNL     1       1.807   0.284  -0.629  1.00  0.00     0.027 C 
BRANCH  18  19
HETATM   19  C5  UNL     1       3.108   0.478   0.046  1.00  0.00     0.112 C 
BRANCH  19  20
HETATM   20  C4  UNL     1       4.216   0.395  -0.945  1.00  0.00     0.259 C 
HETATM   21  O3  UNL     1       3.918   0.186  -2.145  1.00  0.00    -0.265 OA
BRANCH  20  22
HETATM   22  O2  UNL     1       5.541   0.536  -0.615  1.00  0.00    -0.312 OA
BRANCH  22  23
HETATM   23  C3  UNL     1       6.603   0.461  -1.541  1.00  0.00     0.281 C 
BRANCH  23  24
HETATM   24  C2  UNL     1       7.875   0.662  -0.803  1.00  0.00     0.241 C 
HETATM   25  N1  UNL     1       7.890   0.886   0.601  1.00  0.00    -0.364 N 
HETATM   26  C1  UNL     1       9.095   1.084   1.345  1.00  0.00     0.149 C 
ATOM     27  H1  UNL     1       7.001   0.906   1.100  1.00  0.00     0.161 HD
HETATM   28  O1  UNL     1       8.983   0.643  -1.397  1.00  0.00    -0.271 OA
ENDBRANCH  23  24
ENDBRANCH  22  23
ENDBRANCH  20  22
ENDBRANCH  19  20
ENDBRANCH  18  19
ENDBRANCH   1  18
BRANCH  15  29
HETATM   29  C22 UNL     1      -3.611   2.122   0.610  1.00  0.00     0.091 C 
HETATM   30  N2  UNL     1      -4.623   2.104   1.347  1.00  0.00    -0.313 N 
ATOM     31  H2  UNL     1      -5.168   1.247   1.445  1.00  0.00     0.185 HD
BRANCH  30  32
HETATM   32  N3  UNL     1      -5.006   3.257   2.035  1.00  0.00    -0.279 N 
ATOM     33  H3  UNL     1      -5.162   3.202   3.042  1.00  0.00     0.189 HD
BRANCH  32  34
HETATM   34  C23 UNL     1      -5.186   4.503   1.381  1.00  0.00     0.199 C 
HETATM   35  N4  UNL     1      -4.992   4.676  -0.017  1.00  0.00    -0.068 NA
HETATM   36  S1  UNL     1      -5.634   5.812   2.240  1.00  0.00    -0.043 SA
ENDBRANCH  32  34
ENDBRANCH  30  32
ENDBRANCH  15  29
BRANCH  14  37
HETATM   37  O4  UNL     1      -3.747  -0.158   1.878  1.00  0.00    -0.393 OA
ATOM     38  H4  UNL     1      -4.107   0.662   2.195  1.00  0.00     0.210 HD
ENDBRANCH  14  37
TORSDOF 10
