REMARK  10 active torsions:
REMARK  status: ('A' for Active; 'I' for Inactive)
REMARK    1  A    between atoms: C2_2  and  C3_3 
REMARK    2  A    between atoms: C3_3  and  O1_4 
REMARK    3  A    between atoms: O1_4  and  C4_5 
REMARK    4  A    between atoms: C5_6  and  O2_7 
REMARK    5  A    between atoms: C6_9  and  C7_10 
REMARK    6  A    between atoms: C14_17  and  O3_18 
REMARK    7  A    between atoms: C15_20  and  O4_21 
REMARK    8  A    between atoms: C23_30  and  O5_31 
REMARK    9  A    between atoms: O5_31  and  C24_32 
REMARK   10  A    between atoms: C30_39  and  N2_40 
ROOT
HETATM    1  C24 UNL     1       1.785  -0.645   0.793  1.00  0.00     0.122 C 
HETATM    2  C25 UNL     1       2.248   0.773   1.059  1.00  0.00     0.032 C 
HETATM    3  C26 UNL     1       3.347   0.803   2.031  1.00  0.00     0.009 C 
HETATM    4  C27 UNL     1       4.696   0.346   1.644  1.00  0.00     0.013 C 
HETATM    5  C28 UNL     1       5.145   0.965   0.345  1.00  0.00     0.128 C 
HETATM    6  C29 UNL     1       5.458   2.394   0.559  1.00  0.00     0.066 C 
HETATM    7  N1  UNL     1       5.682   3.534   0.745  1.00  0.00    -0.197 NA
HETATM    8  C30 UNL     1       6.233   0.296  -0.361  1.00  0.00     0.208 C 
HETATM    9  C35 UNL     1       7.058  -0.594   0.582  1.00  0.00     0.036 C 
HETATM   10  C36 UNL     1       6.136  -1.669   1.104  1.00  0.00     0.011 C 
HETATM   11  C37 UNL     1       4.969  -1.111   1.813  1.00  0.00    -0.039 C 
HETATM   12  C38 UNL     1       5.280  -1.310   3.317  1.00  0.00     0.015 C 
HETATM   13  C39 UNL     1       3.696  -1.887   1.625  1.00  0.00     0.012 C 
HETATM   14  C40 UNL     1       2.887  -1.578   0.427  1.00  0.00     0.033 C 
ENDROOT
BRANCH   8  15
HETATM   15  N2  UNL     1       7.143   1.089  -1.099  1.00  0.00    -0.065 N 
HETATM   16  C31 UNL     1       8.345   1.504  -0.357  1.00  0.00     0.273 C 
HETATM   17  C32 UNL     1       7.646   0.367  -2.289  1.00  0.00     0.239 A 
HETATM   18  C33 UNL     1       7.273   1.485  -3.196  1.00  0.00     0.056 A 
HETATM   19  C34 UNL     1       6.694   2.120  -1.954  1.00  0.00     0.239 A 
ENDBRANCH   8  15
BRANCH   1  20
HETATM   20  O5  UNL     1       0.695  -0.617  -0.004  1.00  0.00    -0.380 OA
BRANCH  20  21
HETATM   21  C23 UNL     1      -0.523  -1.032   0.552  1.00  0.00     0.127 C 
HETATM   22  C22 UNL     1      -0.964  -2.175  -0.292  1.00  0.00     0.033 C 
HETATM   23  C21 UNL     1      -2.416  -2.343  -0.269  1.00  0.00     0.009 C 
HETATM   24  C20 UNL     1      -3.338  -1.147  -0.353  1.00  0.00     0.008 C 
HETATM   25  C10 UNL     1      -2.948  -0.084   0.588  1.00  0.00     0.001 C 
HETATM   26  C18 UNL     1      -4.711  -1.779  -0.216  1.00  0.00    -0.033 C 
HETATM   27  C6  UNL     1      -3.362   1.320   0.498  1.00  0.00    -0.011 C 
HETATM   28  C11 UNL     1      -3.084  -0.702   1.953  1.00  0.00     0.016 C 
HETATM   29  C41 UNL     1      -1.427   0.068   0.303  1.00  0.00     0.034 C 
HETATM   30  C5  UNL     1      -3.141   1.879  -0.863  1.00  0.00     0.102 C 
HETATM   31  C4  UNL     1      -2.133   1.515  -1.601  1.00  0.00     0.080 C 
HETATM   32  C42 UNL     1      -1.184   0.536  -1.117  1.00  0.00     0.075 C 
HETATM   33  C12 UNL     1      -4.296  -1.458   2.261  1.00  0.00     0.009 C 
HETATM   34  C13 UNL     1      -5.248  -1.814   1.164  1.00  0.00     0.025 C 
HETATM   35  C14 UNL     1      -5.944  -3.072   1.587  1.00  0.00     0.151 C 
HETATM   36  C15 UNL     1      -6.828  -3.724   0.591  1.00  0.00     0.147 C 
HETATM   37  C16 UNL     1      -6.161  -3.749  -0.735  1.00  0.00     0.035 C 
HETATM   38  C17 UNL     1      -4.718  -3.235  -0.697  1.00  0.00     0.012 C 
HETATM   39  C19 UNL     1      -5.678  -1.205  -1.254  1.00  0.00     0.016 C 
BRANCH  27  40
HETATM   40  C7  UNL     1      -4.461   2.015   1.160  1.00  0.00    -0.078 C 
HETATM   41  C8  UNL     1      -5.844   2.071   0.734  1.00  0.00     0.043 C 
HETATM   42  C9  UNL     1      -4.378   2.187   2.665  1.00  0.00     0.043 C 
ENDBRANCH  27  40
BRANCH  30  43
HETATM   43  O2  UNL     1      -4.035   2.834  -1.384  1.00  0.00    -0.358 OA
ATOM     44  H2  UNL     1      -4.771   3.100  -0.845  1.00  0.00     0.217 HD
ENDBRANCH  30  43
BRANCH  31  45
HETATM   45  O1  UNL     1      -1.969   2.067  -2.853  1.00  0.00    -0.353 OA
BRANCH  45  46
HETATM   46  C3  UNL     1      -1.461   3.395  -2.890  1.00  0.00     0.175 C 
BRANCH  46  47
HETATM   47  C2  UNL     1      -1.363   3.793  -4.348  1.00  0.00     0.022 C 
HETATM   48  C1  UNL     1      -0.817   5.220  -4.353  1.00  0.00     0.007 C 
ENDBRANCH  46  47
ENDBRANCH  45  46
ENDBRANCH  31  45
BRANCH  35  49
HETATM   49  O3  UNL     1      -5.054  -3.992   2.194  1.00  0.00    -0.393 OA
ATOM     50  H3  UNL     1      -5.495  -4.789   2.462  1.00  0.00     0.210 HD
ENDBRANCH  35  49
BRANCH  36  51
HETATM   51  O4  UNL     1      -8.135  -3.190   0.564  1.00  0.00    -0.393 OA
ATOM     52  H4  UNL     1      -8.701  -3.608  -0.074  1.00  0.00     0.210 HD
ENDBRANCH  36  51
ENDBRANCH  20  21
ENDBRANCH   1  20
TORSDOF 10
