REMARK  15 active torsions:
REMARK  status: ('A' for Active; 'I' for Inactive)
REMARK    1  A    between atoms: C4_4  and  N1_5 
REMARK    2  A    between atoms: N1_5  and  C5_7 
REMARK    3  A    between atoms: C6_10  and  N3_11 
REMARK    4  A    between atoms: N3_11  and  C7_13 
REMARK    5  A    between atoms: C7_13  and  C8_14 
REMARK    6  A    between atoms: C13_20  and  C14_21 
REMARK    7  A    between atoms: N4_24  and  C17_25 
REMARK    8  A    between atoms: C17_25  and  C18_26 
REMARK    9  A    between atoms: C18_26  and  C19_27 
REMARK   10  A    between atoms: C19_27  and  N5_28 
REMARK       I    between atoms: N5_28  and  C20_30 
REMARK   11  A    between atoms: C21_35  and  N8_36 
REMARK   12  A    between atoms: C22_45  and  N12_46 
REMARK   13  A    between atoms: N12_46  and  C23_48 
REMARK   14  A    between atoms: C23_48  and  C24_49 
REMARK   15  A    between atoms: C24_49  and  O2_50 
ROOT
HETATM    1  C5  UNL     1      -1.908   0.490   0.025  1.00  0.00     0.686 A 
HETATM    2  N2  UNL     1      -1.537   1.735   0.280  1.00  0.00    -0.174 N 
ATOM      3  H2  UNL     1      -2.182   2.518   0.386  1.00  0.00     0.186 HD
HETATM    4  C6  UNL     1      -0.166   1.836   0.383  1.00  0.00     0.146 A 
HETATM    5  C13 UNL     1       0.313   0.568   0.174  1.00  0.00     0.120 A 
HETATM    6  N10 UNL     1      -0.798  -0.219  -0.039  1.00  0.00    -0.185 N 
ATOM      7  H10 UNL     1      -0.766  -1.222  -0.223  1.00  0.00     0.184 HD
ENDROOT
BRANCH   5   8
HETATM    8  C14 UNL     1       1.669   0.066   0.169  1.00  0.00     0.081 A 
HETATM    9  C15 UNL     1       2.815   0.759   0.319  1.00  0.00     0.050 A 
HETATM   10  C16 UNL     1       4.078   0.119   0.261  1.00  0.00     0.111 A 
HETATM   11  N4  UNL     1       4.165  -1.194   0.053  1.00  0.00    -0.194 N 
HETATM   12  C21 UNL     1       3.009  -1.858  -0.094  1.00  0.00     0.678 A 
HETATM   13  N9  UNL     1       1.811  -1.265  -0.040  1.00  0.00    -0.190 N 
ATOM     14  H9  UNL     1       0.974  -1.836  -0.161  1.00  0.00     0.184 HD
BRANCH  11  15
HETATM   15  C17 UNL     1       5.454  -1.903  -0.013  1.00  0.00     0.148 C 
BRANCH  15  16
HETATM   16  C18 UNL     1       5.973  -1.951  -1.408  1.00  0.00     0.040 C 
BRANCH  16  17
HETATM   17  C19 UNL     1       7.275  -2.625  -1.615  1.00  0.00     0.124 C 
BRANCH  17  18
HETATM   18  N5  UNL     1       7.368  -3.999  -1.253  1.00  0.00    -0.365 N 
HETATM   19  C20 UNL     1       7.337  -4.551   0.032  1.00  0.00     0.181 C 
HETATM   20  N6  UNL     1       6.679  -5.628   0.256  1.00  0.00    -0.374 N 
HETATM   21  N7  UNL     1       8.027  -3.940   1.103  1.00  0.00    -0.064 NA
ATOM     22  H62 UNL     1       6.181  -6.069  -0.517  1.00  0.00     0.158 HD
ATOM     23  H61 UNL     1       6.656  -6.030   1.193  1.00  0.00     0.158 HD
ATOM     24  H5  UNL     1       7.469  -4.660  -2.023  1.00  0.00     0.162 HD
ENDBRANCH  17  18
ENDBRANCH  16  17
ENDBRANCH  15  16
ENDBRANCH  11  15
BRANCH  12  25
HETATM   25  N8  UNL     1       3.115  -3.138  -0.296  1.00  0.00    -0.234 N 
ATOM     26  H82 UNL     1       4.028  -3.590  -0.337  1.00  0.00     0.174 HD
ATOM     27  H81 UNL     1       2.236  -3.643  -0.408  1.00  0.00     0.174 HD
ENDBRANCH  12  25
ENDBRANCH   5   8
BRANCH   4  28
HETATM   28  N3  UNL     1       0.495   3.033   0.734  1.00  0.00    -0.374 N 
ATOM     29  H3  UNL     1       1.495   2.998   0.930  1.00  0.00     0.161 HD
BRANCH  28  30
HETATM   30  C7  UNL     1      -0.186   4.309   0.828  1.00  0.00     0.126 C 
BRANCH  30  31
HETATM   31  C8  UNL     1      -0.351   5.071  -0.428  1.00  0.00     0.007 C 
HETATM   32  C9  UNL     1      -1.121   4.470  -1.525  1.00  0.00     0.032 C 
HETATM   33  C10 UNL     1      -1.375   5.430  -2.673  1.00  0.00     0.168 C 
HETATM   34  O1  UNL     1      -1.651   6.714  -2.233  1.00  0.00    -0.391 OA
HETATM   35  C11 UNL     1      -0.735   7.261  -1.379  1.00  0.00     0.168 C 
HETATM   36  C12 UNL     1      -0.807   6.482  -0.079  1.00  0.00     0.032 C 
ENDBRANCH  30  31
ENDBRANCH  28  30
ENDBRANCH   4  28
BRANCH   1  37
HETATM   37  N1  UNL     1      -3.237   0.002  -0.150  1.00  0.00    -0.176 N 
ATOM     38  H1  UNL     1      -3.768   0.335  -0.955  1.00  0.00     0.186 HD
BRANCH  37  39
HETATM   39  C4  UNL     1      -3.807  -0.836   0.650  1.00  0.00     0.138 A 
HETATM   40  C3  UNL     1      -3.176  -1.342   1.761  1.00  0.00     0.074 A 
HETATM   41  C2  UNL     1      -3.860  -2.238   2.562  1.00  0.00     0.026 A 
HETATM   42  C1  UNL     1      -3.205  -2.811   3.779  1.00  0.00     0.069 C 
HETATM   43  N13 UNL     1      -5.104  -2.567   2.217  1.00  0.00    -0.196 N 
HETATM   44  C22 UNL     1      -5.730  -2.078   1.134  1.00  0.00     0.679 A 
ATOM     45  H13 UNL     1      -5.609  -3.227   2.808  1.00  0.00     0.184 HD
HETATM   46  N11 UNL     1      -5.076  -1.210   0.351  1.00  0.00    -0.176 N 
ATOM     47  H11 UNL     1      -5.535  -0.828  -0.476  1.00  0.00     0.186 HD
BRANCH  44  48
HETATM   48  N12 UNL     1      -6.929  -2.413   0.825  1.00  0.00    -0.224 N 
ATOM     49  H12 UNL     1      -7.441  -3.073   1.411  1.00  0.00     0.177 HD
BRANCH  48  50
HETATM   50  C23 UNL     1      -7.554  -1.856  -0.352  1.00  0.00     0.164 C 
BRANCH  50  51
HETATM   51  C24 UNL     1      -9.018  -2.268  -0.417  1.00  0.00     0.184 C 
BRANCH  51  52
HETATM   52  O2  UNL     1      -9.156  -3.640  -0.470  1.00  0.00    -0.399 OA
ATOM     53  H2  UNL     1     -10.070  -3.897  -0.511  1.00  0.00     0.209 HD
ENDBRANCH  51  52
ENDBRANCH  50  51
ENDBRANCH  48  50
ENDBRANCH  44  48
ENDBRANCH  37  39
ENDBRANCH   1  37
TORSDOF 15
