REMARK  15 active torsions:
REMARK  status: ('A' for Active; 'I' for Inactive)
REMARK    1  A    between atoms: C1_2  and  C2_4 
REMARK    2  A    between atoms: C2_4  and  C3_5 
REMARK    3  A    between atoms: C3_5  and  C4_6 
REMARK    4  A    between atoms: C4_6  and  C5_7 
REMARK    5  A    between atoms: C5_7  and  C6_8 
REMARK    6  A    between atoms: C6_8  and  N2_9 
REMARK    7  A    between atoms: N2_9  and  C7_11 
REMARK    8  A    between atoms: C7_11  and  N3_13 
REMARK    9  A    between atoms: C11_17  and  C12_18 
REMARK   10  A    between atoms: C12_18  and  N4_19 
REMARK       I    between atoms: N4_19  and  C13_21 
REMARK       I    between atoms: N6_23  and  C14_25 
REMARK       I    between atoms: C14_25  and  N7_27 
REMARK   11  A    between atoms: N7_27  and  C15_29 
REMARK   12  A    between atoms: C15_29  and  C16_30 
REMARK   13  A    between atoms: C16_30  and  C17_31 
REMARK   14  A    between atoms: C17_31  and  C18_32 
REMARK   15  A    between atoms: C18_32  and  C19_33 
ROOT
HETATM    1  N4  UNL     1       0.003  -2.647   0.704  1.00  0.00    -0.362 N 
ATOM      2  H4  UNL     1      -0.503  -3.383   1.197  1.00  0.00     0.162 HD
HETATM    3  C13 UNL     1      -0.708  -1.569   0.133  1.00  0.00     0.192 C 
HETATM    4  N5  UNL     1      -0.133  -0.723  -0.867  1.00  0.00    -0.063 NA
HETATM    5  N6  UNL     1      -1.914  -1.312   0.500  1.00  0.00    -0.283 N 
ATOM      6  H6  UNL     1      -2.360  -1.892   1.211  1.00  0.00     0.173 HD
HETATM    7  C14 UNL     1      -2.630  -0.231  -0.073  1.00  0.00     0.322 C 
HETATM    8  O2  UNL     1      -2.577  -0.143  -1.332  1.00  0.00    -0.247 OA
HETATM    9  N7  UNL     1      -3.336   0.658   0.764  1.00  0.00    -0.343 N 
ATOM     10  H7  UNL     1      -3.319   0.512   1.773  1.00  0.00     0.164 HD
ENDROOT
BRANCH   1  11
HETATM   11  C12 UNL     1       1.486  -2.717   0.591  1.00  0.00     0.147 C 
BRANCH  11  12
HETATM   12  C11 UNL     1       1.997  -1.613   1.418  1.00  0.00     0.104 C 
HETATM   13  N3  UNL     1       3.405  -1.377   1.543  1.00  0.00    -0.352 N 
HETATM   14  C8  UNL     1       3.446  -0.284   2.533  1.00  0.00     0.126 C 
HETATM   15  C9  UNL     1       2.274  -0.587   3.481  1.00  0.00     0.022 C 
HETATM   16  C10 UNL     1       1.645  -1.842   2.914  1.00  0.00     0.028 C 
BRANCH  13  17
HETATM   17  C7  UNL     1       4.500  -1.964   0.919  1.00  0.00     0.173 C 
HETATM   18  S1  UNL     1       4.102  -3.212  -0.154  1.00  0.00    -0.041 SA
BRANCH  17  19
HETATM   19  N2  UNL     1       5.877  -1.740   0.989  1.00  0.00    -0.347 N 
ATOM     20  H2  UNL     1       6.404  -2.387   0.402  1.00  0.00     0.167 HD
BRANCH  19  21
HETATM   21  C6  UNL     1       6.714  -0.838   1.673  1.00  0.00     0.063 C 
BRANCH  21  22
HETATM   22  C5  UNL     1       6.740   0.577   1.221  1.00  0.00     0.044 C 
BRANCH  22  23
HETATM   23  C4  UNL     1       7.201   0.718  -0.224  1.00  0.00     0.006 C 
BRANCH  23  24
HETATM   24  C3  UNL     1       8.569   0.184  -0.445  1.00  0.00     0.009 C 
BRANCH  24  25
HETATM   25  C2  UNL     1       8.972   0.352  -1.879  1.00  0.00     0.099 C 
BRANCH  25  26
HETATM   26  C1  UNL     1       9.037   1.747  -2.347  1.00  0.00     0.231 C 
HETATM   27  N1  UNL     1       9.190   2.060  -3.748  1.00  0.00    -0.062 NA
HETATM   28  O1  UNL     1       8.970   2.757  -1.601  1.00  0.00    -0.277 OA
ENDBRANCH  25  26
ENDBRANCH  24  25
ENDBRANCH  23  24
ENDBRANCH  22  23
ENDBRANCH  21  22
ENDBRANCH  19  21
ENDBRANCH  17  19
ENDBRANCH  13  17
ENDBRANCH  11  12
ENDBRANCH   1  11
BRANCH   9  29
HETATM   29  C15 UNL     1      -4.083   1.771   0.225  1.00  0.00     0.124 C 
BRANCH  29  30
HETATM   30  C16 UNL     1      -5.199   1.362  -0.702  1.00  0.00     0.020 C 
BRANCH  30  31
HETATM   31  C17 UNL     1      -6.191   0.484   0.028  1.00  0.00     0.002 C 
BRANCH  31  32
HETATM   32  C18 UNL     1      -7.321   0.045  -0.839  1.00  0.00     0.005 C 
BRANCH  32  33
HETATM   33  C19 UNL     1      -8.148   1.143  -1.424  1.00  0.00    -0.014 C 
HETATM   34  C20 UNL     1      -8.794   2.011  -0.372  1.00  0.00     0.004 C 
HETATM   35  C21 UNL     1     -10.040   1.271   0.067  1.00  0.00     0.000 C 
HETATM   36  C22 UNL     1     -10.252   0.154  -0.922  1.00  0.00     0.000 C 
HETATM   37  C23 UNL     1      -9.356   0.483  -2.096  1.00  0.00     0.004 C 
ENDBRANCH  32  33
ENDBRANCH  31  32
ENDBRANCH  30  31
ENDBRANCH  29  30
ENDBRANCH   9  29
TORSDOF 15
