REMARK  17 active torsions:
REMARK  status: ('A' for Active; 'I' for Inactive)
REMARK       I    between atoms: C1_4  and  N3_6 
REMARK    1  A    between atoms: C5_10  and  C6_11 
REMARK    2  A    between atoms: C6_11  and  O1_12 
REMARK    3  A    between atoms: C6_11  and  N4_14 
REMARK    4  A    between atoms: N4_14  and  C7_17 
REMARK    5  A    between atoms: C7_17  and  C8_18 
REMARK    6  A    between atoms: C8_18  and  C9_19 
REMARK    7  A    between atoms: C9_19  and  C10_20 
REMARK    8  A    between atoms: C10_20  and  O2_21 
REMARK    9  A    between atoms: C10_20  and  N5_23 
REMARK   10  A    between atoms: N5_23  and  C11_24 
REMARK   11  A    between atoms: C11_24  and  C12_25 
REMARK   12  A    between atoms: C12_25  and  C13_26 
REMARK   13  A    between atoms: C13_26  and  C14_27 
REMARK       I    between atoms: C14_27  and  N6_29 
REMARK   14  A    between atoms: N6_29  and  C15_30 
REMARK   15  A    between atoms: C15_30  and  C16_31 
REMARK   16  A    between atoms: C16_31  and  C17_32 
REMARK   17  A    between atoms: C17_32  and  C18_33 
ROOT
HETATM    1  C10 UNL     1      -2.895  -1.109   1.271  1.00  0.00     0.183 C 
ENDROOT
BRANCH   1   2
HETATM    2  C9  UNL     1      -3.425   0.154   1.804  1.00  0.00     0.101 C 
BRANCH   2   3
HETATM    3  C8  UNL     1      -4.692   0.443   0.952  1.00  0.00     0.036 C 
BRANCH   3   4
HETATM    4  C7  UNL     1      -5.524   1.543   1.414  1.00  0.00     0.236 C 
BRANCH   4   5
HETATM    5  N4  UNL     1      -6.806   1.358   0.534  1.00  0.00    -0.047 N 
ATOM      6  H42 UNL     1      -6.581   1.433  -0.458  1.00  0.00     0.280 HD
ATOM      7  H41 UNL     1      -7.429   2.161   0.625  1.00  0.00     0.280 HD
BRANCH   5   8
HETATM    8  C6  UNL     1      -7.491   0.156   0.805  1.00  0.00     0.341 C 
BRANCH   8   9
HETATM    9  C5  UNL     1      -8.665  -0.323   0.110  1.00  0.00     0.143 C 
HETATM   10  N3  UNL     1      -9.671   0.621  -0.240  1.00  0.00    -0.347 N 
HETATM   11  C1  UNL     1     -10.497   1.359   0.641  1.00  0.00     0.184 C 
HETATM   12  C2  UNL     1      -9.823   0.704  -1.694  1.00  0.00     0.126 C 
HETATM   13  N1  UNL     1     -11.106   0.771   1.600  1.00  0.00    -0.374 N 
HETATM   14  N2  UNL     1     -10.644   2.797   0.481  1.00  0.00    -0.064 NA
ATOM     15  H12 UNL     1     -11.701   1.303   2.235  1.00  0.00     0.158 HD
ATOM     16  H11 UNL     1     -11.003  -0.238   1.712  1.00  0.00     0.158 HD
HETATM   17  C3  UNL     1      -9.449  -0.742  -2.092  1.00  0.00     0.022 C 
HETATM   18  C4  UNL     1      -8.226  -0.942  -1.246  1.00  0.00     0.031 C 
ENDBRANCH   8   9
BRANCH   8  19
HETATM   19  O1  UNL     1      -7.007  -0.590   1.774  1.00  0.00    -0.368 OA
ATOM     20  H1  UNL     1      -6.236  -0.275   2.231  1.00  0.00     0.212 HD
ENDBRANCH   8  19
ENDBRANCH   5   8
ENDBRANCH   4   5
ENDBRANCH   3   4
ENDBRANCH   2   3
ENDBRANCH   1   2
BRANCH   1  21
HETATM   21  O2  UNL     1      -4.001  -1.933   1.092  1.00  0.00    -0.339 OA
ATOM     22  H2  UNL     1      -3.658  -2.749   0.747  1.00  0.00     0.220 HD
ENDBRANCH   1  21
BRANCH   1  23
HETATM   23  N5  UNL     1      -1.812  -1.692   0.903  1.00  0.00    -0.429 NA
BRANCH  23  24
HETATM   24  C11 UNL     1      -0.613  -2.339   0.495  1.00  0.00     0.221 C 
BRANCH  24  25
HETATM   25  C12 UNL     1       0.449  -1.270   0.560  1.00  0.00     0.044 C 
BRANCH  25  26
HETATM   26  C13 UNL     1       1.780  -1.503  -0.015  1.00  0.00     0.121 C 
BRANCH  26  27
HETATM   27  C14 UNL     1       2.604  -0.186   0.343  1.00  0.00     0.286 C 
HETATM   28  O3  UNL     1       2.497   0.087   1.587  1.00  0.00    -0.258 OA
HETATM   29  N6  UNL     1       3.222   0.394  -0.648  1.00  0.00    -0.415 NA
BRANCH  29  30
HETATM   30  C15 UNL     1       3.898   1.039  -1.709  1.00  0.00     0.221 C 
BRANCH  30  31
HETATM   31  C16 UNL     1       5.370   1.311  -1.388  1.00  0.00     0.034 C 
BRANCH  31  32
HETATM   32  C17 UNL     1       5.980  -0.013  -1.033  1.00  0.00     0.012 C 
BRANCH  32  33
HETATM   33  C18 UNL     1       7.385   0.055  -0.603  1.00  0.00    -0.036 C 
HETATM   34  C19 UNL     1       8.382   0.560  -1.607  1.00  0.00     0.014 C 
HETATM   35  C20 UNL     1       9.659  -0.088  -1.071  1.00  0.00    -0.013 C 
HETATM   36  C21 UNL     1      10.000   0.519   0.263  1.00  0.00     0.009 C 
HETATM   37  C25 UNL     1       9.160  -1.533  -0.912  1.00  0.00     0.010 C 
HETATM   38  C22 UNL     1       8.811   0.467   1.199  1.00  0.00    -0.013 C 
HETATM   39  C23 UNL     1       8.399  -0.990   1.337  1.00  0.00     0.010 C 
HETATM   40  C26 UNL     1       7.539   1.018   0.598  1.00  0.00     0.014 C 
HETATM   41  C24 UNL     1       7.933  -1.270  -0.070  1.00  0.00    -0.005 C 
ENDBRANCH  32  33
ENDBRANCH  31  32
ENDBRANCH  30  31
ENDBRANCH  29  30
ENDBRANCH  26  27
ENDBRANCH  25  26
ENDBRANCH  24  25
ENDBRANCH  23  24
ENDBRANCH   1  23
TORSDOF 17
