REMARK  1 active torsions:
REMARK  status: ('A' for Active; 'I' for Inactive)
REMARK    1  A    between atoms: C2_2  and  C3_3 
ROOT
HETATM    1  C3  UNL     1      -0.867  -0.208   0.009  1.00  0.00     0.050 A 
HETATM    2  C4  UNL     1      -0.623  -1.450   0.553  1.00  0.00     0.119 A 
HETATM    3  N1  UNL     1       0.705  -1.542   0.709  1.00  0.00    -0.354 N 
ATOM      4  H1  UNL     1       1.190  -2.353   1.093  1.00  0.00     0.166 HD
HETATM    5  C5  UNL     1       1.314  -0.407   0.286  1.00  0.00     0.079 A 
HETATM    6  C6  UNL     1       2.784  -0.110   0.291  1.00  0.00     0.089 C 
HETATM    7  N2  UNL     1       0.321   0.388  -0.136  1.00  0.00    -0.340 N 
HETATM    8  C7  UNL     1       0.534   1.730  -0.682  1.00  0.00     0.158 C 
ENDROOT
BRANCH   1   9
HETATM    9  C2  UNL     1      -2.186   0.352  -0.343  1.00  0.00     0.021 C 
HETATM   10  C1  UNL     1      -3.277  -0.355  -0.143  1.00  0.00     0.013 C 
ENDBRANCH   1   9
TORSDOF 1
