REMARK  11 active torsions:
REMARK  status: ('A' for Active; 'I' for Inactive)
REMARK    1  A    between atoms: C2_2  and  C4_4 
REMARK    2  A    between atoms: C4_4  and  C5_5 
REMARK    3  A    between atoms: C5_5  and  C6_6 
REMARK    4  A    between atoms: C5_5  and  C26_30 
REMARK    5  A    between atoms: C6_6  and  C7_7 
REMARK    6  A    between atoms: C7_7  and  C8_8 
REMARK    7  A    between atoms: C8_8  and  C10_10 
REMARK    8  A    between atoms: C15_15  and  O1_16 
REMARK    9  A    between atoms: C18_20  and  O2_21 
REMARK   10  A    between atoms: C26_30  and  O4_32 
REMARK   11  A    between atoms: O4_32  and  S1_33 
ROOT
HETATM    1  C10 UNL     1       0.166  -0.341   0.327  1.00  0.00    -0.002 C 
HETATM    2  C11 UNL     1      -0.096   0.619   1.499  1.00  0.00     0.006 C 
HETATM    3  C12 UNL     1       1.315   1.047   1.981  1.00  0.00     0.006 C 
HETATM    4  C13 UNL     1       1.955   1.067   0.664  1.00  0.00     0.001 C 
HETATM    5  C14 UNL     1       3.352   1.306   0.408  1.00  0.00     0.024 C 
HETATM    6  C15 UNL     1       4.275   1.371   1.566  1.00  0.00     0.123 C 
HETATM    7  C16 UNL     1       5.563   0.650   1.477  1.00  0.00     0.039 C 
HETATM    8  C17 UNL     1       5.955   0.312   0.082  1.00  0.00     0.021 C 
HETATM    9  C18 UNL     1       7.116  -0.618  -0.028  1.00  0.00     0.122 C 
HETATM   10  C19 UNL     1       6.932  -1.209  -1.423  1.00  0.00     0.032 C 
HETATM   11  C20 UNL     1       5.454  -1.044  -1.752  1.00  0.00     0.008 C 
HETATM   12  C21 UNL     1       4.814  -0.575  -0.440  1.00  0.00    -0.003 C 
HETATM   13  C22 UNL     1       3.666   0.328  -0.688  1.00  0.00    -0.002 C 
HETATM   14  C23 UNL     1       2.363  -0.433  -1.004  1.00  0.00     0.015 C 
HETATM   15  C24 UNL     1       1.603  -0.368   0.220  1.00  0.00    -0.036 C 
HETATM   16  C25 UNL     1       2.160  -1.389   1.187  1.00  0.00     0.016 C 
ENDROOT
BRANCH   1  17
HETATM   17  C8  UNL     1      -0.734  -0.143  -0.814  1.00  0.00    -0.014 C 
HETATM   18  C9  UNL     1      -0.767   1.126  -1.549  1.00  0.00     0.010 C 
BRANCH  17  19
HETATM   19  C7  UNL     1      -2.153  -0.381  -0.274  1.00  0.00     0.005 C 
BRANCH  19  20
HETATM   20  C6  UNL     1      -3.189  -0.470  -1.343  1.00  0.00     0.015 C 
BRANCH  20  21
HETATM   21  C5  UNL     1      -4.513  -0.715  -0.600  1.00  0.00     0.087 C 
BRANCH  21  22
HETATM   22  C4  UNL     1      -5.661  -0.828  -1.570  1.00  0.00     0.018 C 
BRANCH  22  23
HETATM   23  C2  UNL     1      -6.907  -1.066  -0.740  1.00  0.00    -0.022 C 
HETATM   24  C1  UNL     1      -8.115  -1.191  -1.648  1.00  0.00     0.009 C 
HETATM   25  C3  UNL     1      -6.761  -2.344   0.072  1.00  0.00     0.009 C 
ENDBRANCH  22  23
ENDBRANCH  21  22
BRANCH  21  26
HETATM   26  C26 UNL     1      -4.738   0.350   0.394  1.00  0.00     0.280 C 
HETATM   27  O3  UNL     1      -4.768   0.037   1.609  1.00  0.00    -0.264 OA
BRANCH  26  28
HETATM   28  O4  UNL     1      -4.919   1.682   0.064  1.00  0.00    -0.177 OA
BRANCH  28  29
HETATM   29  S1  UNL     1      -5.177   2.890   1.228  1.00  0.00     0.259 S 
HETATM   30  O5  UNL     1      -4.564   2.542   2.555  1.00  0.00    -0.572 OA
HETATM   31  O6  UNL     1      -4.530   4.154   0.738  1.00  0.00    -0.572 OA
HETATM   32  O7  UNL     1      -6.804   3.192   1.475  1.00  0.00    -0.572 OA
ENDBRANCH  28  29
ENDBRANCH  26  28
ENDBRANCH  21  26
ENDBRANCH  20  21
ENDBRANCH  19  20
ENDBRANCH  17  19
ENDBRANCH   1  17
BRANCH   6  33
HETATM   33  O1  UNL     1       4.625   2.716   1.890  1.00  0.00    -0.395 OA
ATOM     34  H1  UNL     1       5.217   2.758   2.632  1.00  0.00     0.210 HD
ENDBRANCH   6  33
BRANCH   9  35
HETATM   35  O2  UNL     1       8.347  -0.022   0.133  1.00  0.00    -0.395 OA
ATOM     36  H2  UNL     1       9.086  -0.614   0.063  1.00  0.00     0.210 HD
ENDBRANCH   9  35
TORSDOF 11
