REMARK  8 active torsions:
REMARK  status: ('A' for Active; 'I' for Inactive)
REMARK    1  A    between atoms: C2_2  and  C11_21 
REMARK       I    between atoms: N1_3  and  C3_5 
REMARK    2  A    between atoms: C3_5  and  C4_7 
REMARK    3  A    between atoms: C4_7  and  N2_9 
REMARK    4  A    between atoms: N2_9  and  S1_11 
REMARK    5  A    between atoms: S1_11  and  C6_14 
REMARK    6  A    between atoms: C6_14  and  C7_15 
REMARK    7  A    between atoms: C7_15  and  C8_16 
REMARK    8  A    between atoms: C11_21  and  C13_23 
ROOT
HETATM    1  C4  UNL     1      -0.521  -1.129   1.555  1.00  0.00     0.180 C 
HETATM    2  C5  UNL     1      -0.141  -2.603   1.541  1.00  0.00     0.043 C 
ENDROOT
BRANCH   1   3
HETATM    3  C3  UNL     1      -1.977  -0.949   1.747  1.00  0.00     0.244 C 
HETATM    4  N1  UNL     1      -2.858  -1.477   0.838  1.00  0.00    -0.332 N 
HETATM    5  C2  UNL     1      -3.637  -1.087  -0.031  1.00  0.00    -0.000 C 
ATOM      6  H1  UNL     1      -2.871  -2.495   0.901  1.00  0.00     0.168 HD
HETATM    7  C1  UNL     1      -4.403  -2.177  -0.773  1.00  0.00     0.064 C 
HETATM    8  O1  UNL     1      -2.376  -0.311   2.748  1.00  0.00    -0.271 OA
BRANCH   5   9
HETATM    9  C11 UNL     1      -3.963   0.281  -0.484  1.00  0.00     0.128 C 
HETATM   10  C12 UNL     1      -3.218   1.370   0.209  1.00  0.00     0.027 C 
BRANCH   9  11
HETATM   11  C13 UNL     1      -5.414   0.502  -0.320  1.00  0.00     0.182 C 
HETATM   12  O4  UNL     1      -5.829   1.406   0.429  1.00  0.00    -0.647 OA
HETATM   13  O5  UNL     1      -6.310  -0.293  -0.996  1.00  0.00    -0.647 OA
ENDBRANCH   9  11
ENDBRANCH   5   9
ENDBRANCH   1   3
BRANCH   1  14
HETATM   14  N2  UNL     1       0.187  -0.503   2.633  1.00  0.00    -0.306 N 
ATOM     15  H2  UNL     1       0.075  -0.755   3.615  1.00  0.00     0.173 HD
BRANCH  14  16
HETATM   16  S1  UNL     1       1.239   0.716   2.070  1.00  0.00     0.227 S 
HETATM   17  O2  UNL     1       1.959   1.381   3.231  1.00  0.00    -0.206 OA
HETATM   18  O3  UNL     1       0.515   1.761   1.278  1.00  0.00    -0.206 OA
BRANCH  16  19
HETATM   19  C6  UNL     1       2.465  -0.013   0.982  1.00  0.00     0.164 C 
BRANCH  19  20
HETATM   20  C7  UNL     1       3.363   1.115   0.518  1.00  0.00     0.033 C 
BRANCH  20  21
HETATM   21  C8  UNL     1       4.439   0.603  -0.409  1.00  0.00     0.060 C 
HETATM   22  C9  UNL     1       5.278   1.788  -0.816  1.00  0.00     0.027 C 
HETATM   23  C10 UNL     1       6.234   1.355  -1.901  1.00  0.00     0.087 C 
HETATM   24  S2  UNL     1       5.157   0.763  -3.275  1.00  0.00    -0.097 SA
HETATM   25  S3  UNL     1       3.582   0.081  -1.953  1.00  0.00    -0.093 SA
ENDBRANCH  20  21
ENDBRANCH  19  20
ENDBRANCH  16  19
ENDBRANCH  14  16
ENDBRANCH   1  14
TORSDOF 8
