REMARK  5 active torsions:
REMARK  status: ('A' for Active; 'I' for Inactive)
REMARK    1  A    between atoms: C2_3  and  O1_4 
REMARK    2  A    between atoms: C3_6  and  C4_7 
REMARK    3  A    between atoms: C4_7  and  C7_14 
REMARK    4  A    between atoms: N2_8  and  C5_10 
REMARK    5  A    between atoms: C5_10  and  C6_11 
ROOT
HETATM    1  C1  UNL     1       3.771  -0.894  -1.592  1.00  0.00     0.159 C 
HETATM    2  N1  UNL     1       2.814  -0.443  -0.570  1.00  0.00    -0.321 N 
HETATM    3  C2  UNL     1       1.504  -0.339  -0.848  1.00  0.00     0.157 A 
HETATM    4  C3  UNL     1       0.584   0.081   0.099  1.00  0.00     0.060 A 
HETATM    5  C10 UNL     1       1.005   0.414   1.381  1.00  0.00     0.085 A 
HETATM    6  C11 UNL     1       0.153   0.830   2.457  1.00  0.00     0.102 C 
HETATM    7  N3  UNL     1      -0.507   1.158   3.362  1.00  0.00    -0.191 NA
HETATM    8  C12 UNL     1       2.381   0.299   1.645  1.00  0.00     0.104 A 
HETATM    9  C13 UNL     1       2.846   0.640   2.969  1.00  0.00     0.104 C 
HETATM   10  N4  UNL     1       3.233   0.906   4.035  1.00  0.00    -0.191 NA
HETATM   11  C14 UNL     1       3.231  -0.125   0.660  1.00  0.00     0.127 A 
HETATM   12  S1  UNL     1       4.838  -0.253   0.994  1.00  0.00    -0.059 SA
ENDROOT
BRANCH   4  13
HETATM   13  C4  UNL     1      -0.861   0.101  -0.167  1.00  0.00     0.025 C 
HETATM   14  N2  UNL     1      -1.647   0.616   0.678  1.00  0.00    -0.382 N 
ATOM     15  H2  UNL     1      -1.183   0.986   1.508  1.00  0.00     0.160 HD
BRANCH  14  16
HETATM   16  C5  UNL     1      -3.053   0.773   0.682  1.00  0.00     0.232 C 
BRANCH  16  17
HETATM   17  C6  UNL     1      -3.353   2.205   1.075  1.00  0.00     0.191 C 
HETATM   18  O2  UNL     1      -4.548   2.494   1.250  1.00  0.00    -0.647 OA
HETATM   19  O3  UNL     1      -2.394   3.170   1.240  1.00  0.00    -0.647 OA
ENDBRANCH  16  17
ENDBRANCH  14  16
BRANCH  13  20
HETATM   20  C7  UNL     1      -1.395  -0.611  -1.386  1.00  0.00     0.036 A 
HETATM   21  C8  UNL     1      -1.251  -2.091  -1.412  1.00  0.00     0.011 A 
HETATM   22  C9  UNL     1      -2.601  -1.472  -1.284  1.00  0.00     0.011 A 
ENDBRANCH  13  20
ENDBRANCH   4  13
BRANCH   3  23
HETATM   23  O1  UNL     1       1.086  -0.658  -2.122  1.00  0.00    -0.345 OA
ATOM     24  H1  UNL     1       0.159  -0.584  -2.319  1.00  0.00     0.219 HD
ENDBRANCH   3  23
TORSDOF 5
