REMARK  12 active torsions:
REMARK  status: ('A' for Active; 'I' for Inactive)
REMARK    1  A    between atoms: C2_2  and  C4_4 
REMARK    2  A    between atoms: C11_12  and  C12_13 
REMARK    3  A    between atoms: C12_13  and  O2_15 
REMARK    4  A    between atoms: C12_13  and  C14_17 
REMARK    5  A    between atoms: C15_18  and  C16_19 
REMARK    6  A    between atoms: C16_19  and  O3_20 
REMARK    7  A    between atoms: C16_19  and  C18_24 
REMARK    8  A    between atoms: O3_20  and  C17_21 
REMARK    9  A    between atoms: C18_24  and  O5_25 
REMARK   10  A    between atoms: C18_24  and  C19_27 
REMARK   11  A    between atoms: C19_27  and  C20_28 
REMARK   12  A    between atoms: C20_28  and  C22_30 
ROOT
HETATM    1  C12 UNL     1      -0.477   1.437  -0.055  1.00  0.00     0.079 C 
HETATM    2  C13 UNL     1      -0.053   2.633  -0.911  1.00  0.00     0.051 C 
ENDROOT
BRANCH   1   3
HETATM    3  C11 UNL     1      -1.963   1.185  -0.390  1.00  0.00     0.066 A 
HETATM    4  C7  UNL     1      -2.577   0.060   0.390  1.00  0.00     0.011 A 
HETATM    5  C6  UNL     1      -3.613   1.006   0.905  1.00  0.00     0.029 A 
HETATM    6  C8  UNL     1      -3.030  -1.024  -0.493  1.00  0.00     0.044 C 
HETATM    7  C5  UNL     1      -5.026   0.689   0.632  1.00  0.00     0.019 C 
HETATM    8  C24 UNL     1      -2.965   2.110   0.116  1.00  0.00     0.093 A 
HETATM    9  C4  UNL     1      -5.320  -0.768   0.493  1.00  0.00     0.043 C 
HETATM   10  C10 UNL     1      -4.471  -1.308  -0.608  1.00  0.00     0.136 C 
HETATM   11  O1  UNL     1      -4.302  -2.685  -0.462  1.00  0.00    -0.384 OA
HETATM   12  C9  UNL     1      -3.086  -2.421   0.138  1.00  0.00     0.175 C 
HETATM   13  C25 UNL     1      -3.612   3.114  -0.573  1.00  0.00     0.207 A 
HETATM   14  O6  UNL     1      -2.749   3.348   0.614  1.00  0.00    -0.374 OA
BRANCH   9  15
HETATM   15  C2  UNL     1      -6.749  -0.963   0.155  1.00  0.00    -0.086 C 
HETATM   16  C1  UNL     1      -7.568   0.072   0.044  1.00  0.00     0.014 C 
HETATM   17  C3  UNL     1      -7.245  -2.345  -0.058  1.00  0.00     0.043 C 
ENDBRANCH   9  15
ENDBRANCH   1   3
BRANCH   1  18
HETATM   18  O2  UNL     1      -0.407   1.839   1.267  1.00  0.00    -0.386 OA
ATOM     19  H2  UNL     1       0.507   1.994   1.473  1.00  0.00     0.211 HD
ENDBRANCH   1  18
BRANCH   1  20
HETATM   20  C14 UNL     1       0.208   0.181  -0.354  1.00  0.00     0.009 C 
HETATM   21  C15 UNL     1       1.592  -0.163  -0.160  1.00  0.00     0.007 C 
BRANCH  21  22
HETATM   22  C16 UNL     1       2.754   0.423  -0.792  1.00  0.00     0.184 C 
BRANCH  22  23
HETATM   23  O3  UNL     1       3.046   1.721  -0.618  1.00  0.00    -0.294 OA
BRANCH  23  24
HETATM   24  C17 UNL     1       3.461   2.587  -1.622  1.00  0.00     0.373 C 
HETATM   25  N1  UNL     1       3.771   3.946  -1.461  1.00  0.00    -0.032 NA
HETATM   26  O4  UNL     1       3.541   2.045  -2.721  1.00  0.00    -0.242 OA
ENDBRANCH  23  24
ENDBRANCH  22  23
BRANCH  22  27
HETATM   27  C18 UNL     1       4.004  -0.490  -0.517  1.00  0.00     0.151 C 
BRANCH  27  28
HETATM   28  O5  UNL     1       3.544  -1.783  -0.737  1.00  0.00    -0.393 OA
ATOM     29  H5  UNL     1       4.299  -2.335  -0.571  1.00  0.00     0.210 HD
ENDBRANCH  27  28
BRANCH  27  30
HETATM   30  C19 UNL     1       4.449  -0.406   0.895  1.00  0.00     0.039 C 
BRANCH  30  31
HETATM   31  C20 UNL     1       5.645  -1.261   1.180  1.00  0.00    -0.016 C 
HETATM   32  C21 UNL     1       5.406  -2.721   0.919  1.00  0.00     0.010 C 
BRANCH  31  33
HETATM   33  C22 UNL     1       6.877  -0.840   0.422  1.00  0.00    -0.000 C 
HETATM   34  C23 UNL     1       8.033  -1.748   0.763  1.00  0.00     0.005 C 
ENDBRANCH  31  33
ENDBRANCH  30  31
ENDBRANCH  27  30
ENDBRANCH  22  27
ENDBRANCH  21  22
ENDBRANCH   1  20
TORSDOF 12
