REMARK  2 active torsions:
REMARK  status: ('A' for Active; 'I' for Inactive)
REMARK    1  A    between atoms: N1_1  and  C1_5 
REMARK    2  A    between atoms: C4_10  and  N2_11 
ROOT
HETATM    1  C1  UNL     1      -0.650  -0.063  -0.396  1.00  0.00     0.241 C 
HETATM    2  C2  UNL     1      -0.252  -1.544  -0.319  1.00  0.00     0.205 C 
HETATM    3  O1  UNL     1       1.111  -1.453  -0.594  1.00  0.00    -0.366 OA
HETATM    4  C3  UNL     1       1.612  -0.373   0.084  1.00  0.00     0.249 C 
HETATM    5 CL1  UNL     1       2.706   0.615  -0.930  1.00  0.00    -0.093 Cl
HETATM    6  C4  UNL     1       0.448   0.508   0.482  1.00  0.00     0.259 C 
ENDROOT
BRANCH   1   7
HETATM    7  N1  UNL     1      -1.962   0.178   0.101  1.00  0.00    -0.071 N 
ATOM      8  H13 UNL     1      -2.647  -0.411  -0.373  1.00  0.00     0.274 HD
ATOM      9  H12 UNL     1      -2.066  -0.180   1.050  1.00  0.00     0.274 HD
ATOM     10  H11 UNL     1      -2.226   1.162   0.050  1.00  0.00     0.274 HD
ENDBRANCH   1   7
BRANCH   6  11
HETATM   11  N2  UNL     1       0.678   1.895   0.285  1.00  0.00    -0.069 N 
ATOM     12  H23 UNL     1       0.866   2.092  -0.698  1.00  0.00     0.275 HD
ATOM     13  H22 UNL     1      -0.187   2.423   0.403  1.00  0.00     0.275 HD
ATOM     14  H21 UNL     1       1.416   2.279   0.875  1.00  0.00     0.275 HD
ENDBRANCH   6  11
TORSDOF 2
