REMARK  9 active torsions:
REMARK  status: ('A' for Active; 'I' for Inactive)
REMARK    1  A    between atoms: O1_2  and  C2_3 
REMARK    2  A    between atoms: C3_5  and  C4_6 
REMARK    3  A    between atoms: C4_6  and  N1_7 
REMARK    4  A    between atoms: N1_7  and  C5_9 
REMARK    5  A    between atoms: C5_9  and  C6_10 
REMARK    6  A    between atoms: C11_16  and  O3_17 
REMARK    7  A    between atoms: C12_19  and  O4_20 
REMARK    8  A    between atoms: C13_22  and  O5_23 
REMARK    9  A    between atoms: C14_25  and  C16_28 
ROOT
HETATM    1  C2  UNL     1      -2.247   0.703   0.884  1.00  0.00     0.299 C 
HETATM    2  O2  UNL     1      -1.080   0.019   1.178  1.00  0.00    -0.318 OA
HETATM    3  C3  UNL     1      -0.855  -1.112   0.539  1.00  0.00     0.096 C 
HETATM    4  C12 UNL     1      -1.329  -1.175  -0.891  1.00  0.00     0.207 C 
HETATM    5  C13 UNL     1      -2.741  -0.756  -1.045  1.00  0.00     0.190 C 
HETATM    6  C14 UNL     1      -3.304  -0.034   0.174  1.00  0.00     0.223 C 
HETATM    7  C15 UNL     1      -3.999  -0.993   1.013  1.00  0.00     0.086 C 
HETATM    8  N2  UNL     1      -4.578  -1.783   1.671  1.00  0.00    -0.196 NA
ENDROOT
BRANCH   6   9
HETATM    9  C16 UNL     1      -4.382   0.920  -0.405  1.00  0.00     0.415 C 
HETATM   10  F1  UNL     1      -3.843   1.801  -1.299  1.00  0.00    -0.169 F 
HETATM   11  F2  UNL     1      -5.262   0.102  -1.114  1.00  0.00    -0.169 F 
HETATM   12  F3  UNL     1      -5.100   1.488   0.591  1.00  0.00    -0.169 F 
ENDBRANCH   6   9
BRANCH   1  13
HETATM   13  O1  UNL     1      -1.979   1.946   0.319  1.00  0.00    -0.363 OA
HETATM   14  C1  UNL     1      -2.049   3.029   1.130  1.00  0.00     0.204 C 
ENDBRANCH   1  13
BRANCH   5  15
HETATM   15  O5  UNL     1      -3.531  -1.902  -1.300  1.00  0.00    -0.390 OA
ATOM     16  H5  UNL     1      -4.437  -1.633  -1.399  1.00  0.00     0.210 HD
ENDBRANCH   5  15
BRANCH   4  17
HETATM   17  O4  UNL     1      -1.315  -2.571  -1.286  1.00  0.00    -0.386 OA
ATOM     18  H4  UNL     1      -1.614  -2.611  -2.187  1.00  0.00     0.210 HD
ENDBRANCH   4  17
BRANCH   3  19
HETATM   19  C4  UNL     1       0.446  -1.865   0.682  1.00  0.00     0.122 C 
BRANCH  19  20
HETATM   20  N1  UNL     1       1.621  -1.141   0.563  1.00  0.00    -0.372 N 
ATOM     21  H1  UNL     1       2.267  -1.139   1.352  1.00  0.00     0.164 HD
BRANCH  20  22
HETATM   22  C5  UNL     1       1.968  -0.418  -0.569  1.00  0.00     0.101 C 
BRANCH  22  23
HETATM   23  C6  UNL     1       3.427  -0.053  -0.453  1.00  0.00     0.014 A 
HETATM   24  C7  UNL     1       4.365  -0.956  -0.948  1.00  0.00     0.039 A 
HETATM   25  C8  UNL     1       5.678  -0.561  -1.086  1.00  0.00     0.035 A 
HETATM   26 CL1  UNL     1       6.830  -1.669  -1.744  1.00  0.00    -0.084 Cl
HETATM   27  C9  UNL     1       6.066   0.762  -0.714  1.00  0.00     0.026 A 
HETATM   28  C10 UNL     1       5.144   1.640  -0.221  1.00  0.00     0.039 A 
HETATM   29  C11 UNL     1       3.820   1.232  -0.089  1.00  0.00     0.077 A 
BRANCH  29  30
HETATM   30  O3  UNL     1       2.926   2.089   0.404  1.00  0.00    -0.360 OA
ATOM     31  H3  UNL     1       3.194   2.966   0.652  1.00  0.00     0.217 HD
ENDBRANCH  29  30
ENDBRANCH  22  23
ENDBRANCH  20  22
ENDBRANCH  19  20
ENDBRANCH   3  19
TORSDOF 9
