REMARK  3 active torsions:
REMARK  status: ('A' for Active; 'I' for Inactive)
REMARK    1  A    between atoms: C3_3  and  C4_4 
REMARK    2  A    between atoms: C5_5  and  C6_6 
REMARK    3  A    between atoms: C7_7  and  N1_8 
ROOT
HETATM    1  C1  UNL     1      -4.536  -1.241  -0.554  1.00  0.00     0.113 C 
HETATM    2  C2  UNL     1      -3.243  -0.553  -0.333  1.00  0.00    -0.097 C 
HETATM    3  C3  UNL     1      -2.195   0.021  -0.157  1.00  0.00    -0.015 C 
ENDROOT
BRANCH   3   4
HETATM    4  C4  UNL     1      -0.979   0.714   0.050  1.00  0.00    -0.010 C 
HETATM    5  C5  UNL     1       0.058   1.311   0.224  1.00  0.00    -0.063 C 
BRANCH   5   6
HETATM    6  C6  UNL     1       1.280   2.035   0.438  1.00  0.00     0.082 C 
HETATM    7  C7  UNL     1       2.471   1.459   0.452  1.00  0.00     0.091 C 
BRANCH   7   8
HETATM    8  N1  UNL     1       2.579   0.060   0.248  1.00  0.00    -0.403 N 
HETATM    9  C8  UNL     1       3.783  -0.454  -0.365  1.00  0.00     0.145 C 
ATOM     10  H1  UNL     1       1.826  -0.568   0.527  1.00  0.00     0.158 HD
ENDBRANCH   7   8
ENDBRANCH   5   6
ENDBRANCH   3   4
TORSDOF 3
