REMARK  2 active torsions:
REMARK  status: ('A' for Active; 'I' for Inactive)
REMARK    1  A    between atoms: C2_2  and  C3_3 
REMARK    2  A    between atoms: C5_5  and  C6_6 
ROOT
HETATM    1  C3  UNL     1      -1.399  -0.916   0.291  1.00  0.00     0.018 A 
HETATM    2  C4  UNL     1      -0.194  -0.139   0.593  1.00  0.00     0.012 A 
HETATM    3  C5  UNL     1       0.900   0.125  -0.343  1.00  0.00     0.085 A 
HETATM    4  C7  UNL     1       0.049  -1.196  -0.263  1.00  0.00     0.012 A 
ENDROOT
BRANCH   3   5
HETATM    5  C6  UNL     1       2.311   0.001   0.100  1.00  0.00     0.236 C 
HETATM    6  N1  UNL     1       3.278   0.779  -0.594  1.00  0.00    -0.062 NA
HETATM    7  O1  UNL     1       2.684  -0.732   1.027  1.00  0.00    -0.276 OA
ENDBRANCH   3   5
BRANCH   1   8
HETATM    8  C2  UNL     1      -2.329  -0.259  -0.665  1.00  0.00    -0.031 C 
HETATM    9  C1  UNL     1      -2.867   0.913  -0.385  1.00  0.00     0.007 C 
ENDBRANCH   1   8
TORSDOF 2
