REMARK  11 active torsions:
REMARK  status: ('A' for Active; 'I' for Inactive)
REMARK    1  A    between atoms: N1_2  and  C2_4 
REMARK    2  A    between atoms: C3_7  and  C4_8 
REMARK    3  A    between atoms: C4_8  and  N3_9 
REMARK    4  A    between atoms: C7_13  and  C8_14 
REMARK    5  A    between atoms: C11_24  and  C12_25 
REMARK    6  A    between atoms: C12_25  and  N8_26 
REMARK    7  A    between atoms: C12_25  and  N9_29 
REMARK    8  A    between atoms: N9_29  and  O1_31 
REMARK    9  A    between atoms: N11_35  and  C13_36 
REMARK   10  A    between atoms: C13_36  and  C14_37 
REMARK   11  A    between atoms: C14_37  and  N12_38 
ROOT
HETATM    1  N3  UNL     1       0.534  -1.787   1.048  1.00  0.00    -0.382 N 
ATOM      2  H3  UNL     1       0.354  -1.681   2.046  1.00  0.00     0.160 HD
HETATM    3  C5  UNL     1      -0.256  -1.146   0.237  1.00  0.00     0.045 A 
HETATM    4  C6  UNL     1      -0.004  -1.298  -1.098  1.00  0.00     0.053 A 
HETATM    5  C7  UNL     1      -0.666  -0.749  -2.156  1.00  0.00     0.055 A 
HETATM    6  S1  UNL     1      -1.961   0.241  -1.665  1.00  0.00    -0.066 SA
HETATM    7  C9  UNL     1      -2.158   0.339   0.015  1.00  0.00     0.107 A 
HETATM    8  C10 UNL     1      -1.261  -0.384   0.810  1.00  0.00     0.058 A 
HETATM    9  C11 UNL     1      -1.652  -0.123   2.112  1.00  0.00     0.108 A 
HETATM   10  N10 UNL     1      -2.763   0.743   2.033  1.00  0.00    -0.293 N 
ATOM     11  H10 UNL     1      -3.272   1.112   2.836  1.00  0.00     0.187 HD
HETATM   12  N11 UNL     1      -3.044   1.002   0.799  1.00  0.00    -0.282 N 
ENDROOT
BRANCH   1  13
HETATM   13  C4  UNL     1       1.627  -2.624   0.676  1.00  0.00     0.198 C 
BRANCH  13  14
HETATM   14  C3  UNL     1       2.859  -1.867   0.314  1.00  0.00     0.130 A 
HETATM   15  N2  UNL     1       3.106  -0.555   0.282  1.00  0.00    -0.176 N 
HETATM   16  C2  UNL     1       4.383  -0.333  -0.112  1.00  0.00     0.693 A 
ATOM     17  H2  UNL     1       2.432   0.173   0.519  1.00  0.00     0.185 HD
HETATM   18  N14 UNL     1       4.915  -1.550  -0.321  1.00  0.00    -0.131 N 
HETATM   19  N13 UNL     1       4.000  -2.468  -0.065  1.00  0.00    -0.273 N 
ATOM     20  H14 UNL     1       5.870  -1.735  -0.628  1.00  0.00     0.205 HD
ATOM     21  H13 UNL     1       4.138  -3.476  -0.143  1.00  0.00     0.189 HD
BRANCH  16  22
HETATM   22  N1  UNL     1       5.024   0.755  -0.277  1.00  0.00    -0.229 N 
HETATM   23  C1  UNL     1       4.477   2.071  -0.060  1.00  0.00     0.165 C 
ATOM     24  H1  UNL     1       5.994   0.691  -0.585  1.00  0.00     0.177 HD
ENDBRANCH  16  22
ENDBRANCH  13  14
ENDBRANCH   1  13
BRANCH   5  25
HETATM   25  C8  UNL     1      -0.279  -1.005  -3.532  1.00  0.00     0.148 A 
HETATM   26  N4  UNL     1      -0.884  -0.500  -4.615  1.00  0.00    -0.269 N 
HETATM   27  N5  UNL     1      -0.266  -0.944  -5.716  1.00  0.00    -0.007 NA
ATOM     28  H4  UNL     1      -1.690   0.125  -4.603  1.00  0.00     0.185 HD
HETATM   29  N6  UNL     1       0.725  -1.726  -5.330  1.00  0.00    -0.007 NA
HETATM   30  N7  UNL     1       0.719  -1.765  -3.994  1.00  0.00    -0.269 N 
ATOM     31  H7  UNL     1       1.374  -2.293  -3.417  1.00  0.00     0.185 HD
ENDBRANCH   5  25
BRANCH   9  32
HETATM   32  C12 UNL     1      -1.153  -0.552   3.382  1.00  0.00     0.148 C 
BRANCH  32  33
HETATM   33  N8  UNL     1      -0.101  -1.380   3.706  1.00  0.00    -0.382 N 
ATOM     34  H82 UNL     1       0.381  -1.728   2.877  1.00  0.00     0.157 HD
ATOM     35  H81 UNL     1       0.255  -1.686   4.612  1.00  0.00     0.157 HD
ENDBRANCH  32  33
BRANCH  32  36
HETATM   36  N9  UNL     1      -1.787  -0.095   4.472  1.00  0.00    -0.251 N 
ATOM     37  H9  UNL     1      -1.444  -0.391   5.386  1.00  0.00     0.196 HD
BRANCH  36  38
HETATM   38  O1  UNL     1      -2.846   0.729   4.433  1.00  0.00    -0.288 OA
ATOM     39  H1  UNL     1      -3.295   1.053   5.205  1.00  0.00     0.244 HD
ENDBRANCH  36  38
ENDBRANCH  32  36
ENDBRANCH   9  32
BRANCH  12  40
HETATM   40  C13 UNL     1      -4.089   1.832   0.232  1.00  0.00     0.177 C 
BRANCH  40  41
HETATM   41  C14 UNL     1      -3.592   3.259   0.063  1.00  0.00     0.251 C 
BRANCH  41  42
HETATM   42  N12 UNL     1      -4.604   4.101  -0.496  1.00  0.00    -0.078 N 
ATOM     43 3H12 UNL     1      -4.962   3.723  -1.373  1.00  0.00     0.274 HD
ATOM     44 2H12 UNL     1      -5.464   4.067   0.052  1.00  0.00     0.274 HD
ATOM     45 1H12 UNL     1      -4.271   5.058  -0.609  1.00  0.00     0.274 HD
ENDBRANCH  41  42
ENDBRANCH  40  41
ENDBRANCH  12  40
TORSDOF 11
