REMARK  12 active torsions:
REMARK  status: ('A' for Active; 'I' for Inactive)
REMARK    1  A    between atoms: N1_1  and  C1_4 
REMARK    2  A    between atoms: C2_7  and  C3_8 
REMARK    3  A    between atoms: C6_12  and  C7_13 
REMARK       I    between atoms: C7_13  and  N4_15 
REMARK    4  A    between atoms: N4_15  and  C8_17 
REMARK    5  A    between atoms: C10_22  and  C11_23 
REMARK    6  A    between atoms: C11_23  and  O2_24 
REMARK    7  A    between atoms: O2_24  and  S1_25 
REMARK    8  A    between atoms: S1_25  and  N6_28 
REMARK       I    between atoms: N6_28  and  C12_30 
REMARK    9  A    between atoms: C12_30  and  C13_32 
REMARK   10  A    between atoms: C13_32  and  N7_33 
REMARK   11  A    between atoms: C14_37  and  O6_38 
REMARK   12  A    between atoms: N8_42  and  N9_43 
ROOT
HETATM    1  C7  UNL     1      -1.823  -0.056   1.664  1.00  0.00     0.259 C 
HETATM    2  O1  UNL     1      -1.992   0.359   2.872  1.00  0.00    -0.267 OA
HETATM    3  N4  UNL     1      -0.524  -0.201   1.237  1.00  0.00    -0.348 N 
ATOM      4  H4  UNL     1      -0.329  -0.525   0.290  1.00  0.00     0.163 HD
ENDROOT
BRANCH   3   5
HETATM    5  C8  UNL     1       0.583   0.113   2.152  1.00  0.00     0.141 C 
HETATM    6  C9  UNL     1       1.422  -1.122   2.420  1.00  0.00     0.260 C 
HETATM    7  N5  UNL     1       2.687  -0.535   2.850  1.00  0.00    -0.064 N 
HETATM    8  C10 UNL     1       2.892   0.593   1.955  1.00  0.00     0.241 C 
ATOM      9  H52 UNL     1       2.716  -0.291   3.840  1.00  0.00     0.277 HD
ATOM     10  H51 UNL     1       3.465  -1.195   2.872  1.00  0.00     0.277 HD
HETATM   11  C14 UNL     1       1.563   1.038   1.474  1.00  0.00     0.175 C 
BRANCH   8  12
HETATM   12  C11 UNL     1       3.849   0.187   0.879  1.00  0.00     0.227 C 
BRANCH  12  13
HETATM   13  O2  UNL     1       4.142   1.153  -0.049  1.00  0.00    -0.257 OA
BRANCH  13  14
HETATM   14  S1  UNL     1       5.243   0.540  -1.182  1.00  0.00     0.364 S 
HETATM   15  O3  UNL     1       4.838   0.860  -2.590  1.00  0.00    -0.175 OA
HETATM   16  O4  UNL     1       5.325  -0.968  -0.981  1.00  0.00    -0.175 OA
BRANCH  14  17
HETATM   17  N6  UNL     1       6.801   1.148  -0.780  1.00  0.00    -0.230 N 
HETATM   18  C12 UNL     1       7.934   0.742  -1.527  1.00  0.00     0.258 C 
HETATM   19  O5  UNL     1       7.803  -0.050  -2.473  1.00  0.00    -0.271 OA
ATOM     20  H6  UNL     1       6.909   1.801  -0.004  1.00  0.00     0.183 HD
BRANCH  18  21
HETATM   21  C13 UNL     1       9.260   1.283  -1.150  1.00  0.00     0.332 C 
BRANCH  21  22
HETATM   22  N7  UNL     1      10.297   0.763  -2.016  1.00  0.00    -0.071 N 
ATOM     23  H73 UNL     1      10.297  -0.257  -2.032  1.00  0.00     0.274 HD
ATOM     24  H72 UNL     1      10.087   0.933  -2.999  1.00  0.00     0.274 HD
ATOM     25  H71 UNL     1      11.210   1.136  -1.756  1.00  0.00     0.274 HD
ENDBRANCH  21  22
ENDBRANCH  18  21
ENDBRANCH  14  17
ENDBRANCH  13  14
ENDBRANCH  12  13
ENDBRANCH   8  12
BRANCH  11  26
HETATM   26  O6  UNL     1       1.377   0.874   0.103  1.00  0.00    -0.391 OA
ATOM     27  H6  UNL     1       1.994   1.457  -0.324  1.00  0.00     0.210 HD
ENDBRANCH  11  26
ENDBRANCH   3   5
BRANCH   1  28
HETATM   28  C6  UNL     1      -3.017  -0.311   0.921  1.00  0.00     0.126 C 
HETATM   29  C5  UNL     1      -4.232  -0.035   1.542  1.00  0.00     0.068 C 
HETATM   30  C4  UNL     1      -5.460   0.163   0.898  1.00  0.00     0.047 C 
HETATM   31  N3  UNL     1      -4.199   0.056   2.950  1.00  0.00    -0.101 NA
HETATM   32  C3  UNL     1      -5.754   0.005  -0.442  1.00  0.00     0.063 C 
HETATM   33  C16 UNL     1      -4.831   0.027  -1.466  1.00  0.00     0.281 C 
HETATM   34  N8  UNL     1      -3.587  -0.547  -1.490  1.00  0.00    -0.189 N 
HETATM   35  O8  UNL     1      -5.122   0.635  -2.515  1.00  0.00    -0.265 OA
HETATM   36  C15 UNL     1      -2.881  -0.834  -0.369  1.00  0.00     0.286 C 
HETATM   37  O7  UNL     1      -1.985  -1.693  -0.536  1.00  0.00    -0.265 OA
BRANCH  32  38
HETATM   38  C2  UNL     1      -7.176  -0.178  -0.826  1.00  0.00     0.056 A 
HETATM   39  N2  UNL     1      -7.593  -0.501  -2.024  1.00  0.00    -0.336 N 
HETATM   40  C1  UNL     1      -8.901  -0.601  -2.252  1.00  0.00     0.142 A 
ATOM     41  H2  UNL     1      -6.924  -0.674  -2.774  1.00  0.00     0.168 HD
HETATM   42  S2  UNL     1      -9.590  -0.237  -0.747  1.00  0.00    -0.064 SA
HETATM   43  C17 UNL     1      -8.150   0.035   0.129  1.00  0.00     0.083 A 
BRANCH  40  44
HETATM   44  N1  UNL     1      -9.486  -0.912  -3.392  1.00  0.00    -0.380 N 
ATOM     45  H12 UNL     1      -9.071  -1.131  -4.298  1.00  0.00     0.158 HD
ATOM     46  H11 UNL     1     -10.488  -0.989  -3.567  1.00  0.00     0.158 HD
ENDBRANCH  40  44
ENDBRANCH  32  38
BRANCH  34  47
HETATM   47  N9  UNL     1      -3.050  -0.842  -2.734  1.00  0.00    -0.333 N 
ATOM     48  H92 UNL     1      -2.124  -1.269  -2.752  1.00  0.00     0.177 HD
ATOM     49  H91 UNL     1      -3.581  -0.626  -3.578  1.00  0.00     0.177 HD
ENDBRANCH  34  47
ENDBRANCH   1  28
TORSDOF 12
