REMARK  6 active torsions:
REMARK  status: ('A' for Active; 'I' for Inactive)
REMARK    1  A    between atoms: N1_1  and  C1_4 
REMARK    2  A    between atoms: C2_7  and  N3_8 
REMARK    3  A    between atoms: N3_8  and  C3_10 
REMARK    4  A    between atoms: C3_10  and  C4_11 
REMARK    5  A    between atoms: C4_11  and  N4_12 
REMARK    6  A    between atoms: C9_23  and  N5_24 
ROOT
HETATM    1  C1  UNL     1      -1.749  -1.528   0.844  1.00  0.00     0.678 A 
HETATM    2  N2  UNL     1      -0.439  -1.498   0.588  1.00  0.00    -0.176 N 
ATOM      3  H2  UNL     1       0.130  -2.306   0.842  1.00  0.00     0.186 HD
HETATM    4  C2  UNL     1       0.158  -0.441   0.007  1.00  0.00     0.133 A 
HETATM    5  C5  UNL     1      -0.649   0.639  -0.324  1.00  0.00     0.092 A 
HETATM    6  C6  UNL     1      -0.042   1.731  -0.922  1.00  0.00     0.242 A 
HETATM    7  O1  UNL     1       1.203   1.724  -1.149  1.00  0.00    -0.283 OA
HETATM    8  C7  UNL     1      -0.818   2.801  -1.255  1.00  0.00     0.274 A 
HETATM    9  O2  UNL     1      -0.292   3.806  -1.799  1.00  0.00    -0.280 OA
HETATM   10  C8  UNL     1      -2.166   2.809  -1.009  1.00  0.00     0.254 A 
HETATM   11  O3  UNL     1      -2.870   3.821  -1.329  1.00  0.00    -0.281 OA
HETATM   12  C9  UNL     1      -2.818   1.725  -0.406  1.00  0.00     0.109 A 
HETATM   13  C10 UNL     1      -2.018   0.640  -0.071  1.00  0.00     0.097 A 
HETATM   14  N6  UNL     1      -2.532  -0.457   0.512  1.00  0.00    -0.189 N 
ATOM     15  H6  UNL     1      -3.532  -0.491   0.712  1.00  0.00     0.184 HD
ENDROOT
BRANCH   4  16
HETATM   16  N3  UNL     1       1.420  -0.392  -0.248  1.00  0.00    -0.373 N 
ATOM     17  H3  UNL     1       1.841   0.425  -0.690  1.00  0.00     0.161 HD
BRANCH  16  18
HETATM   18  C3  UNL     1       2.216  -1.545   0.118  1.00  0.00     0.148 C 
BRANCH  18  19
HETATM   19  C4  UNL     1       3.684  -1.317  -0.196  1.00  0.00     0.249 C 
BRANCH  19  20
HETATM   20  N4  UNL     1       4.191  -0.159   0.543  1.00  0.00    -0.078 N 
ATOM     21  H43 UNL     1       3.632   0.676   0.370  1.00  0.00     0.274 HD
ATOM     22  H42 UNL     1       4.026  -0.247   1.546  1.00  0.00     0.274 HD
ATOM     23  H41 UNL     1       5.177  -0.006   0.332  1.00  0.00     0.274 HD
ENDBRANCH  19  20
ENDBRANCH  18  19
ENDBRANCH  16  18
ENDBRANCH   4  16
BRANCH   1  24
HETATM   24  N1  UNL     1      -2.305  -2.550   1.401  1.00  0.00    -0.234 N 
ATOM     25  H12 UNL     1      -1.721  -3.349   1.649  1.00  0.00     0.174 HD
ATOM     26  H11 UNL     1      -3.306  -2.573   1.597  1.00  0.00     0.174 HD
ENDBRANCH   1  24
BRANCH  12  27
HETATM   27  N5  UNL     1      -4.067   1.763  -0.192  1.00  0.00    -0.394 N 
ATOM     28  H52 UNL     1      -4.654   2.560  -0.438  1.00  0.00     0.156 HD
ATOM     29  H51 UNL     1      -4.542   0.974   0.247  1.00  0.00     0.156 HD
ENDBRANCH  12  27
TORSDOF 6
