REMARK  10 active torsions:
REMARK  status: ('A' for Active; 'I' for Inactive)
REMARK    1  A    between atoms: C7_14  and  N4_15 
REMARK       I    between atoms: N4_15  and  C8_17 
REMARK    2  A    between atoms: C8_17  and  C9_19 
REMARK    3  A    between atoms: C9_19  and  C10_21 
REMARK    4  A    between atoms: C10_21  and  C11_22 
REMARK    5  A    between atoms: C11_22  and  C12_23 
REMARK    6  A    between atoms: C12_23  and  C13_24 
REMARK    7  A    between atoms: C13_24  and  N5_25 
REMARK    8  A    between atoms: N6_28  and  C16_29 
REMARK    9  A    between atoms: C16_29  and  C17_30 
REMARK   10  A    between atoms: C17_30  and  O3_31 
ROOT
HETATM    1  N4  UNL     1       4.164  -0.865  -0.044  1.00  0.00    -0.346 N 
ATOM      2  H4  UNL     1       3.920  -0.482   0.869  1.00  0.00     0.163 HD
HETATM    3  C8  UNL     1       3.134  -1.428  -0.841  1.00  0.00     0.287 C 
HETATM    4  O1  UNL     1       3.373  -1.912  -1.968  1.00  0.00    -0.264 OA
ENDROOT
BRANCH   3   5
HETATM    5  C9  UNL     1       1.778  -1.435  -0.323  1.00  0.00     0.216 C 
HETATM    6  O2  UNL     1       1.515  -0.951   0.828  1.00  0.00    -0.287 OA
BRANCH   5   7
HETATM    7  C10 UNL     1       0.696  -2.017  -1.158  1.00  0.00     0.089 C 
BRANCH   7   8
HETATM    8  C11 UNL     1      -0.603  -1.885  -0.381  1.00  0.00     0.010 C 
BRANCH   8   9
HETATM    9  C12 UNL     1      -1.763  -2.438  -1.129  1.00  0.00     0.028 C 
BRANCH   9  10
HETATM   10  C13 UNL     1      -3.084  -2.383  -0.472  1.00  0.00     0.237 C 
BRANCH  10  11
HETATM   11  N5  UNL     1      -3.621  -1.103  -0.140  1.00  0.00    -0.062 N 
HETATM   12  C14 UNL     1      -5.101  -1.290  -0.143  1.00  0.00     0.265 C 
HETATM   13  C15 UNL     1      -5.738  -0.168   0.645  1.00  0.00     0.265 C 
HETATM   14  N6  UNL     1      -4.887   0.993   0.505  1.00  0.00    -0.060 N 
HETATM   15  C18 UNL     1      -4.492   0.980  -0.908  1.00  0.00     0.265 C 
HETATM   16  C20 UNL     1      -3.650   0.825   1.244  1.00  0.00     0.265 C 
HETATM   17  C19 UNL     1      -3.421  -0.085  -1.154  1.00  0.00     0.265 C 
HETATM   18  C21 UNL     1      -3.329  -0.655   1.201  1.00  0.00     0.265 C 
BRANCH  14  19
HETATM   19  C16 UNL     1      -5.527   2.236   0.728  1.00  0.00     0.263 C 
BRANCH  19  20
HETATM   20  C17 UNL     1      -6.454   2.309   1.889  1.00  0.00     0.192 C 
BRANCH  20  21
HETATM   21  O3  UNL     1      -5.906   2.053   3.108  1.00  0.00    -0.399 OA
ATOM     22  H3  UNL     1      -6.498   2.100   3.849  1.00  0.00     0.209 HD
ENDBRANCH  20  21
ENDBRANCH  19  20
ENDBRANCH  14  19
ENDBRANCH  10  11
ENDBRANCH   9  10
ENDBRANCH   8   9
ENDBRANCH   7   8
ENDBRANCH   5   7
ENDBRANCH   3   5
BRANCH   1  23
HETATM   23  C7  UNL     1       5.531  -0.811  -0.466  1.00  0.00     0.124 C 
HETATM   24  C3  UNL     1       5.916   0.619  -0.625  1.00  0.00     0.025 A 
HETATM   25  C2  UNL     1       4.990   1.541  -0.813  1.00  0.00     0.119 A 
HETATM   26  C4  UNL     1       7.316   0.969  -0.587  1.00  0.00     0.126 A 
HETATM   27  N2  UNL     1       5.354   2.897  -0.982  1.00  0.00    -0.201 N 
HETATM   28  C1  UNL     1       6.710   3.314  -0.958  1.00  0.00     0.677 A 
ATOM     29  H2  UNL     1       4.623   3.593  -1.125  1.00  0.00     0.183 HD
HETATM   30  N1  UNL     1       7.035   4.576  -1.118  1.00  0.00    -0.234 N 
HETATM   31  N7  UNL     1       7.716   2.332  -0.756  1.00  0.00    -0.177 N 
ATOM     32  H12 UNL     1       6.313   5.281  -1.263  1.00  0.00     0.174 HD
ATOM     33  H11 UNL     1       8.010   4.876  -1.101  1.00  0.00     0.174 HD
ATOM     34  H7  UNL     1       8.702   2.593  -0.732  1.00  0.00     0.186 HD
HETATM   35  N3  UNL     1       8.234   0.048  -0.383  1.00  0.00    -0.375 N 
HETATM   36  C5  UNL     1       7.892  -1.350  -0.187  1.00  0.00     0.123 C 
ATOM     37  H3  UNL     1       9.216   0.324  -0.362  1.00  0.00     0.161 HD
HETATM   38  C6  UNL     1       6.508  -1.479   0.432  1.00  0.00     0.050 C 
ENDBRANCH   1  23
TORSDOF 10
