REMARK  1 active torsions:
REMARK  status: ('A' for Active; 'I' for Inactive)
REMARK    1  A    between atoms: N2_6  and  C5_7 
ROOT
HETATM    1  C1  UNL     1      -1.198   1.189  -0.779  1.00  0.00     0.274 C 
HETATM    2  N1  UNL     1      -0.928   0.052   0.079  1.00  0.00    -0.057 N 
HETATM    3  C2  UNL     1      -2.207  -0.549   0.420  1.00  0.00     0.274 C 
HETATM    4  C3  UNL     1      -0.197   0.434   1.266  1.00  0.00     0.258 C 
HETATM    5  C4  UNL     1       1.228  -0.046   1.075  1.00  0.00     0.153 C 
HETATM    6  N2  UNL     1       1.230  -0.432  -0.317  1.00  0.00    -0.352 N 
HETATM    7  C6  UNL     1      -0.099  -0.933  -0.580  1.00  0.00     0.362 C 
ENDROOT
BRANCH   6   8
HETATM    8  C5  UNL     1       2.294  -0.347  -1.242  1.00  0.00     0.172 C 
HETATM    9  N3  UNL     1       3.442   0.158  -0.968  1.00  0.00    -0.395 N 
ATOM     10  H32 UNL     1       3.577   0.514  -0.022  1.00  0.00     0.156 HD
ATOM     11  H31 UNL     1       4.210   0.219  -1.636  1.00  0.00     0.156 HD
ENDBRANCH   6   8
TORSDOF 1
