REMARK  9 active torsions:
REMARK  status: ('A' for Active; 'I' for Inactive)
REMARK    1  A    between atoms: C1_2  and  C2_4 
REMARK    2  A    between atoms: C2_4  and  N2_5 
REMARK    3  A    between atoms: C2_4  and  N3_9 
REMARK    4  A    between atoms: N3_9  and  N4_11 
REMARK    5  A    between atoms: N5_13  and  C3_15 
REMARK    6  A    between atoms: C4_16  and  C5_17 
REMARK    7  A    between atoms: N8_23  and  N9_25 
REMARK    8  A    between atoms: C7_27  and  C8_28 
REMARK    9  A    between atoms: C11_31  and  O2_32 
ROOT
HETATM    1  C3  UNL     1      -2.696  -2.131  -0.711  1.00  0.00     0.147 A 
HETATM    2  C4  UNL     1      -1.430  -2.352  -1.193  1.00  0.00     0.105 A 
HETATM    3  N10 UNL     1      -1.204  -3.490  -1.863  1.00  0.00    -0.304 N 
ATOM      4  H10 UNL     1      -0.274  -3.685  -2.234  1.00  0.00     0.171 HD
HETATM    5  C14 UNL     1      -2.215  -4.391  -2.051  1.00  0.00     0.327 A 
HETATM    6  O3  UNL     1      -1.973  -5.464  -2.690  1.00  0.00    -0.247 OA
HETATM    7  N11 UNL     1      -3.461  -4.202  -1.591  1.00  0.00    -0.273 N 
ATOM      8  H11 UNL     1      -4.191  -4.897  -1.749  1.00  0.00     0.173 HD
HETATM    9  C15 UNL     1      -3.717  -3.070  -0.916  1.00  0.00     0.280 A 
HETATM   10  O4  UNL     1      -4.859  -2.852  -0.471  1.00  0.00    -0.265 OA
ENDROOT
BRANCH   2  11
HETATM   11  C5  UNL     1      -0.374  -1.364  -0.972  1.00  0.00     0.122 A 
HETATM   12  N6  UNL     1      -0.398  -0.206  -0.350  1.00  0.00    -0.290 N 
HETATM   13  N7  UNL     1       0.642   0.513  -0.267  1.00  0.00    -0.278 N 
ATOM     14  H6  UNL     1      -1.268   0.119   0.073  1.00  0.00     0.188 HD
HETATM   15  C6  UNL     1       1.774   0.075  -0.826  1.00  0.00     0.180 A 
ATOM     16  H7  UNL     1       0.616   1.410   0.218  1.00  0.00     0.189 HD
HETATM   17  N8  UNL     1       2.944   0.666  -0.849  1.00  0.00    -0.279 N 
HETATM   18  S1  UNL     1       1.282  -1.423  -1.480  1.00  0.00    -0.030 SA
ATOM     19  H8  UNL     1       3.049   1.574  -0.396  1.00  0.00     0.189 HD
BRANCH  17  20
HETATM   20  N9  UNL     1       4.011   0.109  -1.453  1.00  0.00    -0.309 N 
HETATM   21  C7  UNL     1       5.223   0.040  -1.207  1.00  0.00     0.118 C 
ATOM     22  H9  UNL     1       3.762  -0.370  -2.319  1.00  0.00     0.186 HD
BRANCH  21  23
HETATM   23  C8  UNL     1       5.911   0.600  -0.078  1.00  0.00    -0.019 A 
HETATM   24  C9  UNL     1       5.347   1.323   0.950  1.00  0.00     0.015 A 
HETATM   25  C10 UNL     1       6.077   1.839   2.019  1.00  0.00     0.037 A 
HETATM   26  C11 UNL     1       7.427   1.610   2.040  1.00  0.00     0.065 A 
HETATM   27  C12 UNL     1       8.062   0.891   1.040  1.00  0.00     0.037 A 
HETATM   28  C13 UNL     1       7.291   0.410   0.018  1.00  0.00     0.015 A 
BRANCH  26  29
HETATM   29  O2  UNL     1       8.178   2.108   3.087  1.00  0.00    -0.361 OA
ATOM     30  H2  UNL     1       9.115   1.949   3.102  1.00  0.00     0.217 HD
ENDBRANCH  26  29
ENDBRANCH  21  23
ENDBRANCH  17  20
ENDBRANCH   2  11
BRANCH   1  31
HETATM   31  N5  UNL     1      -2.932  -0.929  -0.004  1.00  0.00    -0.279 N 
HETATM   32  N4  UNL     1      -4.140  -0.577   0.160  1.00  0.00    -0.244 N 
ATOM     33  H4  UNL     1      -4.868  -1.179  -0.226  1.00  0.00     0.208 HD
ATOM     34  H5  UNL     1      -2.162  -0.368   0.360  1.00  0.00     0.189 HD
BRANCH  32  35
HETATM   35  N3  UNL     1      -4.534   0.565   0.825  1.00  0.00    -0.284 N 
ATOM     36  H3  UNL     1      -4.043   0.809   1.685  1.00  0.00     0.184 HD
BRANCH  35  37
HETATM   37  C2  UNL     1      -5.597   1.438   0.383  1.00  0.00     0.387 C 
BRANCH  37  38
HETATM   38  C1  UNL     1      -5.761   2.569   1.325  1.00  0.00     0.282 C 
HETATM   39  N1  UNL     1      -6.750   3.546   1.080  1.00  0.00    -0.059 NA
HETATM   40  O1  UNL     1      -5.035   2.665   2.328  1.00  0.00    -0.273 OA
ENDBRANCH  37  38
BRANCH  37  41
HETATM   41  N2  UNL     1      -6.847   0.698   0.307  1.00  0.00    -0.049 N 
ATOM     42  H23 UNL     1      -7.175   0.395   1.224  1.00  0.00     0.277 HD
ATOM     43  H22 UNL     1      -7.637   1.295   0.063  1.00  0.00     0.277 HD
ATOM     44  H21 UNL     1      -6.734  -0.081  -0.342  1.00  0.00     0.277 HD
ENDBRANCH  37  41
ENDBRANCH  35  37
ENDBRANCH  32  35
ENDBRANCH   1  31
TORSDOF 9
