REMARK  15 active torsions:
REMARK  status: ('A' for Active; 'I' for Inactive)
REMARK    1  A    between atoms: N1_1  and  C1_5 
REMARK    2  A    between atoms: C1_5  and  C2_6 
REMARK    3  A    between atoms: C2_6  and  C3_7 
REMARK    4  A    between atoms: C3_7  and  C4_8 
REMARK    5  A    between atoms: C4_8  and  C5_9 
REMARK    6  A    between atoms: C5_9  and  C6_10 
REMARK    7  A    between atoms: C6_10  and  C7_11 
REMARK    8  A    between atoms: C7_11  and  C8_12 
REMARK    9  A    between atoms: C8_12  and  C9_13 
REMARK   10  A    between atoms: C9_13  and  C10_14 
REMARK   11  A    between atoms: C10_14  and  C11_15 
REMARK   12  A    between atoms: C11_15  and  C12_16 
REMARK   13  A    between atoms: C12_16  and  C13_17 
REMARK   14  A    between atoms: C13_17  and  C14_18 
REMARK   15  A    between atoms: C14_18  and  C15_19 
ROOT
HETATM    1  C9  UNL     1       0.111   1.978  -1.454  1.00  0.00     0.000 C 
ENDROOT
BRANCH   1   2
HETATM    2  C8  UNL     1       1.473   1.522  -0.893  1.00  0.00     0.000 C 
BRANCH   2   3
HETATM    3  C7  UNL     1       2.408   1.257  -2.028  1.00  0.00     0.000 C 
BRANCH   3   4
HETATM    4  C6  UNL     1       3.752   0.827  -1.519  1.00  0.00     0.000 C 
BRANCH   4   5
HETATM    5  C5  UNL     1       3.617  -0.434  -0.715  1.00  0.00     0.000 C 
BRANCH   5   6
HETATM    6  C4  UNL     1       4.987  -0.936  -0.198  1.00  0.00     0.000 C 
BRANCH   6   7
HETATM    7  C3  UNL     1       5.645   0.059   0.674  1.00  0.00     0.002 C 
BRANCH   7   8
HETATM    8  C2  UNL     1       6.976  -0.342   1.171  1.00  0.00     0.027 C 
BRANCH   8   9
HETATM    9  C1  UNL     1       7.112  -1.555   1.996  1.00  0.00     0.229 C 
BRANCH   9  10
HETATM   10  N1  UNL     1       6.769  -2.802   1.420  1.00  0.00    -0.079 N 
ATOM     11  H13 UNL     1       5.816  -2.751   1.060  1.00  0.00     0.274 HD
ATOM     12  H12 UNL     1       7.298  -2.926   0.557  1.00  0.00     0.274 HD
ATOM     13  H11 UNL     1       6.863  -3.642   1.991  1.00  0.00     0.274 HD
ENDBRANCH   9  10
ENDBRANCH   8   9
ENDBRANCH   7   8
ENDBRANCH   6   7
ENDBRANCH   5   6
ENDBRANCH   4   5
ENDBRANCH   3   4
ENDBRANCH   2   3
ENDBRANCH   1   2
BRANCH   1  14
HETATM   14  C10 UNL     1      -0.840   2.247  -0.302  1.00  0.00     0.000 C 
BRANCH  14  15
HETATM   15  C11 UNL     1      -2.184   2.695  -0.762  1.00  0.00     0.000 C 
BRANCH  15  16
HETATM   16  C12 UNL     1      -2.888   1.696  -1.639  1.00  0.00     0.000 C 
BRANCH  16  17
HETATM   17  C13 UNL     1      -3.123   0.378  -0.971  1.00  0.00     0.000 C 
BRANCH  17  18
HETATM   18  C14 UNL     1      -3.976   0.508   0.272  1.00  0.00     0.005 C 
BRANCH  18  19
HETATM   19  C15 UNL     1      -4.201  -0.834   0.932  1.00  0.00    -0.006 C 
HETATM   20  C16 UNL     1      -4.910  -1.813  -0.001  1.00  0.00     0.013 C 
HETATM   21  C17 UNL     1      -6.154  -2.224   0.756  1.00  0.00     0.009 C 
HETATM   22  C18 UNL     1      -7.013  -1.034   0.846  1.00  0.00    -0.026 C 
HETATM   23  C21 UNL     1      -5.571  -2.240   2.185  1.00  0.00     0.017 C 
HETATM   24  C19 UNL     1      -6.404  -0.162   1.643  1.00  0.00    -0.025 C 
HETATM   25  C20 UNL     1      -5.106  -0.771   2.105  1.00  0.00     0.012 C 
ENDBRANCH  18  19
ENDBRANCH  17  18
ENDBRANCH  16  17
ENDBRANCH  15  16
ENDBRANCH  14  15
ENDBRANCH   1  14
TORSDOF 15
