REMARK  11 active torsions:
REMARK  status: ('A' for Active; 'I' for Inactive)
REMARK    1  A    between atoms: O1_2  and  C2_3 
REMARK    2  A    between atoms: C3_5  and  C4_6 
REMARK    3  A    between atoms: C4_6  and  O3_7 
REMARK    4  A    between atoms: O3_7  and  C5_8 
REMARK       I    between atoms: C5_8  and  N1_10 
REMARK    5  A    between atoms: N1_10  and  C6_12 
REMARK    6  A    between atoms: C10_16  and  O5_17 
REMARK    7  A    between atoms: O5_17  and  C11_18 
REMARK    8  A    between atoms: C13_20  and  O6_21 
REMARK    9  A    between atoms: C16_28  and  O7_29 
REMARK   10  A    between atoms: C17_31  and  N3_32 
REMARK       I    between atoms: N3_32  and  C18_34 
REMARK   11  A    between atoms: C20_37  and  O9_38 
ROOT
HETATM    1  C2  UNL     1       0.199  -3.582  -0.240  1.00  0.00     0.290 C 
HETATM    2  O2  UNL     1      -0.150  -2.830   0.841  1.00  0.00    -0.349 OA
HETATM    3  C3  UNL     1       0.145  -1.495   0.789  1.00  0.00     0.180 C 
HETATM    4  C10 UNL     1      -0.364  -0.753  -0.394  1.00  0.00     0.178 C 
HETATM    5  C17 UNL     1      -0.765  -1.731  -1.481  1.00  0.00     0.149 C 
HETATM    6  C20 UNL     1       0.211  -2.856  -1.554  1.00  0.00     0.198 C 
ENDROOT
BRANCH   4   7
HETATM    7  O5  UNL     1      -1.479   0.022  -0.151  1.00  0.00    -0.371 OA
BRANCH   7   8
HETATM    8  C11 UNL     1      -1.381   1.339  -0.439  1.00  0.00     0.180 C 
HETATM    9  C12 UNL     1      -1.502   2.107   0.886  1.00  0.00     0.070 C 
HETATM   10  C13 UNL     1      -2.941   1.893   1.374  1.00  0.00     0.151 C 
HETATM   11  C14 UNL     1      -3.820   2.623   0.391  1.00  0.00     0.213 C 
HETATM   12  C15 UNL     1      -5.262   2.684   0.833  1.00  0.00     0.043 C 
HETATM   13  N2  UNL     1      -3.746   1.865  -0.861  1.00  0.00    -0.040 N 
HETATM   14  C16 UNL     1      -2.405   1.876  -1.395  1.00  0.00     0.348 C 
ATOM     15  H22 UNL     1      -4.097   0.914  -0.746  1.00  0.00     0.280 HD
ATOM     16  H21 UNL     1      -4.425   2.200  -1.544  1.00  0.00     0.280 HD
BRANCH  10  17
HETATM   17  O6  UNL     1      -3.110   2.306   2.676  1.00  0.00    -0.393 OA
ATOM     18  H6  UNL     1      -4.001   2.174   2.978  1.00  0.00     0.210 HD
ENDBRANCH  10  17
BRANCH  14  19
HETATM   19  O7  UNL     1      -2.076   3.212  -1.646  1.00  0.00    -0.368 OA
ATOM     20  H7  UNL     1      -2.724   3.552  -2.251  1.00  0.00     0.212 HD
ENDBRANCH  14  19
ENDBRANCH   7   8
ENDBRANCH   4   7
BRANCH   3  21
HETATM   21  C4  UNL     1       1.660  -1.353   0.973  1.00  0.00     0.215 C 
BRANCH  21  22
HETATM   22  O3  UNL     1       2.042   0.014   0.927  1.00  0.00    -0.301 OA
BRANCH  22  23
HETATM   23  C5  UNL     1       3.402   0.271   1.083  1.00  0.00     0.360 C 
HETATM   24  O4  UNL     1       4.226  -0.689   1.256  1.00  0.00    -0.239 OA
HETATM   25  N1  UNL     1       3.907   1.578   1.057  1.00  0.00    -0.332 N 
ATOM     26  H1  UNL     1       3.258   2.353   0.920  1.00  0.00     0.165 HD
BRANCH  25  27
HETATM   27  C6  UNL     1       5.301   1.865   1.216  1.00  0.00     0.086 C 
HETATM   28  C7  UNL     1       5.905   2.746   0.116  1.00  0.00     0.025 C 
HETATM   29  C8  UNL     1       6.776   3.357   1.223  1.00  0.00     0.004 C 
HETATM   30  C9  UNL     1       5.645   2.975   2.186  1.00  0.00     0.025 C 
ENDBRANCH  25  27
ENDBRANCH  22  23
ENDBRANCH  21  22
ENDBRANCH   3  21
BRANCH   5  31
HETATM   31  N3  UNL     1      -2.099  -2.264  -1.269  1.00  0.00    -0.352 N 
HETATM   32  C18 UNL     1      -3.143  -2.129  -2.210  1.00  0.00     0.214 C 
HETATM   33  C19 UNL     1      -4.472  -2.708  -1.903  1.00  0.00     0.117 C 
HETATM   34  O8  UNL     1      -3.012  -1.538  -3.308  1.00  0.00    -0.274 OA
ATOM     35  H3  UNL     1      -2.291  -2.760  -0.399  1.00  0.00     0.163 HD
ENDBRANCH   5  31
BRANCH   6  36
HETATM   36  O9  UNL     1      -0.210  -3.755  -2.559  1.00  0.00    -0.388 OA
ATOM     37  H9  UNL     1      -0.202  -3.296  -3.390  1.00  0.00     0.210 HD
ENDBRANCH   6  36
BRANCH   1  38
HETATM   38  O1  UNL     1       1.423  -4.232  -0.108  1.00  0.00    -0.363 OA
HETATM   39  C1  UNL     1       1.309  -5.613  -0.114  1.00  0.00     0.204 C 
ENDBRANCH   1  38
TORSDOF 11
