REMARK  7 active torsions:
REMARK  status: ('A' for Active; 'I' for Inactive)
REMARK    1  A    between atoms: C3_3  and  C4_4 
REMARK    2  A    between atoms: C5_5  and  N1_6 
REMARK       I    between atoms: N1_6  and  C6_8 
REMARK    3  A    between atoms: C6_8  and  C7_10 
REMARK       I    between atoms: N3_17  and  C13_18 
REMARK    4  A    between atoms: C13_18  and  C14_20 
REMARK    5  A    between atoms: C16_27  and  N5_28 
REMARK       I    between atoms: N5_28  and  C17_30 
REMARK    6  A    between atoms: C17_30  and  C18_32 
REMARK    7  A    between atoms: C18_32  and  N6_34 
ROOT
HETATM    1  C7  UNL     1       1.373   0.394   0.735  1.00  0.00     0.206 C 
HETATM    2  C8  UNL     1       2.245  -0.645   1.356  1.00  0.00     0.271 C 
HETATM    3  N2  UNL     1       1.618  -1.867   1.725  1.00  0.00    -0.071 N 
HETATM    4  C9  UNL     1       2.700  -2.866   1.825  1.00  0.00     0.272 C 
HETATM    5  C10 UNL     1       1.069  -1.758   3.070  1.00  0.00     0.272 C 
HETATM    6  C11 UNL     1       0.665  -2.394   0.796  1.00  0.00     0.256 C 
HETATM    7  C12 UNL     1       0.685  -1.618  -0.483  1.00  0.00     0.154 C 
HETATM    8  N3  UNL     1       0.423  -0.224  -0.178  1.00  0.00    -0.334 N 
HETATM    9  C13 UNL     1      -0.648   0.533  -0.717  1.00  0.00     0.246 C 
HETATM   10  O2  UNL     1      -0.687   1.767  -0.361  1.00  0.00    -0.271 OA
ENDROOT
BRANCH   9  11
HETATM   11  C14 UNL     1      -1.672   0.039  -1.618  1.00  0.00     0.208 C 
HETATM   12  N4  UNL     1      -2.513   1.142  -2.137  1.00  0.00    -0.303 N 
HETATM   13  S1  UNL     1      -3.629   0.179  -3.082  1.00  0.00     0.229 S 
ATOM     14  H4  UNL     1      -2.459   2.150  -1.990  1.00  0.00     0.173 HD
HETATM   15  O3  UNL     1      -4.969   0.797  -3.151  1.00  0.00    -0.206 OA
HETATM   16  O4  UNL     1      -3.033  -0.159  -4.407  1.00  0.00    -0.206 OA
HETATM   17  C15 UNL     1      -3.613  -1.306  -2.067  1.00  0.00     0.190 C 
HETATM   18  C16 UNL     1      -2.670  -0.875  -0.950  1.00  0.00     0.132 C 
BRANCH  18  19
HETATM   19  N5  UNL     1      -3.393  -0.266   0.130  1.00  0.00    -0.351 N 
HETATM   20  C17 UNL     1      -3.575  -0.864   1.405  1.00  0.00     0.248 C 
HETATM   21  O5  UNL     1      -3.113  -1.997   1.697  1.00  0.00    -0.271 OA
ATOM     22  H5  UNL     1      -3.802   0.655  -0.028  1.00  0.00     0.163 HD
BRANCH  20  23
HETATM   23  C18 UNL     1      -4.339  -0.170   2.493  1.00  0.00     0.270 C 
HETATM   24  C19 UNL     1      -5.767   0.068   2.032  1.00  0.00     0.050 C 
BRANCH  23  25
HETATM   25  N6  UNL     1      -4.402  -0.972   3.697  1.00  0.00    -0.067 N 
ATOM     26  H63 UNL     1      -4.783  -1.899   3.507  1.00  0.00     0.275 HD
ATOM     27  H62 UNL     1      -3.471  -1.245   4.012  1.00  0.00     0.275 HD
ATOM     28  H61 UNL     1      -4.922  -0.500   4.437  1.00  0.00     0.275 HD
ENDBRANCH  23  25
ENDBRANCH  20  23
ENDBRANCH  18  19
ENDBRANCH   9  11
BRANCH   1  29
HETATM   29  C6  UNL     1       2.234   1.360   0.035  1.00  0.00     0.253 C 
HETATM   30  N1  UNL     1       2.220   1.583  -1.348  1.00  0.00    -0.284 N 
ATOM     31  H1  UNL     1       1.582   1.057  -1.946  1.00  0.00     0.179 HD
HETATM   32  O1  UNL     1       3.037   2.025   0.773  1.00  0.00    -0.270 OA
BRANCH  30  33
HETATM   33  C5  UNL     1       3.096   2.542  -1.911  1.00  0.00     0.017 C 
HETATM   34  C4  UNL     1       3.848   3.364  -2.369  1.00  0.00    -0.056 C 
BRANCH  34  35
HETATM   35  C3  UNL     1       4.754   4.356  -2.893  1.00  0.00     0.062 C 
HETATM   36  C2  UNL     1       6.055   4.145  -2.929  1.00  0.00    -0.022 C 
HETATM   37  C1  UNL     1       6.576   2.860  -2.418  1.00  0.00     0.036 C 
ENDBRANCH  34  35
ENDBRANCH  30  33
ENDBRANCH   1  29
TORSDOF 7
