REMARK  11 active torsions:
REMARK  status: ('A' for Active; 'I' for Inactive)
REMARK    1  A    between atoms: C2_2  and  N1_3 
REMARK    2  A    between atoms: N1_3  and  C3_4 
REMARK    3  A    between atoms: C3_4  and  C4_5 
REMARK    4  A    between atoms: C4_5  and  C5_6 
REMARK    5  A    between atoms: C5_6  and  C6_7 
REMARK    6  A    between atoms: C6_7  and  N2_8 
REMARK    7  A    between atoms: C6_7  and  C7_12 
REMARK    8  A    between atoms: C10_21  and  C11_22 
REMARK    9  A    between atoms: C11_22  and  C12_23 
REMARK   10  A    between atoms: C12_23  and  C13_24 
REMARK   11  A    between atoms: C13_24  and  N5_25 
ROOT
HETATM    1  C7  UNL     1       0.979  -1.487  -0.661  1.00  0.00     0.287 C 
HETATM    2  N3  UNL     1      -0.347  -2.118  -0.640  1.00  0.00    -0.054 N 
ATOM      3  H31 UNL     1      -0.280  -3.103  -0.898  1.00  0.00     0.278 HD
ATOM      4  H32 UNL     1      -0.919  -1.777  -1.412  1.00  0.00     0.278 HD
HETATM    5  C8  UNL     1      -1.044  -1.968   0.614  1.00  0.00     0.335 C 
HETATM    6  C9  UNL     1      -2.452  -1.662   0.250  1.00  0.00     0.244 C 
HETATM    7  O1  UNL     1      -3.202  -2.636  -0.008  1.00  0.00    -0.272 OA
HETATM    8  N4  UNL     1      -2.940  -0.345   0.187  1.00  0.00    -0.346 N 
ATOM      9  H4  UNL     1      -3.403  -0.088  -0.685  1.00  0.00     0.163 HD
HETATM   10  C10 UNL     1      -2.876   0.672   1.169  1.00  0.00     0.176 C 
HETATM   11  C15 UNL     1      -1.555   1.312   1.381  1.00  0.00     0.243 C 
HETATM   12  O2  UNL     1      -1.241   1.528   2.618  1.00  0.00    -0.271 OA
HETATM   13  N8  UNL     1      -0.606   1.715   0.434  1.00  0.00    -0.339 N 
HETATM   14  C16 UNL     1       0.108   2.978   0.343  1.00  0.00     0.127 C 
HETATM   15  C17 UNL     1       0.052   3.253  -1.164  1.00  0.00     0.022 C 
HETATM   16  C18 UNL     1       0.575   1.878  -1.623  1.00  0.00     0.035 C 
HETATM   17  C19 UNL     1      -0.105   0.910  -0.669  1.00  0.00     0.159 C 
HETATM   18  C20 UNL     1       0.875  -0.108  -0.133  1.00  0.00     0.182 C 
HETATM   19  O3  UNL     1       1.581   0.267   0.766  1.00  0.00    -0.293 OA
ENDROOT
BRANCH   1  20
HETATM   20  C6  UNL     1       1.991  -2.358  -0.012  1.00  0.00     0.221 C 
BRANCH  20  21
HETATM   21  C5  UNL     1       3.391  -1.829  -0.025  1.00  0.00     0.037 C 
BRANCH  21  22
HETATM   22  C4  UNL     1       3.893  -1.543  -1.422  1.00  0.00     0.030 C 
BRANCH  22  23
HETATM   23  C3  UNL     1       5.294  -1.057  -1.352  1.00  0.00     0.237 C 
BRANCH  23  24
HETATM   24  N1  UNL     1       5.533   0.133  -0.605  1.00  0.00    -0.064 N 
HETATM   25  C21 UNL     1       5.987  -0.087   0.764  1.00  0.00     0.265 A 
HETATM   26  C22 UNL     1       6.912   0.432  -0.247  1.00  0.00     0.265 A 
BRANCH  24  27
HETATM   27  C2  UNL     1       4.679   1.253  -0.884  1.00  0.00     0.233 C 
HETATM   28  C1  UNL     1       5.293   2.310  -1.755  1.00  0.00     0.035 C 
ENDBRANCH  24  27
ENDBRANCH  23  24
ENDBRANCH  22  23
ENDBRANCH  21  22
ENDBRANCH  20  21
BRANCH  20  29
HETATM   29  N2  UNL     1       1.687  -2.569   1.420  1.00  0.00    -0.073 N 
ATOM     30  H23 UNL     1       2.360  -3.162   1.905  1.00  0.00     0.274 HD
ATOM     31  H22 UNL     1       1.825  -1.742   2.001  1.00  0.00     0.274 HD
ATOM     32  H21 UNL     1       0.733  -2.930   1.429  1.00  0.00     0.274 HD
ENDBRANCH  20  29
ENDBRANCH   1  20
BRANCH  10  33
HETATM   33  C11 UNL     1      -3.946   1.743   1.040  1.00  0.00     0.036 C 
BRANCH  33  34
HETATM   34  C12 UNL     1      -5.353   1.302   1.177  1.00  0.00     0.022 C 
BRANCH  34  35
HETATM   35  C13 UNL     1      -5.887   0.297   0.228  1.00  0.00     0.122 C 
BRANCH  35  36
HETATM   36  N5  UNL     1      -7.318   0.119   0.589  1.00  0.00    -0.367 N 
HETATM   37  C14 UNL     1      -7.826  -1.054   0.717  1.00  0.00     0.196 C 
HETATM   38  N6  UNL     1      -7.115  -2.266   0.539  1.00  0.00    -0.067 NA
HETATM   39  N7  UNL     1      -9.203  -1.134   1.062  1.00  0.00    -0.067 NA
ATOM     40  H5  UNL     1      -7.905   0.940   0.737  1.00  0.00     0.161 HD
ENDBRANCH  35  36
ENDBRANCH  34  35
ENDBRANCH  33  34
ENDBRANCH  10  33
TORSDOF 11
