REMARK  3 active torsions:
REMARK  status: ('A' for Active; 'I' for Inactive)
REMARK    1  A    between atoms: C2_2  and  C3_3 
REMARK    2  A    between atoms: C3_3  and  N1_4 
REMARK    3  A    between atoms: N3_10  and  O1_11 
ROOT
HETATM    1  N1  UNL     1       1.320  -0.529  -0.058  1.00  0.00     0.099 N 
HETATM    2  C4  UNL     1       1.085  -1.717  -0.799  1.00  0.00     0.315 C 
HETATM    3  C5  UNL     1      -0.323  -2.118  -0.921  1.00  0.00     0.016 A 
HETATM    4  C6  UNL     1      -0.884  -3.241  -1.494  1.00  0.00     0.120 A 
HETATM    5  N2  UNL     1      -2.221  -3.159  -1.359  1.00  0.00    -0.285 N 
ATOM      6  H2  UNL     1      -2.905  -3.842  -1.684  1.00  0.00     0.188 HD
HETATM    7  N3  UNL     1      -2.483  -2.025  -0.725  1.00  0.00    -0.165 N 
HETATM    8  C7  UNL     1      -1.359  -1.366  -0.443  1.00  0.00     0.100 A 
HETATM    9  C8  UNL     1      -1.085  -0.091   0.231  1.00  0.00     0.122 C 
HETATM   10  C9  UNL     1      -1.291  -0.166   1.719  1.00  0.00     0.162 C 
HETATM   11  N4  UNL     1      -1.739   1.149   2.075  1.00  0.00    -0.362 N 
ATOM     12  H4  UNL     1      -1.726   1.539   3.017  1.00  0.00     0.162 HD
HETATM   13  C10 UNL     1      -2.157   1.757   1.034  1.00  0.00     0.185 C 
HETATM   14  N5  UNL     1      -2.690   3.094   0.958  1.00  0.00    -0.064 NA
HETATM   15  N6  UNL     1      -2.035   0.946  -0.119  1.00  0.00    -0.346 N 
ATOM     16  H6  UNL     1      -2.516   1.066  -1.011  1.00  0.00     0.163 HD
HETATM   17  C11 UNL     1       0.280   0.445  -0.105  1.00  0.00     0.312 C 
ENDROOT
BRANCH   7  18
HETATM   18  O1  UNL     1      -3.745  -1.584  -0.401  1.00  0.00    -0.268 OA
ATOM     19  H1  UNL     1      -3.933  -0.771   0.053  1.00  0.00     0.247 HD
ENDBRANCH   7  18
BRANCH   1  20
HETATM   20  C3  UNL     1       2.527   0.099  -0.617  1.00  0.00     0.299 C 
BRANCH  20  21
HETATM   21  C2  UNL     1       2.888   1.344   0.059  1.00  0.00    -0.007 C 
HETATM   22  C1  UNL     1       4.047   1.470   0.654  1.00  0.00     0.008 C 
ENDBRANCH  20  21
ENDBRANCH   1  20
TORSDOF 3
