REMARK  9 active torsions:
REMARK  status: ('A' for Active; 'I' for Inactive)
REMARK    1  A    between atoms: C2_2  and  N1_3 
REMARK    2  A    between atoms: C2_2  and  N2_7 
REMARK    3  A    between atoms: C2_2  and  C3_11 
REMARK    4  A    between atoms: C3_11  and  C4_12 
REMARK    5  A    between atoms: C4_12  and  N3_13 
REMARK    6  A    between atoms: C5_14  and  N4_15 
REMARK    7  A    between atoms: N5_18  and  N6_19 
REMARK    8  A    between atoms: C7_25  and  S1_26 
REMARK    9  A    between atoms: S1_26  and  N8_27 
ROOT
HETATM    1  N3  UNL     1      -0.434  -0.873   0.890  1.00  0.00    -0.163 N 
HETATM    2  C5  UNL     1      -0.339  -2.232   0.933  1.00  0.00     0.702 A 
HETATM    3  N5  UNL     1       0.938  -2.576   0.632  1.00  0.00    -0.072 N 
HETATM    4  C6  UNL     1       1.659  -1.469   0.398  1.00  0.00     0.191 A 
HETATM    5  N7  UNL     1       2.932  -1.176   0.066  1.00  0.00    -0.324 N 
ATOM      6  H7  UNL     1       3.595  -1.940  -0.063  1.00  0.00     0.168 HD
HETATM    7  C7  UNL     1       3.358   0.084  -0.101  1.00  0.00     0.192 A 
HETATM    8  C8  UNL     1       2.470   1.113   0.069  1.00  0.00     0.158 A 
HETATM    9  N9  UNL     1       2.908   2.434  -0.104  1.00  0.00    -0.079 NA
HETATM   10  N10 UNL     1       1.204   0.857   0.397  1.00  0.00    -0.325 N 
ATOM     11  H10 UNL     1       0.547   1.627   0.523  1.00  0.00     0.169 HD
HETATM   12  C9  UNL     1       0.786  -0.419   0.564  1.00  0.00     0.172 A 
ENDROOT
BRANCH   1  13
HETATM   13  C4  UNL     1      -1.629  -0.115   1.151  1.00  0.00     0.154 C 
BRANCH  13  14
HETATM   14  C3  UNL     1      -2.393   0.083  -0.143  1.00  0.00     0.089 C 
BRANCH  14  15
HETATM   15  C2  UNL     1      -3.660   0.878   0.092  1.00  0.00     0.280 C 
HETATM   16  C1  UNL     1      -3.353   2.230   0.654  1.00  0.00     0.078 C 
BRANCH  15  17
HETATM   17  N1  UNL     1      -4.274   1.076  -1.215  1.00  0.00    -0.045 N 
ATOM     18  H13 UNL     1      -5.090   1.688  -1.183  1.00  0.00     0.277 HD
ATOM     19  H12 UNL     1      -3.704   1.646  -1.840  1.00  0.00     0.277 HD
ATOM     20  H11 UNL     1      -4.483   0.154  -1.598  1.00  0.00     0.277 HD
ENDBRANCH  15  17
BRANCH  15  21
HETATM   21  N2  UNL     1      -4.596   0.188   0.925  1.00  0.00    -0.045 N 
ATOM     22  H23 UNL     1      -4.274   0.132   1.891  1.00  0.00     0.277 HD
ATOM     23  H22 UNL     1      -5.443   0.736   1.078  1.00  0.00     0.277 HD
ATOM     24  H21 UNL     1      -4.805  -0.734   0.542  1.00  0.00     0.277 HD
ENDBRANCH  15  21
ENDBRANCH  14  15
ENDBRANCH  13  14
ENDBRANCH   1  13
BRANCH   2  25
HETATM   25  N4  UNL     1      -1.269  -3.085   1.206  1.00  0.00    -0.233 N 
ATOM     26  H42 UNL     1      -2.229  -2.826   1.432  1.00  0.00     0.174 HD
ATOM     27  H41 UNL     1      -1.198  -4.102   1.238  1.00  0.00     0.174 HD
ENDBRANCH   2  25
BRANCH   3  28
HETATM   28  N6  UNL     1       1.449  -3.875   0.568  1.00  0.00    -0.322 N 
ATOM     29  H62 UNL     1       0.901  -4.717   0.746  1.00  0.00     0.178 HD
ATOM     30  H61 UNL     1       2.409  -4.134   0.342  1.00  0.00     0.178 HD
ENDBRANCH   3  28
BRANCH   7  31
HETATM   31  S1  UNL     1       4.994   0.411  -0.525  1.00  0.00     0.275 S 
HETATM   32  O1  UNL     1       5.855  -0.678   0.102  1.00  0.00    -0.199 OA
HETATM   33  O2  UNL     1       5.379   1.740   0.111  1.00  0.00    -0.199 OA
BRANCH  31  34
HETATM   34  N8  UNL     1       5.320   0.477  -2.168  1.00  0.00    -0.323 N 
ATOM     35  H82 UNL     1       4.585   0.331  -2.860  1.00  0.00     0.169 HD
ATOM     36  H81 UNL     1       6.289   0.671  -2.419  1.00  0.00     0.169 HD
ENDBRANCH  31  34
ENDBRANCH   7  31
TORSDOF 9
