REMARK  7 active torsions:
REMARK  status: ('A' for Active; 'I' for Inactive)
REMARK    1  A    between atoms: C3_8  and  O1_9 
REMARK    2  A    between atoms: O1_9  and  C4_10 
REMARK    3  A    between atoms: C5_11  and  O2_12 
REMARK    4  A    between atoms: C6_14  and  O3_15 
REMARK    5  A    between atoms: C7_17  and  N4_18 
REMARK    6  A    between atoms: C8_22  and  O4_23 
REMARK    7  A    between atoms: C10_25  and  O5_26 
ROOT
HETATM    1  C4  UNL     1      -0.364  -0.252  -0.434  1.00  0.00     0.187 C 
HETATM    2  C5  UNL     1      -0.970  -1.569  -0.847  1.00  0.00     0.180 C 
HETATM    3  C6  UNL     1      -2.202  -1.246  -1.636  1.00  0.00     0.182 C 
HETATM    4  C7  UNL     1      -3.210  -0.421  -0.898  1.00  0.00     0.245 C 
HETATM    5  C8  UNL     1      -2.679   0.704  -0.112  1.00  0.00     0.185 C 
HETATM    6  C10 UNL     1      -1.284   0.596   0.388  1.00  0.00     0.183 C 
ENDROOT
BRANCH   1   7
HETATM    7  O1  UNL     1       0.808  -0.545   0.261  1.00  0.00    -0.348 OA
BRANCH   7   8
HETATM    8  C3  UNL     1       1.942  -0.144  -0.416  1.00  0.00     0.305 C 
HETATM    9  N3  UNL     1       2.752   0.641   0.495  1.00  0.00    -0.095 NA
HETATM   10  N2  UNL     1       4.062   0.659   0.055  1.00  0.00    -0.281 N 
HETATM   11  C2  UNL     1       4.564  -0.621  -0.280  1.00  0.00     0.155 C 
ATOM     12  H2  UNL     1       4.614   1.513  -0.021  1.00  0.00     0.184 HD
HETATM   13  N1  UNL     1       5.775  -1.008  -0.317  1.00  0.00    -0.374 N 
HETATM   14  S1  UNL     1       3.093  -1.574  -0.643  1.00  0.00    -0.043 SA
HETATM   15  C1  UNL     1       6.911  -0.181  -0.011  1.00  0.00     0.148 C 
ATOM     16  H1  UNL     1       5.954  -1.976  -0.583  1.00  0.00     0.161 HD
ENDBRANCH   7   8
ENDBRANCH   1   7
BRANCH   2  17
HETATM   17  O2  UNL     1      -0.055  -2.158  -1.746  1.00  0.00    -0.390 OA
ATOM     18  H2  UNL     1      -0.437  -2.988  -2.006  1.00  0.00     0.210 HD
ENDBRANCH   2  17
BRANCH   6  19
HETATM   19  O5  UNL     1      -1.204   0.160   1.711  1.00  0.00    -0.385 OA
HETATM   20  C11 UNL     1      -0.649   1.058   2.571  1.00  0.00     0.202 C 
ENDBRANCH   6  19
BRANCH   3  21
HETATM   21  O3  UNL     1      -2.769  -2.464  -2.035  1.00  0.00    -0.391 OA
ATOM     22  H3  UNL     1      -3.550  -2.259  -2.535  1.00  0.00     0.210 HD
ENDBRANCH   3  21
BRANCH   5  23
HETATM   23  O4  UNL     1      -2.825   1.875  -0.859  1.00  0.00    -0.386 OA
HETATM   24  C9  UNL     1      -3.691   2.781  -0.287  1.00  0.00     0.202 C 
ENDBRANCH   5  23
BRANCH   4  25
HETATM   25  N4  UNL     1      -3.976  -1.329  -0.055  1.00  0.00    -0.070 N 
ATOM     26  H43 UNL     1      -4.395  -2.100  -0.576  1.00  0.00     0.274 HD
ATOM     27  H42 UNL     1      -3.390  -1.891   0.563  1.00  0.00     0.274 HD
ATOM     28  H41 UNL     1      -4.663  -0.767   0.448  1.00  0.00     0.274 HD
ENDBRANCH   4  25
TORSDOF 7
