REMARK  8 active torsions:
REMARK  status: ('A' for Active; 'I' for Inactive)
REMARK    1  A    between atoms: C4_7  and  C5_8 
REMARK    2  A    between atoms: C5_8  and  N3_9 
REMARK    3  A    between atoms: C5_8  and  C6_13 
REMARK    4  A    between atoms: C5_8  and  C7_20 
REMARK       I    between atoms: C6_13  and  N4_15 
REMARK    5  A    between atoms: N4_15  and  N5_17 
REMARK    6  A    between atoms: C7_20  and  C8_22 
REMARK    7  A    between atoms: C8_22  and  O3_23 
REMARK    8  A    between atoms: C8_22  and  O4_25 
ROOT
HETATM    1  C5  UNL     1      -1.019   0.369   0.242  1.00  0.00     0.312 C 
ENDROOT
BRANCH   1   2
HETATM    2  C4  UNL     1       0.410   0.326   0.538  1.00  0.00     0.096 A 
HETATM    3  C3  UNL     1       1.310  -0.301  -0.273  1.00  0.00     0.104 A 
HETATM    4  N2  UNL     1       1.229  -0.976  -1.422  1.00  0.00    -0.347 N 
HETATM    5  C10 UNL     1       2.671  -0.320   0.052  1.00  0.00     0.139 A 
HETATM    6  C2  UNL     1       2.441  -1.390  -1.798  1.00  0.00     0.184 A 
ATOM      7  H2  UNL     1       0.366  -1.150  -1.938  1.00  0.00     0.167 HD
HETATM    8  N1  UNL     1       3.362  -0.998  -0.901  1.00  0.00    -0.332 N 
HETATM    9  C1  UNL     1       4.795  -1.236  -0.924  1.00  0.00     0.158 C 
HETATM   10  N7  UNL     1       3.033   0.302   1.184  1.00  0.00    -0.317 N 
HETATM   11  C9  UNL     1       2.174   0.928   2.004  1.00  0.00     0.180 A 
ATOM     12  H7  UNL     1       4.021   0.299   1.437  1.00  0.00     0.170 HD
HETATM   13  N6  UNL     1       0.883   0.917   1.648  1.00  0.00    -0.331 N 
HETATM   14 CL1  UNL     1       2.686   1.731   3.478  1.00  0.00    -0.045 Cl
ATOM     15  H6  UNL     1       0.216   1.388   2.259  1.00  0.00     0.168 HD
ENDBRANCH   1   2
BRANCH   1  16
HETATM   16  N3  UNL     1      -1.321   1.020  -1.037  1.00  0.00    -0.048 N 
ATOM     17  H33 UNL     1      -0.913   1.954  -1.075  1.00  0.00     0.276 HD
ATOM     18  H32 UNL     1      -0.805   0.581  -1.799  1.00  0.00     0.276 HD
ATOM     19  H31 UNL     1      -2.319   1.050  -1.244  1.00  0.00     0.276 HD
ENDBRANCH   1  16
BRANCH   1  20
HETATM   20  C6  UNL     1      -1.669   1.223   1.281  1.00  0.00     0.286 C 
HETATM   21  O1  UNL     1      -1.558   0.880   2.471  1.00  0.00    -0.268 OA
HETATM   22  N4  UNL     1      -2.386   2.381   0.943  1.00  0.00    -0.274 N 
ATOM     23  H4  UNL     1      -2.455   2.632  -0.043  1.00  0.00     0.189 HD
BRANCH  22  24
HETATM   24  N5  UNL     1      -3.008   3.207   1.875  1.00  0.00    -0.343 N 
ATOM     25  H52 UNL     1      -2.928   2.941   2.856  1.00  0.00     0.176 HD
ATOM     26  H51 UNL     1      -3.529   4.049   1.629  1.00  0.00     0.176 HD
ENDBRANCH  22  24
ENDBRANCH   1  20
BRANCH   1  27
HETATM   27  C7  UNL     1      -1.580  -1.009   0.277  1.00  0.00     0.232 C 
HETATM   28  O2  UNL     1      -1.219  -1.777   1.149  1.00  0.00    -0.289 OA
BRANCH  27  29
HETATM   29  C8  UNL     1      -2.568  -1.477  -0.718  1.00  0.00     0.329 C 
BRANCH  29  30
HETATM   30  O3  UNL     1      -2.902  -2.823  -0.466  1.00  0.00    -0.365 OA
ATOM     31  H3  UNL     1      -3.537  -3.124  -1.105  1.00  0.00     0.213 HD
ENDBRANCH  29  30
BRANCH  29  32
HETATM   32  O4  UNL     1      -2.177  -1.387  -2.027  1.00  0.00    -0.365 OA
ATOM     33  H4  UNL     1      -2.812  -1.688  -2.666  1.00  0.00     0.213 HD
ENDBRANCH  29  32
ENDBRANCH  27  29
ENDBRANCH   1  27
TORSDOF 8
