REMARK  9 active torsions:
REMARK  status: ('A' for Active; 'I' for Inactive)
REMARK       I    between atoms: N2_8  and  C6_9 
REMARK       I    between atoms: C6_9  and  N12_36 
REMARK       I    between atoms: N3_10  and  C7_12 
REMARK       I    between atoms: N5_14  and  C8_16 
REMARK       I    between atoms: N7_18  and  C9_20 
REMARK    1  A    between atoms: N9_22  and  C10_24 
REMARK    2  A    between atoms: C10_24  and  C11_25 
REMARK    3  A    between atoms: C11_25  and  C12_26 
REMARK    4  A    between atoms: C12_26  and  C13_27 
REMARK    5  A    between atoms: C13_27  and  N10_28 
REMARK    6  A    between atoms: N10_28  and  S2_30 
REMARK    7  A    between atoms: S2_30  and  N11_31 
REMARK    8  A    between atoms: N12_36  and  N13_38 
REMARK    9  A    between atoms: N13_38  and  N14_39 
ROOT
HETATM    1  N1  UNL     1      -5.831  -2.324   2.239  1.00  0.00    -0.195 NA
HETATM    2  C1  UNL     1      -6.353  -1.546   1.552  1.00  0.00     0.086 C 
HETATM    3  C2  UNL     1      -7.001  -0.554   0.687  1.00  0.00     0.218 C 
HETATM    4  C3  UNL     1      -7.877  -1.305  -0.281  1.00  0.00     0.115 C 
HETATM    5  S1  UNL     1      -6.878  -1.709  -1.759  1.00  0.00    -0.164 SA
HETATM    6  C4  UNL     1      -6.259  -0.126  -2.408  1.00  0.00     0.094 C 
HETATM    7  C5  UNL     1      -6.403   0.881  -1.266  1.00  0.00     0.153 C 
HETATM    8  N2  UNL     1      -6.008   0.191  -0.059  1.00  0.00    -0.198 N 
HETATM    9  C6  UNL     1      -4.663   0.264   0.358  1.00  0.00     0.697 C 
HETATM   10  N3  UNL     1      -3.849  -0.661   0.024  1.00  0.00    -0.162 N 
ATOM     11  H3  UNL     1      -4.205  -1.432  -0.541  1.00  0.00     0.187 HD
HETATM   12  C7  UNL     1      -2.477  -0.680   0.393  1.00  0.00     0.209 C 
HETATM   13  N4  UNL     1      -1.985  -1.272   1.563  1.00  0.00    -0.063 NA
HETATM   14  N5  UNL     1      -1.669  -0.107  -0.425  1.00  0.00    -0.304 N 
ATOM     15  H5  UNL     1      -2.014   0.328  -1.281  1.00  0.00     0.171 HD
HETATM   16  C8  UNL     1      -0.265  -0.094  -0.105  1.00  0.00     0.197 C 
HETATM   17  N6  UNL     1       0.159   0.634   1.027  1.00  0.00    -0.063 NA
HETATM   18  N7  UNL     1       0.518  -0.749  -0.874  1.00  0.00    -0.305 N 
ATOM     19  H7  UNL     1       0.113  -1.244  -1.668  1.00  0.00     0.171 HD
HETATM   20  C9  UNL     1       1.946  -0.825  -0.677  1.00  0.00     0.190 C 
HETATM   21  N8  UNL     1       2.513   0.269   0.024  1.00  0.00    -0.063 NA
HETATM   22  N9  UNL     1       2.567  -1.820  -1.126  1.00  0.00    -0.364 N 
ATOM     23  H9  UNL     1       1.961  -2.490  -1.599  1.00  0.00     0.162 HD
HETATM   24  N12 UNL     1      -4.234   1.357   1.138  1.00  0.00    -0.116 N 
ATOM     25  H12 UNL     1      -4.236   1.253   2.153  1.00  0.00     0.203 HD
ENDROOT
BRANCH  24  26
HETATM   26  N13 UNL     1      -3.806   2.576   0.602  1.00  0.00    -0.015 NA
BRANCH  26  27
HETATM   27  N14 UNL     1      -4.772   3.559   0.807  1.00  0.00    -0.328 N 
ATOM     28 2H14 UNL     1      -5.660   3.397   1.282  1.00  0.00     0.174 HD
ATOM     29 1H14 UNL     1      -4.460   4.448   0.416  1.00  0.00     0.174 HD
ENDBRANCH  26  27
ENDBRANCH  24  26
BRANCH  22  30
HETATM   30  C10 UNL     1       3.923  -2.211  -1.117  1.00  0.00     0.122 C 
BRANCH  30  31
HETATM   31  C11 UNL     1       4.839  -1.209  -0.471  1.00  0.00     0.021 C 
BRANCH  31  32
HETATM   32  C12 UNL     1       6.288  -1.711  -0.516  1.00  0.00     0.022 C 
BRANCH  32  33
HETATM   33  C13 UNL     1       7.155  -0.695   0.144  1.00  0.00     0.133 C 
BRANCH  33  34
HETATM   34  N10 UNL     1       7.156   0.605  -0.448  1.00  0.00    -0.303 N 
ATOM     35  H10 UNL     1       6.622   0.891  -1.268  1.00  0.00     0.173 HD
BRANCH  34  36
HETATM   36  S2  UNL     1       8.224   1.611   0.472  1.00  0.00     0.312 S 
HETATM   37  O1  UNL     1       8.224   1.177   1.891  1.00  0.00    -0.183 OA
HETATM   38  O2  UNL     1       7.730   3.024   0.391  1.00  0.00    -0.183 OA
BRANCH  36  39
HETATM   39  N11 UNL     1       9.826   1.549  -0.134  1.00  0.00    -0.312 N 
ATOM     40 2H11 UNL     1      10.100   0.985  -0.938  1.00  0.00     0.170 HD
ATOM     41 1H11 UNL     1      10.455   2.142   0.408  1.00  0.00     0.170 HD
ENDBRANCH  36  39
ENDBRANCH  34  36
ENDBRANCH  33  34
ENDBRANCH  32  33
ENDBRANCH  31  32
ENDBRANCH  30  31
ENDBRANCH  22  30
TORSDOF 9
