REMARK  3 active torsions:
REMARK  status: ('A' for Active; 'I' for Inactive)
REMARK    1  A    between atoms: N1_1  and  N2_4 
REMARK       I    between atoms: N2_4  and  C1_6 
REMARK    2  A    between atoms: C1_6  and  C2_8 
REMARK    3  A    between atoms: C4_12  and  C5_13 
ROOT
HETATM    1  C2  UNL     1      -0.962   0.700   0.216  1.00  0.00     0.177 A 
HETATM    2  N3  UNL     1       0.037   1.431   0.789  1.00  0.00    -0.347 N 
ATOM      3  H3  UNL     1      -0.206   2.323   1.219  1.00  0.00     0.167 HD
HETATM    4  C3  UNL     1       1.318   1.044   0.819  1.00  0.00     0.110 A 
HETATM    5  C4  UNL     1       1.620  -0.169   0.228  1.00  0.00     0.085 A 
HETATM    6  C6  UNL     1       0.635  -0.957  -0.372  1.00  0.00     0.134 A 
HETATM    7  N5  UNL     1       0.953  -2.199  -0.975  1.00  0.00    -0.082 NA
HETATM    8  N6  UNL     1      -0.616  -0.470  -0.343  1.00  0.00    -0.325 N 
ATOM      9  H6  UNL     1      -1.353  -1.027  -0.775  1.00  0.00     0.169 HD
ENDROOT
BRANCH   1  10
HETATM   10  C1  UNL     1      -2.335   1.189   0.223  1.00  0.00     0.303 C 
HETATM   11  N2  UNL     1      -3.362   0.432  -0.368  1.00  0.00    -0.270 N 
ATOM     12  H2  UNL     1      -3.138  -0.463  -0.803  1.00  0.00     0.189 HD
HETATM   13  O1  UNL     1      -2.598   2.284   0.758  1.00  0.00    -0.263 OA
BRANCH  11  14
HETATM   14  N1  UNL     1      -4.670   0.880  -0.370  1.00  0.00    -0.342 N 
ATOM     15  H12 UNL     1      -4.877   1.777   0.069  1.00  0.00     0.176 HD
ATOM     16  H11 UNL     1      -5.415   0.331  -0.799  1.00  0.00     0.176 HD
ENDBRANCH  11  14
ENDBRANCH   1  10
BRANCH   5  17
HETATM   17  C5  UNL     1       2.982  -0.660   0.217  1.00  0.00     0.269 C 
HETATM   18  N4  UNL     1       4.033   0.087   0.809  1.00  0.00    -0.057 NA
HETATM   19  O2  UNL     1       3.272  -1.755  -0.312  1.00  0.00    -0.271 OA
ENDBRANCH   5  17
TORSDOF 3
