REMARK  5 active torsions:
REMARK  status: ('A' for Active; 'I' for Inactive)
REMARK    1  A    between atoms: C2_2  and  C3_3 
REMARK    2  A    between atoms: C3_3  and  C4_4 
REMARK    3  A    between atoms: N2_8  and  C6_9 
REMARK    4  A    between atoms: C6_9  and  C7_10 
REMARK    5  A    between atoms: C8_11  and  C9_12 
ROOT
HETATM    1  C6  UNL     1       0.486  -2.075  -0.274  1.00  0.00     0.242 C 
ENDROOT
BRANCH   1   2
HETATM    2  N2  UNL     1       1.482  -1.089  -0.684  1.00  0.00    -0.292 N 
HETATM    3  N1  UNL     1       1.761  -0.794  -1.943  1.00  0.00    -0.309 N 
HETATM    4  C5  UNL     1       2.718   0.149  -2.015  1.00  0.00     0.115 A 
ATOM      5  H1  UNL     1       1.311  -1.224  -2.751  1.00  0.00     0.186 HD
HETATM    6  C4  UNL     1       3.074   0.477  -0.708  1.00  0.00    -0.024 A 
HETATM    7  C13 UNL     1       2.276  -0.322   0.085  1.00  0.00     0.119 A 
BRANCH   6   8
HETATM    8  C3  UNL     1       4.100   1.478  -0.315  1.00  0.00     0.041 C 
BRANCH   8   9
HETATM    9  C2  UNL     1       5.482   0.837  -0.185  1.00  0.00     0.000 C 
HETATM   10  C1  UNL     1       5.488  -0.245   0.852  1.00  0.00     0.005 C 
ENDBRANCH   8   9
ENDBRANCH   6   8
ENDBRANCH   1   2
BRANCH   1  11
HETATM   11  C7  UNL     1      -0.820  -1.444  -0.114  1.00  0.00    -0.079 C 
HETATM   12  C8  UNL     1      -1.911  -0.935   0.015  1.00  0.00    -0.060 C 
BRANCH  12  13
HETATM   13  C9  UNL     1      -3.214  -0.347   0.159  1.00  0.00     0.077 A 
HETATM   14  C10 UNL     1      -3.653   0.901  -0.232  1.00  0.00     0.133 A 
HETATM   15  N3  UNL     1      -4.942   1.070   0.084  1.00  0.00    -0.305 N 
HETATM   16  C11 UNL     1      -5.747   2.272  -0.178  1.00  0.00     0.177 C 
HETATM   17  N4  UNL     1      -5.342  -0.046   0.672  1.00  0.00    -0.285 N 
HETATM   18  C12 UNL     1      -4.338  -0.938   0.745  1.00  0.00     0.151 A 
ATOM     19  H4  UNL     1      -6.286  -0.208   1.023  1.00  0.00     0.188 HD
HETATM   20  N5  UNL     1      -4.313  -2.244   1.285  1.00  0.00    -0.080 NA
ENDBRANCH  12  13
ENDBRANCH   1  11
TORSDOF 5
