REMARK  8 active torsions:
REMARK  status: ('A' for Active; 'I' for Inactive)
REMARK    1  A    between atoms: N1_2  and  C2_3 
REMARK    2  A    between atoms: N1_2  and  C8_13 
REMARK    3  A    between atoms: C2_3  and  C3_4 
REMARK    4  A    between atoms: C3_4  and  O1_8 
REMARK    5  A    between atoms: O1_8  and  C4_9 
REMARK    6  A    between atoms: C9_16  and  N4_17 
REMARK    7  A    between atoms: C10_22  and  N6_23 
REMARK    8  A    between atoms: C11_26  and  N7_27 
ROOT
HETATM    1  C8  UNL     1      -2.238  -0.411   0.016  1.00  0.00     0.156 A 
HETATM    2  N3  UNL     1      -2.576  -0.084  -1.244  1.00  0.00    -0.174 N 
ATOM      3  H3  UNL     1      -1.872  -0.157  -1.978  1.00  0.00     0.186 HD
HETATM    4  C9  UNL     1      -3.813   0.337  -1.569  1.00  0.00     0.679 A 
HETATM    5  N5  UNL     1      -4.791   0.461  -0.661  1.00  0.00    -0.175 N 
ATOM      6  H5  UNL     1      -5.720   0.783  -0.934  1.00  0.00     0.186 HD
HETATM    7  C10 UNL     1      -4.518   0.151   0.616  1.00  0.00     0.151 A 
HETATM    8  C11 UNL     1      -3.250  -0.284   0.965  1.00  0.00     0.191 A 
ENDROOT
BRANCH   1   9
HETATM    9  N1  UNL     1      -0.968  -0.862   0.434  1.00  0.00    -0.362 N 
HETATM   10  C1  UNL     1      -0.626  -2.262   0.122  1.00  0.00     0.152 C 
BRANCH   9  11
HETATM   11  C2  UNL     1       0.027  -0.125   1.141  1.00  0.00     0.207 C 
BRANCH  11  12
HETATM   12  C3  UNL     1       1.196   0.095   0.266  1.00  0.00     0.130 C 
HETATM   13  N2  UNL     1       1.117  -0.110  -0.968  1.00  0.00    -0.382 N 
ATOM     14  H22 UNL     1       0.246  -0.432  -1.390  1.00  0.00     0.158 HD
ATOM     15  H21 UNL     1       1.924   0.042  -1.572  1.00  0.00     0.158 HD
BRANCH  12  16
HETATM   16  O1  UNL     1       2.359   0.525   0.829  1.00  0.00    -0.328 OA
BRANCH  16  17
HETATM   17  C4  UNL     1       3.595   0.636   0.234  1.00  0.00     0.058 C 
HETATM   18  C5  UNL     1       4.157  -0.652  -0.322  1.00  0.00     0.045 C 
HETATM   19  C6  UNL     1       3.794   1.762  -0.721  1.00  0.00     0.045 C 
HETATM   20  C7  UNL     1       4.553   0.974   1.417  1.00  0.00     0.045 C 
ENDBRANCH  16  17
ENDBRANCH  12  16
ENDBRANCH  11  12
ENDBRANCH   9  11
ENDBRANCH   1   9
BRANCH   8  21
HETATM   21  N7  UNL     1      -2.959  -0.584   2.308  1.00  0.00    -0.108 N 
HETATM   22  O2  UNL     1      -2.853  -1.732   2.719  1.00  0.00    -0.531 OA
HETATM   23  O3  UNL     1      -2.785   0.477   3.200  1.00  0.00    -0.531 OA
ENDBRANCH   8  21
BRANCH   4  24
HETATM   24  N4  UNL     1      -4.072   0.630  -2.801  1.00  0.00    -0.234 N 
ATOM     25  H42 UNL     1      -3.328   0.536  -3.492  1.00  0.00     0.174 HD
ATOM     26  H41 UNL     1      -5.009   0.949  -3.047  1.00  0.00     0.174 HD
ENDBRANCH   4  24
BRANCH   7  27
HETATM   27  N6  UNL     1      -5.440   0.259   1.503  1.00  0.00    -0.383 N 
ATOM     28  H62 UNL     1      -6.374   0.579   1.246  1.00  0.00     0.157 HD
ATOM     29  H61 UNL     1      -5.233   0.023   2.473  1.00  0.00     0.157 HD
ENDBRANCH   7  27
TORSDOF 8
