REMARK  12 active torsions:
REMARK  status: ('A' for Active; 'I' for Inactive)
REMARK    1  A    between atoms: N2_8  and  C5_9 
REMARK    2  A    between atoms: C5_9  and  O1_10 
REMARK    3  A    between atoms: C5_9  and  N3_12 
REMARK    4  A    between atoms: N3_12  and  C6_14 
REMARK    5  A    between atoms: C6_14  and  C7_15 
REMARK    6  A    between atoms: C7_15  and  C8_16 
REMARK    7  A    between atoms: C8_16  and  C9_17 
REMARK    8  A    between atoms: C9_17  and  C10_18 
REMARK    9  A    between atoms: C10_18  and  C11_19 
REMARK   10  A    between atoms: C16_26  and  C17_27 
REMARK       I    between atoms: C17_27  and  N5_29 
REMARK   11  A    between atoms: N5_29  and  C18_31 
REMARK   12  A    between atoms: C18_31  and  C19_32 
ROOT
HETATM    1  N1  UNL     1      -4.244  -1.567  -1.692  1.00  0.00    -0.400 N 
ATOM      2  H11 UNL     1      -4.175  -0.551  -1.641  1.00  0.00     0.156 HD
ATOM      3  H12 UNL     1      -4.492  -1.918  -2.617  1.00  0.00     0.156 HD
HETATM    4  C1  UNL     1      -4.057  -2.260  -0.695  1.00  0.00     0.035 C 
HETATM    5  C2  UNL     1      -4.159  -3.762  -0.771  1.00  0.00     0.061 C 
HETATM    6  C3  UNL     1      -3.069  -4.445  -0.053  1.00  0.00     0.026 C 
HETATM    7  C4  UNL     1      -2.464  -3.765   1.157  1.00  0.00     0.133 C 
HETATM    8  N2  UNL     1      -2.392  -2.301   0.869  1.00  0.00    -0.307 N 
HETATM    9  C16 UNL     1      -3.699  -1.752   0.642  1.00  0.00     0.128 C 
ENDROOT
BRANCH   8  10
HETATM   10  C5  UNL     1      -1.180  -1.630   0.819  1.00  0.00     0.219 C 
BRANCH  10  11
HETATM   11  O1  UNL     1      -0.146  -2.328   1.229  1.00  0.00    -0.332 OA
ATOM     12  H1  UNL     1       0.685  -1.868   1.195  1.00  0.00     0.220 HD
ENDBRANCH  10  11
BRANCH  10  13
HETATM   13  N3  UNL     1      -0.907  -0.322   0.386  1.00  0.00    -0.356 N 
ATOM     14  H3  UNL     1      -1.675   0.259   0.049  1.00  0.00     0.163 HD
BRANCH  13  15
HETATM   15  C6  UNL     1       0.427   0.223   0.404  1.00  0.00     0.123 C 
BRANCH  15  16
HETATM   16  C7  UNL     1       1.319  -0.538  -0.524  1.00  0.00     0.020 C 
BRANCH  16  17
HETATM   17  C8  UNL     1       2.711   0.123  -0.438  1.00  0.00     0.002 C 
BRANCH  17  18
HETATM   18  C9  UNL     1       3.672  -0.577  -1.339  1.00  0.00     0.000 C 
BRANCH  18  19
HETATM   19  C10 UNL     1       5.022   0.008  -1.364  1.00  0.00     0.005 C 
BRANCH  19  20
HETATM   20  C11 UNL     1       5.890   0.046  -0.193  1.00  0.00    -0.012 C 
HETATM   21  C12 UNL     1       5.532   0.771   1.042  1.00  0.00     0.024 C 
HETATM   22  C13 UNL     1       5.381   2.266   0.835  1.00  0.00     0.114 C 
HETATM   23  N4  UNL     1       6.176   2.746  -0.245  1.00  0.00    -0.421 N 
HETATM   24  C14 UNL     1       7.382   2.048  -0.516  1.00  0.00     0.114 C 
ATOM     25  H4  UNL     1       5.892   3.554  -0.798  1.00  0.00     0.153 HD
HETATM   26  C15 UNL     1       7.301   0.560  -0.570  1.00  0.00     0.024 C 
ENDBRANCH  19  20
ENDBRANCH  18  19
ENDBRANCH  17  18
ENDBRANCH  16  17
ENDBRANCH  15  16
ENDBRANCH  13  15
ENDBRANCH  10  13
ENDBRANCH   8  10
BRANCH   9  27
HETATM   27  C17 UNL     1      -4.042  -0.438   1.074  1.00  0.00     0.270 C 
HETATM   28  O2  UNL     1      -3.344   0.080   2.026  1.00  0.00    -0.266 OA
HETATM   29  N5  UNL     1      -5.071   0.391   0.588  1.00  0.00    -0.355 N 
ATOM     30  H5  UNL     1      -5.674   0.052  -0.161  1.00  0.00     0.162 HD
BRANCH  29  31
HETATM   31  C18 UNL     1      -5.290   1.710   1.128  1.00  0.00     0.127 C 
BRANCH  31  32
HETATM   32  C19 UNL     1      -6.445   2.380   0.436  1.00  0.00     0.003 A 
HETATM   33  C20 UNL     1      -6.881   3.738   0.797  1.00  0.00     0.007 A 
HETATM   34  C21 UNL     1      -6.088   3.516  -0.491  1.00  0.00     0.007 A 
ENDBRANCH  31  32
ENDBRANCH  29  31
ENDBRANCH   9  27
TORSDOF 12
