REMARK  15 active torsions:
REMARK  status: ('A' for Active; 'I' for Inactive)
REMARK    1  A    between atoms: N1_2  and  C2_3 
REMARK    2  A    between atoms: N1_2  and  C25_34 
REMARK    3  A    between atoms: C2_3  and  C3_4 
REMARK    4  A    between atoms: N2_7  and  C6_8 
REMARK    5  A    between atoms: C6_8  and  C7_9 
REMARK    6  A    between atoms: C7_9  and  O1_10 
REMARK    7  A    between atoms: O1_10  and  C8_11 
REMARK    8  A    between atoms: C8_11  and  C9_12 
REMARK    9  A    between atoms: C9_12  and  O2_13 
REMARK   10  A    between atoms: O2_13  and  C10_14 
REMARK       I    between atoms: N3_21  and  C17_22 
REMARK   11  A    between atoms: C17_22  and  O4_24 
REMARK   12  A    between atoms: O4_24  and  C18_25 
REMARK   13  A    between atoms: C24_31  and  O5_32 
REMARK   14  A    between atoms: C25_34  and  C26_35 
REMARK   15  A    between atoms: C26_35  and  C28_38 
ROOT
HETATM    1  O1  UNL     1      -0.490   0.088  -1.075  1.00  0.00    -0.387 OA
ENDROOT
BRANCH   1   2
HETATM    2  C7  UNL     1      -0.965  -0.877  -0.466  1.00  0.00     0.198 C 
BRANCH   2   3
HETATM    3  C6  UNL     1      -2.464  -1.118  -0.488  1.00  0.00     0.301 C 
BRANCH   3   4
HETATM    4  N2  UNL     1      -2.848  -2.289   0.243  1.00  0.00     0.119 N 
HETATM    5  C5  UNL     1      -2.631  -2.260   1.661  1.00  0.00     0.276 C 
HETATM    6  C4  UNL     1      -3.705  -1.268   2.121  1.00  0.00     0.041 C 
HETATM    7  C3  UNL     1      -4.892  -1.769   1.378  1.00  0.00     0.075 C 
HETATM    8  C24 UNL     1      -4.321  -2.438   0.159  1.00  0.00     0.362 C 
BRANCH   7   9
HETATM    9  C2  UNL     1      -6.063  -0.917   1.182  1.00  0.00     0.281 C 
BRANCH   9  10
HETATM   10  N1  UNL     1      -6.002   0.327   0.512  1.00  0.00     0.087 N 
HETATM   11  C1  UNL     1      -5.352   1.274   1.446  1.00  0.00     0.310 C 
BRANCH  10  12
HETATM   12  C25 UNL     1      -7.352   0.852   0.366  1.00  0.00     0.316 C 
BRANCH  12  13
HETATM   13  C26 UNL     1      -8.077   0.452  -0.862  1.00  0.00     0.146 C 
HETATM   14  C27 UNL     1      -7.368   0.923  -2.126  1.00  0.00     0.055 C 
HETATM   15  F1  UNL     1      -8.216  -0.907  -1.020  1.00  0.00    -0.239 F 
BRANCH  13  16
HETATM   16  C28 UNL     1      -9.498   0.984  -0.773  1.00  0.00     0.067 C 
HETATM   17  C29 UNL     1     -10.154   0.365   0.433  1.00  0.00     0.036 C 
HETATM   18  C30 UNL     1      -9.536   2.476  -0.583  1.00  0.00     0.036 C 
HETATM   19 CL1  UNL     1     -10.406   0.571  -2.239  1.00  0.00    -0.116 Cl
ENDBRANCH  13  16
ENDBRANCH  12  13
ENDBRANCH  10  12
ENDBRANCH   9  10
ENDBRANCH   7   9
BRANCH   8  20
HETATM   20  O5  UNL     1      -4.577  -3.800   0.232  1.00  0.00    -0.367 OA
ATOM     21  H5  UNL     1      -4.216  -4.223  -0.538  1.00  0.00     0.212 HD
ENDBRANCH   8  20
ENDBRANCH   3   4
ENDBRANCH   2   3
ENDBRANCH   1   2
BRANCH   1  22
HETATM   22  C8  UNL     1      -0.029   1.032  -1.738  1.00  0.00     0.194 C 
BRANCH  22  23
HETATM   23  C9  UNL     1       1.164   0.674  -2.659  1.00  0.00     0.201 C 
BRANCH  23  24
HETATM   24  O2  UNL     1       2.197   0.158  -1.934  1.00  0.00    -0.349 OA
BRANCH  24  25
HETATM   25  C10 UNL     1       3.014   0.494  -0.938  1.00  0.00     0.069 A 
HETATM   26  C11 UNL     1       3.008   1.701  -0.289  1.00  0.00     0.037 A 
HETATM   27  C12 UNL     1       3.904   1.915   0.742  1.00  0.00     0.010 A 
HETATM   28  C13 UNL     1       4.807   0.962   1.141  1.00  0.00    -0.049 A 
HETATM   29  C14 UNL     1       4.820  -0.256   0.481  1.00  0.00    -0.031 A 
HETATM   30  C23 UNL     1       5.750   1.148   2.270  1.00  0.00     0.059 C 
HETATM   31  C15 UNL     1       3.950  -0.477  -0.523  1.00  0.00     0.046 A 
HETATM   32  C16 UNL     1       5.880  -1.230   0.939  1.00  0.00     0.167 C 
HETATM   33  N3  UNL     1       7.095  -0.404   1.002  1.00  0.00    -0.323 N 
HETATM   34  C17 UNL     1       8.245  -0.741   0.260  1.00  0.00     0.363 C 
HETATM   35  C22 UNL     1       7.131   0.792   1.819  1.00  0.00     0.133 C 
HETATM   36  O3  UNL     1       8.242  -1.772  -0.443  1.00  0.00    -0.238 OA
BRANCH  34  37
HETATM   37  O4  UNL     1       9.379   0.055   0.296  1.00  0.00    -0.294 OA
BRANCH  37  38
HETATM   38  C18 UNL     1      10.573  -0.174  -0.402  1.00  0.00     0.061 C 
HETATM   39  C19 UNL     1      11.485   1.014  -0.026  1.00  0.00     0.046 C 
HETATM   40  C20 UNL     1      10.378  -0.112  -1.881  1.00  0.00     0.046 C 
HETATM   41  C21 UNL     1      11.325  -1.399   0.064  1.00  0.00     0.046 C 
ENDBRANCH  37  38
ENDBRANCH  34  37
ENDBRANCH  24  25
ENDBRANCH  23  24
ENDBRANCH  22  23
ENDBRANCH   1  22
TORSDOF 15
