REMARK  5 active torsions:
REMARK  status: ('A' for Active; 'I' for Inactive)
REMARK    1  A    between atoms: C3_4  and  C4_5 
REMARK    2  A    between atoms: C4_5  and  N1_6 
REMARK    3  A    between atoms: N1_6  and  C5_8 
REMARK    4  A    between atoms: C7_13  and  C8_14 
REMARK    5  A    between atoms: C8_14  and  C9_15 
ROOT
HETATM    1  C5  UNL     1      -0.318   0.263  -0.456  1.00  0.00     0.108 C 
HETATM    2  C6  UNL     1       0.415   1.446   0.066  1.00  0.00     0.257 C 
HETATM    3  N2  UNL     1       1.687   0.961   0.562  1.00  0.00    -0.069 N 
ATOM      4  H21 UNL     1       1.962   1.398   1.442  1.00  0.00     0.277 HD
ATOM      5  H22 UNL     1       2.478   1.278   0.001  1.00  0.00     0.277 HD
HETATM    6  C7  UNL     1       1.605  -0.461   0.651  1.00  0.00     0.192 C 
HETATM    7  C13 UNL     1       0.153  -0.848   0.446  1.00  0.00     0.060 C 
ENDROOT
BRANCH   1   8
HETATM    8  N1  UNL     1      -1.711   0.374  -0.592  1.00  0.00    -0.390 N 
ATOM      9  H1  UNL     1      -2.142   0.304  -1.514  1.00  0.00     0.159 HD
BRANCH   8  10
HETATM   10  C4  UNL     1      -2.510   0.582   0.544  1.00  0.00     0.120 C 
BRANCH  10  11
HETATM   11  C3  UNL     1      -3.937   0.658   0.115  1.00  0.00     0.089 A 
HETATM   12  O1  UNL     1      -4.298   1.203  -1.023  1.00  0.00    -0.321 OA
HETATM   13  C2  UNL     1      -5.616   1.141  -1.161  1.00  0.00     0.142 A 
HETATM   14  C1  UNL     1      -6.152   0.518  -0.046  1.00  0.00     0.027 A 
HETATM   15  C14 UNL     1      -5.074   0.216   0.758  1.00  0.00     0.040 A 
ENDBRANCH  10  11
ENDBRANCH   8  10
ENDBRANCH   1   8
BRANCH   6  16
HETATM   16  C8  UNL     1       2.402  -1.210  -0.365  1.00  0.00     0.072 C 
BRANCH  16  17
HETATM   17  C9  UNL     1       3.886  -0.898  -0.278  1.00  0.00    -0.049 A 
HETATM   18  C10 UNL     1       4.733  -1.600   0.499  1.00  0.00     0.014 A 
HETATM   19  C11 UNL     1       6.047  -1.221   0.488  1.00  0.00     0.050 A 
HETATM   20  S1  UNL     1       6.063   0.092  -0.596  1.00  0.00    -0.113 SA
HETATM   21  C12 UNL     1       4.409   0.131  -1.009  1.00  0.00     0.056 A 
ENDBRANCH  16  17
ENDBRANCH   6  16
TORSDOF 5
