REMARK  2 active torsions:
REMARK  status: ('A' for Active; 'I' for Inactive)
REMARK    1  A    between atoms: C3_6  and  C4_7 
REMARK    2  A    between atoms: C4_7  and  N3_8 
ROOT
HETATM    1  C1  UNL     1       2.615   0.708  -0.320  1.00  0.00     0.156 C 
HETATM    2  N1  UNL     1       1.386  -0.017  -0.028  1.00  0.00    -0.355 N 
HETATM    3  C2  UNL     1       1.224  -1.271   0.420  1.00  0.00     0.182 A 
HETATM    4  N2  UNL     1      -0.101  -1.527   0.549  1.00  0.00    -0.353 N 
ATOM      5  H2  UNL     1      -0.503  -2.407   0.872  1.00  0.00     0.166 HD
HETATM    6  C3  UNL     1      -0.799  -0.442   0.186  1.00  0.00     0.051 A 
HETATM    7  C5  UNL     1       0.135   0.505  -0.176  1.00  0.00     0.117 A 
ENDROOT
BRANCH   6   8
HETATM    8  C4  UNL     1      -2.273  -0.258   0.164  1.00  0.00     0.287 C 
BRANCH   8   9
HETATM    9  N3  UNL     1      -2.595   1.067  -0.296  1.00  0.00    -0.074 N 
ATOM     10  H33 UNL     1      -2.128   1.787   0.254  1.00  0.00     0.274 HD
ATOM     11  H32 UNL     1      -2.170   1.272  -1.200  1.00  0.00     0.274 HD
ATOM     12  H31 UNL     1      -3.607   1.193  -0.311  1.00  0.00     0.274 HD
ENDBRANCH   8   9
ENDBRANCH   6   8
TORSDOF 2
