REMARK  8 active torsions:
REMARK  status: ('A' for Active; 'I' for Inactive)
REMARK    1  A    between atoms: C3_8  and  N4_9 
REMARK    2  A    between atoms: N4_9  and  C4_11 
REMARK    3  A    between atoms: C4_11  and  C5_12 
REMARK    4  A    between atoms: C5_12  and  N5_13 
REMARK    5  A    between atoms: N5_13  and  C6_15 
REMARK    6  A    between atoms: C8_19  and  C9_20 
REMARK    7  A    between atoms: C9_20  and  O2_21 
REMARK    8  A    between atoms: C9_20  and  O3_23 
ROOT
HETATM    1  N4  UNL     1      -0.978  -2.739   0.255  1.00  0.00    -0.369 N 
ATOM      2  H4  UNL     1      -1.008  -3.708  -0.063  1.00  0.00     0.161 HD
ENDROOT
BRANCH   1   3
HETATM    3  C3  UNL     1      -2.057  -2.117   0.078  1.00  0.00     0.187 A 
HETATM    4  C2  UNL     1      -2.314  -0.810   0.402  1.00  0.00     0.313 A 
HETATM    5  N3  UNL     1      -3.530  -0.236   0.162  1.00  0.00    -0.191 N 
HETATM    6  O1  UNL     1      -1.452  -0.099   0.925  1.00  0.00    -0.262 OA
HETATM    7  N2  UNL     1      -3.746   1.037   0.489  1.00  0.00    -0.262 N 
HETATM    8  C10 UNL     1      -4.519  -0.951  -0.406  1.00  0.00     0.214 A 
HETATM    9  C1  UNL     1      -4.906   1.653   0.282  1.00  0.00     0.210 A 
ATOM     10  H2  UNL     1      -2.986   1.564   0.918  1.00  0.00     0.190 HD
HETATM   11  N1  UNL     1      -5.093   3.022   0.649  1.00  0.00    -0.062 NA
HETATM   12  N10 UNL     1      -5.905   0.949  -0.287  1.00  0.00    -0.293 N 
HETATM   13  C11 UNL     1      -5.737  -0.341  -0.636  1.00  0.00     0.295 A 
ATOM     14  H10 UNL     1      -6.804   1.401  -0.456  1.00  0.00     0.172 HD
HETATM   15  O4  UNL     1      -6.664  -1.003  -1.166  1.00  0.00    -0.264 OA
HETATM   16  N9  UNL     1      -4.256  -2.220  -0.716  1.00  0.00    -0.278 N 
HETATM   17  N8  UNL     1      -3.089  -2.803  -0.496  1.00  0.00    -0.279 N 
ATOM     18  H9  UNL     1      -4.996  -2.773  -1.147  1.00  0.00     0.189 HD
ATOM     19  H8  UNL     1      -2.958  -3.780  -0.759  1.00  0.00     0.189 HD
ENDBRANCH   1   3
BRANCH   1  20
HETATM   20  C4  UNL     1       0.263  -2.365   0.804  1.00  0.00     0.141 C 
BRANCH  20  21
HETATM   21  C5  UNL     1       1.140  -1.781  -0.313  1.00  0.00     0.157 C 
BRANCH  21  22
HETATM   22  N5  UNL     1       2.393  -1.411   0.287  1.00  0.00    -0.224 N 
ATOM     23  H5  UNL     1       2.806  -2.034   0.981  1.00  0.00     0.177 HD
BRANCH  22  24
HETATM   24  C6  UNL     1       3.017  -0.321  -0.018  1.00  0.00     0.678 A 
HETATM   25  N6  UNL     1       2.703   0.649  -0.877  1.00  0.00    -0.200 N 
HETATM   26  C7  UNL     1       3.654   1.605  -0.872  1.00  0.00     0.136 A 
ATOM     27  H6  UNL     1       1.863   0.666  -1.456  1.00  0.00     0.183 HD
HETATM   28  C8  UNL     1       4.611   1.209   0.039  1.00  0.00     0.096 A 
HETATM   29  N7  UNL     1       4.194   0.031   0.543  1.00  0.00    -0.189 N 
ATOM     30  H7  UNL     1       4.694  -0.515   1.245  1.00  0.00     0.184 HD
BRANCH  28  31
HETATM   31  C9  UNL     1       5.876   1.936   0.409  1.00  0.00     0.307 C 
BRANCH  31  32
HETATM   32  O2  UNL     1       6.535   2.405  -0.723  1.00  0.00    -0.366 OA
ATOM     33  H2  UNL     1       7.333   2.864  -0.489  1.00  0.00     0.213 HD
ENDBRANCH  31  32
BRANCH  31  34
HETATM   34  O3  UNL     1       6.743   1.018   1.038  1.00  0.00    -0.366 OA
ATOM     35  H3  UNL     1       7.541   1.477   1.272  1.00  0.00     0.213 HD
ENDBRANCH  31  34
ENDBRANCH  28  31
ENDBRANCH  22  24
ENDBRANCH  21  22
ENDBRANCH  20  21
ENDBRANCH   1  20
TORSDOF 8
