REMARK  5 active torsions:
REMARK  status: ('A' for Active; 'I' for Inactive)
REMARK    1  A    between atoms: C2_2  and  C5_5 
REMARK    2  A    between atoms: C5_5  and  N2_9 
REMARK    3  A    between atoms: N2_9  and  C6_11 
REMARK    4  A    between atoms: C10_17  and  C11_18 
REMARK    5  A    between atoms: C12_21  and  C13_22 
ROOT
HETATM    1  C6  UNL     1      -0.033  -0.558  -0.468  1.00  0.00     0.198 C 
HETATM    2  C7  UNL     1       0.686   0.324  -1.419  1.00  0.00     0.245 C 
HETATM    3  O1  UNL     1       0.419   0.810  -2.524  1.00  0.00    -0.271 OA
HETATM    4  N3  UNL     1       1.784   0.367  -0.536  1.00  0.00    -0.327 N 
HETATM    5  C8  UNL     1       1.330  -0.933  -0.039  1.00  0.00     0.121 C 
HETATM    6  C9  UNL     1       1.738  -0.896   1.383  1.00  0.00     0.046 C 
HETATM    7  C10 UNL     1       3.122  -0.237   1.264  1.00  0.00     0.122 C 
HETATM    8  C12 UNL     1       2.978   0.778   0.186  1.00  0.00     0.203 C 
ENDROOT
BRANCH   1   9
HETATM    9  N2  UNL     1      -0.931   0.073   0.429  1.00  0.00    -0.364 N 
ATOM     10  H2  UNL     1      -0.760  -0.050   1.427  1.00  0.00     0.161 HD
BRANCH   9  11
HETATM   11  C5  UNL     1      -2.045   0.859   0.052  1.00  0.00     0.079 C 
HETATM   12  N1  UNL     1      -1.888   2.113  -0.118  1.00  0.00    -0.389 N 
ATOM     13  H12 UNL     1      -2.691   2.680  -0.390  1.00  0.00     0.157 HD
ATOM     14  H11 UNL     1      -0.981   2.561   0.011  1.00  0.00     0.157 HD
BRANCH  11  15
HETATM   15  C2  UNL     1      -3.355   0.212  -0.135  1.00  0.00     0.007 C 
HETATM   16  C1  UNL     1      -4.436   1.176  -0.534  1.00  0.00     0.022 C 
HETATM   17  C3  UNL     1      -3.827  -0.470   1.150  1.00  0.00     0.022 C 
HETATM   18  C4  UNL     1      -3.276  -0.841  -1.244  1.00  0.00     0.022 C 
ENDBRANCH  11  15
ENDBRANCH   9  11
ENDBRANCH   1   9
BRANCH   8  19
HETATM   19  C13 UNL     1       4.123   0.992  -0.692  1.00  0.00     0.197 C 
HETATM   20  O4  UNL     1       5.175   1.531  -0.273  1.00  0.00    -0.646 OA
HETATM   21  O5  UNL     1       4.107   0.610  -2.043  1.00  0.00    -0.646 OA
ENDBRANCH   8  19
BRANCH   7  22
HETATM   22  C11 UNL     1       4.127  -1.255   0.902  1.00  0.00     0.179 C 
HETATM   23  O2  UNL     1       3.726  -2.436   0.668  1.00  0.00    -0.648 OA
HETATM   24  O3  UNL     1       5.488  -1.033   0.794  1.00  0.00    -0.648 OA
ENDBRANCH   7  22
TORSDOF 5
