REMARK  6 active torsions:
REMARK  status: ('A' for Active; 'I' for Inactive)
REMARK    1  A    between atoms: C5_5  and  N1_6 
REMARK    2  A    between atoms: N1_6  and  C6_8 
REMARK    3  A    between atoms: C7_11  and  N3_12 
REMARK    4  A    between atoms: C9_19  and  N5_20 
REMARK    5  A    between atoms: N5_20  and  N6_22 
REMARK    6  A    between atoms: N6_22  and  N7_23 
ROOT
HETATM    1  C6  UNL     1      -1.909  -0.340   0.188  1.00  0.00     0.152 A 
HETATM    2  N2  UNL     1      -2.287   0.851   0.625  1.00  0.00    -0.175 N 
ATOM      3  H2  UNL     1      -1.573   1.479   0.994  1.00  0.00     0.186 HD
HETATM    4  C7  UNL     1      -3.562   1.278   0.609  1.00  0.00     0.680 A 
HETATM    5  N4  UNL     1      -4.498   0.447   0.121  1.00  0.00    -0.154 N 
ATOM      6  H4  UNL     1      -5.469   0.757   0.102  1.00  0.00     0.187 HD
HETATM    7  C8  UNL     1      -4.198  -0.788  -0.347  1.00  0.00     0.292 A 
HETATM    8  O1  UNL     1      -5.113  -1.530  -0.795  1.00  0.00    -0.265 OA
HETATM    9  C9  UNL     1      -2.889  -1.189  -0.314  1.00  0.00     0.175 A 
ENDROOT
BRANCH   1  10
HETATM   10  N1  UNL     1      -0.575  -0.818   0.199  1.00  0.00    -0.369 N 
ATOM     11  H1  UNL     1      -0.403  -1.759  -0.154  1.00  0.00     0.161 HD
BRANCH  10  12
HETATM   12  C5  UNL     1       0.552  -0.061   0.676  1.00  0.00     0.083 C 
HETATM   13  C4  UNL     1       1.783  -0.965   0.596  1.00  0.00     0.025 C 
HETATM   14  C3  UNL     1       2.962  -0.079   0.998  1.00  0.00     0.006 C 
HETATM   15  C2  UNL     1       3.244   0.806  -0.193  1.00  0.00    -0.019 C 
HETATM   16  C1  UNL     1       4.170   0.029  -1.138  1.00  0.00     0.010 C 
HETATM   17  C11 UNL     1       2.014   1.138  -0.976  1.00  0.00     0.006 C 
HETATM   18  C10 UNL     1       0.761   1.190  -0.155  1.00  0.00     0.025 C 
ENDBRANCH  10  12
ENDBRANCH   1  10
BRANCH   9  19
HETATM   19  N5  UNL     1      -2.532  -2.479  -0.796  1.00  0.00    -0.207 N 
ATOM     20  H5  UNL     1      -2.129  -2.607  -1.724  1.00  0.00     0.204 HD
BRANCH  19  21
HETATM   21  N6  UNL     1      -2.730  -3.434  -0.046  1.00  0.00    -0.243 NA
BRANCH  21  22
HETATM   22  N7  UNL     1      -2.851  -4.374   0.739  1.00  0.00    -0.260 N 
ATOM     23  H72 UNL     1      -1.935  -3.986   0.963  1.00  0.00     0.193 HD
ATOM     24  H71 UNL     1      -3.015  -5.166   1.361  1.00  0.00     0.193 HD
ENDBRANCH  21  22
ENDBRANCH  19  21
ENDBRANCH   9  19
BRANCH   4  25
HETATM   25  N3  UNL     1      -3.866   2.449   1.049  1.00  0.00    -0.234 N 
ATOM     26  H32 UNL     1      -3.155   3.080   1.420  1.00  0.00     0.174 HD
ATOM     27  H31 UNL     1      -4.833   2.773   1.037  1.00  0.00     0.174 HD
ENDBRANCH   4  25
TORSDOF 6
