REMARK  6 active torsions:
REMARK  status: ('A' for Active; 'I' for Inactive)
REMARK       I    between atoms: C1_2  and  N1_3 
REMARK    1  A    between atoms: C1_2  and  O4_18 
REMARK    2  A    between atoms: N1_3  and  C2_5 
REMARK    3  A    between atoms: C5_8  and  C6_9 
REMARK    4  A    between atoms: C6_9  and  O2_10 
REMARK    5  A    between atoms: N2_12  and  O3_14 
REMARK    6  A    between atoms: O4_18  and  C9_19 
ROOT
HETATM    1  C2  UNL     1       1.645   0.003   0.278  1.00  0.00     0.036 A 
HETATM    2  C3  UNL     1       2.054  -0.627  -0.868  1.00  0.00     0.030 A 
HETATM    3  C4  UNL     1       3.367  -0.893  -1.183  1.00  0.00     0.018 A 
HETATM    4  C5  UNL     1       4.356  -0.494  -0.275  1.00  0.00     0.017 A 
HETATM    5  C7  UNL     1       4.008   0.139   0.884  1.00  0.00     0.018 A 
HETATM    6  C8  UNL     1       2.669   0.382   1.153  1.00  0.00     0.030 A 
ENDROOT
BRANCH   1   7
HETATM    7  N1  UNL     1       0.333   0.299   0.651  1.00  0.00    -0.303 N 
HETATM    8  C1  UNL     1      -0.862   0.024  -0.051  1.00  0.00     0.365 C 
HETATM    9  O1  UNL     1      -0.958  -0.548  -1.159  1.00  0.00    -0.238 OA
ATOM     10  H1  UNL     1       0.223   0.775   1.546  1.00  0.00     0.171 HD
BRANCH   8  11
HETATM   11  O4  UNL     1      -2.101   0.397   0.482  1.00  0.00    -0.298 OA
BRANCH  11  12
HETATM   12  C9  UNL     1      -3.322   0.157  -0.157  1.00  0.00     0.133 C 
HETATM   13  C10 UNL     1      -4.064   1.423  -0.510  1.00  0.00     0.032 C 
HETATM   14  C11 UNL     1      -5.425   1.261   0.143  1.00  0.00     0.002 C 
HETATM   15  C12 UNL     1      -5.627  -0.236   0.155  1.00  0.00     0.002 C 
HETATM   16  C13 UNL     1      -4.254  -0.715   0.622  1.00  0.00     0.032 C 
ENDBRANCH  11  12
ENDBRANCH   8  11
ENDBRANCH   1   7
BRANCH   4  17
HETATM   17  C6  UNL     1       5.738  -0.763  -0.587  1.00  0.00     0.170 C 
HETATM   18  N2  UNL     1       6.750  -0.483   0.096  1.00  0.00    -0.247 N 
ATOM     19  H2  UNL     1       7.620  -0.780  -0.345  1.00  0.00     0.196 HD
BRANCH  17  20
HETATM   20  O2  UNL     1       5.994  -1.435  -1.835  1.00  0.00    -0.344 OA
ATOM     21  H2  UNL     1       6.904  -1.612  -2.041  1.00  0.00     0.219 HD
ENDBRANCH  17  20
BRANCH  18  22
HETATM   22  O3  UNL     1       6.942   0.113   1.265  1.00  0.00    -0.288 OA
ATOM     23  H3  UNL     1       7.710   0.325   1.783  1.00  0.00     0.244 HD
ENDBRANCH  18  22
ENDBRANCH   4  17
TORSDOF 6
