REMARK  4 active torsions:
REMARK  status: ('A' for Active; 'I' for Inactive)
REMARK    1  A    between atoms: O1_1  and  C1_3 
REMARK    2  A    between atoms: C1_3  and  C2_4 
REMARK    3  A    between atoms: C3_6  and  N1_7 
REMARK    4  A    between atoms: C10_17  and  O4_18 
ROOT
HETATM    1  C2  UNL     1      -1.495   0.746   0.729  1.00  0.00     0.179 C 
HETATM    2  O2  UNL     1      -0.144   0.578   0.799  1.00  0.00    -0.355 OA
HETATM    3  C3  UNL     1       0.462  -0.092  -0.218  1.00  0.00     0.246 C 
HETATM    4  C7  UNL     1       0.378  -1.578  -0.164  1.00  0.00     0.090 C 
HETATM    5  C8  UNL     1      -0.473  -2.128   0.924  1.00  0.00     0.158 A 
HETATM    6  O3  UNL     1      -0.792  -1.420   2.050  1.00  0.00    -0.372 OA
HETATM    7  C9  UNL     1      -1.834  -1.670   1.025  1.00  0.00     0.182 A 
HETATM    8  C10 UNL     1      -2.241  -0.481   0.230  1.00  0.00     0.180 C 
ENDROOT
BRANCH   3   9
HETATM    9  N1  UNL     1       1.883   0.264  -0.192  1.00  0.00    -0.274 N 
HETATM   10  C4  UNL     1       2.812  -0.034  -1.122  1.00  0.00     0.114 A 
HETATM   11  C5  UNL     1       4.046   0.470  -0.749  1.00  0.00     0.037 A 
HETATM   12  C6  UNL     1       3.819   1.093   0.461  1.00  0.00     0.108 A 
HETATM   13  N2  UNL     1       2.525   0.941   0.744  1.00  0.00    -0.308 N 
ATOM     14  H2  UNL     1       2.081   1.306   1.587  1.00  0.00     0.186 HD
ENDBRANCH   3   9
BRANCH   1  15
HETATM   15  C1  UNL     1      -1.939   1.998   0.017  1.00  0.00     0.198 C 
BRANCH  15  16
HETATM   16  O1  UNL     1      -1.530   2.087  -1.287  1.00  0.00    -0.398 OA
ATOM     17  H1  UNL     1      -1.810   2.876  -1.736  1.00  0.00     0.209 HD
ENDBRANCH  15  16
ENDBRANCH   1  15
BRANCH   8  18
HETATM   18  O4  UNL     1      -2.176  -0.639  -1.132  1.00  0.00    -0.390 OA
ATOM     19  H4  UNL     1      -2.642  -1.406  -1.444  1.00  0.00     0.210 HD
ENDBRANCH   8  18
TORSDOF 4
