REMARK  11 active torsions:
REMARK  status: ('A' for Active; 'I' for Inactive)
REMARK    1  A    between atoms: C2_2  and  O1_3 
REMARK    2  A    between atoms: O1_3  and  C3_4 
REMARK    3  A    between atoms: C3_4  and  C4_5 
REMARK    4  A    between atoms: C4_5  and  C5_6 
REMARK    5  A    between atoms: C5_6  and  N1_7 
REMARK    6  A    between atoms: N1_7  and  C6_9 
REMARK    7  A    between atoms: C7_12  and  O2_13 
REMARK    8  A    between atoms: O2_13  and  C8_14 
REMARK    9  A    between atoms: C8_14  and  C9_15 
REMARK   10  A    between atoms: C13_19  and  O3_20 
REMARK   11  A    between atoms: C15_27  and  N5_28 
ROOT
HETATM    1  C6  UNL     1       1.822   0.655  -0.524  1.00  0.00     0.695 A 
HETATM    2  N2  UNL     1       0.582   0.907  -0.013  1.00  0.00    -0.154 N 
ATOM      3  H2  UNL     1       0.307   1.875   0.150  1.00  0.00     0.188 HD
HETATM    4  C7  UNL     1      -0.306  -0.089   0.289  1.00  0.00     0.252 A 
HETATM    5  N4  UNL     1       0.129  -1.354   0.045  1.00  0.00    -0.154 N 
ATOM      6  H4  UNL     1      -0.489  -2.139   0.249  1.00  0.00     0.188 HD
HETATM    7  C15 UNL     1       1.341  -1.595  -0.454  1.00  0.00     0.693 A 
HETATM    8  N6  UNL     1       2.211  -0.607  -0.749  1.00  0.00    -0.022 N 
ATOM      9  H6  UNL     1       3.134  -0.814  -1.131  1.00  0.00     0.203 HD
ENDROOT
BRANCH   4  10
HETATM   10  O2  UNL     1      -1.473   0.253   0.775  1.00  0.00    -0.319 OA
BRANCH  10  11
HETATM   11  C8  UNL     1      -2.677   0.073   1.244  1.00  0.00     0.217 C 
BRANCH  11  12
HETATM   12  C9  UNL     1      -3.644  -0.592   0.276  1.00  0.00     0.147 C 
HETATM   13  C10 UNL     1      -3.155  -1.981  -0.023  1.00  0.00     0.049 C 
HETATM   14  C11 UNL     1      -3.792   0.281  -0.947  1.00  0.00     0.045 C 
HETATM   15  C12 UNL     1      -5.006   1.124  -0.530  1.00  0.00     0.064 C 
HETATM   16  C13 UNL     1      -5.880   0.063   0.060  1.00  0.00     0.321 C 
HETATM   17  N3  UNL     1      -4.970  -0.686   0.895  1.00  0.00    -0.038 N 
ATOM     18  H32 UNL     1      -5.271  -1.648   1.054  1.00  0.00     0.281 HD
ATOM     19  H31 UNL     1      -4.980  -0.384   1.869  1.00  0.00     0.281 HD
BRANCH  16  20
HETATM   20  O3  UNL     1      -6.871   0.577   0.891  1.00  0.00    -0.364 OA
HETATM   21  C14 UNL     1      -8.151   0.197   0.482  1.00  0.00     0.204 C 
ENDBRANCH  16  20
ENDBRANCH  11  12
ENDBRANCH  10  11
ENDBRANCH   4  10
BRANCH   1  22
HETATM   22  N1  UNL     1       2.558   1.660  -0.765  1.00  0.00    -0.225 N 
ATOM     23  H1  UNL     1       2.182   2.587  -0.565  1.00  0.00     0.177 HD
BRANCH  22  24
HETATM   24  C5  UNL     1       3.877   1.574  -1.298  1.00  0.00     0.140 C 
BRANCH  24  25
HETATM   25  C4  UNL     1       4.837   1.699  -0.108  1.00  0.00     0.046 C 
BRANCH  25  26
HETATM   26  C3  UNL     1       6.238   1.626  -0.606  1.00  0.00     0.169 C 
BRANCH  26  27
HETATM   27  O1  UNL     1       6.474   0.437  -1.233  1.00  0.00    -0.391 OA
BRANCH  27  28
HETATM   28  C2  UNL     1       6.333  -0.677  -0.456  1.00  0.00     0.163 C 
HETATM   29  C1  UNL     1       7.279  -0.670   0.734  1.00  0.00     0.033 C 
ENDBRANCH  27  28
ENDBRANCH  26  27
ENDBRANCH  25  26
ENDBRANCH  24  25
ENDBRANCH  22  24
ENDBRANCH   1  22
BRANCH   7  30
HETATM   30  N5  UNL     1       1.760  -2.810  -0.688  1.00  0.00    -0.234 N 
ATOM     31  H52 UNL     1       1.102  -3.557  -0.465  1.00  0.00     0.174 HD
ATOM     32  H51 UNL     1       2.688  -2.994  -1.070  1.00  0.00     0.174 HD
ENDBRANCH   7  30
TORSDOF 11
