REMARK  7 active torsions:
REMARK  status: ('A' for Active; 'I' for Inactive)
REMARK       I    between atoms: C1_2  and  N1_3 
REMARK       I    between atoms: C1_2  and  N5_42 
REMARK    1  A    between atoms: N1_3  and  C2_5 
REMARK    2  A    between atoms: C2_5  and  C3_6 
REMARK    3  A    between atoms: C11_17  and  C12_18 
REMARK    4  A    between atoms: C13_21  and  C14_22 
REMARK    5  A    between atoms: C17_25  and  C18_26 
REMARK    6  A    between atoms: C19_27  and  C20_28 
REMARK    7  A    between atoms: C20_28  and  O2_29 
ROOT
HETATM    1  C3  UNL     1      -4.336  -0.791   2.112  1.00  0.00     0.140 C 
HETATM    2  C4  UNL     1      -5.115  -1.900   1.578  1.00  0.00     0.034 C 
HETATM    3  C5  UNL     1      -4.840  -2.222   0.121  1.00  0.00     0.014 C 
HETATM    4  C6  UNL     1      -3.571  -3.032   0.053  1.00  0.00    -0.012 C 
HETATM    5  C7  UNL     1      -3.044  -3.153  -1.357  1.00  0.00     0.039 C 
HETATM    6  C8  UNL     1      -2.269  -4.471  -1.324  1.00  0.00     0.233 C 
HETATM    7  N2  UNL     1      -2.647  -5.134  -0.114  1.00  0.00    -0.074 N 
ATOM      8  H21 UNL     1      -1.887  -5.179   0.564  1.00  0.00     0.277 HD
ATOM      9  H22 UNL     1      -2.778  -6.138  -0.240  1.00  0.00     0.277 HD
HETATM   10  C9  UNL     1      -3.812  -4.486   0.405  1.00  0.00     0.241 C 
HETATM   11  C10 UNL     1      -2.575  -2.457   1.001  1.00  0.00     0.051 C 
HETATM   12  C11 UNL     1      -2.428  -0.991   0.778  1.00  0.00     0.200 C 
HETATM   13  O4  UNL     1      -3.392  -0.184   1.296  1.00  0.00    -0.371 OA
ENDROOT
BRANCH  12  14
HETATM   14  C12 UNL     1      -1.052  -0.619   1.203  1.00  0.00     0.177 A 
HETATM   15  N3  UNL     1       0.025  -0.553   0.404  1.00  0.00    -0.321 N 
HETATM   16  C13 UNL     1       1.108  -0.186   1.109  1.00  0.00     0.138 A 
ATOM     17  H3  UNL     1       0.021  -0.753  -0.596  1.00  0.00     0.169 HD
HETATM   18  N4  UNL     1       0.670  -0.027   2.368  1.00  0.00    -0.242 N 
HETATM   19  O3  UNL     1      -0.622  -0.291   2.398  1.00  0.00    -0.220 OA
ATOM     20  H4  UNL     1       1.240   0.251   3.167  1.00  0.00     0.196 HD
BRANCH  16  21
HETATM   21  C14 UNL     1       2.478   0.003   0.632  1.00  0.00     0.010 A 
HETATM   22  C15 UNL     1       3.472   0.384   1.512  1.00  0.00     0.017 A 
HETATM   23  C16 UNL     1       4.758   0.555   1.044  1.00  0.00     0.021 A 
HETATM   24  C17 UNL     1       5.091   0.358  -0.286  1.00  0.00     0.017 A 
HETATM   25  C26 UNL     1       4.107  -0.023  -1.171  1.00  0.00     0.021 A 
HETATM   26  C27 UNL     1       2.826  -0.190  -0.688  1.00  0.00     0.017 A 
BRANCH  24  27
HETATM   27  C18 UNL     1       6.427   0.533  -0.781  1.00  0.00    -0.064 C 
HETATM   28  C19 UNL     1       7.560   0.662  -1.191  1.00  0.00    -0.063 C 
BRANCH  28  29
HETATM   29  C20 UNL     1       8.949   0.796  -1.680  1.00  0.00     0.121 C 
HETATM   30  C21 UNL     1       9.830  -0.283  -1.080  1.00  0.00     0.051 C 
HETATM   31  C22 UNL     1      10.398   0.130   0.263  1.00  0.00     0.004 C 
HETATM   32  C23 UNL     1      11.344   1.285   0.048  1.00  0.00     0.000 C 
HETATM   33  C24 UNL     1      10.990   2.056  -1.207  1.00  0.00     0.004 C 
HETATM   34  C25 UNL     1       9.486   2.158  -1.386  1.00  0.00     0.051 C 
BRANCH  29  35
HETATM   35  O2  UNL     1       8.914   0.588  -3.042  1.00  0.00    -0.378 OA
ATOM     36  H2  UNL     1       9.806   0.674  -3.356  1.00  0.00     0.211 HD
ENDBRANCH  29  35
ENDBRANCH  28  29
ENDBRANCH  24  27
ENDBRANCH  16  21
ENDBRANCH  12  14
BRANCH   1  37
HETATM   37  C2  UNL     1      -5.112   0.260   2.819  1.00  0.00     0.156 C 
BRANCH  37  38
HETATM   38  N1  UNL     1      -5.726   1.262   2.018  1.00  0.00    -0.341 N 
HETATM   39  C1  UNL     1      -6.736   1.204   1.052  1.00  0.00     0.318 C 
HETATM   40  O1  UNL     1      -7.360   0.202   0.667  1.00  0.00    -0.247 OA
HETATM   41  N5  UNL     1      -7.136   2.440   0.392  1.00  0.00    -0.330 N 
HETATM   42  C28 UNL     1      -6.503   3.685   0.725  1.00  0.00     0.153 C 
HETATM   43  C31 UNL     1      -8.176   2.402  -0.596  1.00  0.00     0.153 C 
HETATM   44  C29 UNL     1      -7.098   4.761  -0.155  1.00  0.00     0.187 C 
HETATM   45  O5  UNL     1      -7.016   4.331  -1.475  1.00  0.00    -0.388 OA
HETATM   46  C30 UNL     1      -7.986   3.378  -1.726  1.00  0.00     0.187 C 
ATOM     47  H1  UNL     1      -5.361   2.201   2.178  1.00  0.00     0.164 HD
ENDBRANCH  37  38
ENDBRANCH   1  37
TORSDOF 7
