REMARK  5 active torsions:
REMARK  status: ('A' for Active; 'I' for Inactive)
REMARK    1  A    between atoms: C2_2  and  N1_3 
REMARK    2  A    between atoms: C4_5  and  N2_6 
REMARK       I    between atoms: N2_6  and  C5_8 
REMARK    3  A    between atoms: C10_16  and  C11_17 
REMARK    4  A    between atoms: C16_24  and  N4_25 
REMARK       I    between atoms: N4_25  and  C17_27 
REMARK    5  A    between atoms: C17_27  and  C18_29 
ROOT
HETATM    1  N1  UNL     1      -2.273   0.839   0.204  1.00  0.00    -0.028 N 
HETATM    2  C3  UNL     1      -1.647   1.638  -0.845  1.00  0.00     0.277 C 
HETATM    3  C4  UNL     1      -3.685   0.822  -0.082  1.00  0.00     0.395 C 
HETATM    4  N3  UNL     1      -3.860   0.272  -1.386  1.00  0.00    -0.359 N 
ATOM      5  H3  UNL     1      -4.466   0.721  -2.072  1.00  0.00     0.162 HD
HETATM    6  C7  UNL     1      -3.234  -0.797  -1.661  1.00  0.00     0.066 C 
HETATM    7  C8  UNL     1      -2.333  -1.471  -0.651  1.00  0.00     0.056 C 
HETATM    8  C9  UNL     1      -1.365  -2.274  -1.448  1.00  0.00     0.032 C 
HETATM    9  C10 UNL     1      -0.416  -3.107  -0.648  1.00  0.00     0.051 C 
HETATM   10  C12 UNL     1      -0.520  -2.902   0.833  1.00  0.00     0.027 C 
HETATM   11  C13 UNL     1       0.330  -1.667   1.029  1.00  0.00     0.011 C 
HETATM   12  C14 UNL     1      -0.209  -0.487   0.215  1.00  0.00     0.041 C 
HETATM   13  C15 UNL     1      -1.725  -0.490   0.289  1.00  0.00     0.204 C 
HETATM   14  C16 UNL     1       1.601  -2.124   0.296  1.00  0.00     0.089 C 
HETATM   15  C24 UNL     1       1.016  -2.723  -0.954  1.00  0.00     0.046 C 
ENDROOT
BRANCH  14  16
HETATM   16  N4  UNL     1       2.483  -1.023   0.046  1.00  0.00    -0.356 N 
HETATM   17  C17 UNL     1       3.798  -1.051   0.557  1.00  0.00     0.222 C 
HETATM   18  O4  UNL     1       4.185  -2.058   1.235  1.00  0.00    -0.273 OA
ATOM     19  H4  UNL     1       2.162  -0.223  -0.499  1.00  0.00     0.162 HD
BRANCH  17  20
HETATM   20  C18 UNL     1       4.776   0.039   0.349  1.00  0.00     0.078 C 
HETATM   21  C19 UNL     1       4.965   0.187  -1.146  1.00  0.00     0.014 C 
HETATM   22  C20 UNL     1       6.052   1.182  -1.399  1.00  0.00     0.001 C 
HETATM   23  C21 UNL     1       5.916   2.438  -0.604  1.00  0.00     0.000 C 
HETATM   24  C22 UNL     1       4.651   2.535   0.191  1.00  0.00     0.001 C 
HETATM   25  C23 UNL     1       4.363   1.321   1.014  1.00  0.00     0.014 C 
ENDBRANCH  17  20
ENDBRANCH  14  16
BRANCH   9  26
HETATM   26  C11 UNL     1      -0.562  -4.557  -0.914  1.00  0.00     0.182 C 
HETATM   27  O2  UNL     1       0.379  -5.253  -1.359  1.00  0.00    -0.647 OA
HETATM   28  O3  UNL     1      -1.781  -5.160  -0.661  1.00  0.00    -0.647 OA
ENDBRANCH   9  26
BRANCH   1  29
HETATM   29  C2  UNL     1      -2.085   1.570   1.437  1.00  0.00     0.238 C 
HETATM   30  C1  UNL     1      -2.465   0.841   2.667  1.00  0.00     0.035 C 
ENDBRANCH   1  29
BRANCH   3  31
HETATM   31  N2  UNL     1      -4.183   2.180  -0.048  1.00  0.00    -0.317 N 
HETATM   32  C5  UNL     1      -5.267   2.529   0.781  1.00  0.00     0.216 C 
HETATM   33  C6  UNL     1      -5.761   3.919   0.803  1.00  0.00     0.117 C 
HETATM   34  O1  UNL     1      -5.820   1.673   1.505  1.00  0.00    -0.274 OA
ATOM     35  H2  UNL     1      -3.744   2.893  -0.631  1.00  0.00     0.166 HD
ENDBRANCH   3  31
TORSDOF 5
