REMARK  8 active torsions:
REMARK  status: ('A' for Active; 'I' for Inactive)
REMARK    1  A    between atoms: C3_3  and  O1_4 
REMARK    2  A    between atoms: O1_4  and  C4_5 
REMARK    3  A    between atoms: C5_8  and  N2_9 
REMARK    4  A    between atoms: C6_14  and  N4_15 
REMARK    5  A    between atoms: N4_15  and  C7_17 
REMARK    6  A    between atoms: C7_17  and  C8_18 
REMARK    7  A    between atoms: C8_18  and  C10_20 
REMARK    8  A    between atoms: C10_20  and  O3_22 
ROOT
HETATM    1  C1  UNL     1       6.213   3.437  -0.758  1.00  0.00     0.014 C 
HETATM    2  C2  UNL     1       5.509   2.618  -0.223  1.00  0.00    -0.091 C 
HETATM    3  C3  UNL     1       4.626   1.611   0.415  1.00  0.00     0.270 C 
ENDROOT
BRANCH   3   4
HETATM    4  O1  UNL     1       3.870   1.037  -0.602  1.00  0.00    -0.322 OA
BRANCH   4   5
HETATM    5  C4  UNL     1       2.918   0.050  -0.450  1.00  0.00     0.179 A 
HETATM    6  N1  UNL     1       3.312  -1.234  -0.419  1.00  0.00    -0.169 N 
HETATM    7  C5  UNL     1       2.432  -2.233  -0.274  1.00  0.00     0.679 A 
ATOM      8  H1  UNL     1       4.304  -1.453  -0.508  1.00  0.00     0.186 HD
HETATM    9  N3  UNL     1       1.112  -1.958  -0.155  1.00  0.00    -0.176 N 
HETATM   10  C6  UNL     1       0.632  -0.702  -0.175  1.00  0.00     0.138 A 
ATOM     11  H3  UNL     1       0.457  -2.732  -0.046  1.00  0.00     0.186 HD
HETATM   12  C12 UNL     1       1.568   0.306  -0.327  1.00  0.00     0.106 A 
HETATM   13 BR1  UNL     1       0.999   2.109  -0.368  1.00  0.00    -0.042 Br
BRANCH   7  14
HETATM   14  N2  UNL     1       2.885  -3.439  -0.253  1.00  0.00    -0.234 N 
ATOM     15  H22 UNL     1       3.880  -3.646  -0.343  1.00  0.00     0.174 HD
ATOM     16  H21 UNL     1       2.215  -4.200  -0.143  1.00  0.00     0.174 HD
ENDBRANCH   7  14
BRANCH  10  17
HETATM   17  N4  UNL     1      -0.591  -0.382  -0.068  1.00  0.00    -0.374 N 
ATOM     18  H4  UNL     1      -0.800   0.616  -0.101  1.00  0.00     0.161 HD
BRANCH  17  19
HETATM   19  C7  UNL     1      -1.705  -1.251   0.093  1.00  0.00     0.135 C 
BRANCH  19  20
HETATM   20  C8  UNL     1      -2.867  -0.606   0.819  1.00  0.00     0.099 C 
HETATM   21  C9  UNL     1      -3.973  -1.638   0.919  1.00  0.00     0.022 C 
BRANCH  20  22
HETATM   22  C10 UNL     1      -3.403   0.545   0.040  1.00  0.00     0.263 C 
HETATM   23  O2  UNL     1      -2.898   0.879  -1.080  1.00  0.00    -0.265 OA
BRANCH  22  24
HETATM   24  O3  UNL     1      -4.472   1.305   0.492  1.00  0.00    -0.326 OA
HETATM   25  C11 UNL     1      -4.981   2.398  -0.250  1.00  0.00     0.213 C 
ENDBRANCH  22  24
ENDBRANCH  20  22
ENDBRANCH  19  20
ENDBRANCH  17  19
ENDBRANCH  10  17
ENDBRANCH   4   5
ENDBRANCH   3   4
TORSDOF 8
