REMARK  5 active torsions:
REMARK  status: ('A' for Active; 'I' for Inactive)
REMARK    1  A    between atoms: O1_2  and  C2_3 
REMARK    2  A    between atoms: C9_12  and  O2_13 
REMARK    3  A    between atoms: O2_13  and  C10_14 
REMARK    4  A    between atoms: N2_22  and  C18_23 
REMARK    5  A    between atoms: C18_23  and  C19_24 
ROOT
HETATM    1  C2  UNL     1      -2.044  -2.083  -0.323  1.00  0.00     0.102 A 
HETATM    2  C3  UNL     1      -0.691  -2.017  -0.550  1.00  0.00     0.054 A 
HETATM    3  C4  UNL     1      -0.071  -0.776  -0.528  1.00  0.00     0.002 A 
HETATM    4  C5  UNL     1       1.216  -0.351  -0.707  1.00  0.00    -0.019 A 
HETATM    5  C6  UNL     1       1.306   1.041  -0.578  1.00  0.00     0.050 A 
HETATM    6  N1  UNL     1       0.065   1.455  -0.320  1.00  0.00    -0.357 N 
ATOM      7  H1  UNL     1      -0.210   2.426  -0.172  1.00  0.00     0.166 HD
HETATM    8  C7  UNL     1      -0.778   0.391  -0.284  1.00  0.00     0.046 A 
HETATM    9  C8  UNL     1      -2.148   0.259  -0.061  1.00  0.00     0.070 A 
HETATM   10  C9  UNL     1      -2.803  -0.948  -0.073  1.00  0.00     0.104 A 
HETATM   11  C16 UNL     1       2.654   1.587  -0.771  1.00  0.00     0.269 C 
HETATM   12  C17 UNL     1       2.672   3.091  -0.528  1.00  0.00     0.049 C 
HETATM   13  N2  UNL     1       3.684   0.949   0.051  1.00  0.00     0.103 N 
HETATM   14  C25 UNL     1       3.459  -0.496   0.096  1.00  0.00     0.278 C 
HETATM   15  C26 UNL     1       2.525  -0.999  -0.985  1.00  0.00     0.072 C 
ENDROOT
BRANCH  13  16
HETATM   16  C18 UNL     1       4.917   1.176  -0.656  1.00  0.00     0.318 C 
BRANCH  16  17
HETATM   17  C19 UNL     1       6.169   0.952   0.078  1.00  0.00     0.047 A 
HETATM   18  C20 UNL     1       7.334   1.099  -0.704  1.00  0.00     0.127 A 
HETATM   19  F1  UNL     1       7.233   1.385  -2.047  1.00  0.00    -0.205 F 
HETATM   20  C21 UNL     1       8.584   0.966  -0.180  1.00  0.00     0.043 A 
HETATM   21  C22 UNL     1       8.708   0.680   1.152  1.00  0.00     0.006 A 
HETATM   22  C23 UNL     1       7.593   0.534   1.931  1.00  0.00     0.043 A 
HETATM   23  C24 UNL     1       6.312   0.671   1.398  1.00  0.00     0.127 A 
HETATM   24  F2  UNL     1       5.252   0.556   2.244  1.00  0.00    -0.205 F 
ENDBRANCH  16  17
ENDBRANCH  13  16
BRANCH   1  25
HETATM   25  O1  UNL     1      -2.701  -3.327  -0.339  1.00  0.00    -0.353 OA
HETATM   26  C1  UNL     1      -2.038  -4.530  -0.580  1.00  0.00     0.210 C 
ENDBRANCH   1  25
BRANCH  10  27
HETATM   27  O2  UNL     1      -4.144  -1.095   0.142  1.00  0.00    -0.343 OA
BRANCH  27  28
HETATM   28  C10 UNL     1      -5.106  -0.135   0.408  1.00  0.00     0.129 C 
HETATM   29  C11 UNL     1      -5.917  -0.406   1.643  1.00  0.00     0.032 C 
HETATM   30  C12 UNL     1      -7.394  -0.571   1.380  1.00  0.00     0.002 C 
HETATM   31  C13 UNL     1      -7.973   0.562   0.565  1.00  0.00     0.000 C 
HETATM   32  C14 UNL     1      -7.139   0.886  -0.641  1.00  0.00     0.002 C 
HETATM   33  C15 UNL     1      -6.007  -0.094  -0.837  1.00  0.00     0.032 C 
ENDBRANCH  27  28
ENDBRANCH  10  27
TORSDOF 5
