REMARK  3 active torsions:
REMARK  status: ('A' for Active; 'I' for Inactive)
REMARK       I    between atoms: C2_2  and  N1_4 
REMARK    1  A    between atoms: N1_4  and  C3_5 
REMARK    2  A    between atoms: C5_7  and  C6_8 
REMARK    3  A    between atoms: C10_12  and  O2_13 
ROOT
HETATM    1  C3  UNL     1       1.246   0.153   0.178  1.00  0.00     0.146 A 
HETATM    2  C4  UNL     1       0.133  -0.552  -0.160  1.00  0.00     0.060 A 
HETATM    3  C5  UNL     1      -1.172   0.096  -0.279  1.00  0.00     0.011 A 
HETATM    4  C10 UNL     1      -1.298   1.386  -0.058  1.00  0.00     0.191 A 
HETATM    5  O3  UNL     1      -0.210   2.154   0.290  1.00  0.00    -0.283 OA
HETATM    6  C11 UNL     1       1.096   1.559   0.418  1.00  0.00     0.136 A 
HETATM    7  C12 UNL     1       2.065   2.363   0.756  1.00  0.00     0.045 C 
HETATM    8  C13 UNL     1       1.728   3.816   0.968  1.00  0.00     0.065 C 
HETATM    9 CL1  UNL     1       3.693   1.920   1.008  1.00  0.00    -0.086 Cl
ENDROOT
BRANCH   1  10
HETATM   10  N1  UNL     1       2.450  -0.549   0.272  1.00  0.00    -0.368 NA
HETATM   11  C2  UNL     1       3.575  -1.205   0.361  1.00  0.00     0.288 C 
HETATM   12  C1  UNL     1       3.697  -2.248   1.500  1.00  0.00     0.135 C 
HETATM   13  O1  UNL     1       4.629  -1.173  -0.308  1.00  0.00    -0.258 OA
ENDBRANCH   1  10
BRANCH   3  14
HETATM   14  C6  UNL     1      -2.286  -0.746  -0.651  1.00  0.00    -0.019 C 
HETATM   15  C7  UNL     1      -3.645  -0.196  -0.728  1.00  0.00     0.019 C 
HETATM   16  C8  UNL     1      -2.351  -1.964   0.284  1.00  0.00     0.019 C 
HETATM   17  C9  UNL     1      -1.974  -1.332  -2.042  1.00  0.00     0.019 C 
ENDBRANCH   3  14
BRANCH   4  18
HETATM   18  O2  UNL     1      -2.562   1.935  -0.190  1.00  0.00    -0.340 OA
ATOM     19  H2  UNL     1      -2.653   2.867  -0.030  1.00  0.00     0.220 HD
ENDBRANCH   4  18
TORSDOF 3
