REMARK  7 active torsions:
REMARK  status: ('A' for Active; 'I' for Inactive)
REMARK       I    between atoms: C2_2  and  N1_4 
REMARK    1  A    between atoms: C3_7  and  O2_8 
REMARK    2  A    between atoms: O2_8  and  N3_9 
REMARK    3  A    between atoms: C4_11  and  O3_12 
REMARK    4  A    between atoms: C4_11  and  N4_14 
REMARK    5  A    between atoms: N4_14  and  N5_16 
REMARK    6  A    between atoms: N5_16  and  N6_17 
REMARK    7  A    between atoms: C5_23  and  N9_24 
ROOT
HETATM    1  C1  UNL     1      -3.290  -0.805   1.647  1.00  0.00     0.119 C 
HETATM    2  C2  UNL     1      -1.824  -0.742   1.482  1.00  0.00     0.237 C 
HETATM    3  O1  UNL     1      -1.121  -1.538   2.153  1.00  0.00    -0.272 OA
HETATM    4  N1  UNL     1      -1.178   0.188   0.589  1.00  0.00    -0.210 N 
HETATM    5  N2  UNL     1       0.209   0.213   0.469  1.00  0.00    -0.253 N 
ATOM      6  H2  UNL     1       0.792  -0.177   1.209  1.00  0.00     0.191 HD
HETATM    7  C3  UNL     1       0.751   0.725  -0.570  1.00  0.00     0.305 C 
HETATM    8  N7  UNL     1      -0.082   1.261  -1.589  1.00  0.00    -0.074 N 
HETATM    9  F1  UNL     1       0.291   1.212  -2.904  1.00  0.00    -0.076 F 
HETATM   10  N8  UNL     1      -1.288   1.838  -1.181  1.00  0.00    -0.047 NA
HETATM   11  C5  UNL     1      -1.976   1.094  -0.182  1.00  0.00     0.423 C 
ENDROOT
BRANCH   7  12
HETATM   12  O2  UNL     1       2.147   0.783  -0.757  1.00  0.00    -0.192 OA
BRANCH  12  13
HETATM   13  N3  UNL     1       2.975   0.229   0.179  1.00  0.00    -0.219 N 
HETATM   14  C4  UNL     1       4.058  -0.340  -0.230  1.00  0.00     0.269 C 
ATOM     15  H3  UNL     1       2.743   0.265   1.172  1.00  0.00     0.198 HD
BRANCH  14  16
HETATM   16  O3  UNL     1       4.397  -0.400  -1.578  1.00  0.00    -0.329 OA
ATOM     17  H3  UNL     1       5.195  -0.819  -1.879  1.00  0.00     0.221 HD
ENDBRANCH  14  16
BRANCH  14  18
HETATM   18  N4  UNL     1       4.983  -0.946   0.678  1.00  0.00    -0.177 N 
ATOM     19  H4  UNL     1       5.166  -1.946   0.591  1.00  0.00     0.207 HD
BRANCH  18  20
HETATM   20  N5  UNL     1       5.566  -0.320   1.556  1.00  0.00    -0.240 NA
BRANCH  20  21
HETATM   21  N6  UNL     1       6.130   0.476   2.294  1.00  0.00    -0.260 N 
ATOM     22  H62 UNL     1       5.996   1.198   1.586  1.00  0.00     0.193 HD
ATOM     23  H61 UNL     1       6.615   0.997   3.025  1.00  0.00     0.193 HD
ENDBRANCH  20  21
ENDBRANCH  18  20
ENDBRANCH  14  18
ENDBRANCH  12  13
ENDBRANCH   7  12
BRANCH  11  24
HETATM   24  N9  UNL     1      -3.091   0.427  -0.830  1.00  0.00    -0.040 N 
ATOM     25  H93 UNL     1      -2.772  -0.358  -1.397  1.00  0.00     0.278 HD
ATOM     26  H92 UNL     1      -3.660  -0.082  -0.154  1.00  0.00     0.278 HD
ATOM     27  H91 UNL     1      -3.659   1.072  -1.379  1.00  0.00     0.278 HD
ENDBRANCH  11  24
TORSDOF 7
