REMARK  3 active torsions:
REMARK  status: ('A' for Active; 'I' for Inactive)
REMARK    1  A    between atoms: C2_3  and  N2_4 
REMARK    2  A    between atoms: N2_4  and  N3_6 
REMARK    3  A    between atoms: N3_6  and  C3_8 
ROOT
HETATM    1  N2  UNL     1       0.410  -0.981   0.964  1.00  0.00    -0.269 N 
ATOM      2  H2  UNL     1       0.464  -1.067   1.979  1.00  0.00     0.189 HD
ENDROOT
BRANCH   1   3
HETATM    3  C2  UNL     1       1.432  -0.305   0.247  1.00  0.00     0.154 A 
HETATM    4  C1  UNL     1       2.509   0.240   0.926  1.00  0.00     0.159 A 
HETATM    5  N1  UNL     1       2.584   0.121   2.339  1.00  0.00    -0.092 NA
HETATM    6  C7  UNL     1       3.490   0.891   0.206  1.00  0.00     0.277 A 
HETATM    7  N8  UNL     1       3.427   1.010  -1.135  1.00  0.00    -0.274 N 
HETATM    8  O4  UNL     1       4.488   1.404   0.779  1.00  0.00    -0.266 OA
HETATM    9  C6  UNL     1       2.368   0.470  -1.772  1.00  0.00     0.328 A 
ATOM     10  H8  UNL     1       4.160   1.495  -1.653  1.00  0.00     0.173 HD
HETATM   11  N7  UNL     1       1.407  -0.168  -1.074  1.00  0.00    -0.292 N 
HETATM   12  O3  UNL     1       2.316   0.583  -3.023  1.00  0.00    -0.247 OA
ATOM     13  H7  UNL     1       0.620  -0.566  -1.587  1.00  0.00     0.172 HD
ENDBRANCH   1   3
BRANCH   1  14
HETATM   14  N3  UNL     1      -0.662  -1.523   0.272  1.00  0.00    -0.130 N 
ATOM     15  H3  UNL     1      -0.615  -2.479  -0.081  1.00  0.00     0.205 HD
BRANCH  14  16
HETATM   16  C3  UNL     1      -1.821  -0.741   0.059  1.00  0.00     0.705 A 
HETATM   17  N4  UNL     1      -1.923   0.535   0.512  1.00  0.00    -0.139 N 
HETATM   18  C4  UNL     1      -3.029   1.273   0.305  1.00  0.00     0.342 A 
ATOM     19  H4  UNL     1      -1.141   0.945   1.023  1.00  0.00     0.189 HD
HETATM   20  O1  UNL     1      -3.110   2.472   0.738  1.00  0.00    -0.246 OA
HETATM   21  N5  UNL     1      -4.069   0.747  -0.366  1.00  0.00    -0.260 N 
HETATM   22  C5  UNL     1      -4.015  -0.511  -0.833  1.00  0.00     0.342 A 
ATOM     23  H5  UNL     1      -4.906   1.308  -0.522  1.00  0.00     0.175 HD
HETATM   24  O2  UNL     1      -4.987  -1.003  -1.460  1.00  0.00    -0.246 OA
HETATM   25  N6  UNL     1      -2.899  -1.223  -0.612  1.00  0.00    -0.139 N 
ATOM     26  H6  UNL     1      -2.858  -2.178  -0.967  1.00  0.00     0.189 HD
ENDBRANCH  14  16
ENDBRANCH   1  14
TORSDOF 3
