REMARK  13 active torsions:
REMARK  status: ('A' for Active; 'I' for Inactive)
REMARK    1  A    between atoms: C2_2  and  C5_5 
REMARK       I    between atoms: C5_5  and  N1_7 
REMARK    2  A    between atoms: C7_9  and  C8_10 
REMARK    3  A    between atoms: C8_10  and  C9_11 
REMARK    4  A    between atoms: C9_11  and  O2_12 
REMARK    5  A    between atoms: O2_12  and  N2_13 
REMARK       I    between atoms: N2_13  and  C10_15 
REMARK       I    between atoms: C10_15  and  N3_17 
REMARK    6  A    between atoms: N3_17  and  C11_19 
REMARK    7  A    between atoms: C11_19  and  C12_20 
REMARK    8  A    between atoms: C11_19  and  C14_27 
REMARK    9  A    between atoms: C12_20  and  O4_21 
REMARK   10  A    between atoms: C12_20  and  C13_23 
REMARK   11  A    between atoms: C18_31  and  N4_32 
REMARK   12  A    between atoms: N4_32  and  C19_34 
REMARK   13  A    between atoms: C19_34  and  C20_35 
ROOT
HETATM    1  O2  UNL     1       0.884   0.723  -0.085  1.00  0.00    -0.276 OA
ENDROOT
BRANCH   1   2
HETATM    2  C9  UNL     1       0.050   1.403   0.767  1.00  0.00     0.202 C 
BRANCH   2   3
HETATM    3  C8  UNL     1      -1.216   1.790   0.085  1.00  0.00     0.037 C 
BRANCH   3   4
HETATM    4  C7  UNL     1      -1.963   0.587  -0.413  1.00  0.00     0.030 C 
HETATM    5  C6  UNL     1      -2.336  -0.354   0.703  1.00  0.00     0.132 C 
HETATM    6  N1  UNL     1      -3.720  -0.766   0.460  1.00  0.00    -0.349 N 
HETATM    7  C5  UNL     1      -4.520  -1.434   1.404  1.00  0.00     0.227 C 
HETATM    8  C21 UNL     1      -4.047  -0.343  -0.912  1.00  0.00     0.151 C 
HETATM    9  O1  UNL     1      -4.023  -1.699   2.529  1.00  0.00    -0.273 OA
HETATM   10  C18 UNL     1      -3.361   1.031  -0.906  1.00  0.00     0.104 C 
BRANCH   7  11
HETATM   11  C2  UNL     1      -5.925  -1.843   1.136  1.00  0.00     0.030 C 
HETATM   12  C1  UNL     1      -6.470  -2.548   2.362  1.00  0.00     0.025 C 
HETATM   13  C3  UNL     1      -6.065  -2.765  -0.030  1.00  0.00     0.025 C 
HETATM   14  C4  UNL     1      -6.821  -0.639   0.908  1.00  0.00     0.025 C 
ENDBRANCH   7  11
BRANCH  10  15
HETATM   15  N4  UNL     1      -3.297   1.625  -2.168  1.00  0.00    -0.395 N 
ATOM     16  H4  UNL     1      -2.393   1.672  -2.639  1.00  0.00     0.159 HD
BRANCH  15  17
HETATM   17  C19 UNL     1      -4.408   2.155  -2.812  1.00  0.00     0.071 C 
BRANCH  17  18
HETATM   18  C20 UNL     1      -5.062   3.381  -2.306  1.00  0.00     0.158 C 
HETATM   19 CL1  UNL     1      -5.711   3.242  -0.664  1.00  0.00    -0.125 Cl
ENDBRANCH  17  18
ENDBRANCH  15  17
ENDBRANCH  10  15
ENDBRANCH   3   4
ENDBRANCH   2   3
ENDBRANCH   1   2
BRANCH   1  20
HETATM   20  N2  UNL     1       2.047   0.382   0.534  1.00  0.00    -0.217 N 
HETATM   21  C10 UNL     1       3.211   0.180  -0.250  1.00  0.00     0.340 C 
HETATM   22  O3  UNL     1       3.180   0.304  -1.496  1.00  0.00    -0.245 OA
HETATM   23  N3  UNL     1       4.457  -0.171   0.346  1.00  0.00    -0.333 N 
ATOM     24  H3  UNL     1       4.506  -0.278   1.359  1.00  0.00     0.164 HD
ATOM     25  H2  UNL     1       2.081   0.273   1.548  1.00  0.00     0.199 HD
BRANCH  23  26
HETATM   26  C11 UNL     1       5.653  -0.381  -0.438  1.00  0.00     0.131 C 
BRANCH  26  27
HETATM   27  C12 UNL     1       6.191  -1.752  -0.162  1.00  0.00     0.249 C 
BRANCH  27  28
HETATM   28  O4  UNL     1       6.503  -1.885   1.198  1.00  0.00    -0.384 OA
ATOM     29  H4  UNL     1       6.844  -2.754   1.373  1.00  0.00     0.210 HD
ENDBRANCH  27  28
BRANCH  27  30
HETATM   30  C13 UNL     1       5.182  -2.821  -0.493  1.00  0.00     0.415 C 
HETATM   31  F1  UNL     1       5.821  -4.038  -0.195  1.00  0.00    -0.168 F 
HETATM   32  F2  UNL     1       4.054  -2.741   0.333  1.00  0.00    -0.168 F 
HETATM   33  F3  UNL     1       4.835  -2.856  -1.821  1.00  0.00    -0.168 F 
ENDBRANCH  27  30
ENDBRANCH  26  27
BRANCH  26  34
HETATM   34  C14 UNL     1       6.689   0.682  -0.125  1.00  0.00    -0.028 C 
HETATM   35  C15 UNL     1       7.946   0.493  -0.930  1.00  0.00     0.016 C 
HETATM   36  C16 UNL     1       6.086   2.020  -0.521  1.00  0.00     0.016 C 
HETATM   37  C17 UNL     1       7.086   0.699   1.322  1.00  0.00     0.016 C 
ENDBRANCH  26  34
ENDBRANCH  23  26
ENDBRANCH   1  20
TORSDOF 13
