REMARK  8 active torsions:
REMARK  status: ('A' for Active; 'I' for Inactive)
REMARK    1  A    between atoms: C3_5  and  N2_6 
REMARK    2  A    between atoms: N2_6  and  C4_8 
REMARK    3  A    between atoms: C4_8  and  C5_9 
REMARK    4  A    between atoms: C5_9  and  C6_10 
REMARK    5  A    between atoms: C6_10  and  C7_11 
REMARK    6  A    between atoms: C7_11  and  C8_12 
REMARK    7  A    between atoms: C8_12  and  N3_13 
REMARK    8  A    between atoms: C11_18  and  N5_19 
ROOT
HETATM    1  C1  UNL     1       5.318   0.537  -1.074  1.00  0.00     0.069 C 
HETATM    2  C2  UNL     1       4.154   0.120  -0.220  1.00  0.00     0.032 A 
HETATM    3  N1  UNL     1       2.888   0.493  -0.507  1.00  0.00    -0.195 N 
ATOM      4  H1  UNL     1       2.723   1.076  -1.328  1.00  0.00     0.184 HD
HETATM    5  C3  UNL     1       1.838   0.126   0.247  1.00  0.00     0.679 A 
HETATM    6  N4  UNL     1       2.110  -0.652   1.333  1.00  0.00    -0.177 N 
ATOM      7  H4  UNL     1       1.335  -0.947   1.927  1.00  0.00     0.186 HD
HETATM    8  C11 UNL     1       3.356  -1.049   1.657  1.00  0.00     0.122 A 
HETATM    9  C12 UNL     1       4.428  -0.672   0.884  1.00  0.00     0.005 A 
HETATM   10  C13 UNL     1       5.830  -1.064   1.175  1.00  0.00     0.054 C 
ENDROOT
BRANCH   5  11
HETATM   11  N2  UNL     1       0.621   0.473  -0.004  1.00  0.00    -0.226 N 
ATOM     12  H2  UNL     1      -0.113   0.146   0.625  1.00  0.00     0.177 HD
BRANCH  11  13
HETATM   13  C4  UNL     1       0.245   1.287  -1.111  1.00  0.00     0.138 C 
BRANCH  13  14
HETATM   14  C5  UNL     1      -1.097   1.889  -1.105  1.00  0.00     0.020 C 
BRANCH  14  15
HETATM   15  C6  UNL     1      -2.306   1.031  -1.112  1.00  0.00     0.003 C 
BRANCH  15  16
HETATM   16  C7  UNL     1      -2.445   0.123   0.053  1.00  0.00     0.030 C 
BRANCH  16  17
HETATM   17  C8  UNL     1      -3.661  -0.728   0.126  1.00  0.00     0.271 C 
BRANCH  17  18
HETATM   18  N3  UNL     1      -4.935  -0.101   0.189  1.00  0.00     0.080 N 
HETATM   19  C9  UNL     1      -5.900  -1.194   0.521  1.00  0.00     0.309 C 
HETATM   20  C10 UNL     1      -5.382   0.316  -1.134  1.00  0.00     0.309 C 
ENDBRANCH  17  18
ENDBRANCH  16  17
ENDBRANCH  15  16
ENDBRANCH  14  15
ENDBRANCH  13  14
ENDBRANCH  11  13
ENDBRANCH   5  11
BRANCH   8  21
HETATM   21  N5  UNL     1       3.564  -1.790   2.695  1.00  0.00    -0.385 N 
ATOM     22  H52 UNL     1       2.768  -2.070   3.269  1.00  0.00     0.157 HD
ATOM     23  H51 UNL     1       4.507  -2.091   2.940  1.00  0.00     0.157 HD
ENDBRANCH   8  21
TORSDOF 8
