REMARK  8 active torsions:
REMARK  status: ('A' for Active; 'I' for Inactive)
REMARK    1  A    between atoms: C2_2  and  C3_3 
REMARK    2  A    between atoms: C3_3  and  C4_4 
REMARK    3  A    between atoms: C4_4  and  O1_5 
REMARK    4  A    between atoms: O1_5  and  C5_6 
REMARK    5  A    between atoms: C8_9  and  C9_10 
REMARK    6  A    between atoms: C9_10  and  O2_11 
REMARK    7  A    between atoms: C14_17  and  O3_18 
REMARK    8  A    between atoms: C15_20  and  O4_21 
ROOT
HETATM    1  C9  UNL     1      -1.963   0.606  -0.633  1.00  0.00     0.093 C 
HETATM    2  C10 UNL     1      -2.867   1.244   0.401  1.00  0.00     0.051 C 
HETATM    3  C11 UNL     1      -4.239   1.071  -0.218  1.00  0.00     0.026 C 
HETATM    4  C12 UNL     1      -4.070   0.226  -1.471  1.00  0.00     0.018 C 
HETATM    5  C13 UNL     1      -2.825  -0.571  -1.015  1.00  0.00     0.057 C 
HETATM    6  C14 UNL     1      -3.239  -1.482   0.081  1.00  0.00     0.157 C 
HETATM    7  C15 UNL     1      -4.595  -1.231   0.658  1.00  0.00     0.181 C 
HETATM    8  C16 UNL     1      -5.041   0.189   0.721  1.00  0.00     0.205 C 
HETATM    9  F1  UNL     1      -6.372   0.232   0.270  1.00  0.00    -0.246 F 
ENDROOT
BRANCH   1  10
HETATM   10  C8  UNL     1      -0.621   0.381  -0.260  1.00  0.00    -0.008 A 
HETATM   11  C7  UNL     1      -0.175   0.459   1.071  1.00  0.00     0.016 A 
HETATM   12  C6  UNL     1       1.163   0.258   1.362  1.00  0.00     0.057 A 
HETATM   13  C5  UNL     1       2.124  -0.017   0.451  1.00  0.00     0.141 A 
HETATM   14  N1  UNL     1       1.610  -0.085  -0.854  1.00  0.00    -0.346 N 
HETATM   15  C17 UNL     1       0.358   0.094  -1.211  1.00  0.00     0.100 A 
ATOM     16  H1  UNL     1       2.275  -0.294  -1.599  1.00  0.00     0.167 HD
BRANCH  13  17
HETATM   17  O1  UNL     1       3.395  -0.210   0.490  1.00  0.00    -0.336 OA
BRANCH  17  18
HETATM   18  C4  UNL     1       4.641  -0.454   0.206  1.00  0.00     0.177 C 
BRANCH  18  19
HETATM   19  C3  UNL     1       5.279   0.407  -0.885  1.00  0.00     0.026 C 
BRANCH  19  20
HETATM   20  C2  UNL     1       6.735   0.066  -1.046  1.00  0.00    -0.002 C 
HETATM   21  C1  UNL     1       7.547   0.422   0.156  1.00  0.00     0.005 C 
ENDBRANCH  19  20
ENDBRANCH  18  19
ENDBRANCH  17  18
ENDBRANCH  13  17
ENDBRANCH   1  10
BRANCH   1  22
HETATM   22  O2  UNL     1      -2.081   1.500  -1.753  1.00  0.00    -0.384 OA
ATOM     23  H2  UNL     1      -2.985   1.651  -2.004  1.00  0.00     0.211 HD
ENDBRANCH   1  22
BRANCH   6  24
HETATM   24  O3  UNL     1      -2.329  -1.667   1.103  1.00  0.00    -0.392 OA
ATOM     25  H3  UNL     1      -2.594  -2.250   1.805  1.00  0.00     0.210 HD
ENDBRANCH   6  24
BRANCH   7  26
HETATM   26  O4  UNL     1      -5.573  -2.066   0.089  1.00  0.00    -0.390 OA
ATOM     27  H4  UNL     1      -6.435  -1.906   0.456  1.00  0.00     0.210 HD
ENDBRANCH   7  26
TORSDOF 8
