REMARK  6 active torsions:
REMARK  status: ('A' for Active; 'I' for Inactive)
REMARK    1  A    between atoms: N1_1  and  N2_4 
REMARK    2  A    between atoms: N2_4  and  C1_5 
REMARK    3  A    between atoms: C3_10  and  O1_11 
REMARK    4  A    between atoms: C4_13  and  C5_14 
REMARK    5  A    between atoms: C5_14  and  N4_15 
REMARK    6  A    between atoms: N4_15  and  C6_18 
ROOT
HETATM    1  C1  UNL     1       3.409   0.186   0.573  1.00  0.00     0.260 C 
HETATM    2  C2  UNL     1       3.930   1.082  -0.512  1.00  0.00     0.286 C 
HETATM    3  N3  UNL     1       3.497   0.683  -1.829  1.00  0.00    -0.043 N 
ATOM      4  H31 UNL     1       4.095  -0.047  -2.216  1.00  0.00     0.280 HD
ATOM      5  H32 UNL     1       3.675   1.412  -2.520  1.00  0.00     0.280 HD
HETATM    6  C3  UNL     1       2.113   0.287  -1.819  1.00  0.00     0.349 C 
HETATM    7  C4  UNL     1       1.414   0.619  -0.517  1.00  0.00     0.205 C 
HETATM    8  O2  UNL     1       2.067  -0.071   0.498  1.00  0.00    -0.355 OA
ENDROOT
BRANCH   7   9
HETATM    9  C5  UNL     1       0.002   0.067  -0.646  1.00  0.00     0.268 C 
BRANCH   9  10
HETATM   10  N4  UNL     1      -0.761   0.208   0.554  1.00  0.00    -0.068 N 
ATOM     11  H42 UNL     1      -0.286  -0.197   1.361  1.00  0.00     0.277 HD
ATOM     12  H41 UNL     1      -0.797   1.176   0.875  1.00  0.00     0.277 HD
BRANCH  10  13
HETATM   13  C6  UNL     1      -2.065  -0.345   0.363  1.00  0.00     0.186 C 
HETATM   14  C7  UNL     1      -2.809  -0.571   1.661  1.00  0.00     0.033 C 
HETATM   15  C8  UNL     1      -4.219  -0.069   1.644  1.00  0.00     0.002 C 
HETATM   16  C9  UNL     1      -4.993  -0.526   0.431  1.00  0.00     0.000 C 
HETATM   17  C10 UNL     1      -4.178  -0.453  -0.828  1.00  0.00     0.002 C 
HETATM   18  C11 UNL     1      -2.977   0.455  -0.523  1.00  0.00     0.033 C 
ENDBRANCH  10  13
ENDBRANCH   9  10
ENDBRANCH   7   9
BRANCH   6  19
HETATM   19  O1  UNL     1       1.902  -1.041  -2.098  1.00  0.00    -0.368 OA
ATOM     20  H1  UNL     1       0.989  -1.302  -2.091  1.00  0.00     0.212 HD
ENDBRANCH   6  19
BRANCH   1  21
HETATM   21  N2  UNL     1       4.202  -1.046   0.616  1.00  0.00    -0.114 NA
BRANCH  21  22
HETATM   22  N1  UNL     1       5.531  -0.803   0.872  1.00  0.00    -0.346 N 
ATOM     23  H12 UNL     1       5.907   0.135   1.014  1.00  0.00     0.172 HD
ATOM     24  H11 UNL     1       6.083  -1.660   0.902  1.00  0.00     0.172 HD
ENDBRANCH  21  22
ENDBRANCH   1  21
TORSDOF 6
