REMARK  16 active torsions:
REMARK  status: ('A' for Active; 'I' for Inactive)
REMARK    1  A    between atoms: C2_2  and  C3_3 
REMARK    2  A    between atoms: C3_3  and  C5_5 
REMARK    3  A    between atoms: C11_16  and  C12_17 
REMARK    4  A    between atoms: C12_17  and  C13_18 
REMARK    5  A    between atoms: C14_19  and  C16_21 
REMARK    6  A    between atoms: C20_27  and  C21_28 
REMARK    7  A    between atoms: C21_28  and  C24_31 
REMARK    8  A    between atoms: C24_31  and  N2_32 
REMARK    9  A    between atoms: N2_32  and  C25_35 
REMARK   10  A    between atoms: C25_35  and  C26_36 
REMARK   11  A    between atoms: C26_36  and  C27_37 
REMARK   12  A    between atoms: C27_37  and  C28_38 
REMARK   13  A    between atoms: C28_38  and  C29_39 
REMARK   14  A    between atoms: C29_39  and  N3_40 
REMARK       I    between atoms: N3_40  and  C30_42 
REMARK   15  A    between atoms: C30_42  and  O7_44 
REMARK   16  A    between atoms: O7_44  and  C31_45 
ROOT
HETATM    1  C16 UNL     1      -1.593  -2.436  -0.082  1.00  0.00     0.183 C 
HETATM    2  O4  UNL     1      -1.430  -3.512   0.835  1.00  0.00    -0.344 OA
HETATM    3  C17 UNL     1      -0.435  -3.151   1.705  1.00  0.00     0.158 C 
HETATM    4  C18 UNL     1       0.437  -4.352   2.024  1.00  0.00     0.078 C 
HETATM    5  C19 UNL     1      -0.953  -2.617   3.025  1.00  0.00     0.078 C 
HETATM    6  O5  UNL     1       0.358  -2.219   1.051  1.00  0.00    -0.347 OA
HETATM    7  C20 UNL     1      -0.563  -1.467   0.252  1.00  0.00     0.168 C 
ENDROOT
BRANCH   1   8
HETATM    8  C14 UNL     1      -3.008  -2.118  -0.179  1.00  0.00    -0.056 C 
HETATM    9  C13 UNL     1      -3.717  -1.066  -0.071  1.00  0.00    -0.019 C 
HETATM   10  C15 UNL     1      -3.825  -3.411  -0.483  1.00  0.00     0.046 C 
BRANCH   9  11
HETATM   11  C12 UNL     1      -3.499   0.350   0.191  1.00  0.00     0.068 C 
BRANCH  11  12
HETATM   12  C11 UNL     1      -4.085   1.237  -0.921  1.00  0.00     0.213 C 
HETATM   13  C10 UNL     1      -3.782   2.630  -0.516  1.00  0.00     0.225 C 
HETATM   14  C9  UNL     1      -4.646   3.765  -0.542  1.00  0.00     0.210 C 
HETATM   15  O3  UNL     1      -2.582   2.808  -0.092  1.00  0.00    -0.286 OA
HETATM   16  C7  UNL     1      -6.033   3.863  -0.025  1.00  0.00     0.151 C 
HETATM   17  O2  UNL     1      -4.202   4.848  -1.067  1.00  0.00    -0.288 OA
HETATM   18  C6  UNL     1      -6.446   2.714   0.798  1.00  0.00     0.229 C 
HETATM   19  C8  UNL     1      -6.211   5.145   0.787  1.00  0.00     0.028 C 
HETATM   20  N1  UNL     1      -7.424   1.765   0.406  1.00  0.00    -0.346 N 
HETATM   21  O1  UNL     1      -5.910   2.548   1.923  1.00  0.00    -0.273 OA
HETATM   22  C5  UNL     1      -7.714   1.480  -0.951  1.00  0.00     0.188 C 
ATOM     23  H1  UNL     1      -7.940   1.267   1.131  1.00  0.00     0.163 HD
HETATM   24  C35 UNL     1      -6.459   1.449  -1.805  1.00  0.00     0.282 C 
HETATM   25  O8  UNL     1      -5.357   0.936  -1.268  1.00  0.00    -0.306 OA
HETATM   26  O9  UNL     1      -6.680   1.942  -2.949  1.00  0.00    -0.263 OA
BRANCH  22  27
HETATM   27  C3  UNL     1      -8.502   0.257  -1.229  1.00  0.00     0.014 C 
HETATM   28  C4  UNL     1      -9.934   0.342  -0.680  1.00  0.00     0.012 C 
BRANCH  27  29
HETATM   29  C2  UNL     1      -7.937  -1.049  -0.820  1.00  0.00     0.002 C 
HETATM   30  C1  UNL     1      -7.864  -1.307   0.661  1.00  0.00     0.005 C 
ENDBRANCH  27  29
ENDBRANCH  22  27
ENDBRANCH  11  12
ENDBRANCH   9  11
ENDBRANCH   1   8
BRANCH   7  31
HETATM   31  C21 UNL     1       0.312  -1.066  -0.946  1.00  0.00     0.005 C 
HETATM   32  C22 UNL     1       1.018  -2.293  -1.501  1.00  0.00     0.019 C 
HETATM   33  C23 UNL     1      -0.514  -0.501  -2.045  1.00  0.00     0.019 C 
BRANCH  31  34
HETATM   34  C24 UNL     1       1.380  -0.114  -0.470  1.00  0.00     0.243 C 
BRANCH  34  35
HETATM   35  N2  UNL     1       2.232  -0.699   0.531  1.00  0.00    -0.074 N 
ATOM     36  H22 UNL     1       1.679  -1.043   1.316  1.00  0.00     0.277 HD
ATOM     37  H21 UNL     1       2.624  -1.580   0.198  1.00  0.00     0.277 HD
BRANCH  35  38
HETATM   38  C25 UNL     1       3.274   0.177   0.991  1.00  0.00     0.232 C 
BRANCH  38  39
HETATM   39  C26 UNL     1       4.325   0.479  -0.038  1.00  0.00     0.027 C 
BRANCH  39  40
HETATM   40  C27 UNL     1       5.054  -0.718  -0.548  1.00  0.00     0.003 C 
BRANCH  40  41
HETATM   41  C28 UNL     1       5.793  -1.498   0.498  1.00  0.00     0.020 C 
BRANCH  41  42
HETATM   42  C29 UNL     1       6.854  -0.707   1.213  1.00  0.00     0.125 C 
BRANCH  42  43
HETATM   43  N3  UNL     1       7.866  -0.213   0.294  1.00  0.00    -0.337 N 
HETATM   44  C30 UNL     1       8.971   0.554   0.727  1.00  0.00     0.361 C 
HETATM   45  O6  UNL     1       9.178   0.875   1.924  1.00  0.00    -0.238 OA
ATOM     46  H3  UNL     1       7.775  -0.428  -0.699  1.00  0.00     0.164 HD
BRANCH  44  47
HETATM   47  O7  UNL     1       9.891   0.987  -0.213  1.00  0.00    -0.294 OA
BRANCH  47  48
HETATM   48  C31 UNL     1      11.004   1.746   0.147  1.00  0.00     0.061 C 
HETATM   49  C32 UNL     1      11.918   1.026   1.126  1.00  0.00     0.046 C 
HETATM   50  C33 UNL     1      11.814   1.996  -1.111  1.00  0.00     0.046 C 
HETATM   51  C34 UNL     1      10.543   3.065   0.743  1.00  0.00     0.046 C 
ENDBRANCH  47  48
ENDBRANCH  44  47
ENDBRANCH  42  43
ENDBRANCH  41  42
ENDBRANCH  40  41
ENDBRANCH  39  40
ENDBRANCH  38  39
ENDBRANCH  35  38
ENDBRANCH  34  35
ENDBRANCH  31  34
ENDBRANCH   7  31
TORSDOF 16
