REMARK  9 active torsions:
REMARK  status: ('A' for Active; 'I' for Inactive)
REMARK    1  A    between atoms: C2_2  and  N1_3 
REMARK    2  A    between atoms: N1_3  and  C3_4 
REMARK    3  A    between atoms: N1_3  and  C15_29 
REMARK    4  A    between atoms: C3_4  and  C4_5 
REMARK    5  A    between atoms: C4_5  and  N2_6 
REMARK    6  A    between atoms: N2_6  and  C5_9 
REMARK    7  A    between atoms: C5_9  and  C7_12 
REMARK    8  A    between atoms: C5_9  and  C9_14 
REMARK    9  A    between atoms: C12_19  and  N5_20 
ROOT
HETATM    1  C5  UNL     1       1.706  -0.087  -0.444  1.00  0.00     0.245 C 
HETATM    2  C6  UNL     1       1.575   1.331  -0.942  1.00  0.00     0.104 C 
HETATM    3  N3  UNL     1       1.449   2.437  -1.323  1.00  0.00    -0.194 NA
ENDROOT
BRANCH   1   4
HETATM    4  N2  UNL     1       0.719  -0.206   0.605  1.00  0.00    -0.047 N 
ATOM      5  H22 UNL     1       0.912   0.373   1.423  1.00  0.00     0.279 HD
ATOM      6  H21 UNL     1       0.737  -1.103   1.091  1.00  0.00     0.279 HD
BRANCH   4   7
HETATM    7  C4  UNL     1      -0.569   0.094  -0.051  1.00  0.00     0.265 C 
BRANCH   7   8
HETATM    8  C3  UNL     1      -1.562   0.502   0.952  1.00  0.00     0.300 C 
BRANCH   8   9
HETATM    9  N1  UNL     1      -2.847   0.958   0.377  1.00  0.00     0.094 N 
BRANCH   9  10
HETATM   10  C2  UNL     1      -2.515   2.151  -0.328  1.00  0.00     0.268 C 
HETATM   11  C1  UNL     1      -3.613   3.076  -0.747  1.00  0.00     0.037 C 
ENDBRANCH   9  10
BRANCH   9  12
HETATM   12  C15 UNL     1      -3.526  -0.018  -0.365  1.00  0.00     0.223 C 
HETATM   13  C16 UNL     1      -4.889   0.438  -0.809  1.00  0.00     0.036 C 
HETATM   14  C17 UNL     1      -5.925  -0.704  -0.684  1.00  0.00     0.002 C 
HETATM   15  C18 UNL     1      -6.138  -1.074   0.749  1.00  0.00     0.000 C 
HETATM   16  C19 UNL     1      -4.812  -1.088   1.469  1.00  0.00     0.002 C 
HETATM   17  C20 UNL     1      -3.747  -1.312   0.408  1.00  0.00     0.036 C 
ENDBRANCH   9  12
ENDBRANCH   8   9
ENDBRANCH   7   8
ENDBRANCH   4   7
ENDBRANCH   1   4
BRANCH   1  18
HETATM   18  C7  UNL     1       1.499  -0.945  -1.638  1.00  0.00     0.056 C 
HETATM   19  C8  UNL     1       2.630  -0.606  -2.620  1.00  0.00     0.009 C 
ENDBRANCH   1  18
BRANCH   1  20
HETATM   20  C9  UNL     1       3.122  -0.094   0.072  1.00  0.00     0.036 A 
HETATM   21  C10 UNL     1       4.110  -1.026  -0.108  1.00  0.00     0.050 A 
HETATM   22  C11 UNL     1       5.322  -0.748   0.396  1.00  0.00     0.073 A 
HETATM   23  N4  UNL     1       6.463  -1.507   0.304  1.00  0.00    -0.191 N 
HETATM   24  C14 UNL     1       5.480   0.436   1.052  1.00  0.00     0.101 A 
HETATM   25  C12 UNL     1       7.625  -1.107   0.819  1.00  0.00     0.679 A 
ATOM     26  H4  UNL     1       6.419  -2.407  -0.174  1.00  0.00     0.184 HD
HETATM   27  N6  UNL     1       7.801   0.058   1.470  1.00  0.00    -0.155 N 
HETATM   28  C13 UNL     1       6.718   0.834   1.588  1.00  0.00     0.279 A 
ATOM     29  H6  UNL     1       8.707   0.333   1.851  1.00  0.00     0.187 HD
HETATM   30  O1  UNL     1       6.743   1.940   2.172  1.00  0.00    -0.266 OA
HETATM   31  S1  UNL     1       3.928   1.142   0.953  1.00  0.00    -0.083 SA
BRANCH  25  32
HETATM   32  N5  UNL     1       8.680  -1.879   0.656  1.00  0.00    -0.234 N 
ATOM     33  H52 UNL     1       8.547  -2.762   0.163  1.00  0.00     0.174 HD
ATOM     34  H51 UNL     1       9.570  -1.573   1.050  1.00  0.00     0.174 HD
ENDBRANCH  25  32
ENDBRANCH   1  20
TORSDOF 9
