REMARK  5 active torsions:
REMARK  status: ('A' for Active; 'I' for Inactive)
REMARK    1  A    between atoms: S1_2  and  C2_3 
REMARK    2  A    between atoms: C4_11  and  N4_12 
REMARK    3  A    between atoms: N4_12  and  N5_14 
REMARK    4  A    between atoms: C5_19  and  N7_20 
REMARK    5  A    between atoms: N7_20  and  O1_22 
ROOT
HETATM    1  C2  UNL     1       2.187  -0.951   0.566  1.00  0.00     0.106 A 
HETATM    2  N1  UNL     1       1.526  -2.062   0.899  1.00  0.00    -0.291 N 
ATOM      3  H1  UNL     1       2.049  -2.921   1.069  1.00  0.00     0.187 HD
HETATM    4  N2  UNL     1       0.214  -2.073   1.013  1.00  0.00    -0.283 N 
ATOM      5  H2  UNL     1      -0.242  -2.949   1.268  1.00  0.00     0.188 HD
HETATM    6  C3  UNL     1      -0.544  -1.007   0.814  1.00  0.00     0.151 A 
HETATM    7  N3  UNL     1      -1.877  -1.073   0.944  1.00  0.00    -0.173 N 
ATOM      8  H3  UNL     1      -2.328  -1.951   1.200  1.00  0.00     0.186 HD
HETATM    9  C4  UNL     1      -2.609   0.031   0.733  1.00  0.00     0.699 A 
HETATM   10  N6  UNL     1      -2.031   1.191   0.395  1.00  0.00    -0.172 N 
ATOM     11  H6  UNL     1      -2.620   2.009   0.241  1.00  0.00     0.186 HD
HETATM   12  C5  UNL     1      -0.681   1.313   0.250  1.00  0.00     0.156 A 
HETATM   13  C6  UNL     1       0.079   0.195   0.462  1.00  0.00     0.080 A 
HETATM   14  C7  UNL     1       1.449   0.217   0.339  1.00  0.00     0.097 A 
HETATM   15  C8  UNL     1       2.134   1.436  -0.022  1.00  0.00     0.103 C 
HETATM   16  N8  UNL     1       2.731   2.417  -0.316  1.00  0.00    -0.191 NA
ENDROOT
BRANCH   1  17
HETATM   17  S1  UNL     1       3.954  -0.828   0.385  1.00  0.00    -0.114 SA
HETATM   18  C1  UNL     1       4.519  -1.184  -1.274  1.00  0.00     0.097 C 
ENDBRANCH   1  17
BRANCH  12  19
HETATM   19  N7  UNL     1      -0.202   2.441  -0.071  1.00  0.00    -0.252 N 
ATOM     20  H7  UNL     1       0.811   2.498  -0.172  1.00  0.00     0.196 HD
BRANCH  19  21
HETATM   21  O1  UNL     1      -0.902   3.576  -0.293  1.00  0.00    -0.288 OA
ATOM     22  H1  UNL     1      -0.543   4.422  -0.534  1.00  0.00     0.244 HD
ENDBRANCH  19  21
ENDBRANCH  12  19
BRANCH   9  23
HETATM   23  N4  UNL     1      -3.882   0.003   0.849  1.00  0.00    -0.138 N 
ATOM     24  H4  UNL     1      -4.390   0.871   0.678  1.00  0.00     0.205 HD
BRANCH  23  25
HETATM   25  N5  UNL     1      -4.623  -1.117   1.190  1.00  0.00    -0.331 N 
ATOM     26  H52 UNL     1      -4.098  -1.975   1.358  1.00  0.00     0.177 HD
ATOM     27  H51 UNL     1      -5.639  -1.139   1.283  1.00  0.00     0.177 HD
ENDBRANCH  23  25
ENDBRANCH   9  23
TORSDOF 5
