REMARK  18 active torsions:
REMARK  status: ('A' for Active; 'I' for Inactive)
REMARK    1  A    between atoms: N1_1  and  C1_5 
REMARK    2  A    between atoms: C1_5  and  C2_6 
REMARK    3  A    between atoms: C2_6  and  C3_7 
REMARK    4  A    between atoms: C3_7  and  N2_8 
REMARK    5  A    between atoms: N2_8  and  C4_10 
REMARK    6  A    between atoms: C4_10  and  N3_12 
REMARK    7  A    between atoms: N3_12  and  C5_14 
REMARK    8  A    between atoms: C5_14  and  C6_15 
REMARK    9  A    between atoms: C6_15  and  C7_16 
REMARK   10  A    between atoms: C7_16  and  N4_17 
REMARK   11  A    between atoms: N4_17  and  C8_19 
REMARK   12  A    between atoms: C8_19  and  C9_20 
REMARK   13  A    between atoms: C9_20  and  C10_21 
REMARK   14  A    between atoms: C10_21  and  C11_22 
REMARK   15  A    between atoms: C11_22  and  C12_23 
REMARK   16  A    between atoms: C12_23  and  C13_24 
REMARK   17  A    between atoms: C13_24  and  N5_25 
REMARK   18  A    between atoms: N5_25  and  C14_27 
ROOT
HETATM    1  N4  UNL     1      -1.441  -0.959  -0.486  1.00  0.00    -0.402 N 
ATOM      2  H4  UNL     1      -1.969  -0.524   0.271  1.00  0.00     0.158 HD
ENDROOT
BRANCH   1   3
HETATM    3  C7  UNL     1      -1.878  -0.871  -1.823  1.00  0.00     0.120 C 
BRANCH   3   4
HETATM    4  C6  UNL     1      -3.150  -0.034  -2.011  1.00  0.00     0.039 C 
BRANCH   4   5
HETATM    5  C5  UNL     1      -2.996   1.367  -1.541  1.00  0.00     0.123 C 
BRANCH   5   6
HETATM    6  N3  UNL     1      -2.744   1.520  -0.149  1.00  0.00    -0.367 N 
ATOM      7  H3  UNL     1      -1.808   1.782   0.161  1.00  0.00     0.161 HD
BRANCH   6   8
HETATM    8  C4  UNL     1      -3.759   1.318   0.817  1.00  0.00     0.167 C 
HETATM    9  S1  UNL     1      -3.377   1.475   2.401  1.00  0.00    -0.041 SA
BRANCH   8  10
HETATM   10  N2  UNL     1      -5.093   0.987   0.492  1.00  0.00    -0.367 N 
ATOM     11  H2  UNL     1      -5.363   0.893  -0.487  1.00  0.00     0.161 HD
BRANCH  10  12
HETATM   12  C3  UNL     1      -6.099   0.776   1.546  1.00  0.00     0.123 C 
BRANCH  12  13
HETATM   13  C2  UNL     1      -7.399   0.485   0.861  1.00  0.00     0.047 C 
BRANCH  13  14
HETATM   14  C1  UNL     1      -8.560   0.237   1.762  1.00  0.00     0.231 C 
BRANCH  14  15
HETATM   15  N1  UNL     1      -8.858   1.363   2.621  1.00  0.00    -0.079 N 
ATOM     16  H13 UNL     1      -8.035   1.642   3.155  1.00  0.00     0.274 HD
ATOM     17  H12 UNL     1      -8.996   2.212   2.074  1.00  0.00     0.274 HD
ATOM     18  H11 UNL     1      -9.653   1.193   3.238  1.00  0.00     0.274 HD
ENDBRANCH  14  15
ENDBRANCH  13  14
ENDBRANCH  12  13
ENDBRANCH  10  12
ENDBRANCH   8  10
ENDBRANCH   6   8
ENDBRANCH   5   6
ENDBRANCH   4   5
ENDBRANCH   3   4
ENDBRANCH   1   3
BRANCH   1  19
HETATM   19  C8  UNL     1      -0.271  -1.656  -0.234  1.00  0.00     0.055 C 
BRANCH  19  20
HETATM   20  C9  UNL     1       1.083  -1.117  -0.526  1.00  0.00     0.044 C 
BRANCH  20  21
HETATM   21  C10 UNL     1       1.395  -0.720  -1.899  1.00  0.00     0.005 C 
BRANCH  21  22
HETATM   22  C11 UNL     1       2.758  -0.254  -2.214  1.00  0.00     0.002 C 
BRANCH  22  23
HETATM   23  C12 UNL     1       3.945  -1.111  -2.124  1.00  0.00     0.020 C 
BRANCH  23  24
HETATM   24  C13 UNL     1       4.357  -1.713  -0.855  1.00  0.00     0.121 C 
BRANCH  24  25
HETATM   25  N5  UNL     1       4.618  -0.854   0.249  1.00  0.00    -0.376 N 
ATOM     26  H5  UNL     1       3.961  -0.897   1.028  1.00  0.00     0.161 HD
BRANCH  25  27
HETATM   27  C14 UNL     1       5.701   0.059   0.379  1.00  0.00     0.114 A 
HETATM   28  C15 UNL     1       6.765   0.053   1.164  1.00  0.00     0.034 A 
HETATM   29  C16 UNL     1       7.507  -0.582   2.170  1.00  0.00     0.017 A 
HETATM   30  C20 UNL     1       7.219   1.235   0.637  1.00  0.00     0.047 A 
HETATM   31  C17 UNL     1       8.671  -0.013   2.609  1.00  0.00     0.001 A 
HETATM   32  C18 UNL     1       9.113   1.192   2.056  1.00  0.00     0.002 A 
HETATM   33  C19 UNL     1       8.402   1.822   1.077  1.00  0.00     0.030 A 
HETATM   34  N6  UNL     1       6.188   1.257  -0.135  1.00  0.00    -0.341 N 
ATOM     35  H6  UNL     1       5.856   1.905  -0.850  1.00  0.00     0.167 HD
ENDBRANCH  25  27
ENDBRANCH  24  25
ENDBRANCH  23  24
ENDBRANCH  22  23
ENDBRANCH  21  22
ENDBRANCH  20  21
ENDBRANCH  19  20
ENDBRANCH   1  19
TORSDOF 18
