REMARK  5 active torsions:
REMARK  status: ('A' for Active; 'I' for Inactive)
REMARK    1  A    between atoms: N1_2  and  C3_4 
REMARK    2  A    between atoms: C3_4  and  C4_5 
REMARK    3  A    between atoms: C4_5  and  O1_6 
REMARK    4  A    between atoms: C7_10  and  C8_12 
REMARK    5  A    between atoms: C11_16  and  C12_17 
ROOT
HETATM    1  C12 UNL     1       4.983   0.190  -0.059  1.00  0.00     0.054 A 
HETATM    2  C13 UNL     1       5.736   0.925   0.823  1.00  0.00     0.135 A 
HETATM    3  F3  UNL     1       5.166   1.657   1.790  1.00  0.00    -0.205 F 
HETATM    4  C14 UNL     1       7.131   0.928   0.735  1.00  0.00     0.117 A 
HETATM    5  C15 UNL     1       7.725   0.171  -0.265  1.00  0.00     0.249 A 
HETATM    6  O2  UNL     1       8.998   0.159  -0.365  1.00  0.00    -0.268 OA
HETATM    7  N2  UNL     1       6.985  -0.544  -1.124  1.00  0.00    -0.314 N 
ATOM      8  H2  UNL     1       7.438  -1.095  -1.853  1.00  0.00     0.170 HD
HETATM    9  C16 UNL     1       5.643  -0.534  -1.022  1.00  0.00     0.131 A 
HETATM   10  C17 UNL     1       4.856  -1.297  -1.943  1.00  0.00     0.118 C 
HETATM   11  N3  UNL     1       4.205  -1.925  -2.679  1.00  0.00    -0.190 NA
ENDROOT
BRANCH   1  12
HETATM   12  C11 UNL     1       3.544   0.172   0.020  1.00  0.00     0.022 A 
HETATM   13  C10 UNL     1       2.836   1.108  -0.689  1.00  0.00     0.128 A 
HETATM   14  C9  UNL     1       1.465   1.094  -0.624  1.00  0.00     0.056 A 
HETATM   15  F2  UNL     1       3.462   2.058  -1.461  1.00  0.00    -0.205 F 
HETATM   16  C8  UNL     1       0.735   0.187   0.117  1.00  0.00     0.023 A 
HETATM   17  C19 UNL     1       1.463  -0.742   0.820  1.00  0.00     0.127 A 
HETATM   18  C18 UNL     1       2.837  -0.751   0.773  1.00  0.00     0.058 A 
HETATM   19  F4  UNL     1       0.823  -1.658   1.566  1.00  0.00    -0.205 F 
BRANCH  16  20
HETATM   20  C7  UNL     1      -0.744   0.213   0.145  1.00  0.00     0.134 C 
HETATM   21  C6  UNL     1      -1.366  -1.069  -0.365  1.00  0.00     0.051 C 
HETATM   22  C5  UNL     1      -2.804  -0.695  -0.699  1.00  0.00     0.047 C 
HETATM   23  C3  UNL     1      -3.545  -0.214   0.525  1.00  0.00     0.179 C 
HETATM   24  C21 UNL     1      -2.680  -0.039   1.723  1.00  0.00     0.047 C 
HETATM   25  C20 UNL     1      -1.335   0.566   1.468  1.00  0.00     0.051 C 
HETATM   26  F1  UNL     1      -1.166   1.208  -0.755  1.00  0.00    -0.238 F 
BRANCH  23  27
HETATM   27  N1  UNL     1      -4.290   0.935   0.134  1.00  0.00     0.091 N 
HETATM   28  C1  UNL     1      -5.128   1.515   1.135  1.00  0.00     0.310 C 
HETATM   29  C2  UNL     1      -5.030   0.786  -1.085  1.00  0.00     0.310 C 
ENDBRANCH  23  27
BRANCH  23  30
HETATM   30  C4  UNL     1      -4.550  -1.299   0.867  1.00  0.00     0.205 C 
BRANCH  30  31
HETATM   31  O1  UNL     1      -3.796  -2.432   1.252  1.00  0.00    -0.398 OA
ATOM     32  H1  UNL     1      -4.425  -3.111   1.466  1.00  0.00     0.209 HD
ENDBRANCH  30  31
ENDBRANCH  23  30
ENDBRANCH  16  20
ENDBRANCH   1  12
TORSDOF 5
