REMARK  6 active torsions:
REMARK  status: ('A' for Active; 'I' for Inactive)
REMARK    1  A    between atoms: O1_1  and  C1_3 
REMARK    2  A    between atoms: C3_5  and  C4_6 
REMARK    3  A    between atoms: C4_6  and  N1_7 
REMARK    4  A    between atoms: C4_6  and  C15_26 
REMARK    5  A    between atoms: N1_7  and  C5_9 
REMARK    6  A    between atoms: C5_9  and  C6_10 
ROOT
HETATM    1  C5  UNL     1      -1.630   0.167   0.005  1.00  0.00     0.096 C 
HETATM    2  C11 UNL     1      -1.781   0.112   1.513  1.00  0.00     0.041 C 
HETATM    3  C12 UNL     1      -2.965  -0.804   1.844  1.00  0.00     0.030 C 
HETATM    4  C13 UNL     1      -2.709  -2.173   1.327  1.00  0.00     0.232 C 
HETATM    5  N3  UNL     1      -2.429  -2.173  -0.109  1.00  0.00    -0.072 N 
ATOM      6  H31 UNL     1      -3.018  -2.836  -0.612  1.00  0.00     0.277 HD
ATOM      7  H32 UNL     1      -1.521  -2.588  -0.320  1.00  0.00     0.277 HD
HETATM    8  C14 UNL     1      -2.548  -0.830  -0.642  1.00  0.00     0.269 C 
ENDROOT
BRANCH   1   9
HETATM    9  N1  UNL     1      -0.299   0.247  -0.445  1.00  0.00    -0.401 N 
ATOM     10  H1  UNL     1      -0.007   1.089  -0.941  1.00  0.00     0.154 HD
BRANCH   9  11
HETATM   11  C4  UNL     1       0.647  -0.769  -0.248  1.00  0.00     0.088 C 
BRANCH  11  12
HETATM   12  C3  UNL     1       1.029  -1.614  -1.367  1.00  0.00     0.039 A 
HETATM   13  C1  UNL     1       1.710  -1.212  -2.601  1.00  0.00     0.124 A 
HETATM   14  C2  UNL     1       0.230  -1.603  -2.653  1.00  0.00     0.041 A 
BRANCH  13  15
HETATM   15  O1  UNL     1       2.588  -2.101  -3.223  1.00  0.00    -0.395 OA
ATOM     16  H1  UNL     1       3.506  -1.858  -3.191  1.00  0.00     0.210 HD
ENDBRANCH  13  15
ENDBRANCH  11  12
BRANCH  11  17
HETATM   17  C15 UNL     1       1.776  -0.215   0.598  1.00  0.00     0.014 C 
HETATM   18  C16 UNL     1       2.587  -1.353   1.221  1.00  0.00     0.007 C 
HETATM   19  C17 UNL     1       4.012  -0.966   1.474  1.00  0.00     0.006 C 
HETATM   20  C18 UNL     1       4.196   0.465   1.879  1.00  0.00     0.079 C 
HETATM   21  C19 UNL     1       3.502   1.453   1.005  1.00  0.00     0.244 C 
HETATM   22  F2  UNL     1       4.397   2.291   0.355  1.00  0.00    -0.206 F 
HETATM   23  F3  UNL     1       2.661   2.198   1.824  1.00  0.00    -0.206 F 
HETATM   24  C20 UNL     1       2.704   0.709  -0.050  1.00  0.00     0.085 C 
ENDBRANCH  11  17
ENDBRANCH   9  11
ENDBRANCH   1   9
BRANCH   1  25
HETATM   25  C6  UNL     1      -2.232   1.505  -0.390  1.00  0.00     0.078 A 
HETATM   26  N2  UNL     1      -3.304   1.592  -1.192  1.00  0.00    -0.363 N 
HETATM   27  C7  UNL     1      -3.865   2.748  -1.547  1.00  0.00     0.112 A 
ATOM     28  H2  UNL     1      -3.711   0.728  -1.549  1.00  0.00     0.165 HD
HETATM   29  C8  UNL     1      -3.359   3.933  -1.096  1.00  0.00     0.052 A 
HETATM   30 CL1  UNL     1      -4.128   5.411  -1.589  1.00  0.00    -0.083 Cl
HETATM   31  C9  UNL     1      -2.253   3.874  -0.267  1.00  0.00     0.069 A 
HETATM   32  C10 UNL     1      -1.675   2.652   0.096  1.00  0.00     0.143 A 
HETATM   33  F1  UNL     1      -0.593   2.686   0.889  1.00  0.00    -0.204 F 
ENDBRANCH   1  25
TORSDOF 6
