REMARK  3 active torsions:
REMARK  status: ('A' for Active; 'I' for Inactive)
REMARK    1  A    between atoms: S1_2  and  C2_3 
REMARK    2  A    between atoms: C16_26  and  C17_27 
REMARK    3  A    between atoms: C17_27  and  C18_28 
ROOT
HETATM    1  C2  UNL     1       3.884   0.808   0.987  1.00  0.00     0.146 A 
HETATM    2  N1  UNL     1       3.309  -0.021   1.866  1.00  0.00    -0.303 N 
ATOM      3  H1  UNL     1       3.747  -0.170   2.775  1.00  0.00     0.171 HD
HETATM    4  C3  UNL     1       2.139  -0.674   1.565  1.00  0.00     0.256 A 
HETATM    5  O1  UNL     1       1.635  -1.428   2.400  1.00  0.00    -0.268 OA
HETATM    6  C4  UNL     1       1.496  -0.520   0.359  1.00  0.00     0.043 A 
HETATM    7  C5  UNL     1       2.161   0.364  -0.498  1.00  0.00     0.023 A 
HETATM    8  N2  UNL     1       3.296   0.994  -0.202  1.00  0.00    -0.340 N 
ATOM      9  H2  UNL     1       3.720   1.622  -0.885  1.00  0.00     0.168 HD
HETATM   10  C6  UNL     1       1.502   0.665  -1.798  1.00  0.00     0.059 C 
HETATM   11  C7  UNL     1       0.075   1.011  -1.354  1.00  0.00     0.017 C 
HETATM   12  C8  UNL     1      -0.607  -0.278  -0.876  1.00  0.00    -0.021 C 
HETATM   13  C9  UNL     1      -1.071  -0.873  -2.181  1.00  0.00     0.017 C 
HETATM   14  C10 UNL     1       0.324  -1.169  -0.074  1.00  0.00     0.108 C 
HETATM   15  C11 UNL     1      -0.610  -1.896   0.754  1.00  0.00     0.256 C 
HETATM   16  F1  UNL     1      -0.294  -2.929   1.544  1.00  0.00    -0.205 F 
HETATM   17  F2  UNL     1      -1.481  -2.595  -0.140  1.00  0.00    -0.205 F 
HETATM   18  C12 UNL     1      -1.554  -0.857   1.300  1.00  0.00     0.074 C 
HETATM   19  C13 UNL     1      -2.888  -1.473   1.643  1.00  0.00     0.090 C 
HETATM   20  C14 UNL     1      -3.854  -1.168   0.552  1.00  0.00     0.245 C 
HETATM   21  F3  UNL     1      -4.988  -0.527   1.056  1.00  0.00    -0.206 F 
HETATM   22  F4  UNL     1      -4.395  -2.343  -0.004  1.00  0.00    -0.206 F 
HETATM   23  C15 UNL     1      -3.106  -0.359  -0.463  1.00  0.00     0.090 C 
HETATM   24  C16 UNL     1      -1.775   0.026   0.064  1.00  0.00    -0.008 C 
ENDROOT
BRANCH  24  25
HETATM   25  C17 UNL     1      -1.686   1.453   0.514  1.00  0.00     0.124 C 
BRANCH  25  26
HETATM   26  C18 UNL     1      -2.754   1.908   1.423  1.00  0.00     0.173 C 
HETATM   27  O2  UNL     1      -2.780   1.655   2.653  1.00  0.00    -0.648 OA
HETATM   28  O3  UNL     1      -3.848   2.677   0.968  1.00  0.00    -0.648 OA
ENDBRANCH  25  26
ENDBRANCH  24  25
BRANCH   1  29
HETATM   29  S1  UNL     1       5.405   1.621   1.447  1.00  0.00    -0.098 SA
HETATM   30  C1  UNL     1       6.856   0.638   0.985  1.00  0.00     0.099 C 
ENDBRANCH   1  29
TORSDOF 3
