REMARK  5 active torsions:
REMARK  status: ('A' for Active; 'I' for Inactive)
REMARK    1  A    between atoms: C3_7  and  C4_8 
REMARK    2  A    between atoms: C3_7  and  C5_11 
REMARK    3  A    between atoms: C4_8  and  O1_9 
REMARK    4  A    between atoms: C5_11  and  S1_12 
REMARK    5  A    between atoms: S1_12  and  N3_13 
ROOT
HETATM    1  N1  UNL     1      -2.400  -1.724  -0.107  1.00  0.00    -0.087 NA
HETATM    2  C1  UNL     1      -1.396  -1.041   0.628  1.00  0.00     0.105 A 
HETATM    3  N2  UNL     1      -1.130  -1.073   1.905  1.00  0.00    -0.362 N 
ATOM      4  H2  UNL     1      -1.526  -1.558   2.710  1.00  0.00     0.162 HD
HETATM    5  C2  UNL     1      -0.041  -0.136   1.709  1.00  0.00     0.198 A 
HETATM    6 CL1  UNL     1      -0.367   1.358   2.613  1.00  0.00    -0.101 Cl
HETATM    7  C3  UNL     1      -0.328  -0.085   0.246  1.00  0.00     0.083 A 
ENDROOT
BRANCH   7   8
HETATM    8  C4  UNL     1      -0.819   1.224  -0.305  1.00  0.00     0.185 C 
BRANCH   8   9
HETATM    9  O1  UNL     1      -1.582   1.046  -1.454  1.00  0.00    -0.400 OA
ATOM     10  H1  UNL     1      -1.892   1.874  -1.802  1.00  0.00     0.209 HD
ENDBRANCH   8   9
ENDBRANCH   7   8
BRANCH   7  11
HETATM   11  C5  UNL     1       0.689  -0.775  -0.651  1.00  0.00     0.154 C 
BRANCH  11  12
HETATM   12  S1  UNL     1       1.979   0.347  -1.123  1.00  0.00     0.109 S 
HETATM   13  O2  UNL     1       3.007  -0.410  -2.183  1.00  0.00    -0.236 OA
BRANCH  12  14
HETATM   14  N3  UNL     1       2.811   0.947   0.265  1.00  0.00    -0.350 NA
ATOM     15  H32 UNL     1       2.179   1.412   0.917  1.00  0.00     0.166 HD
ATOM     16  H31 UNL     1       3.553   1.592  -0.006  1.00  0.00     0.166 HD
ENDBRANCH  12  14
ENDBRANCH  11  12
ENDBRANCH   7  11
TORSDOF 5
