REMARK  13 active torsions:
REMARK  status: ('A' for Active; 'I' for Inactive)
REMARK    1  A    between atoms: C2_2  and  C3_3 
REMARK    2  A    between atoms: C3_3  and  C4_4 
REMARK    3  A    between atoms: C6_9  and  C7_10 
REMARK    4  A    between atoms: C7_10  and  C8_11 
REMARK    5  A    between atoms: C8_11  and  C9_12 
REMARK    6  A    between atoms: C9_12  and  N2_13 
REMARK    7  A    between atoms: C12_22  and  C13_23 
REMARK    8  A    between atoms: C13_23  and  C14_24 
REMARK    9  A    between atoms: C18_31  and  C19_32 
REMARK   10  A    between atoms: C21_36  and  O4_37 
REMARK   11  A    between atoms: C22_39  and  C23_40 
REMARK   12  A    between atoms: C23_40  and  C24_41 
REMARK   13  A    between atoms: C30_50  and  O5_51 
ROOT
HETATM    1  C4  UNL     1      -0.034  -2.388  -0.769  1.00  0.00     0.159 C 
HETATM    2  N1  UNL     1      -0.201  -1.576  -1.959  1.00  0.00    -0.347 N 
ATOM      3  H1  UNL     1      -1.076  -1.718  -2.463  1.00  0.00     0.163 HD
HETATM    4  C5  UNL     1       0.654  -0.634  -2.513  1.00  0.00     0.241 C 
HETATM    5  O1  UNL     1       0.935  -0.773  -3.748  1.00  0.00    -0.271 OA
HETATM    6  C6  UNL     1       1.292   0.534  -1.846  1.00  0.00     0.176 C 
HETATM    7  N5  UNL     1       0.363   1.229  -1.014  1.00  0.00    -0.346 N 
ATOM      8  H5  UNL     1      -0.606   0.981  -1.213  1.00  0.00     0.163 HD
HETATM    9  C11 UNL     1       0.479   2.160  -0.002  1.00  0.00     0.241 C 
HETATM   10  O2  UNL     1      -0.238   3.230  -0.152  1.00  0.00    -0.271 OA
HETATM   11  C12 UNL     1       1.277   2.155   1.228  1.00  0.00     0.177 C 
HETATM   12  N6  UNL     1       0.564   1.758   2.433  1.00  0.00    -0.346 N 
ATOM     13  H6  UNL     1       0.952   2.160   3.287  1.00  0.00     0.163 HD
HETATM   14  C17 UNL     1      -0.521   0.955   2.651  1.00  0.00     0.241 C 
HETATM   15  O3  UNL     1      -0.336  -0.054   3.448  1.00  0.00    -0.271 OA
HETATM   16  C18 UNL     1      -1.928   1.005   2.142  1.00  0.00     0.175 C 
HETATM   17  N7  UNL     1      -2.592  -0.269   2.339  1.00  0.00    -0.356 N 
ATOM     18  H7  UNL     1      -3.127  -0.323   3.206  1.00  0.00     0.162 HD
HETATM   19  C21 UNL     1      -2.642  -1.426   1.582  1.00  0.00     0.160 C 
HETATM   20  C22 UNL     1      -3.231  -1.756   0.274  1.00  0.00     0.069 C 
HETATM   21  N9  UNL     1      -2.578  -2.846  -0.423  1.00  0.00    -0.334 N 
HETATM   22  C29 UNL     1      -3.493  -3.673  -1.227  1.00  0.00     0.158 C 
HETATM   23  C30 UNL     1      -1.213  -3.213  -0.412  1.00  0.00     0.141 C 
ENDROOT
BRANCH   6  24
HETATM   24  C7  UNL     1       2.645   0.252  -1.268  1.00  0.00     0.036 C 
BRANCH  24  25
HETATM   25  C8  UNL     1       3.546  -0.196  -2.436  1.00  0.00     0.022 C 
BRANCH  25  26
HETATM   26  C9  UNL     1       4.914  -0.450  -1.816  1.00  0.00     0.122 C 
BRANCH  26  27
HETATM   27  N2  UNL     1       4.848  -1.477  -0.807  1.00  0.00    -0.367 N 
HETATM   28  C10 UNL     1       5.797  -2.351  -0.683  1.00  0.00     0.196 C 
HETATM   29  N3  UNL     1       5.765  -3.372   0.293  1.00  0.00    -0.067 NA
HETATM   30  N4  UNL     1       6.900  -2.269  -1.565  1.00  0.00    -0.067 NA
ATOM     31  H2  UNL     1       4.043  -1.517  -0.182  1.00  0.00     0.161 HD
ENDBRANCH  26  27
ENDBRANCH  25  26
ENDBRANCH  24  25
ENDBRANCH   6  24
BRANCH   1  32
HETATM   32  C3  UNL     1       1.163  -3.315  -0.896  1.00  0.00     0.033 C 
BRANCH  32  33
HETATM   33  C2  UNL     1       1.041  -4.230  -2.066  1.00  0.00    -0.002 C 
HETATM   34  C1  UNL     1       2.233  -5.163  -2.195  1.00  0.00     0.005 C 
ENDBRANCH  32  33
ENDBRANCH   1  32
BRANCH  11  35
HETATM   35  C13 UNL     1       1.992   3.432   1.548  1.00  0.00     0.038 C 
BRANCH  35  36
HETATM   36  C14 UNL     1       2.995   3.943   0.598  1.00  0.00    -0.020 C 
HETATM   37  C15 UNL     1       2.567   4.292  -0.779  1.00  0.00     0.009 C 
HETATM   38  C16 UNL     1       3.634   5.189   1.196  1.00  0.00     0.009 C 
ENDBRANCH  35  36
ENDBRANCH  11  35
BRANCH  23  39
HETATM   39  O5  UNL     1      -0.995  -4.443  -0.034  1.00  0.00    -0.348 OA
ATOM     40  H5  UNL     1      -1.750  -4.972   0.195  1.00  0.00     0.219 HD
ENDBRANCH  23  39
BRANCH  20  41
HETATM   41  C23 UNL     1      -3.661  -0.629  -0.592  1.00  0.00     0.118 C 
BRANCH  41  42
HETATM   42  C24 UNL     1      -4.747   0.206  -0.021  1.00  0.00     0.015 A 
HETATM   43  C25 UNL     1      -5.195   1.393  -0.617  1.00  0.00     0.027 A 
HETATM   44  C26 UNL     1      -6.235   1.907   0.124  1.00  0.00     0.026 A 
HETATM   45  C27 UNL     1      -6.414   1.014   1.180  1.00  0.00     0.005 A 
HETATM   46  C28 UNL     1      -7.412   1.105   2.271  1.00  0.00     0.068 C 
HETATM   47  N8  UNL     1      -5.515   0.023   1.058  1.00  0.00    -0.363 N 
ATOM     48  H8  UNL     1      -5.430  -0.763   1.702  1.00  0.00     0.165 HD
ENDBRANCH  41  42
ENDBRANCH  20  41
BRANCH  16  49
HETATM   49  C19 UNL     1      -2.752   2.021   2.902  1.00  0.00     0.030 C 
HETATM   50  C20 UNL     1      -2.248   3.430   2.825  1.00  0.00     0.007 C 
ENDBRANCH  16  49
BRANCH  19  51
HETATM   51  O4  UNL     1      -2.052  -2.483   2.102  1.00  0.00    -0.345 OA
ATOM     52  H4  UNL     1      -2.086  -3.277   1.582  1.00  0.00     0.219 HD
ENDBRANCH  19  51
TORSDOF 13
