REMARK  14 active torsions:
REMARK  status: ('A' for Active; 'I' for Inactive)
REMARK    1  A    between atoms: C3_5  and  N2_6 
REMARK    2  A    between atoms: C3_5  and  C18_26 
REMARK    3  A    between atoms: N2_6  and  C4_8 
REMARK    4  A    between atoms: C4_8  and  C5_9 
REMARK    5  A    between atoms: C6_10  and  C7_11 
REMARK    6  A    between atoms: C9_13  and  C10_14 
REMARK    7  A    between atoms: C19_27  and  C20_28 
REMARK    8  A    between atoms: C20_28  and  C21_29 
REMARK    9  A    between atoms: C21_29  and  C22_30 
REMARK   10  A    between atoms: C24_32  and  C25_33 
REMARK   11  A    between atoms: C25_33  and  C26_34 
REMARK       I    between atoms: C26_34  and  N5_36 
REMARK   12  A    between atoms: N5_36  and  C27_38 
REMARK   13  A    between atoms: C27_38  and  C28_39 
REMARK   14  A    between atoms: C28_39  and  N6_40 
REMARK       I    between atoms: N6_40  and  C29_42 
REMARK       I    between atoms: C29_42  and  N7_44 
ROOT
HETATM    1  C1  UNL     1      -0.442  -4.702  -0.951  1.00  0.00     0.037 C 
HETATM    2  C2  UNL     1      -1.149  -3.941  -0.321  1.00  0.00     0.000 C 
HETATM    3  N1  UNL     1      -1.943  -3.052   0.394  1.00  0.00    -0.305 N 
ATOM      4  H1  UNL     1      -2.559  -3.418   1.120  1.00  0.00     0.177 HD
HETATM    5  C3  UNL     1      -1.930  -1.801   0.177  1.00  0.00     0.093 C 
ENDROOT
BRANCH   5   6
HETATM    6  N2  UNL     1      -2.775  -0.956   0.947  1.00  0.00    -0.354 N 
ATOM      7  H2  UNL     1      -2.845  -1.164   1.943  1.00  0.00     0.166 HD
BRANCH   6   8
HETATM    8  C4  UNL     1      -3.518   0.129   0.480  1.00  0.00     0.103 C 
BRANCH   8   9
HETATM    9  C5  UNL     1      -4.798   0.379   0.458  1.00  0.00     0.014 A 
HETATM   10  C6  UNL     1      -5.933  -0.303   0.872  1.00  0.00    -0.017 A 
HETATM   11  C9  UNL     1      -7.080   0.421   0.645  1.00  0.00     0.051 A 
HETATM   12  N4  UNL     1      -6.626   1.578   0.077  1.00  0.00    -0.355 N 
HETATM   13  C16 UNL     1      -5.297   1.580  -0.045  1.00  0.00     0.035 A 
ATOM     14  H4  UNL     1      -7.229   2.346  -0.218  1.00  0.00     0.166 HD
HETATM   15  C17 UNL     1      -4.623   2.613  -0.578  1.00  0.00     0.044 C 
BRANCH  10  16
HETATM   16  C7  UNL     1      -5.853  -1.656   1.521  1.00  0.00     0.037 C 
HETATM   17  C8  UNL     1      -5.631  -2.770   0.551  1.00  0.00     0.010 C 
ENDBRANCH  10  16
BRANCH  11  18
HETATM   18  C10 UNL     1      -8.496   0.095   0.823  1.00  0.00     0.007 A 
HETATM   19  C11 UNL     1      -9.344   1.140   0.814  1.00  0.00     0.102 A 
HETATM   20  N3  UNL     1     -10.748   1.010   0.967  1.00  0.00    -0.366 N 
HETATM   21  C12 UNL     1     -11.324  -0.275   1.134  1.00  0.00     0.022 A 
ATOM     22  H3  UNL     1     -11.342   1.839   0.957  1.00  0.00     0.165 HD
HETATM   23  C13 UNL     1     -12.624  -0.432   1.279  1.00  0.00     0.043 C 
HETATM   24  C14 UNL     1     -10.401  -1.391   1.135  1.00  0.00     0.029 A 
HETATM   25  C15 UNL     1      -9.072  -1.197   0.986  1.00  0.00     0.017 A 
ENDBRANCH  11  18
ENDBRANCH   8   9
ENDBRANCH   6   8
ENDBRANCH   5   6
BRANCH   5  26
HETATM   26  C18 UNL     1      -1.067  -1.234  -0.868  1.00  0.00     0.063 A 
HETATM   27  C19 UNL     1      -0.438   0.099  -0.673  1.00  0.00     0.002 A 
HETATM   28  C24 UNL     1       0.393  -1.182  -0.741  1.00  0.00     0.011 A 
BRANCH  27  29
HETATM   29  C20 UNL     1      -0.358   1.048  -1.868  1.00  0.00     0.006 C 
BRANCH  29  30
HETATM   30  C21 UNL     1       0.313   2.340  -1.452  1.00  0.00     0.000 C 
BRANCH  30  31
HETATM   31  C22 UNL     1       0.378   3.251  -2.652  1.00  0.00    -0.005 C 
HETATM   32  C23 UNL     1       1.188   2.541  -3.718  1.00  0.00     0.005 C 
ENDBRANCH  30  31
ENDBRANCH  29  30
ENDBRANCH  27  29
BRANCH  28  33
HETATM   33  C25 UNL     1       1.199  -1.418   0.482  1.00  0.00     0.108 C 
BRANCH  33  34
HETATM   34  C26 UNL     1       2.662  -1.252   0.137  1.00  0.00     0.217 C 
HETATM   35  O1  UNL     1       3.000  -0.989  -1.048  1.00  0.00    -0.274 OA
HETATM   36  N5  UNL     1       3.652  -1.391   1.145  1.00  0.00    -0.360 N 
ATOM     37  H5  UNL     1       3.386  -1.606   2.106  1.00  0.00     0.162 HD
BRANCH  36  38
HETATM   38  C27 UNL     1       5.062  -1.221   0.782  1.00  0.00     0.142 C 
BRANCH  38  39
HETATM   39  C28 UNL     1       5.936  -1.399   1.980  1.00  0.00     0.144 C 
BRANCH  39  40
HETATM   40  N6  UNL     1       7.325  -1.243   1.660  1.00  0.00    -0.341 N 
HETATM   41  C29 UNL     1       7.863  -0.056   1.161  1.00  0.00     0.327 C 
HETATM   42  O2  UNL     1       7.119   0.939   0.977  1.00  0.00    -0.247 OA
HETATM   43  N7  UNL     1       9.244   0.135   0.828  1.00  0.00    -0.235 N 
HETATM   44  C30 UNL     1      10.299  -0.800   0.964  1.00  0.00     0.321 C 
HETATM   45  C32 UNL     1       9.834   1.359   0.287  1.00  0.00     0.113 C 
HETATM   46  O3  UNL     1      10.331  -1.842   1.680  1.00  0.00    -0.262 OA
HETATM   47  C31 UNL     1      11.387  -0.314   0.091  1.00  0.00     0.312 C 
HETATM   48  O4  UNL     1      12.501  -0.886  -0.055  1.00  0.00    -0.262 OA
HETATM   49  N8  UNL     1      10.923   0.879  -0.517  1.00  0.00    -0.326 N 
ATOM     50  H8  UNL     1      11.292   1.313  -1.363  1.00  0.00     0.165 HD
HETATM   51  C33 UNL     1      10.285   2.288   1.382  1.00  0.00     0.064 C 
HETATM   52  C34 UNL     1       8.873   2.084  -0.641  1.00  0.00     0.064 C 
ATOM     53  H6  UNL     1       7.949  -2.037   1.804  1.00  0.00     0.164 HD
ENDBRANCH  39  40
ENDBRANCH  38  39
ENDBRANCH  36  38
ENDBRANCH  33  34
ENDBRANCH  28  33
ENDBRANCH   5  26
TORSDOF 14
