REMARK  11 active torsions:
REMARK  status: ('A' for Active; 'I' for Inactive)
REMARK    1  A    between atoms: C2_2  and  C3_3 
REMARK    2  A    between atoms: C3_3  and  C5_5 
REMARK    3  A    between atoms: C5_5  and  N1_6 
REMARK    4  A    between atoms: C5_5  and  C14_19 
REMARK       I    between atoms: N1_6  and  C6_8 
REMARK       I    between atoms: C6_8  and  N2_10 
REMARK    5  A    between atoms: N2_10  and  C7_12 
REMARK       I    between atoms: C14_19  and  N3_21 
REMARK    6  A    between atoms: N3_21  and  C15_23 
REMARK    7  A    between atoms: C15_23  and  C16_24 
REMARK    8  A    between atoms: C15_23  and  C28_47 
REMARK       I    between atoms: C16_24  and  N4_26 
REMARK    9  A    between atoms: N4_26  and  C17_28 
REMARK   10  A    between atoms: C19_30  and  C20_31 
REMARK       I    between atoms: C20_31  and  N5_33 
REMARK   11  A    between atoms: N8_39  and  C23_40 
ROOT
HETATM    1  C15 UNL     1       0.154   2.318  -2.760  1.00  0.00     0.180 C 
ENDROOT
BRANCH   1   2
HETATM    2  N3  UNL     1       1.290   2.705  -1.930  1.00  0.00    -0.346 N 
HETATM    3  C14 UNL     1       1.704   1.978  -0.789  1.00  0.00     0.241 C 
HETATM    4  O2  UNL     1       1.068   0.926  -0.501  1.00  0.00    -0.271 OA
ATOM      5  H3  UNL     1       1.813   3.543  -2.186  1.00  0.00     0.163 HD
BRANCH   3   6
HETATM    6  C5  UNL     1       2.831   2.362   0.088  1.00  0.00     0.182 C 
BRANCH   6   7
HETATM    7  C3  UNL     1       2.296   3.381   1.109  1.00  0.00     0.013 C 
HETATM    8  C4  UNL     1       3.398   3.698   2.095  1.00  0.00     0.012 C 
BRANCH   7   9
HETATM    9  C2  UNL     1       1.921   4.657   0.440  1.00  0.00     0.002 C 
HETATM   10  C1  UNL     1       1.453   5.637   1.523  1.00  0.00     0.005 C 
ENDBRANCH   7   9
ENDBRANCH   6   7
BRANCH   6  11
HETATM   11  N1  UNL     1       3.179   1.152   0.847  1.00  0.00    -0.330 N 
HETATM   12  C6  UNL     1       4.493   0.659   0.926  1.00  0.00     0.317 C 
HETATM   13  O1  UNL     1       5.443   1.253   0.338  1.00  0.00    -0.247 OA
HETATM   14  N2  UNL     1       4.802  -0.509   1.659  1.00  0.00    -0.338 N 
ATOM     15  H2  UNL     1       4.049  -1.007   2.134  1.00  0.00     0.164 HD
ATOM     16  H1  UNL     1       2.437   0.650   1.336  1.00  0.00     0.165 HD
BRANCH  14  17
HETATM   17  C7  UNL     1       6.162  -1.026   1.759  1.00  0.00     0.089 C 
HETATM   18  C8  UNL     1       6.637  -1.201   3.158  1.00  0.00     0.026 C 
HETATM   19  C9  UNL     1       6.180  -2.452   3.841  1.00  0.00     0.002 C 
HETATM   20  C10 UNL     1       6.354  -3.685   2.976  1.00  0.00     0.001 C 
HETATM   21  C11 UNL     1       5.703  -3.475   1.631  1.00  0.00     0.006 C 
HETATM   22  C12 UNL     1       6.319  -2.299   0.950  1.00  0.00     0.004 C 
HETATM   23  C13 UNL     1       5.711  -2.101  -0.424  1.00  0.00     0.012 C 
ENDBRANCH  14  17
ENDBRANCH   6  11
ENDBRANCH   3   6
ENDBRANCH   1   2
BRANCH   1  24
HETATM   24  C16 UNL     1      -0.961   1.875  -1.927  1.00  0.00     0.241 C 
HETATM   25  O3  UNL     1      -1.158   2.556  -0.859  1.00  0.00    -0.271 OA
HETATM   26  N4  UNL     1      -1.821   0.809  -2.159  1.00  0.00    -0.346 N 
ATOM     27  H4  UNL     1      -1.681   0.252  -3.002  1.00  0.00     0.163 HD
BRANCH  26  28
HETATM   28  C17 UNL     1      -2.907   0.444  -1.269  1.00  0.00     0.177 C 
HETATM   29  C18 UNL     1      -2.579  -0.852  -0.545  1.00  0.00     0.053 C 
HETATM   30  C19 UNL     1      -3.711  -1.275   0.357  1.00  0.00     0.134 C 
HETATM   31  C22 UNL     1      -5.027  -1.394  -0.365  1.00  0.00     0.339 C 
HETATM   32  N8  UNL     1      -5.526  -2.750  -0.375  1.00  0.00     0.113 N 
HETATM   33  N9  UNL     1      -4.915  -0.976  -1.748  1.00  0.00    -0.318 N 
HETATM   34  C25 UNL     1      -5.339  -3.203  -1.741  1.00  0.00     0.295 C 
HETATM   35  C26 UNL     1      -5.728  -1.923  -2.490  1.00  0.00     0.158 C 
HETATM   36  C27 UNL     1      -4.115   0.158  -2.070  1.00  0.00     0.244 C 
HETATM   37  O5  UNL     1      -4.507   0.863  -3.050  1.00  0.00    -0.271 OA
BRANCH  30  38
HETATM   38  C20 UNL     1      -3.871  -0.442   1.538  1.00  0.00     0.231 C 
HETATM   39  O4  UNL     1      -3.133   0.535   1.818  1.00  0.00    -0.273 OA
HETATM   40  N5  UNL     1      -4.916  -0.719   2.462  1.00  0.00    -0.303 N 
HETATM   41  C21 UNL     1      -5.663   0.213   2.945  1.00  0.00     0.203 C 
ATOM     42  H5  UNL     1      -5.079  -1.684   2.751  1.00  0.00     0.171 HD
HETATM   43  N6  UNL     1      -6.682  -0.125   3.856  1.00  0.00    -0.066 NA
HETATM   44  N7  UNL     1      -5.430   1.541   2.536  1.00  0.00    -0.066 NA
ENDBRANCH  30  38
BRANCH  32  45
HETATM   45  C23 UNL     1      -6.873  -2.856   0.089  1.00  0.00     0.270 C 
HETATM   46  C24 UNL     1      -7.400  -4.261   0.081  1.00  0.00     0.037 C 
ENDBRANCH  32  45
ENDBRANCH  26  28
ENDBRANCH   1  24
BRANCH   1  47
HETATM   47  C28 UNL     1       0.588   1.485  -3.886  1.00  0.00     0.009 C 
HETATM   48  C29 UNL     1       1.264   0.183  -3.531  1.00  0.00     0.012 C 
HETATM   49  C30 UNL     1      -0.433   1.338  -5.003  1.00  0.00     0.012 C 
ENDBRANCH   1  47
TORSDOF 11
