REMARK  11 active torsions:
REMARK  status: ('A' for Active; 'I' for Inactive)
REMARK    1  A    between atoms: C2_2  and  O1_4 
REMARK    2  A    between atoms: O1_4  and  C4_5 
REMARK    3  A    between atoms: C4_5  and  C5_7 
REMARK    4  A    between atoms: C5_7  and  C6_8 
REMARK    5  A    between atoms: C5_7  and  N1_18 
REMARK    6  A    between atoms: C6_8  and  C7_9 
REMARK    7  A    between atoms: N1_18  and  C13_19 
REMARK    8  A    between atoms: N1_18  and  C20_31 
REMARK    9  A    between atoms: C13_19  and  O3_20 
REMARK   10  A    between atoms: C13_19  and  C14_22 
REMARK   11  A    between atoms: C17_25  and  N2_26 
ROOT
HETATM    1  N1  UNL     1       0.530  -0.324   0.360  1.00  0.00    -0.320 N 
ENDROOT
BRANCH   1   2
HETATM    2  C5  UNL     1      -0.872  -0.422   0.930  1.00  0.00     0.195 C 
BRANCH   2   3
HETATM    3  C4  UNL     1      -1.902  -0.614  -0.064  1.00  0.00     0.283 C 
HETATM    4  O2  UNL     1      -3.092  -0.952   0.297  1.00  0.00    -0.263 OA
BRANCH   3   5
HETATM    5  O1  UNL     1      -1.758  -0.476  -1.419  1.00  0.00    -0.315 OA
BRANCH   5   6
HETATM    6  C2  UNL     1      -2.807  -0.692  -2.342  1.00  0.00     0.123 C 
HETATM    7  C1  UNL     1      -3.221   0.523  -3.106  1.00  0.00     0.040 C 
HETATM    8  C3  UNL     1      -2.486  -1.850  -3.229  1.00  0.00     0.040 C 
ENDBRANCH   5   6
ENDBRANCH   3   5
ENDBRANCH   2   3
BRANCH   2   9
HETATM    9  C6  UNL     1      -1.085   0.810   1.753  1.00  0.00     0.074 C 
BRANCH   9  10
HETATM   10  C7  UNL     1      -2.349   0.839   2.514  1.00  0.00    -0.052 A 
HETATM   11  C8  UNL     1      -3.449   1.471   1.975  1.00  0.00     0.032 A 
HETATM   12  C9  UNL     1      -4.624   1.490   2.699  1.00  0.00     0.058 A 
HETATM   13 CL1  UNL     1      -6.051   2.269   2.080  1.00  0.00    -0.082 Cl
HETATM   14  C10 UNL     1      -4.713   0.885   3.954  1.00  0.00     0.077 A 
HETATM   15 CL2  UNL     1      -6.192   0.902   4.879  1.00  0.00    -0.081 Cl
HETATM   16  C11 UNL     1      -3.612   0.262   4.476  1.00  0.00     0.058 A 
HETATM   17 CL3  UNL     1      -3.653  -0.518   6.048  1.00  0.00    -0.082 Cl
HETATM   18  C12 UNL     1      -2.439   0.235   3.770  1.00  0.00     0.032 A 
ENDBRANCH   9  10
ENDBRANCH   2   9
ENDBRANCH   1   2
BRANCH   1  19
HETATM   19  C13 UNL     1       1.372  -1.306   0.805  1.00  0.00     0.153 C 
BRANCH  19  20
HETATM   20  O3  UNL     1       0.725  -2.147   1.638  1.00  0.00    -0.345 OA
ATOM     21  H3  UNL     1       1.310  -2.829   1.947  1.00  0.00     0.219 HD
ENDBRANCH  19  20
BRANCH  19  22
HETATM   22  C14 UNL     1       2.737  -1.736   0.668  1.00  0.00     0.015 A 
HETATM   23  C15 UNL     1       3.767  -1.083   0.047  1.00  0.00     0.018 A 
HETATM   24  C16 UNL     1       5.052  -1.607  -0.075  1.00  0.00     0.037 A 
HETATM   25  C17 UNL     1       5.345  -2.837   0.440  1.00  0.00     0.102 A 
HETATM   26  C18 UNL     1       4.368  -3.541   1.071  1.00  0.00     0.037 A 
HETATM   27  C19 UNL     1       3.121  -3.003   1.175  1.00  0.00     0.018 A 
BRANCH  25  28
HETATM   28  N2  UNL     1       6.628  -3.424   0.349  1.00  0.00    -0.116 N 
HETATM   29  O4  UNL     1       7.533  -2.807  -0.219  1.00  0.00    -0.532 OA
HETATM   30  O5  UNL     1       6.864  -4.650   0.877  1.00  0.00    -0.532 OA
ENDBRANCH  25  28
ENDBRANCH  19  22
ENDBRANCH   1  19
BRANCH   1  31
HETATM   31  C20 UNL     1       0.711   0.783  -0.473  1.00  0.00    -0.008 C 
HETATM   32  C21 UNL     1       1.181   0.629  -1.880  1.00  0.00     0.053 C 
HETATM   33  C22 UNL     1       0.677   1.847  -2.653  1.00  0.00     0.006 C 
HETATM   34  C23 UNL     1       1.143   3.142  -2.073  1.00  0.00     0.001 C 
HETATM   35  C24 UNL     1       1.071   3.231  -0.583  1.00  0.00     0.006 C 
HETATM   36  C25 UNL     1       1.478   1.961   0.122  1.00  0.00     0.053 C 
ENDBRANCH   1  31
TORSDOF 11
