REMARK  1 active torsions:
REMARK  status: ('A' for Active; 'I' for Inactive)
REMARK    1  A    between atoms: N1_1  and  C1_4 
REMARK       I    between atoms: N4_13  and  C4_14 
REMARK       I    between atoms: C4_14  and  N5_15 
REMARK       I    between atoms: C4_14  and  N6_19 
ROOT
HETATM    1  C1  UNL     1       0.696   1.042   0.445  1.00  0.00     0.689 A 
HETATM    2  N2  UNL     1       2.032   0.936   0.382  1.00  0.00    -0.141 N 
ATOM      3  H2  UNL     1       2.596   1.748   0.633  1.00  0.00     0.189 HD
HETATM    4  C2  UNL     1       2.664  -0.191   0.004  1.00  0.00     0.342 A 
HETATM    5  O1  UNL     1       3.935  -0.263  -0.046  1.00  0.00    -0.246 OA
HETATM    6  N3  UNL     1       1.907  -1.255  -0.324  1.00  0.00    -0.259 N 
ATOM      7  H3  UNL     1       2.350  -2.126  -0.616  1.00  0.00     0.175 HD
HETATM    8  C3  UNL     1       0.569  -1.168  -0.267  1.00  0.00     0.348 A 
HETATM    9  O2  UNL     1      -0.111  -2.201  -0.587  1.00  0.00    -0.246 OA
HETATM   10  N4  UNL     1      -0.040  -0.035   0.112  1.00  0.00    -0.077 N 
HETATM   11  C4  UNL     1      -1.495  -0.017   0.148  1.00  0.00     0.505 C 
HETATM   12  N5  UNL     1      -1.941  -1.389   0.039  1.00  0.00    -0.032 N 
ATOM     13  H51 UNL     1      -2.961  -1.376   0.064  1.00  0.00     0.279 HD
ATOM     14  H52 UNL     1      -1.531  -2.000   0.745  1.00  0.00     0.279 HD
ATOM     15  H53 UNL     1      -1.567  -1.867  -0.781  1.00  0.00     0.279 HD
HETATM   16  N6  UNL     1      -2.013   0.764  -0.961  1.00  0.00    -0.032 N 
ATOM     17  H61 UNL     1      -3.033   0.777  -0.936  1.00  0.00     0.279 HD
ATOM     18  H62 UNL     1      -1.658   0.434  -1.858  1.00  0.00     0.279 HD
ATOM     19  H63 UNL     1      -1.620   1.705  -0.981  1.00  0.00     0.279 HD
ENDROOT
BRANCH   1  20
HETATM   20  N1  UNL     1       0.124   2.123   0.805  1.00  0.00    -0.234 N 
ATOM     21  H12 UNL     1       0.682   2.939   1.057  1.00  0.00     0.174 HD
ATOM     22  H11 UNL     1      -0.892   2.204   0.853  1.00  0.00     0.174 HD
ENDBRANCH   1  20
TORSDOF 1
