REMARK  3 active torsions:
REMARK  status: ('A' for Active; 'I' for Inactive)
REMARK    1  A    between atoms: N1_1  and  C1_5 
REMARK    2  A    between atoms: C1_5  and  C2_6 
REMARK    3  A    between atoms: C2_6  and  N2_7 
ROOT
HETATM    1  N2  UNL     1       0.320   0.182   0.474  1.00  0.00    -0.365 N 
HETATM    2  C3  UNL     1       0.910   0.995  -0.428  1.00  0.00     0.090 A 
HETATM    3  C4  UNL     1       2.239   0.841  -0.756  1.00  0.00     0.017 A 
HETATM    4  C5  UNL     1       2.972  -0.163  -0.147  1.00  0.00     0.003 A 
HETATM    5  C6  UNL     1       2.339  -0.988   0.781  1.00  0.00     0.017 A 
HETATM    6  C7  UNL     1       1.007  -0.800   1.080  1.00  0.00     0.090 A 
ENDROOT
BRANCH   1   7
HETATM    7  C2  UNL     1      -1.068   0.395   0.772  1.00  0.00     0.155 C 
BRANCH   7   8
HETATM    8  C1  UNL     1      -1.981  -0.402  -0.134  1.00  0.00     0.249 C 
BRANCH   8   9
HETATM    9  N1  UNL     1      -3.344  -0.106   0.262  1.00  0.00    -0.078 N 
ATOM     10  H13 UNL     1      -3.518  -0.275   1.253  1.00  0.00     0.274 HD
ATOM     11  H12 UNL     1      -3.552   0.892   0.261  1.00  0.00     0.274 HD
ATOM     12  H11 UNL     1      -3.959  -0.643  -0.349  1.00  0.00     0.274 HD
ENDBRANCH   8   9
ENDBRANCH   7   8
ENDBRANCH   1   7
TORSDOF 3
