REMARK  5 active torsions:
REMARK  status: ('A' for Active; 'I' for Inactive)
REMARK    1  A    between atoms: C2_2  and  C3_3 
REMARK    2  A    between atoms: C2_2  and  C8_13 
REMARK    3  A    between atoms: C3_3  and  C4_4 
REMARK    4  A    between atoms: C5_5  and  O1_6 
REMARK    5  A    between atoms: C7_10  and  O3_11 
ROOT
HETATM    1  C8  UNL     1      -0.357  -0.144  -0.336  1.00  0.00    -0.065 C 
HETATM    2  C9  UNL     1      -0.454   1.149   0.371  1.00  0.00     0.036 C 
HETATM    3  C10 UNL     1       0.691   1.950  -0.245  1.00  0.00     0.015 C 
HETATM    4  C11 UNL     1       1.604   0.942  -0.897  1.00  0.00     0.035 C 
HETATM    5  C12 UNL     1       2.980   1.019  -0.398  1.00  0.00    -0.042 A 
HETATM    6  C13 UNL     1       4.019   1.854  -0.784  1.00  0.00     0.027 A 
HETATM    7  C14 UNL     1       5.268   1.767  -0.182  1.00  0.00     0.011 A 
HETATM    8 BR1  UNL     1       6.699   2.924  -0.723  1.00  0.00    -0.051 Br
HETATM    9  C15 UNL     1       5.427   0.825   0.806  1.00  0.00     0.020 A 
HETATM   10  C16 UNL     1       4.390  -0.006   1.189  1.00  0.00     0.012 A 
HETATM   11  C17 UNL     1       3.145   0.080   0.589  1.00  0.00    -0.017 A 
HETATM   12  C18 UNL     1       1.867  -0.672   0.793  1.00  0.00     0.216 C 
HETATM   13  F1  UNL     1       2.270  -1.997   0.942  1.00  0.00    -0.243 F 
HETATM   14  C19 UNL     1       1.099  -0.424  -0.430  1.00  0.00     0.022 C 
HETATM   15  C20 UNL     1       1.430  -1.489  -1.460  1.00  0.00     0.024 C 
ENDROOT
BRANCH   1  16
HETATM   16  C2  UNL     1      -1.279  -1.226  -0.020  1.00  0.00    -0.076 C 
HETATM   17  C1  UNL     1      -1.368  -1.682   1.414  1.00  0.00     0.044 C 
BRANCH  16  18
HETATM   18  C3  UNL     1      -2.572  -1.320  -0.734  1.00  0.00     0.080 C 
BRANCH  18  19
HETATM   19  C4  UNL     1      -3.719  -0.568  -0.260  1.00  0.00     0.039 A 
HETATM   20  C5  UNL     1      -4.149   0.702  -0.527  1.00  0.00     0.099 A 
HETATM   21  C6  UNL     1      -5.300   0.955   0.229  1.00  0.00     0.182 A 
HETATM   22  O2  UNL     1      -5.547  -0.110   0.914  1.00  0.00    -0.297 OA
HETATM   23  C7  UNL     1      -4.645  -1.047   0.665  1.00  0.00     0.192 A 
BRANCH  20  24
HETATM   24  O1  UNL     1      -3.586   1.622  -1.392  1.00  0.00    -0.358 OA
ATOM     25  H1  UNL     1      -3.885   2.504  -1.578  1.00  0.00     0.217 HD
ENDBRANCH  20  24
BRANCH  23  26
HETATM   26  O3  UNL     1      -4.686  -2.288   1.276  1.00  0.00    -0.340 OA
ATOM     27  H3  UNL     1      -5.317  -2.614   1.906  1.00  0.00     0.220 HD
ENDBRANCH  23  26
ENDBRANCH  18  19
ENDBRANCH  16  18
ENDBRANCH   1  16
TORSDOF 5
