REMARK  15 active torsions:
REMARK  status: ('A' for Active; 'I' for Inactive)
REMARK    1  A    between atoms: C2_2  and  O2_4 
REMARK    2  A    between atoms: O2_4  and  C3_5 
REMARK    3  A    between atoms: C3_5  and  C4_6 
REMARK    4  A    between atoms: C3_5  and  C6_15 
REMARK    5  A    between atoms: C6_15  and  N5_16 
REMARK    6  A    between atoms: C6_15  and  C19_48 
REMARK    7  A    between atoms: N5_16  and  C7_18 
REMARK    8  A    between atoms: C8_19  and  O3_20 
REMARK    9  A    between atoms: C10_23  and  N6_24 
REMARK   10  A    between atoms: N6_24  and  C11_26 
REMARK   11  A    between atoms: C14_35  and  C15_36 
REMARK   12  A    between atoms: C15_36  and  O5_37 
REMARK   13  A    between atoms: C15_36  and  O6_39 
REMARK   14  A    between atoms: C19_48  and  O9_49 
REMARK   15  A    between atoms: C19_48  and  O10_51 
ROOT
HETATM    1  C7  UNL     1      -0.537   0.040  -0.938  1.00  0.00     0.132 C 
HETATM    2  C8  UNL     1       0.597   0.301  -0.157  1.00  0.00     0.113 C 
HETATM    3  C9  UNL     1       1.916   0.037  -0.550  1.00  0.00     0.069 A 
HETATM    4  C10 UNL     1       2.921  -0.374   0.281  1.00  0.00     0.160 A 
HETATM    5  O4  UNL     1       3.989  -0.456  -0.481  1.00  0.00    -0.291 OA
HETATM    6  C14 UNL     1       3.767  -0.140  -1.730  1.00  0.00     0.126 A 
HETATM    7  C16 UNL     1       2.437   0.185  -1.825  1.00  0.00     0.084 A 
HETATM    8  C17 UNL     1       1.757   0.548  -2.950  1.00  0.00     0.262 C 
HETATM    9  O7  UNL     1       2.425   1.050  -3.848  1.00  0.00    -0.267 OA
HETATM   10  N10 UNL     1       0.422   0.424  -3.211  1.00  0.00    -0.288 N 
ATOM     11  H10 UNL     1       0.112   0.644  -4.158  1.00  0.00     0.172 HD
HETATM   12  C18 UNL     1      -0.543   0.029  -2.311  1.00  0.00     0.277 C 
HETATM   13  O8  UNL     1      -1.574  -0.403  -2.894  1.00  0.00    -0.266 OA
ENDROOT
BRANCH   1  14
HETATM   14  N5  UNL     1      -1.718  -0.220  -0.245  1.00  0.00    -0.371 N 
ATOM     15  H5  UNL     1      -1.920  -1.201  -0.051  1.00  0.00     0.160 HD
BRANCH  14  16
HETATM   16  C6  UNL     1      -2.678   0.726   0.225  1.00  0.00     0.174 C 
BRANCH  16  17
HETATM   17  C3  UNL     1      -3.849   0.074   0.873  1.00  0.00     0.229 C 
BRANCH  17  18
HETATM   18  O2  UNL     1      -4.802   1.011   1.348  1.00  0.00    -0.306 OA
BRANCH  18  19
HETATM   19  C2  UNL     1      -5.099   1.216   2.680  1.00  0.00     0.255 C 
HETATM   20  C1  UNL     1      -6.113   2.217   3.127  1.00  0.00     0.126 C 
HETATM   21  O1  UNL     1      -4.482   0.525   3.540  1.00  0.00    -0.266 OA
ENDBRANCH  18  19
ENDBRANCH  17  18
BRANCH  17  22
HETATM   22  C4  UNL     1      -4.491  -1.015   0.111  1.00  0.00     0.147 A 
HETATM   23  N1  UNL     1      -4.175  -2.341   0.222  1.00  0.00    -0.270 N 
HETATM   24  N2  UNL     1      -4.929  -3.052  -0.576  1.00  0.00    -0.227 N 
ATOM     25  H1  UNL     1      -3.456  -2.720   0.838  1.00  0.00     0.190 HD
HETATM   26  N3  UNL     1      -5.718  -2.212  -1.190  1.00  0.00    -0.225 N 
ATOM     27  H2  UNL     1      -4.905  -4.065  -0.695  1.00  0.00     0.210 HD
HETATM   28  N4  UNL     1      -5.480  -0.976  -0.800  1.00  0.00    -0.266 N 
ATOM     29  H3  UNL     1      -6.423  -2.477  -1.878  1.00  0.00     0.210 HD
HETATM   30  C5  UNL     1      -6.163   0.221  -1.256  1.00  0.00     0.181 C 
ENDBRANCH  17  22
ENDBRANCH  16  17
BRANCH  16  31
HETATM   31  C19 UNL     1      -2.999   1.825  -0.742  1.00  0.00     0.279 C 
BRANCH  31  32
HETATM   32  O9  UNL     1      -1.783   2.513  -0.982  1.00  0.00    -0.369 OA
ATOM     33  H9  UNL     1      -1.986   3.210  -1.595  1.00  0.00     0.212 HD
ENDBRANCH  31  32
BRANCH  31  34
HETATM   34  O10 UNL     1      -3.818   2.761  -0.117  1.00  0.00    -0.369 OA
ATOM     35  H10 UNL     1      -4.021   3.458  -0.730  1.00  0.00     0.212 HD
ENDBRANCH  31  34
ENDBRANCH  16  31
ENDBRANCH  14  16
ENDBRANCH   1  14
BRANCH   2  36
HETATM   36  O3  UNL     1       0.463   0.848   1.076  1.00  0.00    -0.357 OA
ATOM     37  H3  UNL     1       1.232   1.025   1.605  1.00  0.00     0.217 HD
ENDBRANCH   2  36
BRANCH   4  38
HETATM   38  N6  UNL     1       2.825  -0.665   1.677  1.00  0.00    -0.347 N 
ATOM     39  H6  UNL     1       1.911  -0.657   2.129  1.00  0.00     0.163 HD
BRANCH  38  40
HETATM   40  C11 UNL     1       4.001  -0.971   2.459  1.00  0.00     0.203 A 
HETATM   41  C12 UNL     1       4.692  -2.201   1.910  1.00  0.00     0.169 A 
HETATM   42  N7  UNL     1       6.003  -1.727   1.529  1.00  0.00    -0.361 N 
HETATM   43  C13 UNL     1       6.092  -0.373   1.888  1.00  0.00     0.185 A 
ATOM     44  H7  UNL     1       6.734  -2.278   1.079  1.00  0.00     0.162 HD
HETATM   45  N8  UNL     1       7.256   0.459   1.715  1.00  0.00    -0.064 NA
HETATM   46  N9  UNL     1       4.993   0.056   2.403  1.00  0.00    -0.342 N 
ATOM     47  H9  UNL     1       4.848   1.011   2.731  1.00  0.00     0.164 HD
ENDBRANCH  38  40
ENDBRANCH   4  38
BRANCH   6  48
HETATM   48  C15 UNL     1       4.773  -0.138  -2.840  1.00  0.00     0.314 C 
BRANCH  48  49
HETATM   49  O5  UNL     1       5.501  -1.351  -2.639  1.00  0.00    -0.365 OA
ATOM     50  H5  UNL     1       6.139  -1.350  -3.343  1.00  0.00     0.213 HD
ENDBRANCH  48  49
BRANCH  48  51
HETATM   51  O6  UNL     1       5.717   0.868  -2.703  1.00  0.00    -0.365 OA
ATOM     52  H6  UNL     1       6.355   0.869  -3.407  1.00  0.00     0.213 HD
ENDBRANCH  48  51
ENDBRANCH   6  48
TORSDOF 15
