REMARK  11 active torsions:
REMARK  status: ('A' for Active; 'I' for Inactive)
REMARK    1  A    between atoms: O1_1  and  C1_3 
REMARK    2  A    between atoms: C1_3  and  C2_4 
REMARK    3  A    between atoms: C3_6  and  N1_7 
REMARK    4  A    between atoms: N1_7  and  C4_10 
REMARK    5  A    between atoms: C4_10  and  C5_11 
REMARK    6  A    between atoms: C5_11  and  C6_12 
REMARK    7  A    between atoms: C6_12  and  N2_13 
REMARK    8  A    between atoms: N2_13  and  C7_15 
REMARK    9  A    between atoms: C13_21  and  O3_22 
REMARK   10  A    between atoms: C14_24  and  O4_25 
REMARK   11  A    between atoms: C15_27  and  O5_28 
ROOT
HETATM    1  C2  UNL     1      -4.522  -1.041  -0.530  1.00  0.00     0.179 C 
HETATM    2  O2  UNL     1      -3.295  -1.141  -1.057  1.00  0.00    -0.347 OA
HETATM    3  C3  UNL     1      -2.406  -0.126  -1.036  1.00  0.00     0.353 C 
HETATM    4  C13 UNL     1      -2.690   1.049  -0.177  1.00  0.00     0.205 C 
HETATM    5  C14 UNL     1      -4.143   1.447  -0.380  1.00  0.00     0.182 C 
HETATM    6  C15 UNL     1      -4.945   0.252   0.076  1.00  0.00     0.180 C 
ENDROOT
BRANCH   3   7
HETATM    7  N1  UNL     1      -1.030  -0.537  -0.860  1.00  0.00    -0.046 N 
ATOM      8  H12 UNL     1      -0.769  -1.264  -1.526  1.00  0.00     0.280 HD
ATOM      9  H11 UNL     1      -0.381   0.191  -1.160  1.00  0.00     0.280 HD
BRANCH   7  10
HETATM   10  C4  UNL     1      -0.777  -0.940   0.473  1.00  0.00     0.237 C 
BRANCH  10  11
HETATM   11  C5  UNL     1       0.593  -1.499   0.709  1.00  0.00     0.047 C 
BRANCH  11  12
HETATM   12  C6  UNL     1       1.726  -0.556   0.393  1.00  0.00     0.115 C 
BRANCH  12  13
HETATM   13  N2  UNL     1       2.925  -1.280   0.679  1.00  0.00    -0.417 N 
ATOM     14  H2  UNL     1       2.897  -2.231   1.047  1.00  0.00     0.153 HD
BRANCH  13  15
HETATM   15  C7  UNL     1       4.147  -0.625   0.432  1.00  0.00     0.076 C 
HETATM   16  C8  UNL     1       4.277  -0.304  -1.065  1.00  0.00     0.024 C 
HETATM   17  C9  UNL     1       5.782  -0.105  -1.274  1.00  0.00     0.002 C 
HETATM   18  C10 UNL     1       6.188   1.134  -0.529  1.00  0.00     0.000 C 
HETATM   19  C11 UNL     1       5.105   1.686   0.368  1.00  0.00     0.002 C 
HETATM   20  C12 UNL     1       4.419   0.614   1.190  1.00  0.00     0.024 C 
ENDBRANCH  13  15
ENDBRANCH  12  13
ENDBRANCH  11  12
ENDBRANCH  10  11
ENDBRANCH   7  10
ENDBRANCH   3   7
BRANCH   4  21
HETATM   21  O3  UNL     1      -1.918   2.145  -0.621  1.00  0.00    -0.388 OA
ATOM     22  H3  UNL     1      -2.100   2.898  -0.071  1.00  0.00     0.210 HD
ENDBRANCH   4  21
BRANCH   1  23
HETATM   23  C1  UNL     1      -5.526  -1.344  -1.657  1.00  0.00     0.198 C 
BRANCH  23  24
HETATM   24  O1  UNL     1      -6.830  -1.271  -1.183  1.00  0.00    -0.398 OA
ATOM     25  H1  UNL     1      -7.450  -1.458  -1.878  1.00  0.00     0.209 HD
ENDBRANCH  23  24
ENDBRANCH   1  23
BRANCH   5  26
HETATM   26  O4  UNL     1      -4.462   1.758  -1.675  1.00  0.00    -0.390 OA
ATOM     27  H4  UNL     1      -5.370   2.007  -1.802  1.00  0.00     0.210 HD
ENDBRANCH   5  26
BRANCH   6  28
HETATM   28  O5  UNL     1      -4.850   0.218   1.489  1.00  0.00    -0.390 OA
ATOM     29  H5  UNL     1      -5.120   1.043   1.876  1.00  0.00     0.210 HD
ENDBRANCH   6  28
TORSDOF 11
