REMARK  12 active torsions:
REMARK  status: ('A' for Active; 'I' for Inactive)
REMARK    1  A    between atoms: N1_1  and  C1_5 
REMARK    2  A    between atoms: C1_5  and  C2_6 
REMARK    3  A    between atoms: C2_6  and  C3_7 
REMARK    4  A    between atoms: C3_7  and  C4_8 
REMARK    5  A    between atoms: C4_8  and  C5_9 
REMARK    6  A    between atoms: C5_9  and  N2_10 
REMARK    7  A    between atoms: C5_9  and  C6_14 
REMARK    8  A    between atoms: C6_14  and  O1_15 
REMARK    9  A    between atoms: C7_20  and  O2_21 
REMARK   10  A    between atoms: O2_21  and  C8_22 
REMARK   11  A    between atoms: C8_22  and  C9_23 
REMARK   12  A    between atoms: C11_27  and  O4_28 
ROOT
HETATM    1  C6  UNL     1       1.209  -0.540  -0.016  1.00  0.00     0.259 C 
HETATM    2  N3  UNL     1       0.214   0.422   0.448  1.00  0.00    -0.008 N 
ATOM      3  H31 UNL     1       0.214   1.314  -0.047  1.00  0.00     0.284 HD
ATOM      4  H32 UNL     1       0.398   0.821   1.368  1.00  0.00     0.284 HD
HETATM    5  C7  UNL     1      -1.030  -0.343   0.344  1.00  0.00     0.230 C 
HETATM    6  C12 UNL     1      -0.883  -1.598   1.131  1.00  0.00     0.069 C 
HETATM    7  C13 UNL     1      -0.041  -2.571   0.285  1.00  0.00     0.014 C 
HETATM    8  C14 UNL     1       0.463  -1.600  -0.781  1.00  0.00     0.056 C 
HETATM    9  C15 UNL     1      -0.848  -0.897  -1.081  1.00  0.00     0.078 C 
ENDROOT
BRANCH   1  10
HETATM   10  C5  UNL     1       2.276   0.111  -0.861  1.00  0.00     0.246 C 
BRANCH  10  11
HETATM   11  C4  UNL     1       2.984   1.230  -0.201  1.00  0.00     0.038 C 
BRANCH  11  12
HETATM   12  C3  UNL     1       3.773   0.983   1.012  1.00  0.00     0.004 C 
BRANCH  12  13
HETATM   13  C2  UNL     1       4.909   0.028   0.901  1.00  0.00     0.027 C 
BRANCH  13  14
HETATM   14  C1  UNL     1       5.960   0.440  -0.097  1.00  0.00     0.229 C 
BRANCH  14  15
HETATM   15  N1  UNL     1       6.580   1.681   0.167  1.00  0.00    -0.079 N 
ATOM     16  H13 UNL     1       5.876   2.413   0.260  1.00  0.00     0.274 HD
ATOM     17  H12 UNL     1       6.968   1.687   1.110  1.00  0.00     0.274 HD
ATOM     18  H11 UNL     1       7.291   1.960  -0.509  1.00  0.00     0.274 HD
ENDBRANCH  14  15
ENDBRANCH  13  14
ENDBRANCH  12  13
ENDBRANCH  11  12
ENDBRANCH  10  11
BRANCH  10  19
HETATM   19  N2  UNL     1       1.614   0.721  -2.055  1.00  0.00    -0.070 N 
ATOM     20  H23 UNL     1       1.014   1.516  -1.834  1.00  0.00     0.274 HD
ATOM     21  H22 UNL     1       2.254   1.225  -2.669  1.00  0.00     0.274 HD
ATOM     22  H21 UNL     1       1.126  -0.050  -2.510  1.00  0.00     0.274 HD
ENDBRANCH  10  19
ENDBRANCH   1  10
BRANCH   1  23
HETATM   23  O1  UNL     1       1.818  -1.135   1.080  1.00  0.00    -0.363 OA
ATOM     24  H1  UNL     1       1.146  -1.545   1.612  1.00  0.00     0.212 HD
ENDBRANCH   1  23
BRANCH   5  25
HETATM   25  O2  UNL     1      -2.139   0.395   0.498  1.00  0.00    -0.351 OA
BRANCH  25  26
HETATM   26  C8  UNL     1      -3.316  -0.283   0.400  1.00  0.00     0.207 C 
BRANCH  26  27
HETATM   27  C9  UNL     1      -4.497   0.685   0.583  1.00  0.00     0.201 C 
HETATM   28  O3  UNL     1      -4.514   1.675  -0.353  1.00  0.00    -0.276 OA
HETATM   29  N4  UNL     1      -5.747   2.062  -0.607  1.00  0.00    -0.098 NA
HETATM   30  C10 UNL     1      -6.684   1.175  -0.005  1.00  0.00     0.177 C 
HETATM   31  C11 UNL     1      -5.813  -0.019   0.362  1.00  0.00     0.168 C 
BRANCH  31  32
HETATM   32  O4  UNL     1      -5.655  -0.874  -0.728  1.00  0.00    -0.392 OA
ATOM     33  H4  UNL     1      -6.484  -1.317  -0.867  1.00  0.00     0.210 HD
ENDBRANCH  31  32
ENDBRANCH  26  27
ENDBRANCH  25  26
ENDBRANCH   5  25
TORSDOF 12
