REMARK  6 active torsions:
REMARK  status: ('A' for Active; 'I' for Inactive)
REMARK    1  A    between atoms: N1_1  and  C1_5 
REMARK    2  A    between atoms: C1_5  and  C2_6 
REMARK    3  A    between atoms: C2_6  and  C3_7 
REMARK    4  A    between atoms: C3_7  and  N2_8 
REMARK    5  A    between atoms: N2_8  and  C4_10 
REMARK    6  A    between atoms: C4_10  and  C5_11 
ROOT
HETATM    1  C5  UNL     1      -1.164  -0.082   0.077  1.00  0.00     0.241 C 
HETATM    2  C6  UNL     1      -1.745  -0.776  -1.072  1.00  0.00     0.094 C 
HETATM    3  N3  UNL     1      -2.938  -0.308  -1.648  1.00  0.00    -0.380 N 
ATOM      4  H3  UNL     1      -3.241  -0.683  -2.547  1.00  0.00     0.164 HD
HETATM    5  C7  UNL     1      -3.717   0.662  -1.011  1.00  0.00     0.062 C 
HETATM    6  C8  UNL     1      -4.245   0.291   0.363  1.00  0.00     0.072 C 
HETATM    7  C9  UNL     1      -3.105   0.190   1.320  1.00  0.00     0.238 C 
HETATM    8  N4  UNL     1      -1.964   0.907   0.727  1.00  0.00    -0.065 N 
ATOM      9  H41 UNL     1      -2.241   1.672   0.112  1.00  0.00     0.278 HD
ATOM     10  H42 UNL     1      -1.445   1.470   1.401  1.00  0.00     0.278 HD
ENDROOT
BRANCH   1  11
HETATM   11  C4  UNL     1       0.269   0.430  -0.179  1.00  0.00     0.152 C 
BRANCH  11  12
HETATM   12  N2  UNL     1       1.034  -0.733  -0.473  1.00  0.00    -0.419 N 
ATOM     13  H2  UNL     1       0.595  -1.653  -0.516  1.00  0.00     0.153 HD
BRANCH  12  14
HETATM   14  C3  UNL     1       2.417  -0.577  -0.703  1.00  0.00     0.115 C 
BRANCH  14  15
HETATM   15  C2  UNL     1       3.221  -0.186   0.504  1.00  0.00     0.046 C 
BRANCH  15  16
HETATM   16  C1  UNL     1       4.703  -0.068   0.120  1.00  0.00     0.231 C 
BRANCH  16  17
HETATM   17  N1  UNL     1       5.508   0.303   1.267  1.00  0.00    -0.079 N 
ATOM     18  H13 UNL     1       5.164   1.156   1.708  1.00  0.00     0.274 HD
ATOM     19  H12 UNL     1       5.371  -0.340   2.047  1.00  0.00     0.274 HD
ATOM     20  H11 UNL     1       6.492   0.381   1.012  1.00  0.00     0.274 HD
ENDBRANCH  16  17
ENDBRANCH  15  16
ENDBRANCH  14  15
ENDBRANCH  12  14
ENDBRANCH  11  12
ENDBRANCH   1  11
TORSDOF 6
