REMARK  10 active torsions:
REMARK  status: ('A' for Active; 'I' for Inactive)
REMARK    1  A    between atoms: O1_2  and  C2_3 
REMARK    2  A    between atoms: C5_6  and  C6_7 
REMARK    3  A    between atoms: C9_10  and  C10_11 
REMARK    4  A    between atoms: C10_11  and  O2_14 
REMARK    5  A    between atoms: N2_19  and  C14_21 
REMARK    6  A    between atoms: C14_21  and  C15_22 
REMARK    7  A    between atoms: C15_22  and  C16_23 
REMARK    8  A    between atoms: C17_24  and  C18_25 
REMARK    9  A    between atoms: C18_25  and  O3_27 
REMARK   10  A    between atoms: C18_25  and  C21_29 
ROOT
HETATM    1  C6  UNL     1       3.496   0.328  -0.600  1.00  0.00     0.007 A 
HETATM    2  C7  UNL     1       3.306  -0.688   0.323  1.00  0.00    -0.024 A 
HETATM    3  C8  UNL     1       4.446  -1.562   0.578  1.00  0.00     0.051 C 
HETATM    4  C9  UNL     1       2.110  -0.875   0.966  1.00  0.00     0.051 A 
HETATM    5  N1  UNL     1       1.114   0.001   0.639  1.00  0.00    -0.342 N 
ATOM      6  H1  UNL     1       0.211  -0.113   1.100  1.00  0.00     0.167 HD
HETATM    7  C13 UNL     1       1.240   0.998  -0.243  1.00  0.00     0.123 A 
HETATM    8  N2  UNL     1       0.280   1.813  -0.535  1.00  0.00    -0.374 N 
ATOM      9  H2  UNL     1       0.431   2.556  -1.217  1.00  0.00     0.161 HD
HETATM   10  C25 UNL     1       2.467   1.169  -0.884  1.00  0.00     0.100 A 
HETATM   11  C26 UNL     1       2.594   2.240  -1.828  1.00  0.00     0.104 C 
HETATM   12  N4  UNL     1       2.699   3.096  -2.598  1.00  0.00    -0.191 NA
ENDROOT
BRANCH   1  13
HETATM   13  C5  UNL     1       4.785   0.481  -1.249  1.00  0.00    -0.024 A 
HETATM   14  C4  UNL     1       5.203  -0.252  -2.313  1.00  0.00     0.015 A 
HETATM   15  C3  UNL     1       6.439  -0.060  -2.888  1.00  0.00     0.037 A 
HETATM   16  C2  UNL     1       7.325   0.886  -2.422  1.00  0.00     0.068 A 
HETATM   17  C28 UNL     1       6.903   1.632  -1.342  1.00  0.00     0.037 A 
HETATM   18  C27 UNL     1       5.672   1.449  -0.759  1.00  0.00     0.015 A 
BRANCH  16  19
HETATM   19  O1  UNL     1       8.574   1.069  -3.015  1.00  0.00    -0.356 OA
HETATM   20  C1  UNL     1       9.487   2.037  -2.541  1.00  0.00     0.210 C 
ENDBRANCH  16  19
ENDBRANCH   1  13
BRANCH   8  21
HETATM   21  C14 UNL     1      -0.992   1.672   0.098  1.00  0.00     0.133 C 
BRANCH  21  22
HETATM   22  C15 UNL     1      -1.883   0.672  -0.610  1.00  0.00     0.113 C 
BRANCH  22  23
HETATM   23  C16 UNL     1      -3.178   0.547   0.052  1.00  0.00    -0.102 C 
HETATM   24  C17 UNL     1      -4.263   0.460   0.591  1.00  0.00    -0.066 C 
BRANCH  24  25
HETATM   25  C18 UNL     1      -5.589   0.372   1.227  1.00  0.00     0.147 C 
HETATM   26  C19 UNL     1      -5.902   1.798   1.692  1.00  0.00     0.062 C 
BRANCH  25  27
HETATM   27  O3  UNL     1      -5.576  -0.497   2.302  1.00  0.00    -0.370 OA
HETATM   28  C20 UNL     1      -6.770  -0.641   2.959  1.00  0.00     0.204 C 
ENDBRANCH  25  27
BRANCH  25  29
HETATM   29  C21 UNL     1      -6.582  -0.098   0.215  1.00  0.00     0.235 C 
HETATM   30  C22 UNL     1      -6.599   0.794  -1.019  1.00  0.00     0.076 C 
HETATM   31  C23 UNL     1      -7.303  -0.103  -2.014  1.00  0.00     0.197 C 
HETATM   32  F1  UNL     1      -8.673   0.022  -1.765  1.00  0.00    -0.248 F 
HETATM   33  C24 UNL     1      -6.831  -1.474  -1.634  1.00  0.00     0.270 C 
HETATM   34  N3  UNL     1      -6.317  -1.408  -0.291  1.00  0.00    -0.064 N 
ATOM     35  H32 UNL     1      -5.331  -1.663  -0.232  1.00  0.00     0.277 HD
ATOM     36  H31 UNL     1      -6.684  -2.146   0.310  1.00  0.00     0.277 HD
ENDBRANCH  25  29
ENDBRANCH  24  25
ENDBRANCH  22  23
ENDBRANCH  21  22
ENDBRANCH   8  21
BRANCH   4  37
HETATM   37  C10 UNL     1       1.875  -1.948   1.964  1.00  0.00     0.093 C 
HETATM   38  C11 UNL     1       2.664  -1.781   3.232  1.00  0.00     0.052 C 
HETATM   39  C12 UNL     1       1.933  -3.338   1.379  1.00  0.00     0.052 C 
BRANCH  37  40
HETATM   40  O2  UNL     1       0.521  -1.801   2.379  1.00  0.00    -0.384 OA
ATOM     41  H2  UNL     1       0.371  -2.488   3.018  1.00  0.00     0.211 HD
ENDBRANCH  37  40
ENDBRANCH   4  37
TORSDOF 10
