REMARK  1 active torsions:
REMARK  status: ('A' for Active; 'I' for Inactive)
REMARK    1  A    between atoms: C3_3  and  N1_4 
ROOT
HETATM    1  C1  UNL     1      -2.981   2.252   0.568  1.00  0.00     0.014 C 
HETATM    2  C2  UNL     1      -2.760   1.072   0.384  1.00  0.00    -0.096 C 
HETATM    3  C3  UNL     1      -2.469  -0.362   0.177  1.00  0.00     0.242 C 
ENDROOT
BRANCH   3   4
HETATM    4  N1  UNL     1      -1.036  -0.577   0.145  1.00  0.00    -0.274 N 
HETATM    5  C4  UNL     1      -0.660  -1.934  -0.012  1.00  0.00     0.217 C 
HETATM    6  N2  UNL     1       0.539  -2.402  -0.167  1.00  0.00    -0.293 N 
HETATM    7  N3  UNL     1       1.778  -1.762  -0.229  1.00  0.00    -0.282 N 
ATOM      8  H2  UNL     1       0.585  -3.417  -0.260  1.00  0.00     0.187 HD
HETATM    9  C5  UNL     1       2.039  -0.401   0.084  1.00  0.00     0.157 C 
ATOM     10  H3  UNL     1       2.573  -2.326  -0.528  1.00  0.00     0.188 HD
HETATM   11  N4  UNL     1       3.259  -0.054   0.252  1.00  0.00    -0.382 N 
HETATM   12  C6  UNL     1       1.071   0.693   0.247  1.00  0.00     0.176 C 
ATOM     13  H42 UNL     1       3.931  -0.813   0.139  1.00  0.00     0.157 HD
ATOM     14  H41 UNL     1       3.446   0.923   0.477  1.00  0.00     0.157 HD
HETATM   15  N5  UNL     1       1.612   2.002   0.395  1.00  0.00    -0.077 NA
HETATM   16  N6  UNL     1      -0.208   0.561   0.265  1.00  0.00    -0.281 N 
ATOM     17  H6  UNL     1      -0.717   1.437   0.388  1.00  0.00     0.188 HD
ENDBRANCH   3   4
TORSDOF 1
