REMARK  12 active torsions:
REMARK  status: ('A' for Active; 'I' for Inactive)
REMARK    1  A    between atoms: C2_2  and  C3_3 
REMARK    2  A    between atoms: C3_3  and  C4_4 
REMARK    3  A    between atoms: C6_9  and  C7_10 
REMARK    4  A    between atoms: C7_10  and  C8_11 
REMARK    5  A    between atoms: C12_18  and  C13_19 
REMARK    6  A    between atoms: C13_19  and  C14_20 
REMARK    7  A    between atoms: C18_27  and  C19_28 
REMARK    8  A    between atoms: C19_28  and  C20_29 
REMARK    9  A    between atoms: C26_36  and  O5_37 
REMARK   10  A    between atoms: C27_41  and  C28_42 
REMARK   11  A    between atoms: C28_42  and  C29_43 
REMARK   12  A    between atoms: C30_46  and  O7_47 
ROOT
HETATM    1  C4  UNL     1      -2.499  -0.300  -0.006  1.00  0.00     0.178 C 
HETATM    2  C5  UNL     1      -2.934  -1.286   1.017  1.00  0.00     0.241 C 
HETATM    3  O1  UNL     1      -3.878  -0.892   1.757  1.00  0.00    -0.271 OA
HETATM    4  N1  UNL     1      -2.443  -2.567   1.251  1.00  0.00    -0.346 N 
ATOM      5  H1  UNL     1      -3.161  -3.284   1.144  1.00  0.00     0.163 HD
HETATM    6  C6  UNL     1      -1.173  -3.118   1.605  1.00  0.00     0.177 C 
HETATM    7  C11 UNL     1      -0.105  -2.175   1.972  1.00  0.00     0.244 C 
HETATM    8  O2  UNL     1      -0.557  -1.250   2.765  1.00  0.00    -0.271 OA
HETATM    9  N2  UNL     1       1.236  -2.058   1.679  1.00  0.00    -0.324 N 
ATOM     10  H2  UNL     1       1.798  -2.485   2.415  1.00  0.00     0.169 HD
HETATM   11  C12 UNL     1       2.079  -1.520   0.658  1.00  0.00     0.080 C 
HETATM   12  C17 UNL     1       3.035  -0.530   1.291  1.00  0.00     0.264 C 
HETATM   13  O3  UNL     1       3.882  -1.096   2.049  1.00  0.00    -0.266 OA
HETATM   14  N3  UNL     1       3.089   0.854   1.153  1.00  0.00    -0.344 N 
ATOM     15  H3  UNL     1       2.936   1.357   2.027  1.00  0.00     0.163 HD
HETATM   16  C18 UNL     1       3.315   1.709   0.036  1.00  0.00     0.155 C 
HETATM   17  C23 UNL     1       1.988   2.421  -0.303  1.00  0.00     0.161 C 
HETATM   18  O4  UNL     1       1.186   2.519   0.605  1.00  0.00    -0.295 OA
HETATM   19  C24 UNL     1       1.701   2.946  -1.628  1.00  0.00     0.128 C 
HETATM   20  C25 UNL     1       1.962   4.430  -1.659  1.00  0.00     0.027 C 
HETATM   21  C26 UNL     1       0.471   2.514  -2.322  1.00  0.00     0.127 C 
HETATM   22  N4  UNL     1      -0.800   2.090  -1.996  1.00  0.00    -0.339 N 
ATOM     23  H4  UNL     1      -0.787   1.083  -1.836  1.00  0.00     0.167 HD
HETATM   24  C27 UNL     1      -2.123   2.578  -1.807  1.00  0.00     0.070 C 
HETATM   25  C30 UNL     1      -2.859   2.135  -0.606  1.00  0.00     0.162 C 
HETATM   26  N6  UNL     1      -2.725   1.079   0.293  1.00  0.00    -0.351 N 
HETATM   27  C31 UNL     1      -2.868   1.472   1.694  1.00  0.00     0.152 C 
ENDROOT
BRANCH   6  28
HETATM   28  C7  UNL     1      -1.255  -4.053   2.800  1.00  0.00     0.038 C 
BRANCH  28  29
HETATM   29  C8  UNL     1      -2.082  -5.240   2.758  1.00  0.00    -0.020 C 
HETATM   30  C9  UNL     1      -1.769  -6.230   1.659  1.00  0.00     0.009 C 
HETATM   31  C10 UNL     1      -3.547  -5.054   3.029  1.00  0.00     0.009 C 
ENDBRANCH  28  29
ENDBRANCH   6  28
BRANCH   1  32
HETATM   32  C3  UNL     1      -3.249  -0.746  -1.263  1.00  0.00     0.035 C 
BRANCH  32  33
HETATM   33  C2  UNL     1      -4.717  -0.728  -1.123  1.00  0.00    -0.002 C 
HETATM   34  C1  UNL     1      -5.370  -1.181  -2.411  1.00  0.00     0.005 C 
ENDBRANCH  32  33
ENDBRANCH   1  32
BRANCH  11  35
HETATM   35  C13 UNL     1       1.583  -1.158  -0.658  1.00  0.00     0.067 C 
BRANCH  35  36
HETATM   36  C14 UNL     1       0.984  -2.269  -1.491  1.00  0.00    -0.017 C 
HETATM   37  C15 UNL     1       2.064  -3.343  -1.685  1.00  0.00     0.010 C 
HETATM   38  C16 UNL     1       0.790  -1.716  -2.930  1.00  0.00     0.010 C 
ENDBRANCH  35  36
ENDBRANCH  11  35
BRANCH  25  39
HETATM   39  O7  UNL     1      -3.867   2.917  -0.329  1.00  0.00    -0.345 OA
ATOM     40  H7  UNL     1      -4.341   2.632   0.444  1.00  0.00     0.219 HD
ENDBRANCH  25  39
BRANCH  24  41
HETATM   41  C28 UNL     1      -2.406   4.028  -2.026  1.00  0.00     0.161 C 
BRANCH  41  42
HETATM   42  C29 UNL     1      -1.762   5.013  -1.187  1.00  0.00     0.236 C 
HETATM   43  N5  UNL     1      -1.320   4.900   0.144  1.00  0.00    -0.062 NA
HETATM   44  O6  UNL     1      -1.554   6.166  -1.711  1.00  0.00    -0.277 OA
ENDBRANCH  41  42
ENDBRANCH  24  41
BRANCH  16  45
HETATM   45  C19 UNL     1       4.278   2.837   0.181  1.00  0.00     0.037 C 
BRANCH  45  46
HETATM   46  C20 UNL     1       5.674   2.452   0.503  1.00  0.00    -0.020 C 
HETATM   47  C21 UNL     1       6.535   3.766   0.544  1.00  0.00     0.009 C 
HETATM   48  C22 UNL     1       5.818   1.911   1.906  1.00  0.00     0.009 C 
ENDBRANCH  45  46
ENDBRANCH  16  45
BRANCH  21  49
HETATM   49  O5  UNL     1       0.709   2.559  -3.638  1.00  0.00    -0.349 OA
ATOM     50  H5  UNL     1      -0.082   2.281  -4.084  1.00  0.00     0.219 HD
ENDBRANCH  21  49
TORSDOF 12
