REMARK  11 active torsions:
REMARK  status: ('A' for Active; 'I' for Inactive)
REMARK    1  A    between atoms: C2_2  and  C3_3 
REMARK    2  A    between atoms: C3_3  and  C4_4 
REMARK    3  A    between atoms: C5_5  and  N1_6 
REMARK    4  A    between atoms: N1_6  and  C6_8 
REMARK    5  A    between atoms: C11_13  and  O1_14 
REMARK    6  A    between atoms: C12_18  and  C13_19 
REMARK    7  A    between atoms: C13_19  and  C14_20 
REMARK    8  A    between atoms: C22_35  and  C23_36 
REMARK    9  A    between atoms: C23_36  and  C24_37 
REMARK   10  A    between atoms: C28_44  and  C29_45 
REMARK   11  A    between atoms: C29_45  and  C30_46 
ROOT
HETATM    1  C4  UNL     1       3.295  -1.110  -0.582  1.00  0.00     0.114 C 
HETATM    2  C5  UNL     1       4.068  -0.055   0.154  1.00  0.00     0.102 C 
HETATM    3  C9  UNL     1       3.394  -0.316   1.545  1.00  0.00     0.060 C 
HETATM    4  C10 UNL     1       1.910  -0.261   1.076  1.00  0.00     0.164 C 
HETATM    5  C11 UNL     1       1.454   1.073   1.398  1.00  0.00     0.135 C 
HETATM    6  N2  UNL     1       1.013   2.189   0.730  1.00  0.00    -0.359 N 
ATOM      7  H2  UNL     1       1.683   2.957   0.763  1.00  0.00     0.162 HD
HETATM    8  C12 UNL     1      -0.179   2.523  -0.007  1.00  0.00     0.177 C 
HETATM    9  C17 UNL     1      -1.296   3.010   0.837  1.00  0.00     0.260 C 
HETATM   10  O2  UNL     1      -1.041   3.450   1.978  1.00  0.00    -0.269 OA
HETATM   11  N3  UNL     1      -2.651   3.001   0.414  1.00  0.00    -0.268 N 
HETATM   12  C18 UNL     1      -3.565   3.810   1.186  1.00  0.00     0.180 C 
HETATM   13  N4  UNL     1      -3.051   2.287  -0.651  1.00  0.00    -0.319 N 
ATOM     14  H4  UNL     1      -2.342   1.988  -1.320  1.00  0.00     0.181 HD
HETATM   15  C19 UNL     1      -4.368   1.931  -0.897  1.00  0.00     0.187 C 
HETATM   16  C20 UNL     1      -5.338   3.085  -1.122  1.00  0.00     0.044 C 
HETATM   17  C21 UNL     1      -4.982   0.909   0.013  1.00  0.00     0.242 C 
HETATM   18  O3  UNL     1      -6.250   0.813  -0.169  1.00  0.00    -0.271 OA
HETATM   19  N5  UNL     1      -4.378   0.117   0.958  1.00  0.00    -0.346 N 
ATOM     20  H5  UNL     1      -4.828   0.124   1.873  1.00  0.00     0.163 HD
HETATM   21  C22 UNL     1      -3.199  -0.730   0.864  1.00  0.00     0.177 C 
HETATM   22  C27 UNL     1      -2.940  -1.150  -0.537  1.00  0.00     0.241 C 
HETATM   23  O4  UNL     1      -3.954  -1.399  -1.280  1.00  0.00    -0.271 OA
HETATM   24  N6  UNL     1      -1.676  -1.305  -1.142  1.00  0.00    -0.346 N 
ATOM     25  H6  UNL     1      -1.603  -1.171  -2.151  1.00  0.00     0.163 HD
HETATM   26  C28 UNL     1      -0.503  -1.637  -0.421  1.00  0.00     0.177 C 
HETATM   27  C33 UNL     1       0.758  -1.017  -0.985  1.00  0.00     0.243 C 
HETATM   28  O5  UNL     1       0.721  -0.708  -2.191  1.00  0.00    -0.271 OA
HETATM   29  N7  UNL     1       1.905  -0.799  -0.215  1.00  0.00    -0.331 N 
ENDROOT
BRANCH   2  30
HETATM   30  N1  UNL     1       5.479  -0.292   0.278  1.00  0.00    -0.412 N 
ATOM     31  H1  UNL     1       6.087  -0.369  -0.537  1.00  0.00     0.154 HD
BRANCH  30  32
HETATM   32  C6  UNL     1       5.982  -0.414   1.610  1.00  0.00     0.068 C 
HETATM   33  C7  UNL     1       7.364  -1.068   1.536  1.00  0.00     0.031 C 
HETATM   34  C8  UNL     1       6.199   1.000   2.200  1.00  0.00     0.031 C 
ENDBRANCH  30  32
ENDBRANCH   2  30
BRANCH   1  35
HETATM   35  C3  UNL     1       3.549  -1.192  -2.019  1.00  0.00     0.053 C 
BRANCH  35  36
HETATM   36  C2  UNL     1       4.981  -1.509  -2.284  1.00  0.00    -0.035 C 
HETATM   37  C1  UNL     1       5.210  -2.747  -2.817  1.00  0.00     0.007 C 
ENDBRANCH  35  36
ENDBRANCH   1  35
BRANCH   5  38
HETATM   38  O1  UNL     1       1.484   1.228   2.713  1.00  0.00    -0.348 OA
ATOM     39  H1  UNL     1       1.184   2.104   2.925  1.00  0.00     0.219 HD
ENDBRANCH   5  38
BRANCH  26  40
HETATM   40  C29 UNL     1      -0.227  -3.088  -0.315  1.00  0.00     0.038 C 
BRANCH  40  41
HETATM   41  C30 UNL     1      -0.019  -3.843  -1.593  1.00  0.00    -0.020 C 
HETATM   42  C31 UNL     1      -1.176  -3.831  -2.520  1.00  0.00     0.009 C 
HETATM   43  C32 UNL     1       0.212  -5.301  -1.164  1.00  0.00     0.009 C 
ENDBRANCH  40  41
ENDBRANCH  26  40
BRANCH   8  44
HETATM   44  C13 UNL     1       0.113   3.431  -1.148  1.00  0.00     0.038 C 
BRANCH  44  45
HETATM   45  C14 UNL     1       0.743   4.738  -0.865  1.00  0.00    -0.020 C 
HETATM   46  C15 UNL     1      -0.015   5.675   0.024  1.00  0.00     0.009 C 
HETATM   47  C16 UNL     1       0.862   5.443  -2.233  1.00  0.00     0.009 C 
ENDBRANCH  44  45
ENDBRANCH   8  44
BRANCH  21  48
HETATM   48  C23 UNL     1      -3.307  -1.915   1.783  1.00  0.00     0.038 C 
BRANCH  48  49
HETATM   49  C24 UNL     1      -4.398  -2.875   1.538  1.00  0.00    -0.020 C 
HETATM   50  C25 UNL     1      -4.251  -3.973   2.619  1.00  0.00     0.009 C 
HETATM   51  C26 UNL     1      -5.806  -2.381   1.682  1.00  0.00     0.009 C 
ENDBRANCH  48  49
ENDBRANCH  21  48
TORSDOF 11
