REMARK  8 active torsions:
REMARK  status: ('A' for Active; 'I' for Inactive)
REMARK    1  A    between atoms: C1_2  and  C2_4 
REMARK    2  A    between atoms: C2_4  and  N2_5 
REMARK    3  A    between atoms: N2_5  and  C3_6 
REMARK    4  A    between atoms: N2_5  and  C15_21 
REMARK    5  A    between atoms: C3_6  and  C4_7 
REMARK       I    between atoms: C4_7  and  N3_9 
REMARK    6  A    between atoms: N3_9  and  C5_11 
REMARK    7  A    between atoms: C15_21  and  O3_22 
REMARK    8  A    between atoms: C15_21  and  C16_24 
ROOT
HETATM    1  N2  UNL     1      -1.305  -1.674  -1.029  1.00  0.00    -0.348 N 
ENDROOT
BRANCH   1   2
HETATM    2  C2  UNL     1      -0.504  -2.898  -1.139  1.00  0.00     0.224 C 
BRANCH   2   3
HETATM    3  C1  UNL     1      -1.298  -4.038  -1.618  1.00  0.00     0.248 C 
HETATM    4  N1  UNL     1      -2.672  -3.955  -1.933  1.00  0.00    -0.061 NA
HETATM    5  O1  UNL     1      -0.752  -5.153  -1.763  1.00  0.00    -0.275 OA
ENDBRANCH   2   3
ENDBRANCH   1   2
BRANCH   1   6
HETATM    6  C3  UNL     1      -1.318  -0.825  -2.162  1.00  0.00     0.227 C 
BRANCH   6   7
HETATM    7  C4  UNL     1      -0.159   0.107  -2.257  1.00  0.00     0.235 C 
HETATM    8  O2  UNL     1      -0.147   0.878  -3.257  1.00  0.00    -0.272 OA
HETATM    9  N3  UNL     1       0.820   0.076  -1.266  1.00  0.00    -0.355 N 
ATOM     10  H3  UNL     1       0.700  -0.593  -0.505  1.00  0.00     0.162 HD
BRANCH   9  11
HETATM   11  C5  UNL     1       2.020   0.939  -1.233  1.00  0.00     0.084 C 
HETATM   12  C6  UNL     1       3.138   0.059  -1.567  1.00  0.00     0.025 C 
HETATM   13  C7  UNL     1       3.613  -0.935  -0.538  1.00  0.00     0.002 C 
HETATM   14  C8  UNL     1       4.972  -0.666   0.040  1.00  0.00     0.000 C 
HETATM   15  C9  UNL     1       5.149  -0.620   1.505  1.00  0.00     0.000 C 
HETATM   16  C10 UNL     1       5.174   0.795   2.146  1.00  0.00     0.000 C 
HETATM   17  C11 UNL     1       4.247   1.550   1.355  1.00  0.00     0.000 C 
HETATM   18  C12 UNL     1       3.560   2.823   1.567  1.00  0.00     0.000 C 
HETATM   19  C13 UNL     1       2.755   2.923   0.234  1.00  0.00     0.002 C 
HETATM   20  C14 UNL     1       1.868   1.788  -0.063  1.00  0.00     0.025 C 
ENDBRANCH   9  11
ENDBRANCH   6   7
ENDBRANCH   1   6
BRANCH   1  21
HETATM   21  C15 UNL     1      -1.961  -1.390   0.160  1.00  0.00     0.123 C 
BRANCH  21  22
HETATM   22  O3  UNL     1      -1.713  -2.297   1.092  1.00  0.00    -0.349 OA
ATOM     23  H3  UNL     1      -2.162  -2.103   1.906  1.00  0.00     0.219 HD
ENDBRANCH  21  22
BRANCH  21  24
HETATM   24  C16 UNL     1      -2.848  -0.322   0.575  1.00  0.00     0.029 C 
HETATM   25  C17 UNL     1      -2.316   1.059   0.692  1.00  0.00     0.023 C 
HETATM   26  C18 UNL     1      -3.632   1.870   0.708  1.00  0.00    -0.013 C 
HETATM   27  C19 UNL     1      -4.488   1.546   1.886  1.00  0.00     0.009 C 
HETATM   28  C23 UNL     1      -4.303   1.274  -0.519  1.00  0.00     0.010 C 
HETATM   29  C20 UNL     1      -4.655   0.048   2.028  1.00  0.00    -0.013 C 
HETATM   30  C21 UNL     1      -5.267  -0.519   0.766  1.00  0.00     0.010 C 
HETATM   31  C24 UNL     1      -3.326  -0.665   2.014  1.00  0.00     0.023 C 
HETATM   32  C22 UNL     1      -4.128  -0.218  -0.221  1.00  0.00     0.003 C 
ENDBRANCH  21  24
ENDBRANCH   1  21
TORSDOF 8
