REMARK  0 active torsions:
REMARK  status: ('A' for Active; 'I' for Inactive)
ROOT
HETATM    1  C1  UNL     1       2.337   0.297   0.047  1.00  0.00     0.147 C 
HETATM    2  N1  UNL     1       1.321  -0.581  -0.445  1.00  0.00    -0.379 N 
ATOM      3  H1  UNL     1       1.602  -1.406  -0.975  1.00  0.00     0.160 HD
HETATM    4  C2  UNL     1       0.052  -0.369  -0.244  1.00  0.00     0.131 A 
HETATM    5  C3  UNL     1      -0.907  -1.231  -0.730  1.00  0.00     0.138 A 
HETATM    6  N2  UNL     1      -2.202  -0.968  -0.494  1.00  0.00    -0.357 N 
ATOM      7  H2  UNL     1      -2.908  -1.610  -0.855  1.00  0.00     0.166 HD
HETATM    8  C4  UNL     1      -2.604   0.116   0.204  1.00  0.00     0.197 A 
HETATM    9  N3  UNL     1      -1.644   0.938   0.664  1.00  0.00    -0.295 N 
ATOM     10  H3  UNL     1      -1.914   1.766   1.195  1.00  0.00     0.187 HD
HETATM   11  N4  UNL     1      -0.362   0.705   0.449  1.00  0.00    -0.284 N 
ATOM     12  H4  UNL     1       0.331   1.356   0.818  1.00  0.00     0.188 HD
ENDROOT
TORSDOF 0
