REMARK  15 active torsions:
REMARK  status: ('A' for Active; 'I' for Inactive)
REMARK    1  A    between atoms: C2_2  and  C3_3 
REMARK    2  A    between atoms: C3_3  and  N1_4 
REMARK    3  A    between atoms: C3_3  and  C16_30 
REMARK    4  A    between atoms: N1_4  and  S1_6 
REMARK    5  A    between atoms: S1_6  and  N2_9 
REMARK    6  A    between atoms: N2_9  and  C4_11 
REMARK    7  A    between atoms: C4_11  and  C5_12 
REMARK    8  A    between atoms: C4_11  and  C7_14 
REMARK       I    between atoms: C7_14  and  N3_16 
REMARK    9  A    between atoms: C10_22  and  C11_23 
REMARK       I    between atoms: C11_23  and  N5_25 
REMARK   10  A    between atoms: N5_25  and  C12_26 
REMARK   11  A    between atoms: C12_26  and  C13_27 
REMARK       I    between atoms: C16_30  and  N6_32 
REMARK   12  A    between atoms: N6_32  and  C17_34 
REMARK   13  A    between atoms: C17_34  and  C18_35 
REMARK   14  A    between atoms: C17_34  and  C20_38 
REMARK   15  A    between atoms: C18_35  and  C19_36 
ROOT
HETATM    1  N2  UNL     1       0.298   1.857   0.953  1.00  0.00    -0.289 N 
ATOM      2  H2  UNL     1       0.874   1.730   1.785  1.00  0.00     0.174 HD
ENDROOT
BRANCH   1   3
HETATM    3  S1  UNL     1      -1.410   1.765   0.971  1.00  0.00     0.316 S 
HETATM    4  O1  UNL     1      -1.753   1.496   2.460  1.00  0.00    -0.183 OA
HETATM    5  O2  UNL     1      -2.076   3.119   0.757  1.00  0.00    -0.183 OA
BRANCH   3   6
HETATM    6  N1  UNL     1      -2.142   0.501   0.137  1.00  0.00    -0.289 N 
ATOM      7  H1  UNL     1      -1.875   0.277  -0.822  1.00  0.00     0.174 HD
BRANCH   6   8
HETATM    8  C3  UNL     1      -3.137  -0.239   0.809  1.00  0.00     0.186 C 
BRANCH   8   9
HETATM    9  C2  UNL     1      -2.867  -1.711   0.736  1.00  0.00     0.031 C 
HETATM   10  C1  UNL     1      -1.527  -2.038   1.359  1.00  0.00     0.007 C 
ENDBRANCH   8   9
BRANCH   8  11
HETATM   11  C16 UNL     1      -4.530   0.015   0.228  1.00  0.00     0.241 C 
HETATM   12  O6  UNL     1      -4.544   0.753  -0.754  1.00  0.00    -0.271 OA
HETATM   13  N6  UNL     1      -5.639  -0.563   0.806  1.00  0.00    -0.345 N 
ATOM     14  H6  UNL     1      -5.582  -1.165   1.627  1.00  0.00     0.163 HD
BRANCH  13  15
HETATM   15  C17 UNL     1      -6.959  -0.229   0.118  1.00  0.00     0.186 C 
BRANCH  15  16
HETATM   16  C18 UNL     1      -7.815  -1.389   0.493  1.00  0.00     0.051 C 
BRANCH  16  17
HETATM   17  C19 UNL     1      -9.195  -1.498  -0.018  1.00  0.00     0.117 C 
HETATM   18 CL1  UNL     1     -10.343  -0.269   0.424  1.00  0.00    -0.130 Cl
ENDBRANCH  16  17
ENDBRANCH  15  16
BRANCH  15  19
HETATM   19  C20 UNL     1      -7.393   1.078   0.634  1.00  0.00     0.196 C 
HETATM   20  O7  UNL     1      -6.597   1.569   1.625  1.00  0.00    -0.646 OA
HETATM   21  O8  UNL     1      -8.395   1.884   0.344  1.00  0.00    -0.646 OA
ENDBRANCH  15  19
ENDBRANCH  13  15
ENDBRANCH   8  11
ENDBRANCH   6   8
ENDBRANCH   3   6
ENDBRANCH   1   3
BRANCH   1  22
HETATM   22  C4  UNL     1       0.853   2.135  -0.369  1.00  0.00     0.186 C 
BRANCH  22  23
HETATM   23  C5  UNL     1       1.280   3.595  -0.438  1.00  0.00     0.031 C 
HETATM   24  C6  UNL     1       2.374   3.992   0.486  1.00  0.00     0.007 C 
ENDBRANCH  22  23
BRANCH  22  25
HETATM   25  C7  UNL     1       1.938   1.186  -0.634  1.00  0.00     0.245 C 
HETATM   26  O3  UNL     1       2.208   0.300   0.259  1.00  0.00    -0.271 OA
HETATM   27  N3  UNL     1       2.774   1.103  -1.783  1.00  0.00    -0.311 N 
HETATM   28  C8  UNL     1       2.622   1.936  -2.963  1.00  0.00     0.253 C 
HETATM   29  C10 UNL     1       3.895   0.248  -2.009  1.00  0.00     0.288 C 
HETATM   30  N4  UNL     1       3.684   1.457  -3.907  1.00  0.00    -0.343 N 
HETATM   31  C9  UNL     1       3.850   0.059  -3.508  1.00  0.00     0.252 C 
ATOM     32  H4  UNL     1       4.168   1.974  -4.641  1.00  0.00     0.164 HD
HETATM   33  O4  UNL     1       3.908  -0.901  -4.251  1.00  0.00    -0.271 OA
BRANCH  29  34
HETATM   34  C11 UNL     1       3.982  -1.063  -1.309  1.00  0.00     0.319 C 
HETATM   35  O5  UNL     1       3.396  -1.991  -1.927  1.00  0.00    -0.255 OA
HETATM   36  N5  UNL     1       4.652  -1.118  -0.151  1.00  0.00    -0.413 NA
BRANCH  36  37
HETATM   37  C12 UNL     1       5.346  -1.224   1.070  1.00  0.00     0.225 C 
BRANCH  37  38
HETATM   38  C13 UNL     1       6.626  -2.079   1.004  1.00  0.00     0.008 C 
HETATM   39  C14 UNL     1       7.649  -1.502   0.069  1.00  0.00     0.012 C 
HETATM   40  C15 UNL     1       6.321  -3.487   0.551  1.00  0.00     0.012 C 
ENDBRANCH  37  38
ENDBRANCH  36  37
ENDBRANCH  29  34
ENDBRANCH  22  25
ENDBRANCH   1  22
TORSDOF 15
