REMARK  16 active torsions:
REMARK  status: ('A' for Active; 'I' for Inactive)
REMARK    1  A    between atoms: N1_2  and  C2_5 
REMARK    2  A    between atoms: C2_5  and  C3_6 
REMARK    3  A    between atoms: C3_6  and  C4_7 
REMARK    4  A    between atoms: C4_7  and  C5_8 
REMARK    5  A    between atoms: C5_8  and  C6_9 
REMARK    6  A    between atoms: C6_9  and  N2_10 
REMARK       I    between atoms: N2_10  and  C7_12 
REMARK    7  A    between atoms: C7_12  and  C8_14 
REMARK    8  A    between atoms: C8_14  and  N3_15 
REMARK       I    between atoms: N3_15  and  C9_17 
REMARK    9  A    between atoms: C9_17  and  C10_19 
REMARK   10  A    between atoms: C10_19  and  N4_20 
REMARK   11  A    between atoms: C12_23  and  N5_24 
REMARK       I    between atoms: N5_24  and  C13_26 
REMARK   12  A    between atoms: C13_26  and  C14_28 
REMARK   13  A    between atoms: C14_28  and  N6_29 
REMARK   14  A    between atoms: N6_29  and  C15_32 
REMARK   15  A    between atoms: C15_32  and  C16_33 
REMARK       I    between atoms: N7_40  and  C23_41 
REMARK   16  A    between atoms: C23_41  and  C24_43 
ROOT
HETATM    1  N4  UNL     1      -0.985   0.027   0.290  1.00  0.00    -0.245 N 
HETATM    2  C11 UNL     1      -1.851   0.813  -0.510  1.00  0.00     0.262 C 
HETATM    3  O3  UNL     1      -1.332   1.806  -1.156  1.00  0.00    -0.269 OA
HETATM    4  C12 UNL     1      -3.282   0.532  -0.613  1.00  0.00     0.188 C 
HETATM    5  C19 UNL     1      -3.632  -0.851  -0.219  1.00  0.00    -0.000 C 
HETATM    6  C20 UNL     1      -4.239  -0.805   1.199  1.00  0.00     0.019 C 
HETATM    7  C21 UNL     1      -4.755  -1.418  -1.121  1.00  0.00     0.019 C 
HETATM    8  C22 UNL     1      -2.524  -1.817  -0.200  1.00  0.00     0.164 C 
HETATM    9  N7  UNL     1      -1.258  -1.353   0.301  1.00  0.00    -0.252 N 
HETATM   10  C23 UNL     1      -0.331  -2.321   0.813  1.00  0.00     0.262 C 
HETATM   11  O5  UNL     1       0.769  -2.065   1.325  1.00  0.00    -0.267 OA
ENDROOT
BRANCH   1  12
HETATM   12  C10 UNL     1       0.064   0.608   1.051  1.00  0.00     0.255 C 
BRANCH  12  13
HETATM   13  C9  UNL     1       1.325   0.760   0.319  1.00  0.00     0.237 C 
HETATM   14  N3  UNL     1       1.476   0.343  -1.017  1.00  0.00    -0.351 N 
ATOM     15  H3  UNL     1       0.686  -0.099  -1.486  1.00  0.00     0.163 HD
HETATM   16  O2  UNL     1       2.351   1.293   0.877  1.00  0.00    -0.272 OA
BRANCH  14  17
HETATM   17  C8  UNL     1       2.703   0.518  -1.743  1.00  0.00     0.225 C 
BRANCH  17  18
HETATM   18  C7  UNL     1       3.799  -0.291  -1.115  1.00  0.00     0.235 C 
HETATM   19  N2  UNL     1       5.114  -0.165  -1.708  1.00  0.00    -0.360 N 
ATOM     20  H2  UNL     1       5.223   0.460  -2.507  1.00  0.00     0.162 HD
HETATM   21  O1  UNL     1       3.602  -1.007  -0.170  1.00  0.00    -0.272 OA
BRANCH  19  22
HETATM   22  C6  UNL     1       6.290  -0.878  -1.230  1.00  0.00     0.122 C 
BRANCH  22  23
HETATM   23  C5  UNL     1       6.595  -0.518   0.165  1.00  0.00     0.020 C 
BRANCH  23  24
HETATM   24  C4  UNL     1       7.757  -1.093   0.853  1.00  0.00     0.003 C 
BRANCH  24  25
HETATM   25  C3  UNL     1       9.115  -0.761   0.415  1.00  0.00     0.027 C 
BRANCH  25  26
HETATM   26  C2  UNL     1       9.576  -1.061  -0.966  1.00  0.00     0.231 C 
BRANCH  26  27
HETATM   27  N1  UNL     1      11.019  -0.723  -0.986  1.00  0.00    -0.079 N 
HETATM   28  C1  UNL     1      11.286   0.666  -0.857  1.00  0.00     0.266 C 
ATOM     29  H12 UNL     1      11.464  -1.098  -1.824  1.00  0.00     0.276 HD
ATOM     30  H11 UNL     1      11.521  -1.253  -0.274  1.00  0.00     0.276 HD
ENDBRANCH  26  27
ENDBRANCH  25  26
ENDBRANCH  24  25
ENDBRANCH  23  24
ENDBRANCH  22  23
ENDBRANCH  19  22
ENDBRANCH  17  18
ENDBRANCH  14  17
ENDBRANCH  12  13
ENDBRANCH   1  12
BRANCH   4  31
HETATM   31  N5  UNL     1      -4.063   1.567   0.052  1.00  0.00    -0.345 N 
HETATM   32  C13 UNL     1      -5.398   1.908  -0.118  1.00  0.00     0.244 C 
HETATM   33  O4  UNL     1      -6.139   1.305  -0.904  1.00  0.00    -0.272 OA
ATOM     34  H5  UNL     1      -3.556   2.121   0.742  1.00  0.00     0.163 HD
BRANCH  32  35
HETATM   35  C14 UNL     1      -5.991   3.021   0.656  1.00  0.00     0.334 C 
BRANCH  35  36
HETATM   36  N6  UNL     1      -7.449   3.109   0.482  1.00  0.00    -0.067 N 
ATOM     37  H62 UNL     1      -7.825   4.026   0.725  1.00  0.00     0.277 HD
ATOM     38  H61 UNL     1      -7.735   3.104  -0.497  1.00  0.00     0.277 HD
BRANCH  36  39
HETATM   39  C15 UNL     1      -8.050   2.015   1.263  1.00  0.00     0.237 C 
BRANCH  39  40
HETATM   40  C16 UNL     1      -9.533   2.106   1.211  1.00  0.00     0.011 A 
HETATM   41  C17 UNL     1     -10.291   2.006  -0.109  1.00  0.00     0.007 A 
HETATM   42  C18 UNL     1     -10.091   3.322   0.510  1.00  0.00     0.007 A 
ENDBRANCH  39  40
ENDBRANCH  36  39
ENDBRANCH  35  36
ENDBRANCH  32  35
ENDBRANCH   4  31
BRANCH  10  43
HETATM   43  C24 UNL     1      -0.660  -3.750   0.745  1.00  0.00     0.088 C 
HETATM   44  C25 UNL     1       0.153  -4.674   1.194  1.00  0.00     0.090 C 
HETATM   45 CL1  UNL     1      -0.269  -6.351   1.100  1.00  0.00    -0.097 Cl
ENDBRANCH  10  43
TORSDOF 16
