REMARK  10 active torsions:
REMARK  status: ('A' for Active; 'I' for Inactive)
REMARK    1  A    between atoms: N1_2  and  C2_3 
REMARK    2  A    between atoms: N1_2  and  C17_36 
REMARK    3  A    between atoms: C2_3  and  C3_4 
REMARK    4  A    between atoms: C4_7  and  N3_8 
REMARK    5  A    between atoms: N3_8  and  C5_10 
REMARK    6  A    between atoms: C5_10  and  C6_11 
REMARK    7  A    between atoms: C9_14  and  C10_15 
REMARK    8  A    between atoms: C10_15  and  S1_16 
REMARK    9  A    between atoms: S1_16  and  C11_17 
REMARK   10  A    between atoms: C19_41  and  N13_42 
ROOT
HETATM    1  C3  UNL     1      -1.994  -0.094   1.529  1.00  0.00     0.264 A 
HETATM    2  N2  UNL     1      -0.657  -0.323   0.973  1.00  0.00    -0.199 N 
ATOM      3  H2  UNL     1      -0.072   0.504   0.854  1.00  0.00     0.180 HD
HETATM    4  C4  UNL     1      -0.143  -1.425   0.623  1.00  0.00     0.677 A 
HETATM    5  N8  UNL     1      -0.940  -2.588   0.852  1.00  0.00    -0.175 N 
ATOM      6  H8  UNL     1      -0.580  -3.505   0.587  1.00  0.00     0.186 HD
HETATM    7  C14 UNL     1      -2.226  -2.484   1.444  1.00  0.00     0.141 A 
HETATM    8  C15 UNL     1      -3.163  -3.435   1.845  1.00  0.00     0.069 A 
HETATM    9  C16 UNL     1      -4.216  -2.786   2.444  1.00  0.00     0.111 A 
HETATM   10  N9  UNL     1      -3.916  -1.488   2.401  1.00  0.00    -0.306 N 
ATOM     11  H9  UNL     1      -4.506  -0.743   2.771  1.00  0.00     0.186 HD
HETATM   12  N10 UNL     1      -2.713  -1.295   1.795  1.00  0.00    -0.247 N 
ENDROOT
BRANCH   4  13
HETATM   13  N3  UNL     1       1.179  -1.462   0.091  1.00  0.00    -0.222 N 
ATOM     14  H3  UNL     1       1.358  -1.369  -0.909  1.00  0.00     0.178 HD
BRANCH  13  15
HETATM   15  C5  UNL     1       2.244  -1.637   1.035  1.00  0.00     0.176 C 
BRANCH  15  16
HETATM   16  C6  UNL     1       3.597  -1.620   0.493  1.00  0.00    -0.040 A 
HETATM   17  C7  UNL     1       4.649  -2.067   1.258  1.00  0.00     0.009 A 
HETATM   18  C8  UNL     1       5.957  -2.070   0.805  1.00  0.00     0.008 A 
HETATM   19  C9  UNL     1       6.240  -1.607  -0.470  1.00  0.00    -0.049 A 
HETATM   20  C12 UNL     1       5.206  -1.155  -1.254  1.00  0.00     0.008 A 
HETATM   21  C13 UNL     1       3.895  -1.164  -0.770  1.00  0.00     0.009 A 
BRANCH  19  22
HETATM   22  C10 UNL     1       7.657  -1.648  -0.894  1.00  0.00     0.121 C 
BRANCH  22  23
HETATM   23  S1  UNL     1       8.622  -0.233  -0.410  1.00  0.00    -0.087 SA
BRANCH  23  24
HETATM   24  C11 UNL     1       8.164   1.284  -1.184  1.00  0.00     0.176 A 
HETATM   25  N4  UNL     1       7.223   1.596  -2.083  1.00  0.00    -0.263 N 
HETATM   26  N5  UNL     1       7.263   2.883  -2.366  1.00  0.00    -0.226 N 
ATOM     27  H4  UNL     1       6.567   0.931  -2.492  1.00  0.00     0.190 HD
HETATM   28  N6  UNL     1       8.237   3.407  -1.645  1.00  0.00    -0.226 N 
ATOM     29  H5  UNL     1       6.656   3.380  -3.018  1.00  0.00     0.210 HD
HETATM   30  N7  UNL     1       8.796   2.455  -0.922  1.00  0.00    -0.263 N 
ATOM     31  H6  UNL     1       8.513   4.389  -1.647  1.00  0.00     0.210 HD
ATOM     32  H7  UNL     1       9.574   2.579  -0.274  1.00  0.00     0.190 HD
ENDBRANCH  23  24
ENDBRANCH  22  23
ENDBRANCH  19  22
ENDBRANCH  15  16
ENDBRANCH  13  15
ENDBRANCH   4  13
BRANCH   1  33
HETATM   33  C2  UNL     1      -2.614   0.916   0.629  1.00  0.00     0.112 C 
BRANCH  33  34
HETATM   34  N1  UNL     1      -3.929   1.389   0.818  1.00  0.00    -0.354 N 
HETATM   35  C1  UNL     1      -4.272   2.088   2.067  1.00  0.00     0.156 C 
BRANCH  34  36
HETATM   36  C17 UNL     1      -4.919   1.412  -0.220  1.00  0.00     0.145 A 
HETATM   37  C18 UNL     1      -4.799   2.450  -1.168  1.00  0.00     0.164 A 
HETATM   38  N11 UNL     1      -3.708   3.346  -1.021  1.00  0.00    -0.080 NA
HETATM   39  N12 UNL     1      -5.692   2.548  -2.144  1.00  0.00    -0.177 N 
HETATM   40  C19 UNL     1      -6.726   1.719  -2.306  1.00  0.00     0.680 A 
ATOM     41  H12 UNL     1      -5.581   3.308  -2.816  1.00  0.00     0.185 HD
HETATM   42  N14 UNL     1      -6.855   0.729  -1.415  1.00  0.00    -0.154 N 
HETATM   43  C20 UNL     1      -5.969   0.581  -0.394  1.00  0.00     0.290 A 
ATOM     44  H14 UNL     1      -7.632   0.074  -1.503  1.00  0.00     0.187 HD
HETATM   45  O1  UNL     1      -6.192  -0.368   0.368  1.00  0.00    -0.265 OA
BRANCH  40  46
HETATM   46  N13 UNL     1      -7.580   1.842  -3.272  1.00  0.00    -0.234 N 
ATOM     47 2H13 UNL     1      -7.482   2.597  -3.951  1.00  0.00     0.174 HD
ATOM     48 1H13 UNL     1      -8.370   1.209  -3.396  1.00  0.00     0.174 HD
ENDBRANCH  40  46
ENDBRANCH  34  36
ENDBRANCH  33  34
ENDBRANCH   1  33
TORSDOF 10
