REMARK  12 active torsions:
REMARK  status: ('A' for Active; 'I' for Inactive)
REMARK       I    between atoms: N1_2  and  C2_4 
REMARK    1  A    between atoms: C2_4  and  C3_6 
REMARK    2  A    between atoms: C3_6  and  N2_7 
REMARK    3  A    between atoms: C4_8  and  O2_9 
REMARK    4  A    between atoms: C5_11  and  O3_12 
REMARK    5  A    between atoms: C6_14  and  C7_15 
REMARK       I    between atoms: C7_15  and  N3_17 
REMARK    6  A    between atoms: N3_17  and  C8_19 
REMARK    7  A    between atoms: C8_19  and  C9_20 
REMARK    8  A    between atoms: C9_20  and  S1_21 
REMARK    9  A    between atoms: S1_21  and  C10_22 
REMARK   10  A    between atoms: C15_36  and  N7_37 
REMARK   11  A    between atoms: C16_40  and  O9_41 
REMARK   12  A    between atoms: C17_43  and  N8_44 
ROOT
HETATM    1  C7  UNL     1      -1.221  -1.492  -1.354  1.00  0.00     0.258 C 
HETATM    2  O4  UNL     1      -0.491  -1.094  -2.333  1.00  0.00    -0.267 OA
HETATM    3  N3  UNL     1      -0.586  -2.414  -0.507  1.00  0.00    -0.356 N 
ATOM      4  H3  UNL     1      -1.110  -2.764   0.295  1.00  0.00     0.162 HD
ENDROOT
BRANCH   3   5
HETATM    5  C8  UNL     1       0.752  -2.896  -0.695  1.00  0.00     0.133 C 
BRANCH   5   6
HETATM    6  C9  UNL     1       1.851  -1.921  -0.683  1.00  0.00     0.100 C 
BRANCH   6   7
HETATM    7  S1  UNL     1       1.985  -0.968   0.878  1.00  0.00    -0.108 SA
BRANCH   7   8
HETATM    8  C10 UNL     1       3.602  -0.173   0.810  1.00  0.00     0.107 A 
HETATM    9  N4  UNL     1       3.715   1.017   0.251  1.00  0.00    -0.334 N 
HETATM   10  C11 UNL     1       4.921   1.589   0.189  1.00  0.00     0.128 A 
ATOM     11  H4  UNL     1       2.896   1.492  -0.127  1.00  0.00     0.168 HD
HETATM   12  N5  UNL     1       4.992   2.820  -0.398  1.00  0.00    -0.307 N 
HETATM   13  C14 UNL     1       6.030   0.954   0.697  1.00  0.00     0.119 A 
HETATM   14  C12 UNL     1       6.198   3.385  -0.461  1.00  0.00     0.226 A 
ATOM     15  H5  UNL     1       4.163   3.284  -0.770  1.00  0.00     0.171 HD
HETATM   16  N6  UNL     1       6.311   4.565  -1.018  1.00  0.00    -0.365 N 
HETATM   17  O5  UNL     1       7.255   2.788   0.020  1.00  0.00    -0.242 OA
ATOM     18  H62 UNL     1       5.485   5.031  -1.394  1.00  0.00     0.159 HD
ATOM     19  H61 UNL     1       7.234   4.997  -1.066  1.00  0.00     0.159 HD
HETATM   20  C13 UNL     1       7.246   1.609   0.594  1.00  0.00     0.307 A 
HETATM   21  O6  UNL     1       8.274   1.071   1.043  1.00  0.00    -0.259 OA
HETATM   22  C15 UNL     1       5.908  -0.271   1.272  1.00  0.00     0.158 A 
HETATM   23  C16 UNL     1       4.666  -0.859   1.336  1.00  0.00     0.134 A 
BRANCH  22  24
HETATM   24  N7  UNL     1       7.016  -0.965   1.809  1.00  0.00    -0.111 N 
HETATM   25  O7  UNL     1       7.778  -1.647   1.058  1.00  0.00    -0.532 OA
HETATM   26  O8  UNL     1       7.318  -0.986   3.169  1.00  0.00    -0.532 OA
ENDBRANCH  22  24
BRANCH  23  27
HETATM   27  O9  UNL     1       4.485  -2.090   1.904  1.00  0.00    -0.356 OA
ATOM     28  H9  UNL     1       5.222  -2.565   2.269  1.00  0.00     0.218 HD
ENDBRANCH  23  27
ENDBRANCH   7   8
ENDBRANCH   6   7
ENDBRANCH   5   6
ENDBRANCH   3   5
BRANCH   1  29
HETATM   29  C6  UNL     1      -2.559  -0.960  -1.258  1.00  0.00     0.115 A 
HETATM   30  C5  UNL     1      -3.156  -0.050  -2.148  1.00  0.00     0.136 A 
HETATM   31  C4  UNL     1      -4.455   0.185  -1.717  1.00  0.00     0.179 A 
HETATM   32  N2  UNL     1      -4.680  -0.534  -0.612  1.00  0.00    -0.301 N 
HETATM   33  C17 UNL     1      -3.540  -1.234  -0.317  1.00  0.00     0.143 A 
BRANCH  30  34
HETATM   34  O3  UNL     1      -2.564   0.515  -3.254  1.00  0.00    -0.356 OA
ATOM     35  H3  UNL     1      -1.675   0.354  -3.549  1.00  0.00     0.218 HD
ENDBRANCH  30  34
BRANCH  31  36
HETATM   36  O2  UNL     1      -5.348   1.032  -2.349  1.00  0.00    -0.344 OA
ATOM     37  H2  UNL     1      -5.188   1.543  -3.134  1.00  0.00     0.219 HD
ENDBRANCH  31  36
BRANCH  32  38
HETATM   38  C3  UNL     1      -5.955  -0.622   0.105  1.00  0.00     0.235 C 
BRANCH  38  39
HETATM   39  C2  UNL     1      -6.227   0.482   1.025  1.00  0.00     0.235 C 
HETATM   40  N1  UNL     1      -7.304   1.349   0.745  1.00  0.00    -0.364 N 
HETATM   41  C1  UNL     1      -7.601   2.445   1.628  1.00  0.00     0.149 C 
ATOM     42  H1  UNL     1      -7.874   1.198  -0.087  1.00  0.00     0.161 HD
HETATM   43  O1  UNL     1      -5.552   0.683   2.041  1.00  0.00    -0.272 OA
ENDBRANCH  38  39
ENDBRANCH  32  38
BRANCH  33  44
HETATM   44  N8  UNL     1      -3.418  -2.116   0.791  1.00  0.00    -0.291 N 
HETATM   45  N9  UNL     1      -3.217  -1.764   1.991  1.00  0.00    -0.344 N 
ATOM     46  H92 UNL     1      -3.139  -0.761   2.159  1.00  0.00     0.176 HD
ATOM     47  H91 UNL     1      -3.129  -2.397   2.786  1.00  0.00     0.176 HD
ATOM     48  H8  UNL     1      -3.499  -3.115   0.604  1.00  0.00     0.188 HD
ENDBRANCH  33  44
ENDBRANCH   1  29
TORSDOF 12
