REMARK  16 active torsions:
REMARK  status: ('A' for Active; 'I' for Inactive)
REMARK    1  A    between atoms: C1_2  and  N1_3 
REMARK    2  A    between atoms: N1_3  and  C2_5 
REMARK    3  A    between atoms: C2_5  and  N2_6 
REMARK    4  A    between atoms: N2_6  and  C3_9 
REMARK    5  A    between atoms: C3_9  and  C4_10 
REMARK    6  A    between atoms: C4_10  and  C5_11 
REMARK    7  A    between atoms: C5_11  and  N3_12 
REMARK    8  A    between atoms: N3_12  and  C6_15 
REMARK    9  A    between atoms: C6_15  and  C7_16 
REMARK   10  A    between atoms: C7_16  and  C8_17 
REMARK   11  A    between atoms: C8_17  and  N4_18 
REMARK   12  A    between atoms: N4_18  and  C9_21 
REMARK   13  A    between atoms: C9_21  and  C10_22 
REMARK   14  A    between atoms: N5_26  and  C13_27 
REMARK   15  A    between atoms: C13_27  and  C14_28 
REMARK   16  A    between atoms: C14_28  and  C15_29 
ROOT
HETATM    1  N4  UNL     1      -0.113   0.016   1.192  1.00  0.00    -0.073 N 
ATOM      2  H41 UNL     1      -0.461   0.958   1.012  1.00  0.00     0.277 HD
ATOM      3  H42 UNL     1       0.083   0.097   2.190  1.00  0.00     0.277 HD
ENDROOT
BRANCH   1   4
HETATM    4  C8  UNL     1       1.108  -0.235   0.444  1.00  0.00     0.234 C 
BRANCH   4   5
HETATM    5  C7  UNL     1       2.098   0.808   0.870  1.00  0.00     0.055 C 
BRANCH   5   6
HETATM    6  C6  UNL     1       3.385   0.638   0.144  1.00  0.00     0.233 C 
BRANCH   6   7
HETATM    7  N3  UNL     1       3.250   0.784  -1.274  1.00  0.00    -0.075 N 
ATOM      8  H32 UNL     1       2.790   1.665  -1.502  1.00  0.00     0.277 HD
ATOM      9  H31 UNL     1       2.557   0.129  -1.638  1.00  0.00     0.277 HD
BRANCH   7  10
HETATM   10  C5  UNL     1       4.482   0.661  -1.988  1.00  0.00     0.233 C 
BRANCH  10  11
HETATM   11  C4  UNL     1       5.055  -0.750  -1.990  1.00  0.00     0.055 C 
BRANCH  11  12
HETATM   12  C3  UNL     1       6.362  -0.787  -2.749  1.00  0.00     0.236 C 
BRANCH  12  13
HETATM   13  N2  UNL     1       7.361   0.070  -2.139  1.00  0.00    -0.059 N 
ATOM     14  H22 UNL     1       7.030   1.032  -2.067  1.00  0.00     0.279 HD
ATOM     15  H21 UNL     1       8.153   0.219  -2.764  1.00  0.00     0.279 HD
BRANCH  13  16
HETATM   16  C2  UNL     1       7.791  -0.433  -0.858  1.00  0.00     0.356 C 
BRANCH  16  17
HETATM   17  N1  UNL     1       8.780   0.469  -0.313  1.00  0.00    -0.345 N 
ATOM     18  H1  UNL     1       9.056   1.304  -0.830  1.00  0.00     0.163 HD
BRANCH  17  19
HETATM   19  C1  UNL     1       9.362   0.183   0.944  1.00  0.00     0.349 C 
HETATM   20  O1  UNL     1       9.022  -0.836   1.574  1.00  0.00    -0.284 OA
ENDBRANCH  17  19
ENDBRANCH  16  17
ENDBRANCH  13  16
ENDBRANCH  12  13
ENDBRANCH  11  12
ENDBRANCH  10  11
ENDBRANCH   7  10
ENDBRANCH   6   7
ENDBRANCH   5   6
ENDBRANCH   4   5
ENDBRANCH   1   4
BRANCH   1  21
HETATM   21  C9  UNL     1      -1.145  -0.969   0.950  1.00  0.00     0.255 C 
BRANCH  21  22
HETATM   22  C10 UNL     1      -2.350  -0.485   1.754  1.00  0.00     0.134 C 
HETATM   23  C11 UNL     1      -2.703   0.866   1.189  1.00  0.00     0.129 C 
HETATM   24  C12 UNL     1      -4.187   0.912   1.332  1.00  0.00     0.236 C 
HETATM   25  O2  UNL     1      -4.832   1.949   1.064  1.00  0.00    -0.272 OA
HETATM   26  N5  UNL     1      -4.597  -0.359   1.791  1.00  0.00    -0.264 N 
HETATM   27  N6  UNL     1      -3.519  -1.280   1.591  1.00  0.00    -0.129 NA
BRANCH  26  28
HETATM   28  C13 UNL     1      -5.872  -0.679   2.354  1.00  0.00     0.152 C 
BRANCH  28  29
HETATM   29  C14 UNL     1      -6.937  -1.174   1.463  1.00  0.00     0.060 C 
BRANCH  29  30
HETATM   30  C15 UNL     1      -7.286  -0.258   0.391  1.00  0.00    -0.057 A 
HETATM   31  C16 UNL     1      -6.699  -0.405  -0.876  1.00  0.00     0.007 A 
HETATM   32  C17 UNL     1      -7.031   0.456  -1.900  1.00  0.00     0.001 A 
HETATM   33  C18 UNL     1      -7.938   1.476  -1.724  1.00  0.00     0.000 A 
HETATM   34  C19 UNL     1      -8.510   1.613  -0.478  1.00  0.00     0.001 A 
HETATM   35  C20 UNL     1      -8.194   0.760   0.576  1.00  0.00     0.007 A 
ENDBRANCH  29  30
ENDBRANCH  28  29
ENDBRANCH  26  28
ENDBRANCH  21  22
ENDBRANCH   1  21
TORSDOF 16
