REMARK  4 active torsions:
REMARK  status: ('A' for Active; 'I' for Inactive)
REMARK    1  A    between atoms: N1_1  and  C1_4 
REMARK    2  A    between atoms: C2_9  and  S1_10 
REMARK    3  A    between atoms: S1_10  and  N4_11 
REMARK    4  A    between atoms: S1_10  and  N5_14 
ROOT
HETATM    1  C1  UNL     1      -2.372   0.130   0.451  1.00  0.00     0.693 A 
HETATM    2  N2  UNL     1      -1.798  -1.063   0.127  1.00  0.00    -0.131 N 
ATOM      3  H2  UNL     1      -2.358  -1.916   0.136  1.00  0.00     0.205 HD
HETATM    4  N3  UNL     1      -0.515  -1.119  -0.200  1.00  0.00    -0.271 N 
ATOM      5  H3  UNL     1      -0.050  -1.991  -0.450  1.00  0.00     0.188 HD
HETATM    6  C2  UNL     1       0.114   0.040  -0.177  1.00  0.00     0.211 A 
HETATM    7  C3  UNL     1      -0.359   1.281   0.125  1.00  0.00     0.299 A 
HETATM    8  O2  UNL     1       0.428   2.272   0.068  1.00  0.00    -0.264 OA
HETATM    9  N6  UNL     1      -1.667   1.309   0.454  1.00  0.00    -0.153 N 
ATOM     10  H6  UNL     1      -2.123   2.188   0.700  1.00  0.00     0.187 HD
ENDROOT
BRANCH   6  11
HETATM   11  S1  UNL     1       1.668  -0.022  -0.559  1.00  0.00     0.153 S 
HETATM   12  O1  UNL     1       1.342   0.298  -2.010  1.00  0.00    -0.222 OA
BRANCH  11  13
HETATM   13  N4  UNL     1       2.262  -1.601  -0.486  1.00  0.00    -0.340 N 
ATOM     14  H42 UNL     1       1.689  -2.405  -0.229  1.00  0.00     0.167 HD
ATOM     15  H41 UNL     1       3.252  -1.640  -0.729  1.00  0.00     0.167 HD
ENDBRANCH  11  13
BRANCH  11  16
HETATM   16  N5  UNL     1       2.612   1.153   0.186  1.00  0.00    -0.340 N 
ATOM     17  H52 UNL     1       2.213   1.841   0.825  1.00  0.00     0.167 HD
ATOM     18  H51 UNL     1       3.602   1.114  -0.057  1.00  0.00     0.167 HD
ENDBRANCH  11  16
ENDBRANCH   6  11
BRANCH   1  19
HETATM   19  N1  UNL     1      -3.619   0.190   0.771  1.00  0.00    -0.233 N 
ATOM     20  H12 UNL     1      -4.142  -0.685   0.769  1.00  0.00     0.174 HD
ATOM     21  H11 UNL     1      -4.049   1.083   1.013  1.00  0.00     0.174 HD
ENDBRANCH   1  19
TORSDOF 4
