REMARK  1 active torsions:
REMARK  status: ('A' for Active; 'I' for Inactive)
REMARK    1  A    between atoms: N1_1  and  C1_4 
ROOT
HETATM    1  C1  UNL     1      -2.183  -0.317  -0.203  1.00  0.00     0.694 A 
HETATM    2  N2  UNL     1      -1.953   0.988   0.018  1.00  0.00    -0.153 N 
ATOM      3  H2  UNL     1      -2.753   1.619   0.060  1.00  0.00     0.187 HD
HETATM    4  C2  UNL     1      -0.733   1.503   0.185  1.00  0.00     0.294 A 
HETATM    5  O1  UNL     1      -0.511   2.719   0.392  1.00  0.00    -0.265 OA
HETATM    6  C3  UNL     1       0.354   0.627   0.123  1.00  0.00     0.199 A 
HETATM    7  C4  UNL     1       1.616   1.164   0.297  1.00  0.00     0.294 A 
HETATM    8  O2  UNL     1       1.772   2.392   0.500  1.00  0.00    -0.264 OA
HETATM    9  N3  UNL     1       2.641   0.297   0.232  1.00  0.00    -0.260 N 
ATOM     10  H3  UNL     1       3.595   0.638   0.352  1.00  0.00     0.190 HD
HETATM   11  N4  UNL     1       2.435  -0.986   0.016  1.00  0.00    -0.247 N 
ATOM     12  H4  UNL     1       3.235  -1.617  -0.027  1.00  0.00     0.192 HD
HETATM   13  C5  UNL     1       1.198  -1.485  -0.149  1.00  0.00     0.361 A 
HETATM   14  O3  UNL     1       1.067  -2.706  -0.351  1.00  0.00    -0.243 OA
HETATM   15  N5  UNL     1       0.128  -0.678  -0.098  1.00  0.00    -0.179 N 
HETATM   16  N6  UNL     1      -1.110  -1.120  -0.254  1.00  0.00    -0.121 N 
ATOM     17  H6  UNL     1      -1.254  -2.116  -0.420  1.00  0.00     0.206 HD
ENDROOT
BRANCH   1  18
HETATM   18  N1  UNL     1      -3.392  -0.788  -0.362  1.00  0.00    -0.233 N 
ATOM     19  H12 UNL     1      -4.208  -0.177  -0.323  1.00  0.00     0.174 HD
ATOM     20  H11 UNL     1      -3.567  -1.779  -0.530  1.00  0.00     0.174 HD
ENDBRANCH   1  18
TORSDOF 1
