REMARK  2 active torsions:
REMARK  status: ('A' for Active; 'I' for Inactive)
REMARK    1  A    between atoms: C9_11  and  O1_12 
REMARK    2  A    between atoms: C12_16  and  O2_17 
ROOT
HETATM    1  C1  UNL     1      -2.608   2.121  -0.488  1.00  0.00     0.150 C 
HETATM    2  N1  UNL     1      -1.683   1.083  -0.044  1.00  0.00    -0.384 N 
HETATM    3  C2  UNL     1      -2.169   0.275   0.973  1.00  0.00     0.059 C 
HETATM    4  C3  UNL     1      -1.903  -1.164   0.991  1.00  0.00     0.053 C 
HETATM    5  C4  UNL     1      -0.649  -1.674   0.422  1.00  0.00     0.034 C 
HETATM    6  C5  UNL     1      -0.947  -2.294  -0.957  1.00  0.00     0.084 C 
HETATM    7  S1  UNL     1      -1.787  -0.927  -1.858  1.00  0.00    -0.143 SA
HETATM    8  C6  UNL     1      -0.996   0.569  -1.138  1.00  0.00     0.151 C 
HETATM    9  C7  UNL     1       0.433   0.187  -0.883  1.00  0.00     0.056 C 
HETATM   10  C8  UNL     1       1.353   1.339  -0.646  1.00  0.00     0.042 C 
HETATM   11  C9  UNL     1       2.572   1.061   0.116  1.00  0.00     0.118 C 
HETATM   12  C10 UNL     1       2.835  -0.291   0.610  1.00  0.00     0.034 C 
HETATM   13  C11 UNL     1       1.840  -1.360   0.259  1.00  0.00     0.041 C 
HETATM   14  C12 UNL     1       0.468  -0.700   0.327  1.00  0.00     0.069 C 
ENDROOT
BRANCH  11  15
HETATM   15  O1  UNL     1       3.690   1.480  -0.652  1.00  0.00    -0.396 OA
ATOM     16  H1  UNL     1       4.481   1.300  -0.158  1.00  0.00     0.210 HD
ENDBRANCH  11  15
BRANCH  14  17
HETATM   17  O2  UNL     1       0.485   0.053   1.523  1.00  0.00    -0.389 OA
ATOM     18  H2  UNL     1       1.200   0.676   1.462  1.00  0.00     0.210 HD
ENDBRANCH  14  17
TORSDOF 2
