REMARK  14 active torsions:
REMARK  status: ('A' for Active; 'I' for Inactive)
REMARK    1  A    between atoms: C2_2  and  C3_3 
REMARK    2  A    between atoms: C3_3  and  C4_4 
REMARK    3  A    between atoms: C4_4  and  C5_5 
REMARK    4  A    between atoms: C5_5  and  C6_6 
REMARK    5  A    between atoms: C8_11  and  C9_12 
REMARK    6  A    between atoms: C9_12  and  C10_13 
REMARK    7  A    between atoms: C13_18  and  O2_19 
REMARK    8  A    between atoms: C14_21  and  C15_22 
REMARK    9  A    between atoms: C18_27  and  O3_28 
REMARK   10  A    between atoms: C19_30  and  C20_31 
REMARK   11  A    between atoms: C20_31  and  C21_32 
REMARK   12  A    between atoms: C21_32  and  C22_33 
REMARK   13  A    between atoms: C22_33  and  C23_34 
REMARK   14  A    between atoms: C23_34  and  N4_35 
ROOT
HETATM    1  C6  UNL     1      -3.531   0.496  -0.894  1.00  0.00     0.176 C 
HETATM    2  N1  UNL     1      -2.077   0.482  -0.909  1.00  0.00    -0.346 N 
ATOM      3  H1  UNL     1      -1.615   1.275  -1.354  1.00  0.00     0.163 HD
HETATM    4  C7  UNL     1      -1.248  -0.509  -0.375  1.00  0.00     0.241 C 
HETATM    5  O1  UNL     1      -0.300  -0.124   0.398  1.00  0.00    -0.271 OA
HETATM    6  C8  UNL     1      -1.360  -1.983  -0.619  1.00  0.00     0.176 C 
HETATM    7  N2  UNL     1      -0.458  -2.693   0.220  1.00  0.00    -0.356 N 
ATOM      8  H2  UNL     1      -0.775  -2.686   1.190  1.00  0.00     0.162 HD
HETATM    9  C13 UNL     1       0.721  -3.386   0.089  1.00  0.00     0.160 C 
HETATM   10  C14 UNL     1       2.126  -2.996  -0.166  1.00  0.00     0.065 C 
HETATM   11  N3  UNL     1       2.380  -1.907  -1.019  1.00  0.00    -0.338 N 
ATOM     12  H3  UNL     1       1.657  -1.788  -1.729  1.00  0.00     0.167 HD
HETATM   13  C18 UNL     1       3.397  -0.947  -1.119  1.00  0.00     0.139 C 
HETATM   14  C19 UNL     1       3.795   0.144  -0.215  1.00  0.00     0.159 C 
HETATM   15  N5  UNL     1       3.958   1.349  -1.058  1.00  0.00    -0.348 N 
ATOM     16  H5  UNL     1       4.499   1.250  -1.917  1.00  0.00     0.163 HD
HETATM   17  C24 UNL     1       3.429   2.617  -0.772  1.00  0.00     0.232 C 
HETATM   18  O4  UNL     1       4.219   3.625  -0.749  1.00  0.00    -0.272 OA
HETATM   19  C25 UNL     1       2.003   2.915  -0.487  1.00  0.00     0.149 C 
HETATM   20 BR1  UNL     1       1.158   3.292  -2.180  1.00  0.00    -0.081 Br
HETATM   21  C26 UNL     1       1.831   3.997   0.519  1.00  0.00     0.025 C 
HETATM   22  C27 UNL     1       0.836   5.050   0.154  1.00  0.00     0.002 C 
HETATM   23  C28 UNL     1      -0.447   4.936   0.986  1.00  0.00     0.000 C 
HETATM   24  C29 UNL     1      -1.616   5.614   0.349  1.00  0.00     0.002 C 
HETATM   25  C30 UNL     1      -2.896   4.814   0.396  1.00  0.00     0.020 C 
HETATM   26  C31 UNL     1      -2.676   3.516  -0.342  1.00  0.00     0.122 C 
HETATM   27  N6  UNL     1      -3.898   3.019  -0.943  1.00  0.00    -0.359 N 
ATOM     28  H6  UNL     1      -4.710   3.636  -0.954  1.00  0.00     0.162 HD
HETATM   29  C32 UNL     1      -4.035   1.748  -1.508  1.00  0.00     0.240 C 
HETATM   30  O5  UNL     1      -4.635   1.635  -2.633  1.00  0.00    -0.271 OA
ENDROOT
BRANCH  14  31
HETATM   31  C20 UNL     1       5.126  -0.008   0.459  1.00  0.00     0.034 C 
BRANCH  31  32
HETATM   32  C21 UNL     1       6.300  -0.116  -0.454  1.00  0.00     0.004 C 
BRANCH  32  33
HETATM   33  C22 UNL     1       7.566  -0.239   0.372  1.00  0.00     0.027 C 
BRANCH  33  34
HETATM   34  C23 UNL     1       7.573  -1.450   1.262  1.00  0.00     0.229 C 
BRANCH  34  35
HETATM   35  N4  UNL     1       8.826  -1.490   2.008  1.00  0.00    -0.079 N 
ATOM     36  H43 UNL     1       9.642  -1.454   1.397  1.00  0.00     0.274 HD
ATOM     37  H42 UNL     1       8.996  -0.628   2.526  1.00  0.00     0.274 HD
ATOM     38  H41 UNL     1       8.831  -2.312   2.612  1.00  0.00     0.274 HD
ENDBRANCH  34  35
ENDBRANCH  33  34
ENDBRANCH  32  33
ENDBRANCH  31  32
ENDBRANCH  14  31
BRANCH  13  39
HETATM   39  O3  UNL     1       4.158  -0.971  -2.181  1.00  0.00    -0.348 OA
ATOM     40  H3  UNL     1       4.847  -0.321  -2.249  1.00  0.00     0.219 HD
ENDBRANCH  13  39
BRANCH  10  41
HETATM   41  C15 UNL     1       2.941  -3.063   1.115  1.00  0.00     0.032 C 
HETATM   42  C16 UNL     1       2.438  -2.185   2.207  1.00  0.00     0.016 C 
HETATM   43  C17 UNL     1       2.863  -4.508   1.628  1.00  0.00     0.016 C 
ENDBRANCH  10  41
BRANCH   9  44
HETATM   44  O2  UNL     1       0.595  -4.681   0.218  1.00  0.00    -0.345 OA
ATOM     45  H2  UNL     1       1.410  -5.160   0.127  1.00  0.00     0.219 HD
ENDBRANCH   9  44
BRANCH   6  46
HETATM   46  C9  UNL     1      -1.392  -2.261  -2.064  1.00  0.00     0.038 C 
BRANCH  46  47
HETATM   47  C10 UNL     1      -1.505  -3.684  -2.483  1.00  0.00    -0.020 C 
HETATM   48  C11 UNL     1      -2.766  -4.342  -1.958  1.00  0.00     0.009 C 
HETATM   49  C12 UNL     1      -1.695  -3.659  -4.014  1.00  0.00     0.009 C 
ENDBRANCH  46  47
ENDBRANCH   6  46
BRANCH   1  50
HETATM   50  C5  UNL     1      -4.089   0.392   0.530  1.00  0.00     0.035 C 
BRANCH  50  51
HETATM   51  C4  UNL     1      -5.608   0.421   0.354  1.00  0.00     0.002 C 
BRANCH  51  52
HETATM   52  C3  UNL     1      -6.310   0.330   1.685  1.00  0.00    -0.000 C 
BRANCH  52  53
HETATM   53  C2  UNL     1      -7.796   0.364   1.413  1.00  0.00    -0.005 C 
HETATM   54  C1  UNL     1      -8.616   0.281   2.662  1.00  0.00     0.005 C 
ENDBRANCH  52  53
ENDBRANCH  51  52
ENDBRANCH  50  51
ENDBRANCH   1  50
TORSDOF 14
