REMARK  11 active torsions:
REMARK  status: ('A' for Active; 'I' for Inactive)
REMARK    1  A    between atoms: C2_2  and  C3_3 
REMARK    2  A    between atoms: C3_3  and  C5_5 
REMARK    3  A    between atoms: C5_5  and  N1_6 
REMARK    4  A    between atoms: C5_5  and  C28_46 
REMARK       I    between atoms: N1_6  and  C6_8 
REMARK       I    between atoms: C6_8  and  N2_10 
REMARK    5  A    between atoms: N2_10  and  C7_12 
REMARK    6  A    between atoms: C10_15  and  C11_16 
REMARK    7  A    between atoms: C13_22  and  C14_23 
REMARK    8  A    between atoms: C14_23  and  C15_24 
REMARK    9  A    between atoms: C22_37  and  C23_38 
REMARK   10  A    between atoms: C23_38  and  C24_39 
REMARK   11  A    between atoms: C28_46  and  C29_48 
ROOT
HETATM    1  C7  UNL     1      -0.268   0.054   1.437  1.00  0.00     0.178 C 
HETATM    2  C8  UNL     1       0.768  -0.918   0.944  1.00  0.00     0.037 C 
HETATM    3  C9  UNL     1       0.566  -1.220  -0.534  1.00  0.00     0.028 C 
HETATM    4  C10 UNL     1       1.332  -2.538  -0.745  1.00  0.00     0.094 C 
HETATM    5  N3  UNL     1       2.471  -2.604   0.110  1.00  0.00    -0.354 N 
ATOM      6  H3  UNL     1       2.303  -3.121   0.973  1.00  0.00     0.162 HD
HETATM    7  C12 UNL     1       3.760  -2.107   0.003  1.00  0.00     0.240 C 
HETATM    8  O2  UNL     1       4.591  -2.548   0.897  1.00  0.00    -0.271 OA
HETATM    9  C13 UNL     1       4.356  -1.162  -0.949  1.00  0.00     0.177 C 
HETATM   10  N4  UNL     1       3.889   0.175  -0.949  1.00  0.00    -0.346 N 
ATOM     11  H4  UNL     1       3.130   0.353  -1.607  1.00  0.00     0.163 HD
HETATM   12  C18 UNL     1       4.282   1.300  -0.207  1.00  0.00     0.240 C 
HETATM   13  O3  UNL     1       4.725   2.344  -0.832  1.00  0.00    -0.271 OA
HETATM   14  C19 UNL     1       4.271   1.500   1.262  1.00  0.00     0.172 C 
HETATM   15  C20 UNL     1       5.701   1.416   1.760  1.00  0.00     0.042 C 
HETATM   16  N5  UNL     1       3.838   2.872   1.590  1.00  0.00    -0.346 N 
ATOM     17  H5  UNL     1       4.523   3.619   1.480  1.00  0.00     0.163 HD
HETATM   18  C21 UNL     1       2.567   3.228   2.038  1.00  0.00     0.241 C 
HETATM   19  O4  UNL     1       2.462   4.172   2.902  1.00  0.00    -0.271 OA
HETATM   20  C22 UNL     1       1.280   2.627   1.621  1.00  0.00     0.177 C 
HETATM   21  N6  UNL     1       0.657   1.950   2.770  1.00  0.00    -0.346 N 
ATOM     22  H6  UNL     1       0.539   2.463   3.644  1.00  0.00     0.163 HD
HETATM   23  C27 UNL     1       0.218   0.611   2.696  1.00  0.00     0.241 C 
HETATM   24  O5  UNL     1       0.251  -0.090   3.722  1.00  0.00    -0.271 OA
ENDROOT
BRANCH   1  25
HETATM   25  N2  UNL     1      -1.520  -0.673   1.586  1.00  0.00    -0.330 N 
HETATM   26  C6  UNL     1      -2.701  -0.302   0.909  1.00  0.00     0.317 C 
HETATM   27  N1  UNL     1      -3.894  -1.024   1.068  1.00  0.00    -0.331 N 
HETATM   28  O1  UNL     1      -2.683   0.690   0.156  1.00  0.00    -0.247 OA
ATOM     29  H1  UNL     1      -3.904  -1.843   1.676  1.00  0.00     0.165 HD
ATOM     30  H2  UNL     1      -1.545  -1.483   2.205  1.00  0.00     0.165 HD
BRANCH  27  31
HETATM   31  C5  UNL     1      -5.144  -0.623   0.370  1.00  0.00     0.160 C 
BRANCH  31  32
HETATM   32  C3  UNL     1      -6.215  -0.469   1.389  1.00  0.00     0.011 C 
HETATM   33  C4  UNL     1      -6.480  -1.707   2.219  1.00  0.00     0.012 C 
BRANCH  32  34
HETATM   34  C2  UNL     1      -7.544  -0.043   0.834  1.00  0.00     0.002 C 
HETATM   35  C1  UNL     1      -8.512   0.301   1.966  1.00  0.00     0.005 C 
ENDBRANCH  32  34
ENDBRANCH  31  32
BRANCH  31  36
HETATM   36  C28 UNL     1      -5.394  -1.685  -0.622  1.00  0.00     0.153 C 
HETATM   37  O6  UNL     1      -5.290  -2.846  -0.186  1.00  0.00    -0.295 OA
BRANCH  36  38
HETATM   38  C29 UNL     1      -5.726  -1.517  -2.026  1.00  0.00     0.049 C 
HETATM   39  C30 UNL     1      -4.612  -0.728  -2.761  1.00  0.00     0.017 C 
HETATM   40  C31 UNL     1      -7.000  -0.865  -2.408  1.00  0.00     0.017 C 
ENDBRANCH  36  38
ENDBRANCH  31  36
ENDBRANCH  27  31
ENDBRANCH   1  25
BRANCH   4  41
HETATM   41  C11 UNL     1       1.523  -2.828  -2.187  1.00  0.00     0.110 C 
HETATM   42 BR1  UNL     1       2.471  -4.502  -2.391  1.00  0.00    -0.094 Br
ENDBRANCH   4  41
BRANCH  20  43
HETATM   43  C23 UNL     1       0.286   3.690   1.204  1.00  0.00     0.038 C 
BRANCH  43  44
HETATM   44  C24 UNL     1       0.786   4.521   0.040  1.00  0.00    -0.020 C 
HETATM   45  C25 UNL     1      -0.252   5.559  -0.322  1.00  0.00     0.009 C 
HETATM   46  C26 UNL     1       0.953   3.640  -1.191  1.00  0.00     0.009 C 
ENDBRANCH  43  44
ENDBRANCH  20  43
BRANCH   9  47
HETATM   47  C14 UNL     1       5.868  -1.279  -0.967  1.00  0.00     0.038 C 
BRANCH  47  48
HETATM   48  C15 UNL     1       6.398  -2.607  -1.387  1.00  0.00    -0.020 C 
HETATM   49  C16 UNL     1       7.947  -2.556  -1.312  1.00  0.00     0.009 C 
HETATM   50  C17 UNL     1       6.146  -2.910  -2.868  1.00  0.00     0.009 C 
ENDBRANCH  47  48
ENDBRANCH   9  47
TORSDOF 11
