REMARK  1 active torsions:
REMARK  status: ('A' for Active; 'I' for Inactive)
REMARK    1  A    between atoms: N1_1  and  C1_4 
ROOT
HETATM    1  C1  UNL     1      -2.161  -0.401  -0.100  1.00  0.00     0.680 A 
HETATM    2  N2  UNL     1      -1.932   0.895  -0.378  1.00  0.00    -0.155 N 
ATOM      3  H2  UNL     1      -2.729   1.497  -0.587  1.00  0.00     0.187 HD
HETATM    4  C2  UNL     1      -0.709   1.429  -0.392  1.00  0.00     0.279 A 
HETATM    5  O1  UNL     1      -0.488   2.637  -0.650  1.00  0.00    -0.266 OA
HETATM    6  C3  UNL     1       0.383   0.629  -0.111  1.00  0.00     0.152 A 
HETATM    7  C4  UNL     1       1.671   1.135  -0.112  1.00  0.00     0.269 A 
HETATM    8  O2  UNL     1       1.824   2.338  -0.376  1.00  0.00    -0.267 OA
HETATM    9  N3  UNL     1       2.658   0.276   0.173  1.00  0.00    -0.268 N 
ATOM     10  H3  UNL     1       3.624   0.602   0.183  1.00  0.00     0.174 HD
HETATM   11  C5  UNL     1       2.389  -1.007   0.445  1.00  0.00     0.374 A 
HETATM   12  O3  UNL     1       3.382  -1.762   0.707  1.00  0.00    -0.238 OA
HETATM   13  O4  UNL     1       1.178  -1.514   0.453  1.00  0.00    -0.242 OA
HETATM   14  C6  UNL     1       0.158  -0.705   0.176  1.00  0.00     0.189 A 
HETATM   15  N4  UNL     1      -1.099  -1.176   0.173  1.00  0.00    -0.169 N 
ATOM     16  H4  UNL     1      -1.253  -2.161   0.386  1.00  0.00     0.186 HD
ENDROOT
BRANCH   1  17
HETATM   17  N1  UNL     1      -3.380  -0.886  -0.097  1.00  0.00    -0.234 N 
ATOM     18  H12 UNL     1      -4.187  -0.297  -0.304  1.00  0.00     0.174 HD
ATOM     19  H11 UNL     1      -3.554  -1.869   0.114  1.00  0.00     0.174 HD
ENDBRANCH   1  17
TORSDOF 1
