REMARK  8 active torsions:
REMARK  status: ('A' for Active; 'I' for Inactive)
REMARK    1  A    between atoms: C2_2  and  C3_3 
REMARK    2  A    between atoms: C3_3  and  N1_4 
REMARK    3  A    between atoms: N1_4  and  C5_6 
REMARK    4  A    between atoms: C7_8  and  C8_9 
REMARK    5  A    between atoms: C10_13  and  N2_14 
REMARK    6  A    between atoms: N3_17  and  C13_18 
REMARK    7  A    between atoms: C13_18  and  C14_19 
REMARK       I    between atoms: C14_19  and  N4_21 
REMARK    8  A    between atoms: N4_21  and  C15_23 
ROOT
HETATM    1  N2  UNL     1       0.049   0.768  -0.459  1.00  0.00    -0.054 N 
HETATM    2  C11 UNL     1       0.601   2.122  -0.215  1.00  0.00     0.266 C 
HETATM    3  C12 UNL     1       2.020   2.246  -0.713  1.00  0.00     0.266 C 
HETATM    4  N3  UNL     1       2.623   0.940  -0.570  1.00  0.00    -0.054 N 
HETATM    5  C18 UNL     1       2.078   0.134  -1.665  1.00  0.00     0.266 C 
HETATM    6  C19 UNL     1       0.612   0.413  -1.764  1.00  0.00     0.266 C 
HETATM    7  C20 UNL     1       2.147   0.370   0.653  1.00  0.00     0.271 C 
HETATM    8  C21 UNL     1       0.671  -0.053   0.539  1.00  0.00     0.213 C 
HETATM    9  C22 UNL     1       0.651  -1.518   0.302  1.00  0.00     0.042 C 
ENDROOT
BRANCH   1  10
HETATM   10  C10 UNL     1      -1.363   0.847  -0.431  1.00  0.00     0.194 C 
HETATM   11  C9  UNL     1      -2.023   1.112  -1.749  1.00  0.00     0.049 C 
HETATM   12  C7  UNL     1      -3.424   0.649  -1.912  1.00  0.00     0.091 C 
HETATM   13  C6  UNL     1      -4.225   0.440  -0.683  1.00  0.00     0.040 C 
HETATM   14  C5  UNL     1      -3.486   0.308   0.592  1.00  0.00     0.086 C 
HETATM   15  C23 UNL     1      -2.088  -0.267   0.309  1.00  0.00     0.058 C 
BRANCH  12  16
HETATM   16  C8  UNL     1      -3.539  -0.519  -2.862  1.00  0.00     0.177 C 
HETATM   17  O1  UNL     1      -2.482  -1.119  -3.158  1.00  0.00    -0.648 OA
HETATM   18  O2  UNL     1      -4.722  -0.940  -3.401  1.00  0.00    -0.648 OA
ENDBRANCH  12  16
BRANCH  14  19
HETATM   19  N1  UNL     1      -4.211  -0.381   1.564  1.00  0.00    -0.390 N 
HETATM   20  C4  UNL     1      -4.250   0.139   2.872  1.00  0.00     0.149 C 
BRANCH  19  21
HETATM   21  C3  UNL     1      -4.583  -1.718   1.368  1.00  0.00     0.084 C 
BRANCH  21  22
HETATM   22  C2  UNL     1      -6.051  -1.898   1.623  1.00  0.00     0.007 C 
HETATM   23  C1  UNL     1      -6.877  -2.340   0.687  1.00  0.00     0.012 C 
ENDBRANCH  21  22
ENDBRANCH  19  21
ENDBRANCH  14  19
ENDBRANCH   1  10
BRANCH   4  24
HETATM   24  C13 UNL     1       4.036   0.898  -0.734  1.00  0.00     0.340 C 
BRANCH  24  25
HETATM   25  C14 UNL     1       4.873   1.529   0.268  1.00  0.00     0.262 C 
HETATM   26  O3  UNL     1       4.430   2.109   1.265  1.00  0.00    -0.271 OA
HETATM   27  N4  UNL     1       6.298   1.462   0.066  1.00  0.00    -0.158 N 
ATOM     28  H4  UNL     1       6.761   2.188  -0.481  1.00  0.00     0.187 HD
BRANCH  27  29
HETATM   29  C15 UNL     1       6.999   0.499   0.565  1.00  0.00     0.684 A 
HETATM   30  N5  UNL     1       6.467  -0.499   1.296  1.00  0.00    -0.200 N 
HETATM   31  C16 UNL     1       7.463  -1.325   1.657  1.00  0.00     0.123 A 
ATOM     32  H5  UNL     1       5.481  -0.609   1.534  1.00  0.00     0.183 HD
HETATM   33  C17 UNL     1       8.635  -0.838   1.144  1.00  0.00     0.123 A 
HETATM   34  N6  UNL     1       8.317   0.285   0.477  1.00  0.00    -0.200 N 
ATOM     35  H6  UNL     1       8.978   0.882  -0.020  1.00  0.00     0.183 HD
ENDBRANCH  27  29
ENDBRANCH  24  25
ENDBRANCH   4  24
TORSDOF 8
