REMARK  4 active torsions:
REMARK  status: ('A' for Active; 'I' for Inactive)
REMARK    1  A    between atoms: C4_4  and  N1_5 
REMARK    2  A    between atoms: C7_12  and  N3_13 
REMARK    3  A    between atoms: N3_13  and  C8_15 
REMARK    4  A    between atoms: C8_15  and  C9_16 
ROOT
HETATM    1  C9  UNL     1       4.301   0.473  -0.408  1.00  0.00     0.144 C 
HETATM    2  C10 UNL     1       4.602  -0.698  -1.232  1.00  0.00     0.060 C 
HETATM    3  N4  UNL     1       4.823  -1.640  -1.892  1.00  0.00    -0.197 NA
ENDROOT
BRANCH   1   4
HETATM    4  C8  UNL     1       3.724  -0.059   0.909  1.00  0.00     0.152 C 
BRANCH   4   5
HETATM    5  N3  UNL     1       2.548  -0.802   0.596  1.00  0.00    -0.225 N 
ATOM      6  H3  UNL     1       2.616  -1.811   0.463  1.00  0.00     0.177 HD
BRANCH   5   7
HETATM    7  C7  UNL     1       1.393  -0.223   0.476  1.00  0.00     0.679 A 
HETATM    8  N2  UNL     1       1.192   1.080   0.626  1.00  0.00    -0.201 N 
HETATM    9  C6  UNL     1      -0.060   1.600   0.480  1.00  0.00     0.123 A 
ATOM     10  H2  UNL     1       1.975   1.694   0.851  1.00  0.00     0.183 HD
HETATM   11  C5  UNL     1      -1.131   0.778   0.175  1.00  0.00     0.051 A 
HETATM   12  C4  UNL     1      -2.401   1.275   0.023  1.00  0.00     0.043 A 
HETATM   13  C11 UNL     1      -0.921  -0.582   0.019  1.00  0.00     0.135 A 
HETATM   14  C3  UNL     1      -3.404   0.352  -0.284  1.00  0.00     0.054 A 
HETATM   15  C2  UNL     1      -3.192  -0.983  -0.437  1.00  0.00     0.009 A 
HETATM   16  C1  UNL     1      -4.258  -1.959  -0.763  1.00  0.00     0.068 C 
HETATM   17  N6  UNL     1      -1.941  -1.436  -0.282  1.00  0.00    -0.345 N 
ATOM     18  H6  UNL     1      -1.749  -2.432  -0.390  1.00  0.00     0.167 HD
HETATM   19  N5  UNL     1       0.334  -1.028   0.175  1.00  0.00    -0.176 N 
ATOM     20  H5  UNL     1       0.507  -2.027   0.062  1.00  0.00     0.186 HD
BRANCH  12  21
HETATM   21  N1  UNL     1      -2.663   2.520   0.154  1.00  0.00    -0.398 N 
ATOM     22  H12 UNL     1      -3.607   2.889   0.041  1.00  0.00     0.156 HD
ATOM     23  H11 UNL     1      -1.931   3.194   0.378  1.00  0.00     0.156 HD
ENDBRANCH  12  21
ENDBRANCH   5   7
ENDBRANCH   4   5
ENDBRANCH   1   4
TORSDOF 4
