REMARK  7 active torsions:
REMARK  status: ('A' for Active; 'I' for Inactive)
REMARK    1  A    between atoms: N5_15  and  C6_16 
REMARK    2  A    between atoms: C6_16  and  C7_17 
REMARK       I    between atoms: C7_17  and  N6_19 
REMARK    3  A    between atoms: N6_19  and  N7_21 
REMARK    4  A    between atoms: N7_21  and  C8_22 
REMARK    5  A    between atoms: C8_22  and  O2_23 
REMARK    6  A    between atoms: C8_22  and  N8_25 
REMARK    7  A    between atoms: N8_25  and  N9_27 
ROOT
HETATM    1  N1  UNL     1      -5.503   2.229  -0.328  1.00  0.00    -0.383 N 
ATOM      2  H11 UNL     1      -5.395   2.981  -1.009  1.00  0.00     0.157 HD
ATOM      3  H12 UNL     1      -6.384   2.183   0.184  1.00  0.00     0.157 HD
HETATM    4  C1  UNL     1      -4.555   1.397  -0.146  1.00  0.00     0.131 A 
HETATM    5  N2  UNL     1      -4.699   0.398   0.758  1.00  0.00    -0.337 N 
ATOM      6  H2  UNL     1      -5.571   0.331   1.282  1.00  0.00     0.168 HD
HETATM    7  C2  UNL     1      -3.721  -0.518   0.991  1.00  0.00     0.183 A 
HETATM    8  N3  UNL     1      -2.563  -0.423   0.287  1.00  0.00    -0.336 N 
ATOM      9  H3  UNL     1      -1.821  -1.104   0.449  1.00  0.00     0.168 HD
HETATM   10  C3  UNL     1      -2.381   0.526  -0.595  1.00  0.00     0.141 A 
HETATM   11  C4  UNL     1      -3.365   1.459  -0.837  1.00  0.00     0.122 A 
HETATM   12  N4  UNL     1      -2.845   2.275  -1.767  1.00  0.00    -0.346 N 
ATOM     13  H4  UNL     1      -3.320   3.079  -2.176  1.00  0.00     0.167 HD
HETATM   14  C5  UNL     1      -1.581   1.863  -2.081  1.00  0.00     0.185 A 
HETATM   15  N5  UNL     1      -1.255   0.779  -1.383  1.00  0.00    -0.318 N 
ENDROOT
BRANCH  15  16
HETATM   16  C6  UNL     1      -0.121  -0.070  -1.410  1.00  0.00     0.236 C 
BRANCH  16  17
HETATM   17  C7  UNL     1       0.978   0.189  -0.452  1.00  0.00     0.264 C 
HETATM   18  O1  UNL     1       0.997   1.153   0.276  1.00  0.00    -0.269 OA
HETATM   19  N6  UNL     1       1.993  -0.810  -0.480  1.00  0.00    -0.197 N 
ATOM     20  H6  UNL     1       1.794  -1.540  -1.164  1.00  0.00     0.205 HD
BRANCH  19  21
HETATM   21  N7  UNL     1       3.125  -1.024   0.159  1.00  0.00    -0.276 NA
BRANCH  21  22
HETATM   22  C8  UNL     1       4.290  -1.244   0.815  1.00  0.00     0.333 C 
BRANCH  22  23
HETATM   23  O2  UNL     1       5.108  -2.163   0.297  1.00  0.00    -0.319 OA
ATOM     24  H2  UNL     1       5.925  -2.317   0.757  1.00  0.00     0.222 HD
ENDBRANCH  22  23
BRANCH  22  25
HETATM   25  N8  UNL     1       4.804  -0.637   1.988  1.00  0.00    -0.258 N 
ATOM     26  H8  UNL     1       4.268   0.070   2.491  1.00  0.00     0.191 HD
BRANCH  25  27
HETATM   27  N9  UNL     1       6.091  -1.044   2.444  1.00  0.00    -0.341 N 
ATOM     28  H92 UNL     1       6.614  -1.753   1.930  1.00  0.00     0.177 HD
ATOM     29  H91 UNL     1       6.461  -0.607   3.288  1.00  0.00     0.177 HD
ENDBRANCH  25  27
ENDBRANCH  22  25
ENDBRANCH  21  22
ENDBRANCH  19  21
ENDBRANCH  16  17
ENDBRANCH  15  16
TORSDOF 7
