REMARK  5 active torsions:
REMARK  status: ('A' for Active; 'I' for Inactive)
REMARK    1  A    between atoms: C2_2  and  C3_3 
REMARK    2  A    between atoms: C3_3  and  N1_4 
REMARK    3  A    between atoms: N1_4  and  C4_7 
REMARK    4  A    between atoms: C6_9  and  C7_10 
REMARK    5  A    between atoms: C7_10  and  C8_11 
ROOT
HETATM    1  C4  UNL     1      -0.225  -0.659   0.147  1.00  0.00     0.191 A 
HETATM    2  C5  UNL     1       0.415   0.264   1.160  1.00  0.00     0.040 A 
HETATM    3  C6  UNL     1       1.122  -0.141  -0.079  1.00  0.00     0.021 A 
ENDROOT
BRANCH   1   4
HETATM    4  N1  UNL     1      -1.327  -0.016  -0.585  1.00  0.00    -0.068 N 
ATOM      5  H12 UNL     1      -1.668  -0.597  -1.351  1.00  0.00     0.277 HD
ATOM      6  H11 UNL     1      -1.008   0.782  -1.134  1.00  0.00     0.277 HD
BRANCH   4   7
HETATM    7  C3  UNL     1      -2.394   0.349   0.344  1.00  0.00     0.259 C 
BRANCH   7   8
HETATM    8  C2  UNL     1      -3.470   0.995  -0.443  1.00  0.00    -0.010 C 
HETATM    9  C1  UNL     1      -4.693   0.500  -0.482  1.00  0.00     0.008 C 
ENDBRANCH   7   8
ENDBRANCH   4   7
ENDBRANCH   1   4
BRANCH   3  10
HETATM   10  C7  UNL     1       2.362  -0.980   0.168  1.00  0.00     0.033 C 
BRANCH  10  11
HETATM   11  C8  UNL     1       3.551  -0.139  -0.167  1.00  0.00    -0.036 C 
HETATM   12  C9  UNL     1       4.425  -0.462  -1.090  1.00  0.00     0.007 C 
ENDBRANCH  10  11
ENDBRANCH   3  10
TORSDOF 5
