REMARK  6 active torsions:
REMARK  status: ('A' for Active; 'I' for Inactive)
REMARK    1  A    between atoms: N1_2  and  C2_4 
REMARK    2  A    between atoms: C3_7  and  N3_8 
REMARK    3  A    between atoms: N3_8  and  C4_10 
REMARK    4  A    between atoms: C12_20  and  O1_21 
REMARK    5  A    between atoms: O1_21  and  C13_22 
REMARK    6  A    between atoms: C13_22  and  C14_23 
ROOT
HETATM    1  C2  UNL     1      -0.604   2.355  -0.413  1.00  0.00     0.695 A 
HETATM    2  N2  UNL     1      -1.702   1.635  -0.210  1.00  0.00    -0.022 N 
ATOM      3  H2  UNL     1      -2.617   2.075  -0.309  1.00  0.00     0.203 HD
HETATM    4  C3  UNL     1      -1.627   0.350   0.120  1.00  0.00     0.696 A 
HETATM    5  N4  UNL     1      -0.410  -0.204   0.242  1.00  0.00    -0.154 N 
ATOM      6  H4  UNL     1      -0.354  -1.190   0.495  1.00  0.00     0.188 HD
HETATM    7  C12 UNL     1       0.741   0.468   0.049  1.00  0.00     0.252 A 
HETATM    8  N5  UNL     1       0.607   1.762  -0.281  1.00  0.00    -0.154 N 
ATOM      9  H5  UNL     1       1.447   2.319  -0.438  1.00  0.00     0.188 HD
ENDROOT
BRANCH   7  10
HETATM   10  O1  UNL     1       1.991  -0.140   0.185  1.00  0.00    -0.320 OA
BRANCH  10  11
HETATM   11  C13 UNL     1       3.132   0.658  -0.040  1.00  0.00     0.188 C 
BRANCH  11  12
HETATM   12  C14 UNL     1       4.416  -0.077   0.128  1.00  0.00    -0.017 C 
HETATM   13  C15 UNL     1       4.508  -1.242  -0.842  1.00  0.00     0.016 C 
HETATM   14  C16 UNL     1       5.865  -1.865  -0.795  1.00  0.00    -0.013 C 
HETATM   15  C17 UNL     1       6.961  -0.878  -1.083  1.00  0.00     0.009 C 
HETATM   16  C21 UNL     1       6.099  -2.422   0.604  1.00  0.00     0.009 C 
HETATM   17  C18 UNL     1       6.896   0.213  -0.051  1.00  0.00    -0.013 C 
HETATM   18  C19 UNL     1       7.058  -0.302   1.356  1.00  0.00     0.009 C 
HETATM   19  C23 UNL     1       5.551   0.889  -0.144  1.00  0.00     0.016 C 
HETATM   20  C20 UNL     1       5.948  -1.313   1.600  1.00  0.00    -0.013 C 
HETATM   21  C22 UNL     1       4.613  -0.630   1.510  1.00  0.00     0.016 C 
ENDBRANCH  11  12
ENDBRANCH  10  11
ENDBRANCH   7  10
BRANCH   4  22
HETATM   22  N3  UNL     1      -2.799  -0.436   0.341  1.00  0.00    -0.221 N 
ATOM     23  H3  UNL     1      -2.668  -1.416   0.591  1.00  0.00     0.178 HD
BRANCH  22  24
HETATM   24  C4  UNL     1      -4.133   0.042   0.239  1.00  0.00     0.100 C 
HETATM   25  C5  UNL     1      -4.552   0.551  -1.102  1.00  0.00     0.026 C 
HETATM   26  C6  UNL     1      -5.903   1.211  -0.982  1.00  0.00     0.003 C 
HETATM   27  C7  UNL     1      -6.719   0.721   0.164  1.00  0.00     0.009 C 
HETATM   28  C8  UNL     1      -6.511  -0.768   0.309  1.00  0.00    -0.046 C 
HETATM   29  C9  UNL     1      -7.439  -1.223   1.441  1.00  0.00     0.015 C 
HETATM   30  C10 UNL     1      -6.912  -1.524  -0.916  1.00  0.00     0.015 C 
HETATM   31  C11 UNL     1      -5.085  -1.043   0.642  1.00  0.00     0.034 C 
ENDBRANCH  22  24
ENDBRANCH   4  22
BRANCH   1  32
HETATM   32  N1  UNL     1      -0.679   3.621  -0.737  1.00  0.00    -0.230 N 
HETATM   33  C1  UNL     1      -2.005   4.184  -0.860  1.00  0.00     0.165 C 
ATOM     34  H1  UNL     1       0.157   4.183  -0.895  1.00  0.00     0.177 HD
ENDBRANCH   1  32
TORSDOF 6
