REMARK  19 active torsions:
REMARK  status: ('A' for Active; 'I' for Inactive)
REMARK    1  A    between atoms: O1_2  and  C2_3 
REMARK    2  A    between atoms: C2_3  and  C3_5 
REMARK    3  A    between atoms: C5_7  and  S1_8 
REMARK    4  A    between atoms: S1_8  and  C6_9 
REMARK    5  A    between atoms: C10_21  and  N5_22 
REMARK    6  A    between atoms: N5_22  and  C11_25 
REMARK    7  A    between atoms: C11_25  and  C12_26 
REMARK    8  A    between atoms: C11_25  and  C13_32 
REMARK    9  A    between atoms: C12_26  and  O4_28 
REMARK   10  A    between atoms: O4_28  and  N6_29 
REMARK   11  A    between atoms: C13_32  and  C14_33 
REMARK   12  A    between atoms: C13_32  and  N7_36 
REMARK   13  A    between atoms: C14_33  and  O5_34 
REMARK   14  A    between atoms: N7_36  and  C15_38 
REMARK   15  A    between atoms: C15_38  and  O6_39 
REMARK   16  A    between atoms: C15_38  and  C16_41 
REMARK   17  A    between atoms: C17_42  and  O7_43 
REMARK   18  A    between atoms: C18_45  and  C19_46 
REMARK   19  A    between atoms: C22_49  and  O8_50 
ROOT
HETATM    1  C11 UNL     1       0.435  -1.257   1.195  1.00  0.00     0.312 C 
ENDROOT
BRANCH   1   2
HETATM    2  N5  UNL     1       0.209  -0.297   0.087  1.00  0.00    -0.044 N 
ATOM      3  H52 UNL     1       0.424  -0.681  -0.833  1.00  0.00     0.279 HD
ATOM      4  H51 UNL     1       0.887   0.465   0.065  1.00  0.00     0.279 HD
BRANCH   2   5
HETATM    5  C10 UNL     1      -1.117   0.140   0.213  1.00  0.00     0.311 C 
HETATM    6  C9  UNL     1      -1.853   0.448  -1.123  1.00  0.00     0.195 C 
HETATM    7  S2  UNL     1      -2.597  -0.925  -1.965  1.00  0.00    -0.136 SA
HETATM    8  N9  UNL     1      -2.759   1.137  -0.191  1.00  0.00    -0.293 N 
HETATM    9  C8  UNL     1      -4.342  -0.374  -2.301  1.00  0.00     0.117 C 
HETATM   10  C4  UNL     1      -4.813   0.010  -0.918  1.00  0.00    -0.009 C 
HETATM   11  C3  UNL     1      -4.174   1.122  -0.207  1.00  0.00     0.121 C 
HETATM   12  C5  UNL     1      -5.805  -0.740  -0.414  1.00  0.00     0.063 C 
HETATM   13  C24 UNL     1      -1.494   1.546   0.430  1.00  0.00     0.259 C 
HETATM   14  O10 UNL     1      -1.087   2.605   0.875  1.00  0.00    -0.271 OA
BRANCH  11  15
HETATM   15  C2  UNL     1      -4.768   2.457  -0.476  1.00  0.00     0.310 C 
HETATM   16  O2  UNL     1      -3.997   3.412  -0.720  1.00  0.00    -0.258 OA
BRANCH  15  17
HETATM   17  O1  UNL     1      -6.130   2.703  -0.467  1.00  0.00    -0.321 OA
HETATM   18  C1  UNL     1      -6.688   3.989  -0.713  1.00  0.00     0.213 C 
ENDBRANCH  15  17
ENDBRANCH  11  15
BRANCH  12  19
HETATM   19  S1  UNL     1      -6.392  -0.380   1.216  1.00  0.00    -0.062 SA
BRANCH  19  20
HETATM   20  C6  UNL     1      -8.161  -0.361   1.339  1.00  0.00     0.182 A 
HETATM   21  N1  UNL     1      -8.828  -0.133   2.483  1.00  0.00    -0.263 N 
HETATM   22  N2  UNL     1     -10.130  -0.187   2.219  1.00  0.00    -0.226 N 
ATOM     23  H1  UNL     1      -8.409   0.050   3.395  1.00  0.00     0.190 HD
HETATM   24  N3  UNL     1     -10.309  -0.441   0.940  1.00  0.00    -0.224 N 
ATOM     25  H2  UNL     1     -10.875  -0.052   2.902  1.00  0.00     0.210 HD
HETATM   26  N4  UNL     1      -9.085  -0.549   0.394  1.00  0.00    -0.258 N 
ATOM     27  H3  UNL     1     -11.202  -0.537   0.457  1.00  0.00     0.210 HD
HETATM   28  C7  UNL     1      -8.872  -0.826  -1.025  1.00  0.00     0.181 C 
ENDBRANCH  19  20
ENDBRANCH  12  19
ENDBRANCH   2   5
ENDBRANCH   1   2
BRANCH   1  29
HETATM   29  C12 UNL     1       0.422  -0.554   2.482  1.00  0.00     0.313 C 
HETATM   30  O3  UNL     1       0.946   0.613   2.574  1.00  0.00    -0.261 OA
BRANCH  29  31
HETATM   31  O4  UNL     1      -0.130  -1.034   3.674  1.00  0.00    -0.205 OA
BRANCH  31  32
HETATM   32  N6  UNL     1      -0.080  -0.254   4.816  1.00  0.00    -0.302 N 
ATOM     33  H62 UNL     1       0.361   0.665   4.772  1.00  0.00     0.184 HD
ATOM     34  H61 UNL     1      -0.483  -0.604   5.685  1.00  0.00     0.184 HD
ENDBRANCH  31  32
ENDBRANCH  29  31
ENDBRANCH   1  29
BRANCH   1  35
HETATM   35  C13 UNL     1       1.598  -2.144   0.929  1.00  0.00     0.147 C 
BRANCH  35  36
HETATM   36  C14 UNL     1       1.818  -3.118   2.057  1.00  0.00     0.191 C 
BRANCH  36  37
HETATM   37  O5  UNL     1       2.247  -2.444   3.179  1.00  0.00    -0.399 OA
ATOM     38  H5  UNL     1       2.386  -3.058   3.890  1.00  0.00     0.209 HD
ENDBRANCH  36  37
ENDBRANCH  35  36
BRANCH  35  39
HETATM   39  N7  UNL     1       2.859  -1.434   0.661  1.00  0.00    -0.361 N 
ATOM     40  H7  UNL     1       3.363  -0.985   1.426  1.00  0.00     0.162 HD
BRANCH  39  41
HETATM   41  C15 UNL     1       3.360  -1.375  -0.621  1.00  0.00     0.155 C 
BRANCH  41  42
HETATM   42  O6  UNL     1       2.611  -1.956  -1.511  1.00  0.00    -0.345 OA
ATOM     43  H6  UNL     1       2.956  -1.915  -2.395  1.00  0.00     0.219 HD
ENDBRANCH  41  42
BRANCH  41  44
HETATM   44  C16 UNL     1       4.564  -0.795  -1.153  1.00  0.00     0.116 A 
HETATM   45  C17 UNL     1       5.504  -0.146  -0.403  1.00  0.00     0.096 A 
HETATM   46  C18 UNL     1       6.714   0.359  -0.993  1.00  0.00     0.030 A 
HETATM   47  C22 UNL     1       6.900   0.177  -2.319  1.00  0.00     0.152 A 
HETATM   48  N8  UNL     1       5.981  -0.458  -3.065  1.00  0.00    -0.303 N 
HETATM   49  C23 UNL     1       4.863  -0.926  -2.520  1.00  0.00     0.264 A 
ATOM     50  H8  UNL     1       6.144  -0.583  -4.064  1.00  0.00     0.171 HD
HETATM   51  O9  UNL     1       4.016  -1.519  -3.246  1.00  0.00    -0.267 OA
BRANCH  45  52
HETATM   52  O7  UNL     1       5.410   0.089   0.905  1.00  0.00    -0.359 OA
ATOM     53  H7  UNL     1       6.063   0.540   1.426  1.00  0.00     0.217 HD
ENDBRANCH  45  52
BRANCH  46  54
HETATM   54  C19 UNL     1       7.633   1.006  -0.041  1.00  0.00     0.017 C 
HETATM   55  C20 UNL     1       8.786   1.684  -0.688  1.00  0.00     0.015 C 
HETATM   56  C21 UNL     1       8.078   0.052   1.057  1.00  0.00     0.015 C 
ENDBRANCH  46  54
BRANCH  47  57
HETATM   57  O8  UNL     1       8.067   0.649  -2.946  1.00  0.00    -0.346 OA
ATOM     58  H8  UNL     1       8.198   0.521  -3.878  1.00  0.00     0.219 HD
ENDBRANCH  47  57
ENDBRANCH  41  44
ENDBRANCH  39  41
ENDBRANCH  35  39
ENDBRANCH   1  35
TORSDOF 19
