REMARK  4 active torsions:
REMARK  status: ('A' for Active; 'I' for Inactive)
REMARK    1  A    between atoms: N1_1  and  C1_4 
REMARK    2  A    between atoms: C4_13  and  N4_14 
REMARK    3  A    between atoms: N4_14  and  N5_16 
REMARK    4  A    between atoms: N5_16  and  O3_18 
ROOT
HETATM    1  C1  UNL     1      -0.613   1.238   0.011  1.00  0.00     0.681 C 
HETATM    2  N2  UNL     1      -1.727   0.623   0.483  1.00  0.00    -0.141 N 
ATOM      3  H2  UNL     1      -2.443   1.210   0.911  1.00  0.00     0.189 HD
HETATM    4  C2  UNL     1      -1.959  -0.702   0.429  1.00  0.00     0.341 C 
HETATM    5  O1  UNL     1      -3.108  -1.032   0.823  1.00  0.00    -0.246 OA
HETATM    6  N3  UNL     1      -1.137  -1.691   0.016  1.00  0.00    -0.272 N 
ATOM      7  H3  UNL     1      -1.571  -2.609  -0.078  1.00  0.00     0.174 HD
HETATM    8  C3  UNL     1       0.183  -1.637  -0.291  1.00  0.00     0.295 C 
HETATM    9  O2  UNL     1       0.760  -2.694  -0.641  1.00  0.00    -0.264 OA
HETATM   10  C4  UNL     1       1.024  -0.544  -0.274  1.00  0.00     0.205 C 
HETATM   11  N6  UNL     1       0.627   0.743  -0.214  1.00  0.00    -0.170 N 
ATOM     12  H6  UNL     1       1.360   1.438  -0.358  1.00  0.00     0.186 HD
ENDROOT
BRANCH  10  13
HETATM   13  N4  UNL     1       2.289  -0.786  -0.320  1.00  0.00    -0.261 N 
ATOM     14  H4  UNL     1       2.585  -1.761  -0.365  1.00  0.00     0.190 HD
BRANCH  13  15
HETATM   15  N5  UNL     1       3.269   0.181  -0.313  1.00  0.00    -0.208 N 
ATOM     16  H5  UNL     1       3.567   0.552  -1.215  1.00  0.00     0.215 HD
BRANCH  15  17
HETATM   17  O3  UNL     1       3.821   0.639   0.705  1.00  0.00    -0.274 OA
ATOM     18  H3  UNL     1       4.497   1.306   0.710  1.00  0.00     0.246 HD
ENDBRANCH  15  17
ENDBRANCH  13  15
ENDBRANCH  10  13
BRANCH   1  19
HETATM   19  N1  UNL     1      -0.784   2.499  -0.261  1.00  0.00    -0.234 N 
ATOM     20  H12 UNL     1      -1.718   2.872  -0.091  1.00  0.00     0.174 HD
ATOM     21  H11 UNL     1       0.053   2.961  -0.616  1.00  0.00     0.174 HD
ENDBRANCH   1  19
TORSDOF 4
