REMARK  4 active torsions:
REMARK  status: ('A' for Active; 'I' for Inactive)
REMARK    1  A    between atoms: C3_3  and  C4_4 
REMARK    2  A    between atoms: N1_5  and  N2_7 
REMARK    3  A    between atoms: C8_15  and  N6_16 
REMARK    4  A    between atoms: N7_22  and  C13_23 
ROOT
HETATM    1  C1  UNL     1       1.316  -2.099   1.021  1.00  0.00     0.069 C 
HETATM    2  C2  UNL     1       0.544  -1.042   0.319  1.00  0.00     0.024 A 
HETATM    3  C3  UNL     1       1.088   0.013  -0.355  1.00  0.00     0.028 A 
HETATM    4  C6  UNL     1       0.038   0.749  -0.841  1.00  0.00     0.102 A 
HETATM    5  C7  UNL     1       0.132   1.955  -1.611  1.00  0.00     0.104 C 
HETATM    6  N5  UNL     1       0.191   2.944  -2.227  1.00  0.00    -0.191 NA
HETATM    7  C8  UNL     1      -1.149   0.100  -0.436  1.00  0.00     0.128 A 
HETATM    8  N7  UNL     1      -0.828  -0.987   0.267  1.00  0.00    -0.322 N 
ENDROOT
BRANCH   3   9
HETATM    9  C4  UNL     1       2.533   0.270  -0.519  1.00  0.00     0.122 C 
HETATM   10  N1  UNL     1       3.408  -0.489  -0.033  1.00  0.00    -0.309 N 
ATOM     11  H1  UNL     1       3.046  -1.291   0.483  1.00  0.00     0.186 HD
BRANCH  10  12
HETATM   12  N2  UNL     1       4.728  -0.408  -0.087  1.00  0.00    -0.276 N 
HETATM   13  C5  UNL     1       5.613   0.470   0.039  1.00  0.00     0.215 C 
HETATM   14  N3  UNL     1       6.974   0.033  -0.120  1.00  0.00    -0.065 NA
HETATM   15  N4  UNL     1       5.287   1.839   0.329  1.00  0.00    -0.065 NA
ATOM     16  H2  UNL     1       5.142  -1.318  -0.288  1.00  0.00     0.189 HD
ENDBRANCH  10  12
ENDBRANCH   3   9
BRANCH   7  17
HETATM   17  N6  UNL     1      -2.464   0.556  -0.770  1.00  0.00    -0.364 N 
HETATM   18  C9  UNL     1      -3.028   1.708  -0.092  1.00  0.00     0.134 C 
HETATM   19  C10 UNL     1      -4.105   1.309   0.868  1.00  0.00     0.093 C 
HETATM   20  S1  UNL     1      -5.276   0.146   0.091  1.00  0.00    -0.166 SA
HETATM   21  C11 UNL     1      -4.625  -0.471  -1.469  1.00  0.00     0.093 C 
HETATM   22  C12 UNL     1      -3.234  -0.097  -1.790  1.00  0.00     0.134 C 
ENDBRANCH   7  17
BRANCH   8  23
HETATM   23  C13 UNL     1      -1.669  -2.001   0.867  1.00  0.00     0.254 C 
HETATM   24  C14 UNL     1      -1.969  -1.751   2.274  1.00  0.00     0.079 C 
HETATM   25  N8  UNL     1      -2.224  -1.538   3.385  1.00  0.00    -0.196 NA
ENDBRANCH   8  23
TORSDOF 4
