REMARK  10 active torsions:
REMARK  status: ('A' for Active; 'I' for Inactive)
REMARK    1  A    between atoms: C2_5  and  C3_6 
REMARK    2  A    between atoms: C3_6  and  O1_7 
REMARK    3  A    between atoms: C3_6  and  N3_9 
REMARK    4  A    between atoms: N3_9  and  C4_11 
REMARK    5  A    between atoms: C4_11  and  C5_12 
REMARK    6  A    between atoms: C5_12  and  C6_13 
REMARK    7  A    between atoms: N4_15  and  C8_16 
REMARK    8  A    between atoms: C11_26  and  N8_27 
REMARK    9  A    between atoms: N12_36  and  N13_38 
REMARK   10  A    between atoms: C13_43  and  N15_44 
ROOT
HETATM    1  C4  UNL     1      -0.762   0.972  -0.257  1.00  0.00     0.122 C 
ENDROOT
BRANCH   1   2
HETATM    2  N3  UNL     1      -1.184   0.020   0.696  1.00  0.00    -0.392 N 
ATOM      3  H3  UNL     1      -0.814   0.001   1.646  1.00  0.00     0.156 HD
BRANCH   2   4
HETATM    4  C3  UNL     1      -2.155  -0.906   0.246  1.00  0.00     0.270 C 
BRANCH   4   5
HETATM    5  C2  UNL     1      -3.478  -0.245   0.135  1.00  0.00     0.120 A 
HETATM    6  N2  UNL     1      -3.639   1.032   0.563  1.00  0.00    -0.281 N 
HETATM    7  N1  UNL     1      -4.783   1.678   0.585  1.00  0.00    -0.128 N 
ATOM      8  H2  UNL     1      -2.811   1.528   0.892  1.00  0.00     0.187 HD
HETATM    9  C1  UNL     1      -4.863   3.047   1.060  1.00  0.00     0.197 C 
HETATM   10  C13 UNL     1      -5.859   1.006   0.149  1.00  0.00     0.694 A 
HETATM   11  N14 UNL     1      -5.765  -0.229  -0.277  1.00  0.00    -0.172 N 
HETATM   12  C12 UNL     1      -4.574  -0.937  -0.315  1.00  0.00     0.163 A 
ATOM     13  H14 UNL     1      -6.614  -0.695  -0.598  1.00  0.00     0.186 HD
HETATM   14  N12 UNL     1      -4.624  -2.094  -0.803  1.00  0.00    -0.290 N 
ATOM     15  H12 UNL     1      -5.580  -2.351  -1.049  1.00  0.00     0.188 HD
BRANCH  10  16
HETATM   16  N15 UNL     1      -6.983   1.670   0.183  1.00  0.00    -0.233 N 
ATOM     17 2H15 UNL     1      -7.056   2.632   0.515  1.00  0.00     0.174 HD
ATOM     18 1H15 UNL     1      -7.801   1.159  -0.149  1.00  0.00     0.174 HD
ENDBRANCH  10  16
BRANCH  14  19
HETATM   19  N13 UNL     1      -3.778  -3.070  -1.085  1.00  0.00    -0.344 N 
ATOM     20 2H13 UNL     1      -2.831  -2.790  -0.831  1.00  0.00     0.176 HD
ATOM     21 1H13 UNL     1      -3.819  -4.009  -1.481  1.00  0.00     0.176 HD
ENDBRANCH  14  19
ENDBRANCH   4   5
BRANCH   4  22
HETATM   22  O1  UNL     1      -2.169  -2.100   0.954  1.00  0.00    -0.371 OA
ATOM     23  H1  UNL     1      -1.322  -2.523   1.025  1.00  0.00     0.212 HD
ENDBRANCH   4  22
ENDBRANCH   2   4
ENDBRANCH   1   2
BRANCH   1  24
HETATM   24  C5  UNL     1       0.067   0.416  -1.397  1.00  0.00     0.079 C 
BRANCH  24  25
HETATM   25  C6  UNL     1       1.310  -0.231  -0.890  1.00  0.00     0.043 A 
HETATM   26  C7  UNL     1       2.532   0.372  -0.679  1.00  0.00     0.159 A 
HETATM   27  N4  UNL     1       3.435  -0.536  -0.204  1.00  0.00    -0.080 N 
HETATM   28  N10 UNL     1       2.762  -1.671  -0.131  1.00  0.00    -0.001 NA
HETATM   29  N11 UNL     1       1.501  -1.513  -0.532  1.00  0.00    -0.286 N 
ATOM     30  H11 UNL     1       0.794  -2.247  -0.562  1.00  0.00     0.184 HD
BRANCH  27  31
HETATM   31  C8  UNL     1       4.784  -0.266   0.125  1.00  0.00     0.705 A 
HETATM   32  N5  UNL     1       5.155   0.700   0.952  1.00  0.00    -0.172 N 
HETATM   33  C9  UNL     1       6.470   0.955   1.266  1.00  0.00     0.159 A 
ATOM     34  H5  UNL     1       4.432   1.282   1.376  1.00  0.00     0.186 HD
HETATM   35  N6  UNL     1       6.872   1.921   2.096  1.00  0.00    -0.296 N 
HETATM   36  C10 UNL     1       7.429   0.196   0.716  1.00  0.00     0.129 A 
HETATM   37  S1  UNL     1       8.543   1.774   2.107  1.00  0.00     0.069 SA
ATOM     38  H6  UNL     1       6.297   2.592   2.605  1.00  0.00     0.177 HD
HETATM   39  N7  UNL     1       8.692   0.479   1.050  1.00  0.00    -0.306 N 
ATOM     40  H7  UNL     1       9.545   0.017   0.736  1.00  0.00     0.176 HD
HETATM   41  C11 UNL     1       7.041  -0.832  -0.162  1.00  0.00     0.146 A 
HETATM   42  N9  UNL     1       5.751  -1.020  -0.420  1.00  0.00    -0.173 N 
ATOM     43  H9  UNL     1       5.485  -1.769  -1.059  1.00  0.00     0.186 HD
BRANCH  41  44
HETATM   44  N8  UNL     1       7.914  -1.592  -0.720  1.00  0.00    -0.383 N 
ATOM     45  H82 UNL     1       8.904  -1.448  -0.522  1.00  0.00     0.157 HD
ATOM     46  H81 UNL     1       7.633  -2.338  -1.357  1.00  0.00     0.157 HD
ENDBRANCH  41  44
ENDBRANCH  27  31
ENDBRANCH  24  25
ENDBRANCH   1  24
TORSDOF 10
