REMARK  16 active torsions:
REMARK  status: ('A' for Active; 'I' for Inactive)
REMARK    1  A    between atoms: C2_2  and  C3_3 
REMARK    2  A    between atoms: C11_11  and  N1_12 
REMARK    3  A    between atoms: N1_12  and  C12_13 
REMARK    4  A    between atoms: N1_12  and  C14_17 
REMARK    5  A    between atoms: C12_13  and  C13_14 
REMARK    6  A    between atoms: C13_14  and  O1_15 
REMARK    7  A    between atoms: C14_17  and  C15_18 
REMARK    8  A    between atoms: C15_18  and  C16_19 
REMARK    9  A    between atoms: C16_19  and  N2_20 
REMARK   10  A    between atoms: C18_22  and  O2_23 
REMARK   11  A    between atoms: C19_25  and  O3_26 
REMARK   12  A    between atoms: C20_28  and  O4_29 
REMARK   13  A    between atoms: C21_31  and  C22_32 
REMARK   14  A    between atoms: C22_32  and  O5_33 
REMARK   15  A    between atoms: C23_35  and  O6_36 
REMARK   16  A    between atoms: C24_38  and  O7_39 
ROOT
HETATM    1  N1  UNL     1       0.309   0.124  -1.771  1.00  0.00    -0.376 N 
ENDROOT
BRANCH   1   2
HETATM    2  C11 UNL     1       1.511   0.335  -1.058  1.00  0.00     0.067 A 
HETATM    3  C10 UNL     1       2.503  -0.651  -1.133  1.00  0.00     0.040 A 
HETATM    4  C9  UNL     1       3.673  -0.492  -0.468  1.00  0.00    -0.042 A 
HETATM    5  C5  UNL     1       4.865  -1.381  -0.395  1.00  0.00     0.021 C 
HETATM    6  C8  UNL     1       3.940   0.622   0.297  1.00  0.00    -0.011 A 
HETATM    7  C4  UNL     1       4.939  -1.922   0.999  1.00  0.00     0.018 C 
HETATM    8  C6  UNL     1       5.963  -0.300  -0.325  1.00  0.00     0.019 C 
HETATM    9  C3  UNL     1       5.231  -0.680   1.853  1.00  0.00     0.017 C 
HETATM   10  C7  UNL     1       5.307   0.432   0.860  1.00  0.00     0.030 C 
HETATM   11  C24 UNL     1       2.978   1.584   0.372  1.00  0.00     0.108 A 
HETATM   12  C23 UNL     1       1.774   1.431  -0.306  1.00  0.00     0.126 A 
BRANCH   9  13
HETATM   13  C2  UNL     1       6.466  -0.844   2.659  1.00  0.00    -0.032 C 
HETATM   14  C1  UNL     1       7.542  -0.089   2.527  1.00  0.00     0.007 C 
ENDBRANCH   9  13
BRANCH  11  15
HETATM   15  O7  UNL     1       3.225   2.722   1.142  1.00  0.00    -0.357 OA
ATOM     16  H7  UNL     1       2.554   3.393   1.194  1.00  0.00     0.217 HD
ENDBRANCH  11  15
BRANCH  12  17
HETATM   17  O6  UNL     1       0.869   2.479  -0.155  1.00  0.00    -0.356 OA
ATOM     18  H6  UNL     1       1.053   3.247   0.372  1.00  0.00     0.218 HD
ENDBRANCH  12  17
ENDBRANCH   1   2
BRANCH   1  19
HETATM   19  C12 UNL     1      -0.050   0.940  -2.882  1.00  0.00     0.149 C 
BRANCH  19  20
HETATM   20  C13 UNL     1       1.032   1.800  -3.446  1.00  0.00     0.183 C 
BRANCH  20  21
HETATM   21  O1  UNL     1       0.468   2.515  -4.527  1.00  0.00    -0.399 OA
ATOM     22  H1  UNL     1       1.157   3.062  -4.886  1.00  0.00     0.209 HD
ENDBRANCH  20  21
ENDBRANCH  19  20
ENDBRANCH   1  19
BRANCH   1  23
HETATM   23  C14 UNL     1      -0.557  -0.955  -1.394  1.00  0.00     0.125 C 
BRANCH  23  24
HETATM   24  C15 UNL     1      -1.900  -0.661  -0.847  1.00  0.00     0.040 C 
BRANCH  24  25
HETATM   25  C16 UNL     1      -1.952   0.073   0.441  1.00  0.00     0.124 C 
BRANCH  25  26
HETATM   26  N2  UNL     1      -3.309   0.309   0.905  1.00  0.00    -0.381 N 
HETATM   27  C17 UNL     1      -3.971   1.212   0.059  1.00  0.00     0.093 C 
HETATM   28  C18 UNL     1      -5.347   0.894  -0.392  1.00  0.00     0.187 C 
HETATM   29  C19 UNL     1      -6.056  -0.204   0.314  1.00  0.00     0.182 C 
HETATM   30  C20 UNL     1      -5.109  -1.336   0.571  1.00  0.00     0.174 C 
HETATM   31  C21 UNL     1      -3.985  -0.818   1.403  1.00  0.00     0.138 C 
BRANCH  28  32
HETATM   32  O2  UNL     1      -5.283   0.520  -1.756  1.00  0.00    -0.388 OA
ATOM     33  H2  UNL     1      -6.165   0.316  -2.045  1.00  0.00     0.210 HD
ENDBRANCH  28  32
BRANCH  29  34
HETATM   34  O3  UNL     1      -7.150  -0.658  -0.456  1.00  0.00    -0.390 OA
ATOM     35  H3  UNL     1      -7.603  -1.360  -0.005  1.00  0.00     0.210 HD
ENDBRANCH  29  34
BRANCH  30  36
HETATM   36  O4  UNL     1      -5.737  -2.380   1.246  1.00  0.00    -0.391 OA
ATOM     37  H4  UNL     1      -5.136  -3.098   1.409  1.00  0.00     0.210 HD
ENDBRANCH  30  36
BRANCH  31  38
HETATM   38  C22 UNL     1      -4.517  -0.456   2.791  1.00  0.00     0.192 C 
BRANCH  38  39
HETATM   39  O5  UNL     1      -5.205  -1.480   3.390  1.00  0.00    -0.399 OA
ATOM     40  H5  UNL     1      -5.535  -1.255   4.252  1.00  0.00     0.209 HD
ENDBRANCH  38  39
ENDBRANCH  31  38
ENDBRANCH  25  26
ENDBRANCH  24  25
ENDBRANCH  23  24
ENDBRANCH   1  23
TORSDOF 16
