REMARK  6 active torsions:
REMARK  status: ('A' for Active; 'I' for Inactive)
REMARK    1  A    between atoms: N1_1  and  C1_4 
REMARK    2  A    between atoms: C2_7  and  N3_8 
REMARK    3  A    between atoms: C3_11  and  N4_12 
REMARK       I    between atoms: N4_12  and  C4_14 
REMARK    4  A    between atoms: C4_14  and  C5_16 
REMARK    5  A    between atoms: C6_22  and  N7_23 
REMARK    6  A    between atoms: C7_26  and  N8_27 
ROOT
HETATM    1  C1  UNL     1      -3.728   0.171   0.174  1.00  0.00     0.679 A 
HETATM    2  N2  UNL     1      -3.127  -0.178  -0.963  1.00  0.00    -0.169 N 
ATOM      3  H2  UNL     1      -3.652  -0.192  -1.837  1.00  0.00     0.186 HD
HETATM    4  C2  UNL     1      -1.808  -0.516  -0.951  1.00  0.00     0.218 A 
HETATM    5  C3  UNL     1      -1.081  -0.506   0.213  1.00  0.00     0.131 A 
HETATM    6  C7  UNL     1      -1.757  -0.133   1.384  1.00  0.00     0.145 A 
HETATM    7  N9  UNL     1      -3.062   0.195   1.336  1.00  0.00    -0.175 N 
ATOM      8  H9  UNL     1      -3.548   0.464   2.192  1.00  0.00     0.186 HD
ENDROOT
BRANCH   5   9
HETATM    9  N4  UNL     1       0.300  -0.831   0.296  1.00  0.00    -0.315 N 
HETATM   10  C4  UNL     1       1.261   0.203   0.202  1.00  0.00     0.278 C 
HETATM   11  O3  UNL     1       0.872   1.383   0.048  1.00  0.00    -0.265 OA
ATOM     12  H4  UNL     1       0.595  -1.799   0.422  1.00  0.00     0.169 HD
BRANCH  10  13
HETATM   13  C5  UNL     1       2.695  -0.038   0.277  1.00  0.00     0.169 A 
HETATM   14  N5  UNL     1       3.283  -1.245   0.441  1.00  0.00    -0.233 N 
HETATM   15  O4  UNL     1       4.571  -1.086   0.462  1.00  0.00    -0.155 OA
ATOM     16  H5  UNL     1       2.794  -2.135   0.533  1.00  0.00     0.197 HD
HETATM   17  N6  UNL     1       4.885   0.173   0.321  1.00  0.00    -0.224 N 
HETATM   18  C6  UNL     1       3.732   0.858   0.202  1.00  0.00     0.155 A 
ATOM     19  H6  UNL     1       5.827   0.564   0.304  1.00  0.00     0.198 HD
BRANCH  18  20
HETATM   20  N7  UNL     1       3.609   2.125   0.045  1.00  0.00    -0.382 N 
ATOM     21  H72 UNL     1       2.736   2.644  -0.045  1.00  0.00     0.157 HD
ATOM     22  H71 UNL     1       4.380   2.791  -0.011  1.00  0.00     0.157 HD
ENDBRANCH  18  20
ENDBRANCH  10  13
ENDBRANCH   5   9
BRANCH   4  23
HETATM   23  N3  UNL     1      -1.154  -0.899  -2.156  1.00  0.00    -0.095 N 
HETATM   24  O1  UNL     1      -1.816  -0.909  -3.211  1.00  0.00    -0.530 OA
HETATM   25  O2  UNL     1       0.159  -1.259  -2.231  1.00  0.00    -0.530 OA
ENDBRANCH   4  23
BRANCH   6  26
HETATM   26  N8  UNL     1      -1.091  -0.117   2.495  1.00  0.00    -0.383 N 
ATOM     27  H82 UNL     1      -0.102  -0.365   2.531  1.00  0.00     0.157 HD
ATOM     28  H81 UNL     1      -1.583   0.154   3.347  1.00  0.00     0.157 HD
ENDBRANCH   6  26
BRANCH   1  29
HETATM   29  N1  UNL     1      -4.990   0.495   0.166  1.00  0.00    -0.234 N 
ATOM     30  H12 UNL     1      -5.497   0.477  -0.719  1.00  0.00     0.174 HD
ATOM     31  H11 UNL     1      -5.450   0.762   1.036  1.00  0.00     0.174 HD
ENDBRANCH   1  29
TORSDOF 6
