REMARK  4 active torsions:
REMARK  status: ('A' for Active; 'I' for Inactive)
REMARK    1  A    between atoms: N1_1  and  N2_4 
REMARK    2  A    between atoms: C1_6  and  N3_7 
REMARK    3  A    between atoms: C4_10  and  N4_11 
REMARK    4  A    between atoms: N4_11  and  C5_13 
ROOT
HETATM    1  N3  UNL     1       1.338   0.083  -0.421  1.00  0.00    -0.374 N 
HETATM    2  C2  UNL     1       1.111  -0.738  -1.580  1.00  0.00     0.125 C 
HETATM    3  C3  UNL     1      -0.366  -0.523  -1.848  1.00  0.00     0.046 C 
HETATM    4  C4  UNL     1      -0.912  -0.536  -0.412  1.00  0.00     0.103 C 
HETATM    5  C6  UNL     1       0.083   0.392   0.257  1.00  0.00     0.148 C 
ENDROOT
BRANCH   1   6
HETATM    6  C1  UNL     1       2.589   0.578   0.077  1.00  0.00     0.194 C 
HETATM    7  N2  UNL     1       2.954   0.122   1.230  1.00  0.00    -0.303 N 
ATOM      8  H2  UNL     1       2.358  -0.547   1.718  1.00  0.00     0.187 HD
BRANCH   7   9
HETATM    9  N1  UNL     1       4.167   0.537   1.823  1.00  0.00    -0.344 N 
ATOM     10  H12 UNL     1       4.751   1.206   1.321  1.00  0.00     0.176 HD
ATOM     11  H11 UNL     1       4.455   0.177   2.733  1.00  0.00     0.176 HD
ENDBRANCH   7   9
ENDBRANCH   1   6
BRANCH   4  12
HETATM   12  N4  UNL     1      -2.258  -0.047  -0.366  1.00  0.00    -0.363 N 
ATOM     13  H4  UNL     1      -2.718   0.260  -1.223  1.00  0.00     0.162 HD
BRANCH  12  14
HETATM   14  C5  UNL     1      -2.952   0.011   0.871  1.00  0.00     0.181 C 
HETATM   15  N5  UNL     1      -4.305   0.498   0.951  1.00  0.00    -0.070 NA
HETATM   16  S1  UNL     1      -2.281  -0.464   2.280  1.00  0.00    -0.044 SA
ENDBRANCH  12  14
ENDBRANCH   4  12
TORSDOF 4
