REMARK  4 active torsions:
REMARK  status: ('A' for Active; 'I' for Inactive)
REMARK    1  A    between atoms: C5_6  and  C6_7 
REMARK       I    between atoms: C6_7  and  N2_9 
REMARK    2  A    between atoms: N2_9  and  C7_11 
REMARK    3  A    between atoms: N3_24  and  C20_25 
REMARK    4  A    between atoms: C20_25  and  C21_26 
ROOT
HETATM    1  C1  UNL     1       3.913   2.784   1.224  1.00  0.00     0.070 C 
HETATM    2  C2  UNL     1       3.057   1.697   0.641  1.00  0.00     0.029 A 
HETATM    3  C3  UNL     1       1.682   1.675   0.734  1.00  0.00     0.084 A 
HETATM    4  C4  UNL     1       0.873   2.673   1.426  1.00  0.00     0.102 C 
HETATM    5  N1  UNL     1       0.255   3.464   1.993  1.00  0.00    -0.191 NA
HETATM    6  C5  UNL     1       1.270   0.536   0.084  1.00  0.00     0.076 A 
HETATM    7  C18 UNL     1       2.418  -0.126  -0.401  1.00  0.00     0.025 A 
HETATM    8  C19 UNL     1       2.388  -1.386  -1.179  1.00  0.00     0.069 C 
HETATM    9  N3  UNL     1       3.458   0.603  -0.044  1.00  0.00    -0.352 N 
ENDROOT
BRANCH   6  10
HETATM   10  C6  UNL     1      -0.086   0.055  -0.141  1.00  0.00     0.255 C 
HETATM   11  O1  UNL     1      -0.199  -1.167  -0.505  1.00  0.00    -0.268 OA
HETATM   12  N2  UNL     1      -1.272   0.769  -0.008  1.00  0.00    -0.347 N 
ATOM     13  H2  UNL     1      -1.217   1.747   0.277  1.00  0.00     0.163 HD
BRANCH  12  14
HETATM   14  C7  UNL     1      -2.594   0.194  -0.255  1.00  0.00     0.037 C 
HETATM   15  C8  UNL     1      -3.641   1.280   0.035  1.00  0.00     0.036 C 
HETATM   16  C9  UNL     1      -5.010   0.782  -0.264  1.00  0.00    -0.012 C 
HETATM   17  C10 UNL     1      -5.075   0.458  -1.762  1.00  0.00     0.009 C 
HETATM   18  C14 UNL     1      -5.389  -0.477   0.458  1.00  0.00     0.010 C 
HETATM   19  C11 UNL     1      -4.094  -0.641  -2.033  1.00  0.00    -0.012 C 
HETATM   20  C12 UNL     1      -4.299  -1.870  -1.209  1.00  0.00     0.010 C 
HETATM   21  C17 UNL     1      -2.709  -0.101  -1.713  1.00  0.00     0.036 C 
HETATM   22  C13 UNL     1      -4.295  -1.477   0.273  1.00  0.00    -0.008 C 
HETATM   23  C15 UNL     1      -2.924  -0.954   0.633  1.00  0.00     0.014 C 
HETATM   24  C16 UNL     1      -2.991  -0.484   2.070  1.00  0.00     0.012 C 
ENDBRANCH  12  14
ENDBRANCH   6  10
BRANCH   9  25
HETATM   25  C20 UNL     1       4.864   0.382  -0.312  1.00  0.00     0.133 C 
BRANCH  25  26
HETATM   26  C21 UNL     1       5.623  -0.310   0.760  1.00  0.00    -0.004 C 
HETATM   27  C22 UNL     1       7.100  -0.486   0.364  1.00  0.00     0.011 C 
HETATM   28  C23 UNL     1       5.099  -1.703   0.969  1.00  0.00     0.011 C 
ENDBRANCH  25  26
ENDBRANCH   9  25
TORSDOF 4
