REMARK  6 active torsions:
REMARK  status: ('A' for Active; 'I' for Inactive)
REMARK       I    between atoms: C2_2  and  N1_4 
REMARK    1  A    between atoms: N1_4  and  C3_6 
REMARK    2  A    between atoms: C3_6  and  C4_7 
REMARK    3  A    between atoms: C4_7  and  O2_8 
REMARK    4  A    between atoms: O2_8  and  C5_9 
REMARK    5  A    between atoms: C9_13  and  N2_14 
REMARK    6  A    between atoms: N2_14  and  C10_16 
ROOT
HETATM    1  C5  UNL     1       1.449  -0.077  -0.092  1.00  0.00     0.075 A 
HETATM    2  C6  UNL     1       0.905  -0.165  -1.374  1.00  0.00     0.046 A 
HETATM    3  C7  UNL     1      -0.313   0.412  -1.656  1.00  0.00    -0.032 A 
HETATM    4  C8  UNL     1      -0.889   0.311  -3.041  1.00  0.00     0.050 C 
HETATM    5  C9  UNL     1      -0.973   1.072  -0.644  1.00  0.00     0.055 A 
HETATM    6  C16 UNL     1      -0.424   1.152   0.625  1.00  0.00     0.040 A 
HETATM    7  C17 UNL     1       0.795   0.580   0.923  1.00  0.00    -0.026 A 
HETATM    8  C18 UNL     1       1.412   0.643   2.256  1.00  0.00     0.051 C 
ENDROOT
BRANCH   5   9
HETATM    9  N2  UNL     1      -2.211   1.658  -0.929  1.00  0.00    -0.191 N 
ATOM     10  H2  UNL     1      -2.220   2.511  -1.488  1.00  0.00     0.184 HD
BRANCH   9  11
HETATM   11  C10 UNL     1      -3.349   1.181  -0.524  1.00  0.00     0.683 A 
HETATM   12  N3  UNL     1      -4.513   1.782  -0.825  1.00  0.00    -0.196 N 
HETATM   13  C11 UNL     1      -5.702   1.333  -0.434  1.00  0.00     0.024 A 
ATOM     14  H3  UNL     1      -4.482   2.633  -1.387  1.00  0.00     0.184 HD
HETATM   15  C12 UNL     1      -6.967   2.022  -0.785  1.00  0.00     0.068 C 
HETATM   16  C13 UNL     1      -5.765   0.180   0.328  1.00  0.00     0.050 A 
HETATM   17  C14 UNL     1      -4.585  -0.455   0.649  1.00  0.00     0.024 A 
HETATM   18  C15 UNL     1      -4.649  -1.698   1.470  1.00  0.00     0.068 C 
HETATM   19  N4  UNL     1      -3.420   0.060   0.217  1.00  0.00    -0.196 N 
ATOM     20  H4  UNL     1      -2.554  -0.420   0.461  1.00  0.00     0.184 HD
ENDBRANCH   9  11
ENDBRANCH   5   9
BRANCH   1  21
HETATM   21  O2  UNL     1       2.676  -0.661   0.184  1.00  0.00    -0.349 OA
BRANCH  21  22
HETATM   22  C4  UNL     1       3.394  -1.351  -0.828  1.00  0.00     0.195 C 
BRANCH  22  23
HETATM   23  C3  UNL     1       4.680  -1.879  -0.259  1.00  0.00     0.149 C 
BRANCH  23  24
HETATM   24  N1  UNL     1       5.467  -0.766   0.227  1.00  0.00    -0.359 N 
HETATM   25  C2  UNL     1       6.735  -0.963   0.818  1.00  0.00     0.213 C 
HETATM   26  C1  UNL     1       7.507   0.199   1.302  1.00  0.00     0.117 C 
HETATM   27  O1  UNL     1       7.211  -2.112   0.936  1.00  0.00    -0.274 OA
ATOM     28  H1  UNL     1       5.098   0.181   0.141  1.00  0.00     0.162 HD
ENDBRANCH  23  24
ENDBRANCH  22  23
ENDBRANCH  21  22
ENDBRANCH   1  21
TORSDOF 6
