REMARK  3 active torsions:
REMARK  status: ('A' for Active; 'I' for Inactive)
REMARK       I    between atoms: N3_4  and  C2_6 
REMARK    1  A    between atoms: N5_8  and  N6_10 
REMARK    2  A    between atoms: N6_10  and  C3_12 
REMARK    3  A    between atoms: C3_12  and  C4_13 
ROOT
HETATM    1  N1  UNL     1      -3.286   0.657   1.355  1.00  0.00    -0.066 NA
HETATM    2  C1  UNL     1      -3.253  -0.544   0.600  1.00  0.00     0.203 C 
HETATM    3  N2  UNL     1      -4.213  -1.561   0.840  1.00  0.00    -0.066 NA
HETATM    4  N3  UNL     1      -2.349  -0.686  -0.289  1.00  0.00    -0.306 N 
ATOM      5  H3  UNL     1      -2.324  -1.549  -0.831  1.00  0.00     0.170 HD
HETATM    6  C2  UNL     1      -1.385   0.306  -0.548  1.00  0.00     0.208 C 
HETATM    7  N4  UNL     1      -1.797   1.584  -1.000  1.00  0.00    -0.062 NA
HETATM    8  N5  UNL     1      -0.148   0.053  -0.375  1.00  0.00    -0.278 N 
ATOM      9  H5  UNL     1       0.108  -0.879  -0.048  1.00  0.00     0.189 HD
ENDROOT
BRANCH   8  10
HETATM   10  N6  UNL     1       0.878   0.970  -0.604  1.00  0.00    -0.334 N 
ATOM     11  H6  UNL     1       0.664   1.953  -0.773  1.00  0.00     0.180 HD
BRANCH  10  12
HETATM   12  C3  UNL     1       2.229   0.517  -0.599  1.00  0.00     0.144 C 
BRANCH  12  13
HETATM   13  C4  UNL     1       2.648  -0.101   0.720  1.00  0.00     0.005 A 
HETATM   14  C5  UNL     1       4.091  -0.583   0.722  1.00  0.00     0.007 A 
HETATM   15  C6  UNL     1       2.953  -1.527   0.849  1.00  0.00     0.007 A 
ENDBRANCH  12  13
ENDBRANCH  10  12
ENDBRANCH   8  10
TORSDOF 3
