REMARK  8 active torsions:
REMARK  status: ('A' for Active; 'I' for Inactive)
REMARK    1  A    between atoms: O1_2  and  C2_3 
REMARK    2  A    between atoms: C3_4  and  C4_5 
REMARK    3  A    between atoms: C4_5  and  O2_6 
REMARK    4  A    between atoms: C5_9  and  O4_10 
REMARK    5  A    between atoms: O4_10  and  C6_11 
REMARK    6  A    between atoms: C6_11  and  C7_12 
REMARK    7  A    between atoms: N2_18  and  C11_19 
REMARK    8  A    between atoms: C15_24  and  O5_25 
ROOT
HETATM    1  C11 UNL     1      -3.487  -0.575   1.308  1.00  0.00     0.187 C 
HETATM    2  C12 UNL     1      -4.725  -1.351   1.767  1.00  0.00     0.048 C 
HETATM    3  C13 UNL     1      -3.188   0.385   2.396  1.00  0.00     0.084 C 
HETATM    4  N3  UNL     1      -2.949   1.126   3.252  1.00  0.00    -0.195 NA
ENDROOT
BRANCH   1   5
HETATM    5  N2  UNL     1      -3.742   0.124   0.078  1.00  0.00    -0.369 N 
HETATM    6  C10 UNL     1      -4.934   0.114  -0.404  1.00  0.00     0.062 C 
HETATM    7  C9  UNL     1      -4.980   0.904  -1.693  1.00  0.00     0.068 C 
HETATM    8  C8  UNL     1      -3.549   0.658  -2.121  1.00  0.00     0.117 C 
HETATM    9  N1  UNL     1      -3.471  -0.761  -2.399  1.00  0.00    -0.171 NA
HETATM   10  C14 UNL     1      -2.874   0.879  -0.746  1.00  0.00     0.122 C 
HETATM   11  S1  UNL     1      -1.909  -1.273  -1.672  1.00  0.00    -0.056 SA
HETATM   12  C7  UNL     1      -1.522   0.404  -1.034  1.00  0.00     0.113 C 
BRANCH  12  13
HETATM   13  C6  UNL     1      -0.456   0.437  -0.041  1.00  0.00     0.189 C 
BRANCH  13  14
HETATM   14  O4  UNL     1       0.705  -0.080  -0.691  1.00  0.00    -0.357 OA
BRANCH  14  15
HETATM   15  C5  UNL     1       1.787  -0.104   0.138  1.00  0.00     0.291 C 
HETATM   16  O3  UNL     1       2.452  -1.302   0.203  1.00  0.00    -0.348 OA
HETATM   17  C3  UNL     1       3.732  -1.018   0.674  1.00  0.00     0.179 C 
HETATM   18  C2  UNL     1       4.082   0.382   0.267  1.00  0.00     0.185 C 
HETATM   19  C15 UNL     1       2.852   0.791  -0.514  1.00  0.00     0.204 C 
BRANCH  17  20
HETATM   20  C4  UNL     1       4.757  -1.962   0.074  1.00  0.00     0.198 C 
BRANCH  20  21
HETATM   21  O2  UNL     1       6.001  -1.626   0.584  1.00  0.00    -0.398 OA
ATOM     22  H2  UNL     1       6.643  -2.217   0.208  1.00  0.00     0.209 HD
ENDBRANCH  20  21
ENDBRANCH  17  20
BRANCH  18  23
HETATM   23  O1  UNL     1       4.351   1.228   1.314  1.00  0.00    -0.385 OA
HETATM   24  C1  UNL     1       5.580   1.872   1.191  1.00  0.00     0.202 C 
ENDBRANCH  18  23
BRANCH  19  25
HETATM   25  O5  UNL     1       2.952   0.362  -1.837  1.00  0.00    -0.388 OA
ATOM     26  H5  UNL     1       2.180   0.619  -2.327  1.00  0.00     0.210 HD
ENDBRANCH  19  25
ENDBRANCH  14  15
ENDBRANCH  13  14
ENDBRANCH  12  13
ENDBRANCH   1   5
TORSDOF 8
