REMARK  4 active torsions:
REMARK  status: ('A' for Active; 'I' for Inactive)
REMARK    1  A    between atoms: C5_6  and  N2_7 
REMARK    2  A    between atoms: N3_9  and  C6_11 
REMARK    3  A    between atoms: C8_15  and  C9_16 
REMARK    4  A    between atoms: C18_30  and  N7_31 
ROOT
HETATM    1  N1  UNL     1      -5.569   2.745  -1.700  1.00  0.00    -0.191 NA
HETATM    2  C1  UNL     1      -5.548   1.837  -0.985  1.00  0.00     0.104 C 
HETATM    3  C2  UNL     1      -5.520   0.690  -0.113  1.00  0.00     0.101 C 
HETATM    4  C3  UNL     1      -4.284   0.112  -0.005  1.00  0.00     0.018 A 
HETATM    5  C4  UNL     1      -3.081   0.628  -0.452  1.00  0.00     0.046 A 
HETATM    6  C5  UNL     1      -2.105  -0.291  -0.130  1.00  0.00     0.051 A 
HETATM    7  C16 UNL     1      -2.647  -1.381   0.510  1.00  0.00     0.061 A 
HETATM    8  C17 UNL     1      -4.000  -1.193   0.620  1.00  0.00     0.063 A 
HETATM    9  N6  UNL     1      -4.887  -2.044   1.190  1.00  0.00    -0.191 N 
ATOM     10  H6  UNL     1      -4.527  -2.971   1.415  1.00  0.00     0.184 HD
HETATM   11  C18 UNL     1      -6.176  -1.831   1.498  1.00  0.00     0.677 C 
HETATM   12  N8  UNL     1      -6.923  -0.767   1.218  1.00  0.00    -0.176 N 
ATOM     13  H8  UNL     1      -7.845  -0.795   1.652  1.00  0.00     0.186 HD
HETATM   14  C19 UNL     1      -6.715   0.337   0.482  1.00  0.00     0.136 C 
HETATM   15  N9  UNL     1      -7.718   1.126   0.323  1.00  0.00    -0.384 N 
ATOM     16  H91 UNL     1      -8.601   0.865   0.763  1.00  0.00     0.157 HD
ATOM     17  H92 UNL     1      -7.560   1.964  -0.236  1.00  0.00     0.157 HD
ENDROOT
BRANCH   6  18
HETATM   18  N2  UNL     1      -0.705  -0.137  -0.421  1.00  0.00    -0.299 N 
HETATM   19  N3  UNL     1       0.069  -0.123   0.595  1.00  0.00    -0.281 N 
ATOM     20  H3  UNL     1      -0.289  -0.215   1.546  1.00  0.00     0.188 HD
ATOM     21  H2  UNL     1      -0.354  -0.045  -1.374  1.00  0.00     0.187 HD
BRANCH  19  22
HETATM   22  C6  UNL     1       1.455   0.028   0.327  1.00  0.00     0.189 A 
HETATM   23  N4  UNL     1       2.322  -0.484   1.227  1.00  0.00    -0.344 N 
HETATM   24  C7  UNL     1       3.675  -0.366   1.016  1.00  0.00     0.120 A 
ATOM     25  H4  UNL     1       1.974  -0.957   2.061  1.00  0.00     0.167 HD
HETATM   26  C8  UNL     1       4.156   0.272  -0.106  1.00  0.00     0.060 A 
HETATM   27  N5  UNL     1       3.250   0.765  -0.970  1.00  0.00    -0.318 N 
HETATM   28  C15 UNL     1       1.914   0.668  -0.798  1.00  0.00     0.291 A 
ATOM     29  H5  UNL     1       3.593   1.240  -1.805  1.00  0.00     0.169 HD
HETATM   30  O1  UNL     1       1.083   1.135  -1.615  1.00  0.00    -0.264 OA
BRANCH  26  31
HETATM   31  C9  UNL     1       5.596   0.379  -0.297  1.00  0.00    -0.008 A 
HETATM   32  C10 UNL     1       6.130   1.013  -1.412  1.00  0.00     0.014 A 
HETATM   33  C11 UNL     1       7.499   1.135  -1.628  1.00  0.00     0.001 A 
HETATM   34  C12 UNL     1       8.398   0.620  -0.724  1.00  0.00     0.000 A 
HETATM   35  C13 UNL     1       7.881  -0.007   0.377  1.00  0.00     0.001 A 
HETATM   36  C14 UNL     1       6.504  -0.131   0.598  1.00  0.00     0.014 A 
ENDBRANCH  26  31
ENDBRANCH  19  22
ENDBRANCH   6  18
BRANCH  11  37
HETATM   37  N7  UNL     1      -6.763  -2.776   2.147  1.00  0.00    -0.234 N 
ATOM     38  H72 UNL     1      -6.190  -3.592   2.362  1.00  0.00     0.174 HD
ATOM     39  H71 UNL     1      -7.743  -2.614   2.381  1.00  0.00     0.174 HD
ENDBRANCH  11  37
TORSDOF 4
