REMARK  12 active torsions:
REMARK  status: ('A' for Active; 'I' for Inactive)
REMARK    1  A    between atoms: C1_4  and  C2_6 
REMARK    2  A    between atoms: C2_6  and  C3_7 
REMARK    3  A    between atoms: C3_7  and  N3_8 
REMARK    4  A    between atoms: C3_7  and  C4_12 
REMARK       I    between atoms: C4_12  and  N4_14 
REMARK    5  A    between atoms: N4_14  and  C5_16 
REMARK    6  A    between atoms: C5_16  and  C6_17 
REMARK    7  A    between atoms: C6_17  and  C7_18 
REMARK    8  A    between atoms: C6_17  and  N6_23 
REMARK    9  A    between atoms: C7_18  and  N5_19 
REMARK   10  A    between atoms: N6_23  and  O2_24 
REMARK   11  A    between atoms: O2_24  and  C8_25 
REMARK   12  A    between atoms: C8_25  and  C9_26 
ROOT
HETATM    1  C6  UNL     1      -0.318  -0.863  -0.652  1.00  0.00     0.150 C 
ENDROOT
BRANCH   1   2
HETATM    2  C5  UNL     1       0.482   0.352  -0.291  1.00  0.00     0.148 C 
BRANCH   2   3
HETATM    3  N4  UNL     1       1.713   0.320  -1.054  1.00  0.00    -0.358 N 
HETATM    4  C4  UNL     1       2.687   1.355  -0.919  1.00  0.00     0.248 C 
HETATM    5  O1  UNL     1       2.443   2.294  -0.117  1.00  0.00    -0.271 OA
ATOM      6  H4  UNL     1       1.886  -0.453  -1.697  1.00  0.00     0.162 HD
BRANCH   4   7
HETATM    7  C3  UNL     1       3.942   1.339  -1.685  1.00  0.00     0.281 C 
BRANCH   7   8
HETATM    8  C2  UNL     1       4.731   0.060  -1.521  1.00  0.00     0.115 C 
BRANCH   8   9
HETATM    9  C1  UNL     1       5.205  -0.150  -0.139  1.00  0.00     0.089 C 
HETATM   10  N1  UNL     1       4.880  -1.173   0.575  1.00  0.00    -0.391 N 
ATOM     11  H12 UNL     1       5.208  -1.318   1.530  1.00  0.00     0.157 HD
ATOM     12  H11 UNL     1       4.262  -1.867   0.154  1.00  0.00     0.157 HD
HETATM   13  N2  UNL     1       6.065   0.815   0.447  1.00  0.00    -0.088 NA
ENDBRANCH   8   9
ENDBRANCH   7   8
BRANCH   7  14
HETATM   14  N3  UNL     1       4.722   2.505  -1.343  1.00  0.00    -0.066 N 
ATOM     15  H33 UNL     1       5.110   2.428  -0.403  1.00  0.00     0.275 HD
ATOM     16  H32 UNL     1       5.592   2.537  -1.874  1.00  0.00     0.275 HD
ATOM     17  H31 UNL     1       4.190   3.368  -1.454  1.00  0.00     0.275 HD
ENDBRANCH   7  14
ENDBRANCH   4   7
ENDBRANCH   2   3
ENDBRANCH   1   2
BRANCH   1  18
HETATM   18  C7  UNL     1       0.418  -2.116  -0.332  1.00  0.00     0.254 C 
BRANCH  18  19
HETATM   19  N5  UNL     1      -0.401  -3.283  -0.698  1.00  0.00    -0.078 N 
ATOM     20  H53 UNL     1      -1.322  -3.257  -0.261  1.00  0.00     0.274 HD
ATOM     21  H52 UNL     1      -0.699  -3.252  -1.673  1.00  0.00     0.274 HD
ATOM     22  H51 UNL     1       0.104  -4.142  -0.479  1.00  0.00     0.274 HD
ENDBRANCH  18  19
ENDBRANCH   1  18
BRANCH   1  23
HETATM   23  N6  UNL     1      -1.665  -0.834  -0.149  1.00  0.00    -0.087 NA
BRANCH  23  24
HETATM   24  O2  UNL     1      -1.764  -0.753   1.168  1.00  0.00    -0.255 OA
BRANCH  24  25
HETATM   25  C8  UNL     1      -3.002  -0.941   1.699  1.00  0.00     0.177 C 
BRANCH  25  26
HETATM   26  C9  UNL     1      -4.069  -0.029   1.347  1.00  0.00     0.031 A 
HETATM   27  C10 UNL     1      -3.890   1.052   0.533  1.00  0.00     0.018 A 
HETATM   28  C11 UNL     1      -4.917   1.932   0.213  1.00  0.00     0.018 A 
HETATM   29  C12 UNL     1      -6.167   1.705   0.738  1.00  0.00     0.089 A 
HETATM   30  N7  UNL     1      -6.349   0.643   1.541  1.00  0.00    -0.352 N 
HETATM   31  C13 UNL     1      -5.363  -0.212   1.855  1.00  0.00     0.111 A 
ATOM     32  H7  UNL     1      -7.278   0.479   1.929  1.00  0.00     0.166 HD
HETATM   33  N8  UNL     1      -5.601  -1.213   2.630  1.00  0.00    -0.385 N 
ATOM     34  H82 UNL     1      -4.852  -1.863   2.869  1.00  0.00     0.157 HD
ATOM     35  H81 UNL     1      -6.542  -1.346   3.000  1.00  0.00     0.157 HD
ENDBRANCH  25  26
ENDBRANCH  24  25
ENDBRANCH  23  24
ENDBRANCH   1  23
TORSDOF 12
