REMARK  8 active torsions:
REMARK  status: ('A' for Active; 'I' for Inactive)
REMARK    1  A    between atoms: C3_3  and  C4_4 
REMARK    2  A    between atoms: C4_4  and  C5_5 
REMARK    3  A    between atoms: C7_8  and  O1_9 
REMARK    4  A    between atoms: C9_12  and  O2_13 
REMARK    5  A    between atoms: N1_19  and  C12_20 
REMARK    6  A    between atoms: C12_20  and  C13_21 
REMARK    7  A    between atoms: C13_21  and  C14_22 
REMARK    8  A    between atoms: C14_22  and  N2_23 
ROOT
HETATM    1  C1  UNL     1      -3.053  -2.749   1.566  1.00  0.00     0.055 C 
HETATM    2  C2  UNL     1      -1.772  -2.461   0.871  1.00  0.00     0.022 C 
HETATM    3  C3  UNL     1      -1.691  -1.233   0.193  1.00  0.00     0.044 C 
HETATM    4  C11 UNL     1      -0.575  -0.752  -0.443  1.00  0.00     0.262 C 
HETATM    5  O3  UNL     1      -0.639   0.366  -0.964  1.00  0.00    -0.267 OA
HETATM    6  N1  UNL     1       0.667  -1.295  -0.626  1.00  0.00    -0.265 N 
HETATM    7  C17 UNL     1       1.154  -2.419  -0.094  1.00  0.00     0.334 C 
HETATM    8  O4  UNL     1       2.373  -2.694  -0.193  1.00  0.00    -0.246 OA
HETATM    9  N3  UNL     1       0.500  -3.405   0.595  1.00  0.00    -0.270 N 
HETATM   10  C18 UNL     1       1.267  -4.580   0.973  1.00  0.00     0.164 C 
HETATM   11  C19 UNL     1      -0.798  -3.426   0.963  1.00  0.00     0.258 C 
HETATM   12  O5  UNL     1      -1.215  -4.502   1.482  1.00  0.00    -0.267 OA
ENDROOT
BRANCH   3  13
HETATM   13  C4  UNL     1      -2.936  -0.494   0.213  1.00  0.00     0.032 C 
BRANCH  13  14
HETATM   14  C5  UNL     1      -2.975   0.909  -0.137  1.00  0.00     0.014 A 
HETATM   15  C6  UNL     1      -2.562   1.869   0.762  1.00  0.00     0.079 A 
HETATM   16 CL1  UNL     1      -1.952   1.330   2.335  1.00  0.00    -0.080 Cl
HETATM   17  C7  UNL     1      -2.603   3.205   0.484  1.00  0.00     0.091 A 
HETATM   18  C8  UNL     1      -3.075   3.640  -0.745  1.00  0.00     0.076 A 
HETATM   19  C9  UNL     1      -3.488   2.706  -1.649  1.00  0.00     0.091 A 
HETATM   20  C10 UNL     1      -3.437   1.366  -1.346  1.00  0.00     0.079 A 
HETATM   21 CL2  UNL     1      -3.984   0.204  -2.558  1.00  0.00    -0.080 Cl
BRANCH  17  22
HETATM   22  O1  UNL     1      -2.189   4.175   1.381  1.00  0.00    -0.359 OA
ATOM     23  H1  UNL     1      -2.218   5.105   1.188  1.00  0.00     0.217 HD
ENDBRANCH  17  22
BRANCH  19  24
HETATM   24  O2  UNL     1      -3.956   3.148  -2.873  1.00  0.00    -0.359 OA
ATOM     25  H2  UNL     1      -4.244   2.497  -3.503  1.00  0.00     0.217 HD
ENDBRANCH  19  24
ENDBRANCH  13  14
ENDBRANCH   3  13
BRANCH   6  26
HETATM   26  C12 UNL     1       1.501  -0.584  -1.524  1.00  0.00     0.139 C 
BRANCH  26  27
HETATM   27  C13 UNL     1       2.327   0.534  -1.023  1.00  0.00     0.050 C 
BRANCH  27  28
HETATM   28  C14 UNL     1       3.349   0.248   0.014  1.00  0.00     0.273 C 
BRANCH  28  29
HETATM   29  N2  UNL     1       4.094   1.437   0.407  1.00  0.00     0.080 N 
HETATM   30  C15 UNL     1       4.959   1.950  -0.603  1.00  0.00     0.309 C 
HETATM   31  C16 UNL     1       3.275   2.476   0.967  1.00  0.00     0.309 C 
ENDBRANCH  28  29
ENDBRANCH  27  28
ENDBRANCH  26  27
ENDBRANCH   6  26
TORSDOF 8
