REMARK  7 active torsions:
REMARK  status: ('A' for Active; 'I' for Inactive)
REMARK    1  A    between atoms: C1_2  and  C2_3 
REMARK       I    between atoms: C1_2  and  N5_20 
REMARK    2  A    between atoms: C2_3  and  N1_4 
REMARK    3  A    between atoms: N1_4  and  C3_5 
REMARK    4  A    between atoms: N1_4  and  C7_14 
REMARK    5  A    between atoms: C4_6  and  N2_7 
REMARK    6  A    between atoms: C9_17  and  O3_18 
REMARK    7  A    between atoms: N5_20  and  C10_22 
ROOT
HETATM    1  C2  UNL     1      -1.324   0.669   0.274  1.00  0.00     0.198 C 
ENDROOT
BRANCH   1   2
HETATM    2  C1  UNL     1       0.126   0.562  -0.032  1.00  0.00     0.236 C 
HETATM    3  O1  UNL     1       0.481   0.274  -1.190  1.00  0.00    -0.272 OA
HETATM    4  N5  UNL     1       1.058   0.783   0.969  1.00  0.00    -0.306 N 
ATOM      5  H5  UNL     1       0.709   1.288   1.783  1.00  0.00     0.171 HD
BRANCH   4   6
HETATM    6  C10 UNL     1       2.296   0.446   1.024  1.00  0.00     0.152 A 
HETATM    7  N6  UNL     1       3.110  -0.202   0.201  1.00  0.00    -0.334 N 
HETATM    8  C11 UNL     1       4.365  -0.387   0.558  1.00  0.00     0.073 A 
ATOM      9  H6  UNL     1       2.770  -0.552  -0.695  1.00  0.00     0.168 HD
HETATM   10  C12 UNL     1       5.368  -1.048  -0.183  1.00  0.00     0.063 A 
HETATM   11  C16 UNL     1       4.761   0.104   1.769  1.00  0.00     0.038 A 
HETATM   12 CL1  UNL     1       5.051  -1.748  -1.763  1.00  0.00    -0.082 Cl
HETATM   13  C13 UNL     1       6.628  -1.155   0.332  1.00  0.00     0.050 A 
HETATM   14  C14 UNL     1       7.041  -0.665   1.549  1.00  0.00     0.037 A 
HETATM   15 CL2  UNL     1       8.673  -0.839   2.145  1.00  0.00    -0.084 Cl
HETATM   16  C15 UNL     1       6.061  -0.021   2.272  1.00  0.00     0.045 A 
HETATM   17  S1  UNL     1       3.309   0.815   2.349  1.00  0.00    -0.052 SA
ENDBRANCH   4   6
ENDBRANCH   1   2
BRANCH   1  18
HETATM   18  N1  UNL     1      -2.072   0.441  -0.942  1.00  0.00    -0.271 NA
BRANCH  18  19
HETATM   19  C3  UNL     1      -3.414   0.014  -0.739  1.00  0.00     0.080 C 
HETATM   20  C4  UNL     1      -3.782  -1.341  -0.386  1.00  0.00     0.129 C 
BRANCH  20  21
HETATM   21  N2  UNL     1      -3.243  -1.896   0.802  1.00  0.00    -0.261 N 
HETATM   22  C5  UNL     1      -2.146  -2.667   0.983  1.00  0.00     0.207 A 
HETATM   23  N3  UNL     1      -2.053  -2.944   2.276  1.00  0.00    -0.346 N 
HETATM   24  C6  UNL     1      -3.076  -2.359   2.914  1.00  0.00     0.198 A 
ATOM     25  H3  UNL     1      -1.324  -3.508   2.713  1.00  0.00     0.167 HD
HETATM   26  N4  UNL     1      -3.783  -1.729   1.991  1.00  0.00    -0.289 N 
ATOM     27  H4  UNL     1      -4.629  -1.189   2.175  1.00  0.00     0.188 HD
ENDBRANCH  20  21
ENDBRANCH  18  19
BRANCH  18  28
HETATM   28  C7  UNL     1      -1.993   1.677  -1.677  1.00  0.00     0.142 C 
HETATM   29  C8  UNL     1      -2.702   2.869  -1.075  1.00  0.00     0.196 C 
HETATM   30  O2  UNL     1      -3.732   2.671  -2.027  1.00  0.00    -0.358 OA
HETATM   31  C9  UNL     1      -2.801   2.023  -2.822  1.00  0.00     0.276 C 
BRANCH  31  32
HETATM   32  O3  UNL     1      -3.243   1.094  -3.729  1.00  0.00    -0.370 OA
ATOM     33  H3  UNL     1      -3.775   1.322  -4.483  1.00  0.00     0.212 HD
ENDBRANCH  31  32
ENDBRANCH  18  28
ENDBRANCH   1  18
TORSDOF 7
