REMARK  8 active torsions:
REMARK  status: ('A' for Active; 'I' for Inactive)
REMARK    1  A    between atoms: C2_2  and  N1_3 
REMARK    2  A    between atoms: C2_2  and  C3_7 
REMARK    3  A    between atoms: C3_7  and  C4_8 
REMARK    4  A    between atoms: C4_8  and  N2_9 
REMARK    5  A    between atoms: C6_17  and  O1_18 
REMARK    6  A    between atoms: O1_18  and  C7_19 
REMARK    7  A    between atoms: C7_19  and  C8_20 
REMARK    8  A    between atoms: C8_20  and  N4_21 
ROOT
HETATM    1  C4  UNL     1      -0.829  -1.266  -0.168  1.00  0.00     0.313 C 
HETATM    2  N3  UNL     1      -0.642  -2.311  -1.272  1.00  0.00    -0.035 N 
ATOM      3  H31 UNL     1      -0.524  -2.069  -2.256  1.00  0.00     0.280 HD
ATOM      4  H32 UNL     1      -1.388  -2.933  -1.584  1.00  0.00     0.280 HD
HETATM    5  C5  UNL     1       0.443  -2.743  -0.433  1.00  0.00     0.271 C 
HETATM    6  C6  UNL     1       0.631  -1.239  -0.054  1.00  0.00     0.211 C 
ENDROOT
BRANCH   1   7
HETATM    7  C3  UNL     1      -1.630  -0.130  -0.684  1.00  0.00     0.104 C 
BRANCH   7   8
HETATM    8  C2  UNL     1      -2.159   0.816   0.335  1.00  0.00     0.183 C 
HETATM    9  C1  UNL     1      -1.201   1.515   1.205  1.00  0.00     0.040 C 
BRANCH   8  10
HETATM   10  N1  UNL     1      -2.847   1.875  -0.437  1.00  0.00    -0.075 N 
ATOM     11  H13 UNL     1      -3.274   2.594   0.147  1.00  0.00     0.274 HD
ATOM     12  H12 UNL     1      -2.210   2.491  -0.942  1.00  0.00     0.274 HD
ATOM     13  H11 UNL     1      -3.511   1.390  -1.040  1.00  0.00     0.274 HD
ENDBRANCH   8  10
ENDBRANCH   7   8
ENDBRANCH   1   7
BRANCH   1  14
HETATM   14  N2  UNL     1      -1.574  -2.081   0.823  1.00  0.00    -0.042 N 
ATOM     15  H23 UNL     1      -1.924  -1.502   1.586  1.00  0.00     0.277 HD
ATOM     16  H22 UNL     1      -2.463  -2.402   0.440  1.00  0.00     0.277 HD
ATOM     17  H21 UNL     1      -1.023  -2.863   1.178  1.00  0.00     0.277 HD
ENDBRANCH   1  14
BRANCH   6  18
HETATM   18  O1  UNL     1       1.444  -0.611  -0.934  1.00  0.00    -0.378 OA
BRANCH  18  19
HETATM   19  C7  UNL     1       2.637  -0.138  -0.620  1.00  0.00     0.195 C 
BRANCH  19  20
HETATM   20  C8  UNL     1       2.804   0.978   0.364  1.00  0.00     0.255 C 
BRANCH  20  21
HETATM   21  N4  UNL     1       2.178   2.210   0.004  1.00  0.00    -0.077 N 
ATOM     22  H43 UNL     1       2.495   2.507  -0.919  1.00  0.00     0.274 HD
ATOM     23  H42 UNL     1       1.188   2.057  -0.186  1.00  0.00     0.274 HD
ATOM     24  H41 UNL     1       2.292   2.970   0.674  1.00  0.00     0.274 HD
ENDBRANCH  20  21
ENDBRANCH  19  20
ENDBRANCH  18  19
ENDBRANCH   6  18
TORSDOF 8
