REMARK  8 active torsions:
REMARK  status: ('A' for Active; 'I' for Inactive)
REMARK    1  A    between atoms: C2_3  and  N2_4 
REMARK    2  A    between atoms: N2_4  and  C3_6 
REMARK    3  A    between atoms: C6_9  and  C7_10 
REMARK    4  A    between atoms: C7_10  and  C8_14 
REMARK    5  A    between atoms: C8_14  and  O1_15 
REMARK    6  A    between atoms: C11_19  and  C12_20 
REMARK    7  A    between atoms: C13_25  and  C14_26 
REMARK    8  A    between atoms: C20_36  and  N7_37 
ROOT
HETATM    1  C1  UNL     1       1.703   0.534  -2.382  1.00  0.00     0.177 C 
HETATM    2  N1  UNL     1       0.327   0.504  -1.933  1.00  0.00    -0.170 N 
HETATM    3  C2  UNL     1      -0.244   0.109  -0.778  1.00  0.00     0.155 A 
HETATM    4  C11 UNL     1      -1.649   0.252  -0.891  1.00  0.00     0.146 A 
HETATM    5  N6  UNL     1      -1.860   0.736  -2.128  1.00  0.00    -0.184 N 
ATOM      6  H6  UNL     1      -2.774   0.952  -2.525  1.00  0.00     0.184 HD
HETATM    7  C20 UNL     1      -0.709   0.889  -2.751  1.00  0.00     0.680 A 
ENDROOT
BRANCH   3   8
HETATM    8  N2  UNL     1       0.353  -0.316   0.411  1.00  0.00    -0.347 N 
ATOM      9  H2  UNL     1      -0.341  -0.705   1.049  1.00  0.00     0.167 HD
BRANCH   8  10
HETATM   10  C3  UNL     1       1.649  -0.360   0.982  1.00  0.00    -0.012 C 
HETATM   11  C4  UNL     1       2.309   0.950   1.175  1.00  0.00     0.053 C 
HETATM   12  C5  UNL     1       3.748   0.777   1.651  1.00  0.00     0.016 C 
HETATM   13  C6  UNL     1       4.426  -0.020   0.539  1.00  0.00     0.034 C 
HETATM   14  C9  UNL     1       3.925  -1.435   0.645  1.00  0.00     0.016 C 
HETATM   15  C10 UNL     1       2.452  -1.504   0.492  1.00  0.00     0.053 C 
BRANCH  13  16
HETATM   16  C7  UNL     1       5.899   0.063   0.654  1.00  0.00     0.008 C 
HETATM   17  N3  UNL     1       6.424   0.732   1.587  1.00  0.00    -0.404 N 
ATOM     18  H32 UNL     1       5.842   1.220   2.268  1.00  0.00     0.155 HD
ATOM     19  H31 UNL     1       7.439   0.789   1.666  1.00  0.00     0.155 HD
BRANCH  16  20
HETATM   20  C8  UNL     1       6.740  -0.642  -0.330  1.00  0.00     0.216 C 
BRANCH  20  21
HETATM   21  O1  UNL     1       8.091  -0.484  -0.111  1.00  0.00    -0.395 OA
ATOM     22  H1  UNL     1       8.633  -0.938  -0.745  1.00  0.00     0.209 HD
ENDBRANCH  20  21
ENDBRANCH  16  20
ENDBRANCH  13  16
ENDBRANCH   8  10
ENDBRANCH   3   8
BRANCH   4  23
HETATM   23  C12 UNL     1      -2.692  -0.035   0.091  1.00  0.00     0.196 A 
HETATM   24  N4  UNL     1      -2.675  -0.505   1.337  1.00  0.00    -0.276 N 
HETATM   25  N5  UNL     1      -3.895  -0.596   1.833  1.00  0.00    -0.277 N 
ATOM     26  H4  UNL     1      -1.828  -0.762   1.843  1.00  0.00     0.189 HD
HETATM   27  C13 UNL     1      -4.732  -0.159   0.845  1.00  0.00     0.174 A 
ATOM     28  H5  UNL     1      -4.159  -0.925   2.762  1.00  0.00     0.189 HD
HETATM   29  O2  UNL     1      -3.972   0.160  -0.161  1.00  0.00    -0.271 OA
BRANCH  27  30
HETATM   30  C14 UNL     1      -6.180  -0.091   0.967  1.00  0.00     0.017 A 
HETATM   31  C15 UNL     1      -6.924   0.366  -0.095  1.00  0.00     0.019 A 
HETATM   32  C16 UNL     1      -8.308   0.438   0.003  1.00  0.00     0.043 A 
HETATM   33  C17 UNL     1      -8.954   0.048   1.176  1.00  0.00     0.116 A 
HETATM   34  F1  UNL     1     -10.311   0.137   1.221  1.00  0.00    -0.206 F 
HETATM   35  C18 UNL     1      -8.206  -0.409   2.235  1.00  0.00     0.043 A 
HETATM   36  C19 UNL     1      -6.813  -0.477   2.125  1.00  0.00     0.019 A 
ENDBRANCH  27  30
ENDBRANCH   4  23
BRANCH   7  37
HETATM   37  N7  UNL     1      -0.584   1.333  -3.943  1.00  0.00    -0.234 N 
ATOM     38  H72 UNL     1       0.307   1.451  -4.425  1.00  0.00     0.174 HD
ATOM     39  H71 UNL     1      -1.353   1.619  -4.550  1.00  0.00     0.174 HD
ENDBRANCH   7  37
TORSDOF 8
