REMARK  13 active torsions:
REMARK  status: ('A' for Active; 'I' for Inactive)
REMARK    1  A    between atoms: C2_2  and  C4_4 
REMARK    2  A    between atoms: C4_4  and  C5_5 
REMARK    3  A    between atoms: C5_5  and  N1_6 
REMARK    4  A    between atoms: N1_6  and  C6_8 
REMARK    5  A    between atoms: C8_11  and  C9_12 
REMARK    6  A    between atoms: C9_12  and  C10_13 
REMARK    7  A    between atoms: C10_13  and  O1_14 
REMARK    8  A    between atoms: C10_13  and  C11_16 
REMARK    9  A    between atoms: C11_16  and  N2_17 
REMARK   10  A    between atoms: N2_17  and  O2_19 
REMARK   11  A    between atoms: N3_21  and  C13_22 
REMARK   12  A    between atoms: C14_23  and  C16_26 
REMARK   13  A    between atoms: C16_26  and  O3_27 
ROOT
HETATM    1  C13 UNL     1       0.165  -1.289  -1.129  1.00  0.00     0.119 C 
HETATM    2  C14 UNL     1      -0.023  -2.516  -1.484  1.00  0.00     0.061 C 
HETATM    3  C15 UNL     1      -0.419  -2.828  -2.812  1.00  0.00     0.098 C 
HETATM    4  N4  UNL     1      -0.738  -3.081  -3.909  1.00  0.00    -0.192 NA
ENDROOT
BRANCH   2   5
HETATM    5  C16 UNL     1       0.161  -3.640  -0.546  1.00  0.00     0.215 C 
BRANCH   5   6
HETATM    6  O3  UNL     1      -1.077  -4.307  -0.456  1.00  0.00    -0.396 OA
ATOM      7  H3  UNL     1      -0.959  -5.031   0.148  1.00  0.00     0.209 HD
ENDBRANCH   5   6
ENDBRANCH   2   5
BRANCH   1   8
HETATM    8  N3  UNL     1       0.571  -0.892   0.214  1.00  0.00    -0.305 N 
HETATM    9  C6  UNL     1      -0.367  -0.636   1.117  1.00  0.00     0.151 A 
HETATM   10  S1  UNL     1       0.502  -0.216   2.525  1.00  0.00    -0.064 SA
HETATM   11  C7  UNL     1       2.073  -0.390   1.881  1.00  0.00     0.079 A 
HETATM   12  C8  UNL     1       1.834  -0.770   0.591  1.00  0.00     0.027 A 
BRANCH   9  13
HETATM   13  N1  UNL     1      -1.681  -0.698   0.944  1.00  0.00    -0.370 N 
ATOM     14  H1  UNL     1      -2.049  -0.968   0.032  1.00  0.00     0.161 HD
BRANCH  13  15
HETATM   15  C5  UNL     1      -2.588  -0.398   1.994  1.00  0.00     0.122 C 
BRANCH  15  16
HETATM   16  C4  UNL     1      -3.951  -0.143   1.414  1.00  0.00     0.023 C 
BRANCH  16  17
HETATM   17  C2  UNL     1      -4.008   1.009   0.451  1.00  0.00    -0.021 C 
HETATM   18  C1  UNL     1      -5.452   1.169  -0.058  1.00  0.00     0.009 C 
HETATM   19  C3  UNL     1      -3.153   0.792  -0.796  1.00  0.00     0.009 C 
ENDBRANCH  16  17
ENDBRANCH  15  16
ENDBRANCH  13  15
ENDBRANCH   9  13
BRANCH  12  20
HETATM   20  C9  UNL     1       3.033  -1.030  -0.325  1.00  0.00     0.091 C 
BRANCH  20  21
HETATM   21  C10 UNL     1       3.439   0.236  -1.043  1.00  0.00     0.139 C 
BRANCH  21  22
HETATM   22  O1  UNL     1       4.529  -0.047  -1.861  1.00  0.00    -0.394 OA
ATOM     23  H1  UNL     1       4.784   0.749  -2.312  1.00  0.00     0.210 HD
ENDBRANCH  21  22
BRANCH  21  24
HETATM   24  C11 UNL     1       3.741   1.375  -0.134  1.00  0.00     0.151 C 
BRANCH  24  25
HETATM   25  N2  UNL     1       4.126   2.556  -0.911  1.00  0.00    -0.201 NA
HETATM   26  C12 UNL     1       4.406   3.630   0.056  1.00  0.00     0.143 C 
BRANCH  25  27
HETATM   27  O2  UNL     1       3.136   2.990  -1.689  1.00  0.00    -0.313 OA
ATOM     28  H2  UNL     1       3.386   3.756  -2.193  1.00  0.00     0.237 HD
ENDBRANCH  25  27
ENDBRANCH  24  25
ENDBRANCH  21  24
ENDBRANCH  20  21
ENDBRANCH  12  20
ENDBRANCH   1   8
TORSDOF 13
