REMARK  5 active torsions:
REMARK  status: ('A' for Active; 'I' for Inactive)
REMARK    1  A    between atoms: C5_5  and  N1_6 
REMARK    2  A    between atoms: N1_6  and  C6_8 
REMARK    3  A    between atoms: N3_11  and  C7_12 
REMARK    4  A    between atoms: C15_21  and  C16_22 
REMARK    5  A    between atoms: C17_25  and  O2_26 
ROOT
HETATM    1  C7  UNL     1       3.339   0.679   0.614  1.00  0.00     0.108 C 
HETATM    2  C8  UNL     1       4.407  -0.003   1.410  1.00  0.00     0.027 C 
HETATM    3  C9  UNL     1       5.520   0.976   1.709  1.00  0.00     0.004 C 
HETATM    4  C10 UNL     1       6.163   1.322   0.362  1.00  0.00     0.019 C 
HETATM    5  C11 UNL     1       5.133   2.118  -0.404  1.00  0.00     0.095 C 
HETATM    6  C12 UNL     1       4.955   3.386   0.331  1.00  0.00     0.064 C 
HETATM    7  N4  UNL     1       4.825   4.378   0.913  1.00  0.00    -0.197 NA
HETATM    8  C13 UNL     1       3.843   1.393  -0.598  1.00  0.00     0.046 C 
ENDROOT
BRANCH   1   9
HETATM    9  N3  UNL     1       2.353  -0.317   0.168  1.00  0.00    -0.296 N 
HETATM   10  N2  UNL     1       1.030  -0.167   0.145  1.00  0.00    -0.283 N 
HETATM   11  C6  UNL     1       0.443  -1.280  -0.322  1.00  0.00     0.133 A 
ATOM     12  H2  UNL     1       0.534   0.674   0.440  1.00  0.00     0.189 HD
HETATM   13  C15 UNL     1       1.479  -2.158  -0.599  1.00  0.00     0.091 A 
HETATM   14  C14 UNL     1       2.690  -1.530  -0.281  1.00  0.00     0.131 A 
BRANCH  11  15
HETATM   15  N1  UNL     1      -0.783  -1.522  -0.491  1.00  0.00    -0.367 N 
ATOM     16  H1  UNL     1      -1.005  -2.446  -0.863  1.00  0.00     0.161 HD
BRANCH  15  17
HETATM   17  C5  UNL     1      -1.895  -0.679  -0.232  1.00  0.00     0.113 C 
HETATM   18  C4  UNL     1      -2.198  -0.475   1.235  1.00  0.00     0.042 C 
HETATM   19  C2  UNL     1      -3.205   0.618   1.406  1.00  0.00     0.021 C 
HETATM   20  C1  UNL     1      -2.429   1.853   1.892  1.00  0.00     0.021 C 
HETATM   21  C3  UNL     1      -4.171   0.321   2.562  1.00  0.00     0.021 C 
HETATM   22  C21 UNL     1      -3.940   1.009   0.187  1.00  0.00     0.260 C 
HETATM   23  C18 UNL     1      -4.158  -0.032  -0.839  1.00  0.00     0.047 C 
HETATM   24  F1  UNL     1      -5.208   1.458   0.595  1.00  0.00    -0.205 F 
HETATM   25  F2  UNL     1      -3.353   2.146  -0.390  1.00  0.00    -0.205 F 
HETATM   26  C17 UNL     1      -3.176  -1.152  -0.877  1.00  0.00     0.154 C 
HETATM   27  C19 UNL     1      -4.135   0.656  -2.213  1.00  0.00     0.024 C 
HETATM   28  C20 UNL     1      -5.557  -0.657  -0.752  1.00  0.00     0.024 C 
BRANCH  26  29
HETATM   29  O2  UNL     1      -3.731  -2.234  -0.194  1.00  0.00    -0.393 OA
ATOM     30  H2  UNL     1      -4.537  -2.532  -0.600  1.00  0.00     0.210 HD
ENDBRANCH  26  29
ENDBRANCH  15  17
ENDBRANCH  11  15
BRANCH  13  31
HETATM   31  C16 UNL     1       1.408  -3.505  -1.125  1.00  0.00     0.270 C 
HETATM   32  N5  UNL     1       2.566  -4.274  -1.351  1.00  0.00    -0.057 NA
HETATM   33  O1  UNL     1       0.286  -3.994  -1.383  1.00  0.00    -0.271 OA
ENDBRANCH  13  31
ENDBRANCH   1   9
TORSDOF 5
