REMARK  5 active torsions:
REMARK  status: ('A' for Active; 'I' for Inactive)
REMARK       I    between atoms: C1_4  and  N3_6 
REMARK    1  A    between atoms: C3_11  and  N6_12 
REMARK    2  A    between atoms: N7_14  and  C4_16 
REMARK    3  A    between atoms: C5_17  and  S1_18 
REMARK    4  A    between atoms: C6_25  and  O5_26 
REMARK    5  A    between atoms: C7_28  and  N9_29 
ROOT
HETATM    1  N1  UNL     1      -4.379  -1.357  -1.745  1.00  0.00    -0.372 N 
ATOM      2  H11 UNL     1      -3.637  -1.998  -2.024  1.00  0.00     0.158 HD
ATOM      3  H12 UNL     1      -5.296  -1.423  -2.186  1.00  0.00     0.158 HD
HETATM    4  C1  UNL     1      -4.111  -0.479  -0.831  1.00  0.00     0.210 C 
HETATM    5  N2  UNL     1      -5.140   0.410  -0.444  1.00  0.00    -0.062 NA
HETATM    6  N3  UNL     1      -2.834  -0.387  -0.217  1.00  0.00    -0.188 N 
HETATM    7  N4  UNL     1      -1.955   0.547  -0.513  1.00  0.00    -0.274 N 
ATOM      8  H4  UNL     1      -2.203   1.241  -1.218  1.00  0.00     0.189 HD
HETATM    9  C2  UNL     1      -0.739   0.632   0.072  1.00  0.00     0.162 A 
HETATM   10  N5  UNL     1       0.148   1.675  -0.301  1.00  0.00    -0.079 NA
HETATM   11  C3  UNL     1      -0.317  -0.259   1.035  1.00  0.00     0.122 A 
HETATM   12  C7  UNL     1      -1.252  -1.257   1.354  1.00  0.00     0.128 A 
HETATM   13  C8  UNL     1      -2.471  -1.283   0.718  1.00  0.00     0.297 A 
HETATM   14  O6  UNL     1      -3.320  -2.190   1.007  1.00  0.00    -0.264 OA
ENDROOT
BRANCH  11  15
HETATM   15  N6  UNL     1       0.938  -0.208   1.677  1.00  0.00    -0.295 N 
HETATM   16  N7  UNL     1       2.073  -0.320   1.263  1.00  0.00    -0.293 N 
ATOM     17  H7  UNL     1       2.768  -0.232   2.004  1.00  0.00     0.187 HD
ATOM     18  H6  UNL     1       0.880  -0.046   2.682  1.00  0.00     0.187 HD
BRANCH  16  19
HETATM   19  C4  UNL     1       2.649  -0.539   0.023  1.00  0.00     0.151 A 
HETATM   20  C5  UNL     1       3.628   0.242  -0.615  1.00  0.00     0.204 A 
HETATM   21  N8  UNL     1       3.879  -0.346  -1.772  1.00  0.00    -0.243 N 
HETATM   22  O4  UNL     1       3.151  -1.411  -1.906  1.00  0.00    -0.209 OA
ATOM     23  H8  UNL     1       4.551  -0.010  -2.462  1.00  0.00     0.196 HD
HETATM   24  C6  UNL     1       2.389  -1.572  -0.844  1.00  0.00     0.236 A 
BRANCH  20  25
HETATM   25  S1  UNL     1       4.337   1.691   0.043  1.00  0.00     0.159 S 
HETATM   26  O1  UNL     1       3.389   2.408   0.927  1.00  0.00    -0.590 OA
HETATM   27  O2  UNL     1       4.773   2.633  -1.047  1.00  0.00    -0.590 OA
HETATM   28  O3  UNL     1       5.716   1.255   0.935  1.00  0.00    -0.590 OA
ENDBRANCH  20  25
BRANCH  24  29
HETATM   29  O5  UNL     1       1.471  -2.599  -0.612  1.00  0.00    -0.338 OA
ATOM     30  H5  UNL     1       1.291  -3.314  -1.212  1.00  0.00     0.220 HD
ENDBRANCH  24  29
ENDBRANCH  16  19
ENDBRANCH  11  15
BRANCH  12  31
HETATM   31  N9  UNL     1      -0.916  -2.117   2.244  1.00  0.00    -0.393 N 
ATOM     32  H92 UNL     1      -0.012  -2.098   2.716  1.00  0.00     0.156 HD
ATOM     33  H91 UNL     1      -1.595  -2.842   2.476  1.00  0.00     0.156 HD
ENDBRANCH  12  31
TORSDOF 5
