REMARK  14 active torsions:
REMARK  status: ('A' for Active; 'I' for Inactive)
REMARK    1  A    between atoms: C2_2  and  C3_3 
REMARK    2  A    between atoms: N2_10  and  C8_11 
REMARK    3  A    between atoms: C8_11  and  C9_12 
REMARK    4  A    between atoms: C12_15  and  C13_16 
REMARK    5  A    between atoms: C14_17  and  C15_18 
REMARK    6  A    between atoms: C18_21  and  S1_22 
REMARK    7  A    between atoms: S1_22  and  N3_25 
REMARK    8  A    between atoms: N3_25  and  C19_27 
REMARK    9  A    between atoms: C21_29  and  C22_30 
REMARK       I    between atoms: C22_30  and  N4_32 
REMARK   10  A    between atoms: N4_32  and  C23_34 
REMARK   11  A    between atoms: C23_34  and  C24_35 
REMARK   12  A    between atoms: N5_43  and  C32_44 
REMARK   13  A    between atoms: C32_44  and  C33_45 
REMARK   14  A    between atoms: N6_46  and  N7_48 
ROOT
HETATM    1  S1  UNL     1      -2.658   3.142   1.520  1.00  0.00     0.264 S 
HETATM    2  O1  UNL     1      -3.422   2.996   2.823  1.00  0.00    -0.200 OA
HETATM    3  O2  UNL     1      -1.984   4.481   1.583  1.00  0.00    -0.200 OA
ENDROOT
BRANCH   1   4
HETATM    4  C18 UNL     1      -1.402   1.928   1.508  1.00  0.00     0.080 A 
HETATM    5  C17 UNL     1      -1.431   0.748   2.146  1.00  0.00     0.027 A 
HETATM    6  C16 UNL     1      -0.338  -0.137   2.058  1.00  0.00     0.022 A 
HETATM    7  C15 UNL     1       0.779   0.146   1.338  1.00  0.00     0.018 A 
HETATM    8  C37 UNL     1       0.813   1.378   0.668  1.00  0.00     0.022 A 
HETATM    9  C36 UNL     1      -0.247   2.232   0.758  1.00  0.00     0.027 A 
BRANCH   7  10
HETATM   10  C14 UNL     1       1.917  -0.697   1.221  1.00  0.00    -0.061 C 
HETATM   11  C13 UNL     1       2.906  -1.351   1.092  1.00  0.00    -0.061 C 
BRANCH  11  12
HETATM   12  C12 UNL     1       4.138  -2.071   0.907  1.00  0.00     0.018 A 
HETATM   13  C11 UNL     1       4.652  -3.001   1.773  1.00  0.00     0.021 A 
HETATM   14  C10 UNL     1       5.872  -3.609   1.556  1.00  0.00     0.010 A 
HETATM   15  C9  UNL     1       6.616  -3.295   0.453  1.00  0.00    -0.040 A 
HETATM   16  C39 UNL     1       6.134  -2.368  -0.443  1.00  0.00     0.010 A 
HETATM   17  C38 UNL     1       4.925  -1.774  -0.216  1.00  0.00     0.021 A 
BRANCH  15  18
HETATM   18  C8  UNL     1       7.979  -3.848   0.165  1.00  0.00     0.166 C 
BRANCH  18  19
HETATM   19  N2  UNL     1       8.977  -2.969   0.775  1.00  0.00    -0.361 N 
HETATM   20  C7  UNL     1       9.439  -3.209   1.997  1.00  0.00     0.093 A 
HETATM   21  C6  UNL     1      10.335  -2.360   2.642  1.00  0.00     0.047 A 
HETATM   22  C5  UNL     1      10.731  -1.231   1.945  1.00  0.00     0.045 A 
HETATM   23  N1  UNL     1      11.547  -0.229   2.286  1.00  0.00    -0.365 N 
HETATM   24  C41 UNL     1      10.242  -0.992   0.674  1.00  0.00     0.014 A 
HETATM   25  C4  UNL     1      11.606   0.653   1.280  1.00  0.00     0.096 A 
ATOM     26  H1  UNL     1      12.046  -0.149   3.172  1.00  0.00     0.165 HD
HETATM   27  C3  UNL     1      10.790   0.195   0.248  1.00  0.00    -0.029 A 
HETATM   28  C40 UNL     1       9.348  -1.879   0.075  1.00  0.00     0.105 A 
BRANCH  27  29
HETATM   29  C2  UNL     1      10.580   0.889  -1.041  1.00  0.00     0.036 C 
HETATM   30  C1  UNL     1      11.362   0.240  -2.167  1.00  0.00     0.010 C 
ENDBRANCH  27  29
ENDBRANCH  18  19
ENDBRANCH  15  18
ENDBRANCH  11  12
ENDBRANCH   7  10
ENDBRANCH   1   4
BRANCH   1  31
HETATM   31  N3  UNL     1      -3.693   2.999   0.174  1.00  0.00    -0.266 N 
ATOM     32  H3  UNL     1      -3.683   3.781  -0.481  1.00  0.00     0.180 HD
BRANCH  31  33
HETATM   33  C19 UNL     1      -4.559   1.940  -0.148  1.00  0.00     0.118 A 
HETATM   34  C20 UNL     1      -4.885   0.902   0.713  1.00  0.00     0.066 A 
HETATM   35  C21 UNL     1      -5.744  -0.116   0.381  1.00  0.00     0.036 A 
HETATM   36  C30 UNL     1      -6.313  -0.105  -0.883  1.00  0.00     0.034 A 
HETATM   37  C31 UNL     1      -5.992   0.917  -1.738  1.00  0.00     0.094 A 
HETATM   38  N5  UNL     1      -5.128   1.912  -1.363  1.00  0.00    -0.338 N 
BRANCH  35  39
HETATM   39  C22 UNL     1      -6.113  -1.207   1.303  1.00  0.00     0.252 C 
HETATM   40  O3  UNL     1      -5.306  -1.853   1.994  1.00  0.00    -0.268 OA
HETATM   41  N4  UNL     1      -7.516  -1.516   1.379  1.00  0.00    -0.353 N 
ATOM     42  H4  UNL     1      -8.150  -0.969   0.796  1.00  0.00     0.163 HD
BRANCH  41  43
HETATM   43  C23 UNL     1      -8.091  -2.528   2.206  1.00  0.00     0.161 C 
BRANCH  43  44
HETATM   44  C24 UNL     1      -8.001  -3.899   1.669  1.00  0.00    -0.041 A 
HETATM   45  C25 UNL     1      -8.276  -4.981   2.506  1.00  0.00     0.009 A 
HETATM   46  C26 UNL     1      -8.238  -6.262   2.037  1.00  0.00     0.001 A 
HETATM   47  C27 UNL     1      -7.922  -6.516   0.715  1.00  0.00     0.000 A 
HETATM   48  C28 UNL     1      -7.645  -5.482  -0.138  1.00  0.00     0.001 A 
HETATM   49  C29 UNL     1      -7.689  -4.172   0.362  1.00  0.00     0.009 A 
ENDBRANCH  43  44
ENDBRANCH  41  43
ENDBRANCH  35  39
BRANCH  38  50
HETATM   50  C32 UNL     1      -4.792   2.870  -2.364  1.00  0.00     0.175 C 
BRANCH  50  51
HETATM   51  C33 UNL     1      -5.560   4.125  -2.377  1.00  0.00     0.095 C 
HETATM   52  N6  UNL     1      -5.069   5.172  -2.908  1.00  0.00    -0.333 N 
ATOM     53  H6  UNL     1      -4.135   5.073  -3.306  1.00  0.00     0.179 HD
BRANCH  52  54
HETATM   54  N7  UNL     1      -5.630   6.405  -3.013  1.00  0.00    -0.240 NA
HETATM   55  C34 UNL     1      -6.426   6.526  -4.233  1.00  0.00     0.135 C 
HETATM   56  C35 UNL     1      -6.376   6.867  -1.872  1.00  0.00     0.135 C 
ENDBRANCH  52  54
ENDBRANCH  50  51
ENDBRANCH  38  50
ENDBRANCH  31  33
ENDBRANCH   1  31
TORSDOF 14
