REMARK  12 active torsions:
REMARK  status: ('A' for Active; 'I' for Inactive)
REMARK    1  A    between atoms: O1_2  and  C2_3 
REMARK    2  A    between atoms: C2_3  and  C3_5 
REMARK    3  A    between atoms: C3_5  and  N1_6 
REMARK    4  A    between atoms: C3_5  and  C13_37 
REMARK    5  A    between atoms: N1_6  and  C4_8 
REMARK    6  A    between atoms: C4_8  and  C5_9 
REMARK    7  A    between atoms: C4_8  and  C11_27 
REMARK    8  A    between atoms: C8_14  and  N4_15 
REMARK    9  A    between atoms: C9_20  and  N6_21 
REMARK   10  A    between atoms: N9_33  and  N10_34 
REMARK   11  A    between atoms: C13_37  and  O4_38 
REMARK   12  A    between atoms: C13_37  and  O5_40 
ROOT
HETATM    1  C4  UNL     1       0.533   1.381  -0.041  1.00  0.00     0.188 C 
ENDROOT
BRANCH   1   2
HETATM    2  N1  UNL     1       1.421   0.951  -1.081  1.00  0.00    -0.390 N 
ATOM      3  H1  UNL     1       1.771   1.596  -1.789  1.00  0.00     0.155 HD
BRANCH   2   4
HETATM    4  C3  UNL     1       1.785  -0.411  -1.073  1.00  0.00     0.233 C 
BRANCH   4   5
HETATM    5  C2  UNL     1       2.539  -0.894   0.076  1.00  0.00     0.285 C 
HETATM    6  O2  UNL     1       2.901  -0.186   1.047  1.00  0.00    -0.263 OA
BRANCH   5   7
HETATM    7  O1  UNL     1       2.900  -2.235   0.133  1.00  0.00    -0.325 OA
HETATM    8  C1  UNL     1       3.643  -2.755   1.247  1.00  0.00     0.213 C 
ENDBRANCH   5   7
ENDBRANCH   4   5
BRANCH   4   9
HETATM    9  C13 UNL     1       2.522  -0.756  -2.353  1.00  0.00     0.285 C 
BRANCH   9  10
HETATM   10  O4  UNL     1       2.866  -2.106  -2.318  1.00  0.00    -0.369 OA
ATOM     11  H4  UNL     1       3.328  -2.322  -3.120  1.00  0.00     0.212 HD
ENDBRANCH   9  10
BRANCH   9  12
HETATM   12  O5  UNL     1       3.672  -0.004  -2.532  1.00  0.00    -0.369 OA
ATOM     13  H5  UNL     1       4.134  -0.220  -3.334  1.00  0.00     0.212 HD
ENDBRANCH   9  12
ENDBRANCH   4   9
ENDBRANCH   2   4
ENDBRANCH   1   2
BRANCH   1  14
HETATM   14  C5  UNL     1      -0.734   0.596  -0.204  1.00  0.00     0.036 A 
HETATM   15  C6  UNL     1      -1.650   0.687  -1.259  1.00  0.00     0.124 A 
HETATM   16  N2  UNL     1      -2.656  -0.189  -1.027  1.00  0.00    -0.284 N 
HETATM   17  C7  UNL     1      -3.813  -0.410  -1.875  1.00  0.00     0.178 C 
HETATM   18  N3  UNL     1      -2.436  -0.829   0.108  1.00  0.00    -0.067 N 
HETATM   19  C8  UNL     1      -3.152  -1.784   0.739  1.00  0.00     0.713 A 
HETATM   20  C10 UNL     1      -1.274  -0.367   0.623  1.00  0.00     0.171 A 
HETATM   21  N5  UNL     1      -2.683  -2.268   1.896  1.00  0.00    -0.021 N 
HETATM   22  C9  UNL     1      -1.529  -1.836   2.446  1.00  0.00     0.692 A 
ATOM     23  H5  UNL     1      -3.218  -2.990   2.379  1.00  0.00     0.203 HD
HETATM   24  N7  UNL     1      -0.843  -0.883   1.789  1.00  0.00    -0.173 N 
ATOM     25  H7  UNL     1       0.031  -0.541   2.187  1.00  0.00     0.186 HD
BRANCH  19  26
HETATM   26  N4  UNL     1      -4.264  -2.235   0.256  1.00  0.00    -0.232 N 
ATOM     27  H42 UNL     1      -4.621  -1.866  -0.625  1.00  0.00     0.174 HD
ATOM     28  H41 UNL     1      -4.805  -2.956   0.733  1.00  0.00     0.174 HD
ENDBRANCH  19  26
BRANCH  22  29
HETATM   29  N6  UNL     1      -1.063  -2.296   3.561  1.00  0.00    -0.234 N 
ATOM     30  H62 UNL     1      -1.583  -3.018   4.059  1.00  0.00     0.174 HD
ATOM     31  H61 UNL     1      -0.191  -1.969   3.977  1.00  0.00     0.174 HD
ENDBRANCH  22  29
ENDBRANCH   1  14
BRANCH   1  32
HETATM   32  C11 UNL     1       0.222   2.816  -0.271  1.00  0.00     0.153 A 
HETATM   33  N8  UNL     1      -0.102   3.380  -1.442  1.00  0.00    -0.242 N 
HETATM   34  O3  UNL     1      -0.309   4.647  -1.293  1.00  0.00    -0.204 OA
ATOM     35  H8  UNL     1      -0.175   2.879  -2.328  1.00  0.00     0.196 HD
HETATM   36  C12 UNL     1      -0.132   4.960  -0.035  1.00  0.00     0.261 A 
HETATM   37  S1  UNL     1      -0.279   6.442   0.652  1.00  0.00    -0.029 SA
HETATM   38  N9  UNL     1       0.201   3.826   0.622  1.00  0.00    -0.212 N 
BRANCH  38  39
HETATM   39  N10 UNL     1       0.479   3.684   1.962  1.00  0.00    -0.334 N 
ATOM     40 2H10 UNL     1       0.730   2.829   2.458  1.00  0.00     0.177 HD
ATOM     41 1H10 UNL     1       0.463   4.448   2.638  1.00  0.00     0.177 HD
ENDBRANCH  38  39
ENDBRANCH   1  32
TORSDOF 12
