REMARK  3 active torsions:
REMARK  status: ('A' for Active; 'I' for Inactive)
REMARK    1  A    between atoms: C2_3  and  C3_4 
REMARK    2  A    between atoms: C3_4  and  N2_5 
REMARK    3  A    between atoms: N2_5  and  N3_7 
ROOT
HETATM    1  N1  UNL     1      -1.655   0.730  -2.241  1.00  0.00    -0.194 NA
HETATM    2  C1  UNL     1      -1.323   0.462  -1.158  1.00  0.00     0.102 C 
HETATM    3  C2  UNL     1      -0.902   0.112   0.214  1.00  0.00     0.187 A 
HETATM    4  C4  UNL     1      -1.427  -1.138   0.801  1.00  0.00     0.225 A 
HETATM    5  O1  UNL     1      -1.850   0.148   1.215  1.00  0.00    -0.357 OA
ENDROOT
BRANCH   3   6
HETATM    6  C3  UNL     1       0.534   0.402   0.484  1.00  0.00     0.196 C 
BRANCH   6   7
HETATM    7  N2  UNL     1       1.246   0.270  -0.767  1.00  0.00    -0.319 N 
ATOM      8  H2  UNL     1       0.720   0.013  -1.602  1.00  0.00     0.181 HD
BRANCH   7   9
HETATM    9  N3  UNL     1       2.622   0.479  -0.884  1.00  0.00    -0.254 N 
HETATM   10  N4  UNL     1       3.377   0.696   0.091  1.00  0.00    -0.331 N 
ATOM     11  H42 UNL     1       2.947   0.718   1.016  1.00  0.00     0.178 HD
ATOM     12  H41 UNL     1       4.382   0.849   0.006  1.00  0.00     0.178 HD
ATOM     13  H3  UNL     1       3.035   0.453  -1.816  1.00  0.00     0.207 HD
ENDBRANCH   7   9
ENDBRANCH   6   7
ENDBRANCH   3   6
TORSDOF 3
