REMARK  12 active torsions:
REMARK  status: ('A' for Active; 'I' for Inactive)
REMARK    1  A    between atoms: N1_1  and  C1_4 
REMARK    2  A    between atoms: C2_7  and  N3_8 
REMARK    3  A    between atoms: N3_8  and  C3_10 
REMARK    4  A    between atoms: C3_10  and  C4_11 
REMARK    5  A    between atoms: C4_11  and  C5_12 
REMARK    6  A    between atoms: C5_12  and  N4_13 
REMARK    7  A    between atoms: C6_19  and  N6_20 
REMARK    8  A    between atoms: N6_20  and  C7_22 
REMARK    9  A    between atoms: C7_22  and  C8_23 
REMARK   10  A    between atoms: C8_23  and  N7_24 
REMARK   11  A    between atoms: C8_23  and  C9_28 
REMARK   12  A    between atoms: C9_28  and  O1_29 
ROOT
HETATM    1  C1  UNL     1       0.048   1.017  -2.393  1.00  0.00     0.705 A 
HETATM    2  N2  UNL     1      -1.161   0.789  -1.858  1.00  0.00    -0.022 N 
ATOM      3  H2  UNL     1      -1.993   1.171  -2.307  1.00  0.00     0.203 HD
HETATM    4  C2  UNL     1      -1.283   0.062  -0.738  1.00  0.00     0.707 A 
HETATM    5  N5  UNL     1      -0.172  -0.447  -0.142  1.00  0.00    -0.022 N 
ATOM      6  H5  UNL     1      -0.268  -1.000   0.710  1.00  0.00     0.203 HD
HETATM    7  C6  UNL     1       1.053  -0.233  -0.657  1.00  0.00     0.707 A 
HETATM    8  N8  UNL     1       1.149   0.496  -1.776  1.00  0.00    -0.022 N 
ATOM      9  H8  UNL     1       2.070   0.667  -2.179  1.00  0.00     0.203 HD
ENDROOT
BRANCH   7  10
HETATM   10  N6  UNL     1       2.062  -0.745  -0.040  1.00  0.00    -0.223 N 
ATOM     11  H6  UNL     1       1.874  -1.284   0.805  1.00  0.00     0.177 HD
BRANCH  10  12
HETATM   12  C7  UNL     1       3.423  -0.615  -0.450  1.00  0.00     0.173 C 
BRANCH  12  13
HETATM   13  C8  UNL     1       4.354  -0.890   0.712  1.00  0.00     0.225 C 
BRANCH  13  14
HETATM   14  N7  UNL     1       5.707  -0.736   0.204  1.00  0.00    -0.071 N 
ATOM     15  H73 UNL     1       5.900  -1.315  -0.613  1.00  0.00     0.274 HD
ATOM     16  H72 UNL     1       5.871   0.168  -0.239  1.00  0.00     0.274 HD
ATOM     17  H71 UNL     1       6.334  -0.921   0.987  1.00  0.00     0.274 HD
ENDBRANCH  13  14
BRANCH  13  18
HETATM   18  C9  UNL     1       4.061   0.109   1.814  1.00  0.00     0.198 C 
BRANCH  18  19
HETATM   19  O1  UNL     1       2.754  -0.093   2.254  1.00  0.00    -0.399 OA
ATOM     20  H1  UNL     1       2.570   0.533   2.945  1.00  0.00     0.209 HD
ENDBRANCH  18  19
ENDBRANCH  13  18
ENDBRANCH  12  13
ENDBRANCH  10  12
ENDBRANCH   7  10
BRANCH   4  21
HETATM   21  N3  UNL     1      -2.461  -0.138  -0.251  1.00  0.00    -0.225 N 
ATOM     22  H3  UNL     1      -2.561  -0.690   0.601  1.00  0.00     0.177 HD
BRANCH  21  23
HETATM   23  C3  UNL     1      -3.638   0.400  -0.882  1.00  0.00     0.139 C 
BRANCH  23  24
HETATM   24  C4  UNL     1      -4.815   0.196   0.051  1.00  0.00     0.047 C 
BRANCH  24  25
HETATM   25  C5  UNL     1      -4.506   0.930   1.341  1.00  0.00     0.231 C 
BRANCH  25  26
HETATM   26  N4  UNL     1      -5.570   0.797   2.300  1.00  0.00    -0.079 N 
ATOM     27  H43 UNL     1      -6.463   1.096   1.908  1.00  0.00     0.274 HD
ATOM     28  H42 UNL     1      -5.792  -0.183   2.475  1.00  0.00     0.274 HD
ATOM     29  H41 UNL     1      -5.362   1.291   3.168  1.00  0.00     0.274 HD
ENDBRANCH  25  26
ENDBRANCH  24  25
ENDBRANCH  23  24
ENDBRANCH  21  23
ENDBRANCH   4  21
BRANCH   1  30
HETATM   30  N1  UNL     1       0.167   1.722  -3.478  1.00  0.00    -0.234 N 
ATOM     31  H12 UNL     1      -0.655   2.111  -3.939  1.00  0.00     0.174 HD
ATOM     32  H11 UNL     1       1.086   1.895  -3.885  1.00  0.00     0.174 HD
ENDBRANCH   1  30
TORSDOF 12
