REMARK  4 active torsions:
REMARK  status: ('A' for Active; 'I' for Inactive)
REMARK    1  A    between atoms: N1_1  and  N2_4 
REMARK    2  A    between atoms: N2_4  and  C1_5 
REMARK    3  A    between atoms: C1_5  and  C2_6 
REMARK    4  A    between atoms: C5_9  and  C6_10 
ROOT
HETATM    1  C2  UNL     1      -0.893  -0.440  -0.376  1.00  0.00     0.052 C 
HETATM    2  C3  UNL     1      -0.793  -1.462   0.746  1.00  0.00     0.013 C 
HETATM    3  C4  UNL     1       0.594  -0.992   1.043  1.00  0.00     0.015 C 
HETATM    4  C5  UNL     1       0.320   0.230   0.181  1.00  0.00     0.085 C 
ENDROOT
BRANCH   1   5
HETATM    5  C1  UNL     1      -2.157   0.343  -0.303  1.00  0.00     0.186 C 
BRANCH   5   6
HETATM    6  N2  UNL     1      -2.256   1.459  -0.858  1.00  0.00    -0.349 NA
BRANCH   6   7
HETATM    7  N1  UNL     1      -2.496   2.518  -1.443  1.00  0.00    -0.281 N 
ATOM      8  H12 UNL     1      -3.411   2.101  -1.616  1.00  0.00     0.191 HD
ATOM      9  H11 UNL     1      -2.577   3.428  -1.896  1.00  0.00     0.191 HD
ENDBRANCH   6   7
ENDBRANCH   5   6
ENDBRANCH   1   5
BRANCH   4  10
HETATM   10  C6  UNL     1       1.432   0.442  -0.769  1.00  0.00     0.236 C 
HETATM   11  N3  UNL     1       2.623   1.069  -0.334  1.00  0.00    -0.062 NA
HETATM   12  O1  UNL     1       1.295   0.056  -1.951  1.00  0.00    -0.276 OA
ENDBRANCH   4  10
TORSDOF 4
