REMARK  7 active torsions:
REMARK  status: ('A' for Active; 'I' for Inactive)
REMARK    1  A    between atoms: N1_2  and  N2_4 
REMARK    2  A    between atoms: N2_4  and  C1_6 
REMARK    3  A    between atoms: C2_12  and  S1_13 
REMARK    4  A    between atoms: S1_13  and  N5_16 
REMARK    5  A    between atoms: N5_16  and  C3_18 
REMARK    6  A    between atoms: C4_22  and  N7_23 
REMARK    7  A    between atoms: N7_23  and  C5_25 
ROOT
HETATM    1  C3  UNL     1       0.912   1.179  -1.197  1.00  0.00     0.157 A 
HETATM    2  N6  UNL     1       0.856   0.543  -2.364  1.00  0.00    -0.308 N 
ATOM      3  H6  UNL     1       1.585   0.330  -3.045  1.00  0.00     0.176 HD
HETATM    4  S2  UNL     1      -0.766   0.204  -2.366  1.00  0.00     0.009 SA
HETATM    5  C4  UNL     1      -0.442   1.035  -0.939  1.00  0.00     0.134 A 
ENDROOT
BRANCH   1   6
HETATM    6  N5  UNL     1       1.973   1.786  -0.468  1.00  0.00    -0.262 N 
ATOM      7  H5  UNL     1       1.768   2.236   0.424  1.00  0.00     0.180 HD
BRANCH   6   8
HETATM    8  S1  UNL     1       3.583   1.782  -1.046  1.00  0.00     0.285 S 
HETATM    9  O4  UNL     1       3.602   2.503  -2.388  1.00  0.00    -0.198 OA
HETATM   10  O5  UNL     1       4.500   2.571  -0.155  1.00  0.00    -0.198 OA
BRANCH   8  11
HETATM   11  C2  UNL     1       4.253   0.174  -1.224  1.00  0.00     0.219 A 
HETATM   12  C1  UNL     1       4.912  -0.474  -0.198  1.00  0.00     0.189 A 
HETATM   13  N3  UNL     1       5.284  -1.648  -0.685  1.00  0.00    -0.221 N 
HETATM   14  O3  UNL     1       4.888  -1.724  -1.915  1.00  0.00    -0.154 OA
ATOM     15  H3  UNL     1       5.796  -2.370  -0.177  1.00  0.00     0.198 HD
HETATM   16  N4  UNL     1       4.266  -0.652  -2.277  1.00  0.00    -0.225 N 
ATOM     17  H4  UNL     1       3.860  -0.469  -3.195  1.00  0.00     0.198 HD
BRANCH  12  18
HETATM   18  N2  UNL     1       5.131  -0.032   1.009  1.00  0.00    -0.221 N 
ATOM     19  H2  UNL     1       4.791   0.896   1.263  1.00  0.00     0.195 HD
BRANCH  18  20
HETATM   20  N1  UNL     1       5.811  -0.781   1.960  1.00  0.00    -0.037 N 
HETATM   21  O1  UNL     1       6.860  -0.326   2.456  1.00  0.00    -0.516 OA
HETATM   22  O2  UNL     1       5.390  -2.014   2.396  1.00  0.00    -0.516 OA
ENDBRANCH  18  20
ENDBRANCH  12  18
ENDBRANCH   8  11
ENDBRANCH   6   8
ENDBRANCH   1   6
BRANCH   5  23
HETATM   23  N7  UNL     1      -1.277   1.445   0.152  1.00  0.00    -0.354 N 
ATOM     24  H7  UNL     1      -0.873   1.951   0.940  1.00  0.00     0.162 HD
BRANCH  23  25
HETATM   25  C5  UNL     1      -2.692   1.142   0.138  1.00  0.00     0.237 C 
HETATM   26  C6  UNL     1      -3.382   1.638   1.332  1.00  0.00     0.129 C 
HETATM   27  N8  UNL     1      -4.380   0.926   1.771  1.00  0.00    -0.296 N 
HETATM   28  N9  UNL     1      -4.793  -0.241   1.168  1.00  0.00    -0.203 N 
ATOM     29  H8  UNL     1      -4.879   1.248   2.600  1.00  0.00     0.187 HD
HETATM   30  C7  UNL     1      -5.894  -1.131   1.385  1.00  0.00     0.298 C 
HETATM   31  N12 UNL     1      -4.084  -0.779   0.113  1.00  0.00    -0.012 NA
HETATM   32  N10 UNL     1      -5.420  -2.359   0.762  1.00  0.00    -0.105 NA
HETATM   33  N11 UNL     1      -4.078  -2.136   0.433  1.00  0.00    -0.013 NA
HETATM   34  N13 UNL     1      -2.863  -0.237  -0.134  1.00  0.00    -0.292 N 
ATOM     35  H13 UNL     1      -2.098  -0.802  -0.502  1.00  0.00     0.180 HD
ENDBRANCH  23  25
ENDBRANCH   5  23
TORSDOF 7
