REMARK  12 active torsions:
REMARK  status: ('A' for Active; 'I' for Inactive)
REMARK    1  A    between atoms: C2_2  and  C3_3 
REMARK    2  A    between atoms: C2_2  and  N10_33 
REMARK    3  A    between atoms: C3_3  and  O1_4 
REMARK    4  A    between atoms: C3_3  and  C4_6 
REMARK    5  A    between atoms: C4_6  and  N1_7 
REMARK    6  A    between atoms: C5_12  and  C6_13 
REMARK    7  A    between atoms: C10_18  and  N5_19 
REMARK    8  A    between atoms: C11_24  and  N7_25 
REMARK    9  A    between atoms: C13_36  and  C14_37 
REMARK   10  A    between atoms: C14_37  and  N12_38 
REMARK   11  A    between atoms: N13_42  and  N14_43 
REMARK   12  A    between atoms: C15_46  and  N15_47 
ROOT
HETATM    1  N1  UNL     1       0.323  -0.706  -0.773  1.00  0.00    -0.215 N 
HETATM    2  N2  UNL     1       0.147  -0.834   0.528  1.00  0.00    -0.224 N 
ATOM      3  H2  UNL     1       0.891  -0.957   1.215  1.00  0.00     0.210 HD
HETATM    4  N3  UNL     1      -1.147  -0.778   0.803  1.00  0.00    -0.268 N 
ATOM      5  H3  UNL     1      -1.561  -0.851   1.732  1.00  0.00     0.190 HD
HETATM    6  C5  UNL     1      -1.822  -0.610  -0.341  1.00  0.00     0.151 A 
HETATM    7  N9  UNL     1      -0.861  -0.571  -1.297  1.00  0.00    -0.266 N 
ATOM      8  H9  UNL     1      -1.042  -0.452  -2.294  1.00  0.00     0.190 HD
ENDROOT
BRANCH   1   9
HETATM    9  C4  UNL     1       1.589  -0.710  -1.514  1.00  0.00     0.205 C 
BRANCH   9  10
HETATM   10  C3  UNL     1       2.147   0.677  -1.638  1.00  0.00     0.164 C 
BRANCH  10  11
HETATM   11  C2  UNL     1       2.422   1.309  -0.290  1.00  0.00     0.153 C 
HETATM   12  C1  UNL     1       2.916   2.732  -0.585  1.00  0.00     0.038 C 
BRANCH  11  13
HETATM   13  N10 UNL     1       3.524   0.643   0.381  1.00  0.00    -0.114 N 
HETATM   14  N11 UNL     1       4.610   0.148  -0.192  1.00  0.00    -0.269 N 
HETATM   15  C13 UNL     1       5.416  -0.397   0.739  1.00  0.00     0.162 A 
ATOM     16  H11 UNL     1       4.807   0.175  -1.192  1.00  0.00     0.189 HD
HETATM   17  N13 UNL     1       4.804  -0.235   1.944  1.00  0.00    -0.076 N 
HETATM   18  C15 UNL     1       3.640   0.408   1.693  1.00  0.00     0.715 A 
BRANCH  15  19
HETATM   19  C14 UNL     1       6.737  -1.067   0.562  1.00  0.00     0.309 C 
BRANCH  19  20
HETATM   20  N12 UNL     1       7.812  -0.103   0.660  1.00  0.00    -0.073 N 
ATOM     21 3H12 UNL     1       7.689   0.670   0.006  1.00  0.00     0.274 HD
ATOM     22 2H12 UNL     1       7.769   0.426   1.531  1.00  0.00     0.274 HD
ATOM     23 1H12 UNL     1       8.715  -0.561   0.539  1.00  0.00     0.274 HD
ENDBRANCH  19  20
ENDBRANCH  15  19
BRANCH  17  24
HETATM   24  N14 UNL     1       5.260  -0.640   3.196  1.00  0.00    -0.323 N 
ATOM     25 2H14 UNL     1       6.137  -1.125   3.385  1.00  0.00     0.178 HD
ATOM     26 1H14 UNL     1       4.801  -0.519   4.099  1.00  0.00     0.178 HD
ENDBRANCH  17  24
BRANCH  18  27
HETATM   27  N15 UNL     1       2.783   0.739   2.593  1.00  0.00    -0.231 N 
ATOM     28 2H15 UNL     1       1.906   1.224   2.404  1.00  0.00     0.174 HD
ATOM     29 1H15 UNL     1       2.871   0.560   3.593  1.00  0.00     0.174 HD
ENDBRANCH  18  27
ENDBRANCH  11  13
ENDBRANCH  10  11
BRANCH  10  30
HETATM   30  O1  UNL     1       1.169   1.463  -2.263  1.00  0.00    -0.392 OA
ATOM     31  H1  UNL     1       0.996   1.066  -3.109  1.00  0.00     0.210 HD
ENDBRANCH  10  30
ENDBRANCH   9  10
ENDBRANCH   1   9
BRANCH   6  32
HETATM   32  C6  UNL     1      -3.259  -0.495  -0.531  1.00  0.00     0.056 A 
HETATM   33  C7  UNL     1      -3.876  -0.323  -1.752  1.00  0.00     0.108 A 
HETATM   34  N4  UNL     1      -5.229  -0.252  -1.579  1.00  0.00    -0.355 N 
HETATM   35  C8  UNL     1      -6.163  -0.074  -2.651  1.00  0.00     0.156 C 
HETATM   36  C9  UNL     1      -5.523  -0.372  -0.277  1.00  0.00     0.107 A 
HETATM   37  C10 UNL     1      -6.688  -0.374   0.456  1.00  0.00     0.144 A 
HETATM   38  C12 UNL     1      -4.289  -0.525   0.383  1.00  0.00     0.095 A 
HETATM   39  N6  UNL     1      -6.540  -0.530   1.809  1.00  0.00    -0.175 N 
HETATM   40  C11 UNL     1      -5.366  -0.674   2.421  1.00  0.00     0.678 A 
ATOM     41  H6  UNL     1      -7.382  -0.536   2.384  1.00  0.00     0.186 HD
HETATM   42  N8  UNL     1      -4.236  -0.673   1.722  1.00  0.00    -0.189 N 
ATOM     43  H8  UNL     1      -3.338  -0.783   2.193  1.00  0.00     0.184 HD
BRANCH  37  44
HETATM   44  N5  UNL     1      -7.833  -0.243  -0.058  1.00  0.00    -0.383 N 
ATOM     45  H52 UNL     1      -7.943  -0.127  -1.065  1.00  0.00     0.157 HD
ATOM     46  H51 UNL     1      -8.696  -0.244   0.485  1.00  0.00     0.157 HD
ENDBRANCH  37  44
BRANCH  40  47
HETATM   47  N7  UNL     1      -5.278  -0.820   3.722  1.00  0.00    -0.234 N 
ATOM     48  H72 UNL     1      -6.145  -0.821   4.259  1.00  0.00     0.174 HD
ATOM     49  H71 UNL     1      -4.379  -0.930   4.191  1.00  0.00     0.174 HD
ENDBRANCH  40  47
ENDBRANCH   6  32
TORSDOF 12
