REMARK  11 active torsions:
REMARK  status: ('A' for Active; 'I' for Inactive)
REMARK    1  A    between atoms: O1_1  and  C1_3 
REMARK    2  A    between atoms: C3_6  and  O3_7 
REMARK    3  A    between atoms: O3_7  and  C4_8 
REMARK    4  A    between atoms: C4_8  and  C5_9 
REMARK    5  A    between atoms: C5_9  and  C6_10 
REMARK    6  A    between atoms: C6_10  and  C7_11 
REMARK    7  A    between atoms: C7_11  and  C8_12 
REMARK    8  A    between atoms: C8_12  and  C9_13 
REMARK    9  A    between atoms: C9_13  and  C10_14 
REMARK   10  A    between atoms: C16_23  and  O5_24 
REMARK   11  A    between atoms: C17_26  and  O6_27 
ROOT
HETATM    1  C4  UNL     1      -1.585  -0.341  -0.836  1.00  0.00     0.171 C 
ENDROOT
BRANCH   1   2
HETATM    2  O3  UNL     1      -2.597  -1.132  -0.310  1.00  0.00    -0.359 OA
BRANCH   2   3
HETATM    3  C3  UNL     1      -3.608  -0.309   0.159  1.00  0.00     0.290 C 
HETATM    4  O2  UNL     1      -3.798  -0.556   1.516  1.00  0.00    -0.356 OA
HETATM    5  C2  UNL     1      -4.815   0.193   2.064  1.00  0.00     0.205 C 
HETATM    6  C1  UNL     1      -5.445   1.164   1.094  1.00  0.00     0.173 C 
HETATM    7  C17 UNL     1      -5.940   0.431  -0.115  1.00  0.00     0.182 C 
HETATM    8  C16 UNL     1      -4.923  -0.572  -0.549  1.00  0.00     0.204 C 
BRANCH   6   9
HETATM    9  O1  UNL     1      -6.513   1.770   1.774  1.00  0.00    -0.391 OA
ATOM     10  H1  UNL     1      -6.909   2.381   1.164  1.00  0.00     0.210 HD
ENDBRANCH   6   9
BRANCH   7  11
HETATM   11  O6  UNL     1      -6.099   1.363  -1.160  1.00  0.00    -0.390 OA
ATOM     12  H6  UNL     1      -6.413   0.898  -1.927  1.00  0.00     0.210 HD
ENDBRANCH   7  11
BRANCH   8  13
HETATM   13  O5  UNL     1      -5.333  -1.898  -0.305  1.00  0.00    -0.388 OA
ATOM     14  H5  UNL     1      -6.157  -2.063  -0.749  1.00  0.00     0.210 HD
ENDBRANCH   8  13
ENDBRANCH   2   3
ENDBRANCH   1   2
BRANCH   1  15
HETATM   15  C5  UNL     1      -0.439  -1.160  -1.371  1.00  0.00     0.026 C 
BRANCH  15  16
HETATM   16  C6  UNL     1       0.183  -2.011  -0.295  1.00  0.00     0.002 C 
BRANCH  16  17
HETATM   17  C7  UNL     1       0.730  -1.209   0.843  1.00  0.00     0.000 C 
BRANCH  17  18
HETATM   18  C8  UNL     1       1.799  -0.239   0.433  1.00  0.00     0.006 C 
BRANCH  18  19
HETATM   19  C9  UNL     1       2.970  -0.938  -0.186  1.00  0.00     0.052 C 
BRANCH  19  20
HETATM   20  C10 UNL     1       3.980   0.119  -0.558  1.00  0.00    -0.011 C 
HETATM   21  N1  UNL     1       4.421   0.368  -1.722  1.00  0.00    -0.395 N 
HETATM   22  C11 UNL     1       5.378   1.446  -1.720  1.00  0.00     0.126 C 
ATOM     23  H1  UNL     1       4.132  -0.136  -2.561  1.00  0.00     0.159 HD
HETATM   24  C12 UNL     1       5.805   1.554  -0.273  1.00  0.00     0.039 C 
HETATM   25  C13 UNL     1       6.834   0.484   0.091  1.00  0.00     0.174 C 
HETATM   26  C15 UNL     1       4.584   1.019   0.436  1.00  0.00     0.062 C 
HETATM   27  O4  UNL     1       6.569   0.357   1.473  1.00  0.00    -0.390 OA
HETATM   28  C14 UNL     1       5.207   0.273   1.595  1.00  0.00     0.178 C 
ENDBRANCH  19  20
ENDBRANCH  18  19
ENDBRANCH  17  18
ENDBRANCH  16  17
ENDBRANCH  15  16
ENDBRANCH   1  15
TORSDOF 11
