REMARK  11 active torsions:
REMARK  status: ('A' for Active; 'I' for Inactive)
REMARK    1  A    between atoms: C3_4  and  O1_5 
REMARK    2  A    between atoms: C4_7  and  C5_8 
REMARK    3  A    between atoms: C5_8  and  C6_9 
REMARK    4  A    between atoms: C6_9  and  S1_10 
REMARK    5  A    between atoms: S1_10  and  C7_12 
REMARK    6  A    between atoms: C7_12  and  C8_13 
REMARK    7  A    between atoms: C8_13  and  S2_14 
REMARK    8  A    between atoms: S2_14  and  C9_15 
REMARK    9  A    between atoms: C11_18  and  O3_19 
REMARK   10  A    between atoms: C12_21  and  C13_22 
REMARK   11  A    between atoms: C13_22  and  O4_23 
ROOT
HETATM    1  C7  UNL     1       0.003   1.407   0.858  1.00  0.00     0.118 C 
ENDROOT
BRANCH   1   2
HETATM    2  S1  UNL     1      -0.957   0.142   0.108  1.00  0.00     0.015 S 
HETATM    3  O2  UNL     1      -0.156  -0.813  -0.971  1.00  0.00    -0.258 OA
BRANCH   2   4
HETATM    4  C6  UNL     1      -1.898  -0.741   1.292  1.00  0.00     0.111 C 
BRANCH   4   5
HETATM    5  C5  UNL     1      -2.962  -1.609   0.702  1.00  0.00     0.051 C 
BRANCH   5   6
HETATM    6  C4  UNL     1      -3.934  -0.792  -0.083  1.00  0.00     0.253 C 
HETATM    7  N1  UNL     1      -4.600   0.204   0.705  1.00  0.00     0.094 N 
HETATM    8  C1  UNL     1      -4.157   1.576   0.524  1.00  0.00     0.310 C 
HETATM    9  C2  UNL     1      -5.837  -0.107   0.028  1.00  0.00     0.306 C 
HETATM   10  C3  UNL     1      -5.291  -1.475  -0.286  1.00  0.00     0.179 C 
BRANCH  10  11
HETATM   11  O1  UNL     1      -5.506  -1.925  -1.583  1.00  0.00    -0.392 OA
ATOM     12  H1  UNL     1      -5.162  -2.788  -1.781  1.00  0.00     0.210 HD
ENDBRANCH  10  11
ENDBRANCH   5   6
ENDBRANCH   4   5
ENDBRANCH   2   4
ENDBRANCH   1   2
BRANCH   1  13
HETATM   13  C8  UNL     1       0.824   2.183  -0.118  1.00  0.00     0.086 C 
BRANCH  13  14
HETATM   14  S2  UNL     1       2.045   1.269  -1.026  1.00  0.00    -0.162 SA
BRANCH  14  15
HETATM   15  C9  UNL     1       3.467   0.714  -0.060  1.00  0.00     0.066 C 
HETATM   16  C10 UNL     1       3.068  -0.332   0.894  1.00  0.00     0.092 C 
HETATM   17  S3  UNL     1       3.883  -1.846   0.240  1.00  0.00    -0.136 SA
HETATM   18  C11 UNL     1       4.295  -1.149  -1.417  1.00  0.00     0.186 C 
HETATM   19  C12 UNL     1       4.516   0.269  -1.009  1.00  0.00     0.062 C 
BRANCH  18  20
HETATM   20  O3  UNL     1       5.433  -1.797  -1.833  1.00  0.00    -0.385 OA
ATOM     21  H3  UNL     1       5.645  -1.438  -2.687  1.00  0.00     0.211 HD
ENDBRANCH  18  20
BRANCH  19  22
HETATM   22  C13 UNL     1       5.922   0.534  -0.524  1.00  0.00     0.173 C 
BRANCH  22  23
HETATM   23  O4  UNL     1       6.230  -0.090   0.659  1.00  0.00    -0.400 OA
ATOM     24  H4  UNL     1       7.114   0.077   0.964  1.00  0.00     0.209 HD
ENDBRANCH  22  23
ENDBRANCH  19  22
ENDBRANCH  14  15
ENDBRANCH  13  14
ENDBRANCH   1  13
TORSDOF 11
