REMARK  7 active torsions:
REMARK  status: ('A' for Active; 'I' for Inactive)
REMARK    1  A    between atoms: N1_1  and  C1_4 
REMARK    2  A    between atoms: C1_4  and  C2_6 
REMARK    3  A    between atoms: C3_8  and  N3_9 
REMARK    4  A    between atoms: N3_9  and  C4_11 
REMARK    5  A    between atoms: C5_16  and  C6_17 
REMARK       I    between atoms: C6_17  and  N6_19 
REMARK    6  A    between atoms: N6_19  and  C7_21 
REMARK    7  A    between atoms: C8_24  and  O3_25 
ROOT
HETATM    1  C4  UNL     1       1.152  -1.162   1.100  1.00  0.00     0.164 A 
HETATM    2  N4  UNL     1       0.130  -0.857   1.904  1.00  0.00    -0.279 N 
ATOM      3  H4  UNL     1       0.241  -0.874   2.918  1.00  0.00     0.189 HD
HETATM    4  N5  UNL     1      -0.982  -0.545   1.378  1.00  0.00    -0.287 N 
ATOM      5  H5  UNL     1      -1.775  -0.309   1.974  1.00  0.00     0.188 HD
HETATM    6  C5  UNL     1      -1.120  -0.523   0.062  1.00  0.00     0.160 A 
HETATM    7  S1  UNL     1       0.444  -0.980  -0.446  1.00  0.00    -0.028 SA
ENDROOT
BRANCH   1   8
HETATM    8  N3  UNL     1       2.371  -1.507   1.439  1.00  0.00    -0.326 N 
ATOM      9  H3  UNL     1       2.624  -1.566   2.425  1.00  0.00     0.166 HD
BRANCH   8  10
HETATM   10  C3  UNL     1       3.362  -1.805   0.424  1.00  0.00     0.335 C 
HETATM   11  O1  UNL     1       3.321  -0.800  -0.536  1.00  0.00    -0.327 OA
HETATM   12  C2  UNL     1       3.848   0.317   0.105  1.00  0.00     0.281 C 
HETATM   13  C9  UNL     1       4.955  -0.252   0.906  1.00  0.00     0.257 C 
HETATM   14  N9  UNL     1       4.703  -1.660   0.944  1.00  0.00    -0.315 N 
HETATM   15  O4  UNL     1       5.917   0.340   1.445  1.00  0.00    -0.270 OA
ATOM     16  H9  UNL     1       5.330  -2.397   1.266  1.00  0.00     0.166 HD
BRANCH  12  17
HETATM   17  C1  UNL     1       4.309   1.347  -0.835  1.00  0.00     0.125 C 
HETATM   18  N2  UNL     1       4.866   2.548  -0.330  1.00  0.00    -0.085 NA
BRANCH  17  19
HETATM   19  N1  UNL     1       4.223   1.191  -2.109  1.00  0.00    -0.389 N 
ATOM     20  H12 UNL     1       4.543   1.906  -2.762  1.00  0.00     0.157 HD
ATOM     21  H11 UNL     1       3.822   0.326  -2.473  1.00  0.00     0.157 HD
ENDBRANCH  17  19
ENDBRANCH  12  17
ENDBRANCH   8  10
ENDBRANCH   1   8
BRANCH   6  22
HETATM   22  C6  UNL     1      -2.319  -0.189  -0.723  1.00  0.00     0.278 C 
HETATM   23  O2  UNL     1      -2.219  -0.237  -1.968  1.00  0.00    -0.265 OA
HETATM   24  N6  UNL     1      -3.517   0.165  -0.105  1.00  0.00    -0.332 N 
ATOM     25  H6  UNL     1      -3.576   0.197   0.913  1.00  0.00     0.164 HD
BRANCH  24  26
HETATM   26  C7  UNL     1      -4.684   0.489  -0.913  1.00  0.00     0.241 C 
HETATM   27  N7  UNL     1      -5.308   1.753  -0.568  1.00  0.00    -0.116 NA
HETATM   28  N8  UNL     1      -6.037   1.071   0.412  1.00  0.00    -0.111 NA
HETATM   29  C8  UNL     1      -5.985  -0.100  -0.440  1.00  0.00     0.267 C 
BRANCH  29  30
HETATM   30  O3  UNL     1      -5.896  -1.310   0.231  1.00  0.00    -0.375 OA
ATOM     31  H3  UNL     1      -6.718  -1.682   0.530  1.00  0.00     0.211 HD
ENDBRANCH  29  30
ENDBRANCH  24  26
ENDBRANCH   6  22
TORSDOF 7
