REMARK  9 active torsions:
REMARK  status: ('A' for Active; 'I' for Inactive)
REMARK    1  A    between atoms: C2_2  and  C3_3 
REMARK    2  A    between atoms: C3_3  and  C4_4 
REMARK    3  A    between atoms: C4_4  and  N1_5 
REMARK    4  A    between atoms: N1_5  and  C5_8 
REMARK    5  A    between atoms: C5_8  and  N2_10 
REMARK    6  A    between atoms: N2_10  and  N3_11 
REMARK    7  A    between atoms: N3_11  and  C7_12 
REMARK    8  A    between atoms: C7_12  and  O1_13 
REMARK    9  A    between atoms: C7_12  and  C8_15 
ROOT
HETATM    1  N3  UNL     1       0.679   0.389  -0.860  1.00  0.00    -0.108 NA
ENDROOT
BRANCH   1   2
HETATM    2  N2  UNL     1       0.349  -0.285   0.321  1.00  0.00    -0.112 NA
BRANCH   2   3
HETATM    3  C5  UNL     1      -1.099  -0.366   0.489  1.00  0.00     0.289 C 
HETATM    4  C6  UNL     1      -1.341  -1.216   1.717  1.00  0.00     0.060 C 
BRANCH   3   5
HETATM    5  N1  UNL     1      -1.712   0.919   0.566  1.00  0.00    -0.056 N 
ATOM      6  H12 UNL     1      -1.436   1.527  -0.205  1.00  0.00     0.279 HD
ATOM      7  H11 UNL     1      -1.340   1.481   1.332  1.00  0.00     0.279 HD
BRANCH   5   8
HETATM    8  C4  UNL     1      -3.160   0.753   0.652  1.00  0.00     0.238 C 
BRANCH   8   9
HETATM    9  C3  UNL     1      -3.770   0.229  -0.602  1.00  0.00     0.054 C 
BRANCH   9  10
HETATM   10  C2  UNL     1      -5.241   0.107  -0.427  1.00  0.00    -0.035 C 
HETATM   11  C1  UNL     1      -5.798   0.464   0.700  1.00  0.00     0.007 C 
ENDBRANCH   9  10
ENDBRANCH   8   9
ENDBRANCH   5   8
ENDBRANCH   3   5
ENDBRANCH   2   3
ENDBRANCH   1   2
BRANCH   1  12
HETATM   12  C7  UNL     1       1.803  -0.299  -1.468  1.00  0.00     0.280 C 
BRANCH  12  13
HETATM   13  O1  UNL     1       2.088   0.316  -2.722  1.00  0.00    -0.373 OA
ATOM     14  H1  UNL     1       2.824  -0.134  -3.120  1.00  0.00     0.212 HD
ENDBRANCH  12  13
BRANCH  12  15
HETATM   15  C8  UNL     1       3.007  -0.182  -0.594  1.00  0.00     0.097 A 
HETATM   16  C9  UNL     1       4.307   0.092  -1.010  1.00  0.00     0.150 A 
HETATM   17  N4  UNL     1       5.092   0.114   0.084  1.00  0.00    -0.247 N 
HETATM   18  C10 UNL     1       6.536   0.367   0.109  1.00  0.00     0.187 C 
HETATM   19  O2  UNL     1       4.318  -0.128   1.090  1.00  0.00    -0.155 OA
HETATM   20  N5  UNL     1       3.101  -0.306   0.735  1.00  0.00    -0.240 N 
ATOM     21  H5  UNL     1       2.326  -0.510   1.366  1.00  0.00     0.196 HD
ENDBRANCH  12  15
ENDBRANCH   1  12
TORSDOF 9
