REMARK  3 active torsions:
REMARK  status: ('A' for Active; 'I' for Inactive)
REMARK    1  A    between atoms: C9_11  and  N2_12 
REMARK       I    between atoms: N2_12  and  C10_14 
REMARK    2  A    between atoms: C10_14  and  O2_16 
REMARK    3  A    between atoms: O2_16  and  C11_17 
ROOT
HETATM    1  C1  UNL     1      -3.884   3.840  -0.358  1.00  0.00     0.089 C 
HETATM    2  C2  UNL     1      -3.357   2.446  -0.224  1.00  0.00     0.078 A 
HETATM    3  N1  UNL     1      -4.070   1.316  -0.071  1.00  0.00    -0.344 N 
ATOM      4  H1  UNL     1      -5.086   1.244  -0.024  1.00  0.00     0.167 HD
HETATM    5  C3  UNL     1      -3.182   0.284   0.009  1.00  0.00     0.069 A 
HETATM    6  C4  UNL     1      -3.397  -1.066   0.167  1.00  0.00    -0.027 A 
HETATM    7  C5  UNL     1      -4.751  -1.647   0.283  1.00  0.00     0.051 C 
HETATM    8  C6  UNL     1      -2.285  -1.869   0.213  1.00  0.00    -0.051 A 
HETATM    9  C7  UNL     1      -2.497  -3.324   0.382  1.00  0.00     0.049 C 
HETATM   10  C8  UNL     1      -0.981  -1.362   0.107  1.00  0.00     0.039 A 
HETATM   11  C9  UNL     1      -0.750  -0.017  -0.051  1.00  0.00     0.066 A 
HETATM   12  C15 UNL     1      -1.909   0.780  -0.095  1.00  0.00     0.088 A 
HETATM   13  N3  UNL     1      -2.055   2.101  -0.235  1.00  0.00    -0.343 N 
ATOM     14  H3  UNL     1      -1.283   2.760  -0.337  1.00  0.00     0.167 HD
ENDROOT
BRANCH  11  15
HETATM   15  N2  UNL     1       0.516   0.597  -0.168  1.00  0.00    -0.300 N 
HETATM   16  C10 UNL     1       1.734  -0.076  -0.140  1.00  0.00     0.366 C 
HETATM   17  O1  UNL     1       1.976  -1.273  -0.017  1.00  0.00    -0.238 OA
ATOM     18  H2  UNL     1       0.540   1.610  -0.282  1.00  0.00     0.171 HD
BRANCH  16  19
HETATM   19  O2  UNL     1       2.887   0.719  -0.272  1.00  0.00    -0.294 OA
BRANCH  19  20
HETATM   20  C11 UNL     1       4.183   0.201  -0.265  1.00  0.00     0.061 C 
HETATM   21  C12 UNL     1       5.156   1.346  -0.429  1.00  0.00     0.046 C 
HETATM   22  C13 UNL     1       4.422  -0.442   1.092  1.00  0.00     0.046 C 
HETATM   23  C14 UNL     1       4.469  -0.813  -1.316  1.00  0.00     0.046 C 
ENDBRANCH  19  20
ENDBRANCH  16  19
ENDBRANCH  11  15
TORSDOF 3
