REMARK  15 active torsions:
REMARK  status: ('A' for Active; 'I' for Inactive)
REMARK    1  A    between atoms: C2_2  and  C16_17 
REMARK    2  A    between atoms: C3_3  and  C4_4 
REMARK    3  A    between atoms: C4_4  and  C5_5 
REMARK    4  A    between atoms: C5_5  and  C6_6 
REMARK    5  A    between atoms: C6_6  and  C8_8 
REMARK    6  A    between atoms: C8_8  and  C9_9 
REMARK    7  A    between atoms: C9_9  and  C10_10 
REMARK    8  A    between atoms: C11_11  and  C13_13 
REMARK    9  A    between atoms: C13_13  and  C14_14 
REMARK   10  A    between atoms: C16_17  and  C17_18 
REMARK   11  A    between atoms: C17_18  and  C18_19 
REMARK   12  A    between atoms: C19_20  and  C21_22 
REMARK   13  A    between atoms: C21_22  and  C22_23 
REMARK   14  A    between atoms: C22_23  and  C23_24 
REMARK   15  A    between atoms: C28_31  and  O4_32 
ROOT
HETATM    1  C16 UNL     1       0.450   0.589   1.356  1.00  0.00     0.037 C 
ENDROOT
BRANCH   1   2
HETATM    2  C2  UNL     1      -0.715   0.439   2.208  1.00  0.00    -0.087 C 
HETATM    3  C1  UNL     1      -0.507  -0.318   3.524  1.00  0.00     0.043 C 
HETATM    4  C3  UNL     1      -1.913   0.898   1.978  1.00  0.00    -0.024 C 
BRANCH   4   5
HETATM    5  C4  UNL     1      -2.299   1.643   0.774  1.00  0.00     0.028 C 
BRANCH   5   6
HETATM    6  C5  UNL     1      -3.510   1.027   0.068  1.00  0.00     0.008 C 
BRANCH   6   7
HETATM    7  C6  UNL     1      -3.240  -0.369  -0.379  1.00  0.00    -0.018 C 
HETATM    8  C7  UNL     1      -2.088  -0.376  -1.364  1.00  0.00     0.010 C 
BRANCH   7   9
HETATM    9  C8  UNL     1      -4.449  -0.910  -1.095  1.00  0.00     0.008 C 
BRANCH   9  10
HETATM   10  C9  UNL     1      -5.691  -0.939  -0.211  1.00  0.00     0.028 C 
BRANCH  10  11
HETATM   11  C10 UNL     1      -6.793  -1.489  -1.005  1.00  0.00    -0.024 C 
HETATM   12  C11 UNL     1      -7.892  -0.851  -1.292  1.00  0.00    -0.085 C 
HETATM   13  C12 UNL     1      -8.963  -1.534  -2.126  1.00  0.00     0.043 C 
BRANCH  12  14
HETATM   14  C13 UNL     1      -8.196   0.520  -0.877  1.00  0.00     0.067 C 
BRANCH  14  15
HETATM   15  C14 UNL     1      -9.463   0.482  -0.019  1.00  0.00     0.149 A 
HETATM   16  C15 UNL     1      -9.382  -0.336   1.207  1.00  0.00     0.200 A 
HETATM   17  O1  UNL     1     -10.101  -0.792   0.112  1.00  0.00    -0.381 OA
ENDBRANCH  14  15
ENDBRANCH  12  14
ENDBRANCH  10  11
ENDBRANCH   9  10
ENDBRANCH   7   9
ENDBRANCH   6   7
ENDBRANCH   5   6
ENDBRANCH   4   5
ENDBRANCH   1   2
BRANCH   1  18
HETATM   18  C17 UNL     1       1.596   1.321   2.040  1.00  0.00     0.031 C 
BRANCH  18  19
HETATM   19  C18 UNL     1       2.735   1.413   1.067  1.00  0.00    -0.024 C 
HETATM   20  C19 UNL     1       3.921   0.875   1.330  1.00  0.00    -0.087 C 
HETATM   21  C20 UNL     1       4.082   0.171   2.635  1.00  0.00     0.043 C 
BRANCH  20  22
HETATM   22  C21 UNL     1       5.053   0.968   0.360  1.00  0.00     0.036 C 
BRANCH  22  23
HETATM   23  C22 UNL     1       5.496  -0.408  -0.051  1.00  0.00     0.045 C 
BRANCH  23  24
HETATM   24  C23 UNL     1       6.624  -0.440  -1.025  1.00  0.00     0.094 C 
HETATM   25  C24 UNL     1       6.945  -1.890  -1.334  1.00  0.00     0.049 C 
HETATM   26  O2  UNL     1       6.278   0.154  -2.279  1.00  0.00    -0.307 OA
HETATM   27  C25 UNL     1       7.513   0.283  -2.944  1.00  0.00     0.266 C 
HETATM   28  O3  UNL     1       7.691   0.295  -4.189  1.00  0.00    -0.265 OA
HETATM   29  C26 UNL     1       8.598   0.406  -1.946  1.00  0.00     0.113 C 
HETATM   30  C27 UNL     1       9.666  -0.629  -2.066  1.00  0.00     0.023 C 
HETATM   31  C28 UNL     1       7.830   0.345  -0.642  1.00  0.00     0.166 C 
BRANCH  31  32
HETATM   32  O4  UNL     1       8.577  -0.241   0.372  1.00  0.00    -0.392 OA
ATOM     33  H4  UNL     1       9.346   0.260   0.616  1.00  0.00     0.210 HD
ENDBRANCH  31  32
ENDBRANCH  23  24
ENDBRANCH  22  23
ENDBRANCH  20  22
ENDBRANCH  18  19
ENDBRANCH   1  18
TORSDOF 15
