REMARK  16 active torsions:
REMARK  status: ('A' for Active; 'I' for Inactive)
REMARK    1  A    between atoms: C2_2  and  C3_3 
REMARK    2  A    between atoms: C3_3  and  C4_4 
REMARK    3  A    between atoms: C6_6  and  C7_7 
REMARK    4  A    between atoms: C9_9  and  C10_10 
REMARK    5  A    between atoms: C10_10  and  C11_11 
REMARK    6  A    between atoms: C11_11  and  C12_12 
REMARK    7  A    between atoms: C13_13  and  C15_15 
REMARK    8  A    between atoms: C15_15  and  C16_16 
REMARK    9  A    between atoms: C16_16  and  C17_17 
REMARK   10  A    between atoms: C21_21  and  O1_22 
REMARK   11  A    between atoms: O1_22  and  C22_23 
REMARK   12  A    between atoms: C22_23  and  C23_25 
REMARK   13  A    between atoms: C23_25  and  C24_26 
REMARK   14  A    between atoms: C24_26  and  C25_27 
REMARK   15  A    between atoms: C25_27  and  O3_28 
REMARK   16  A    between atoms: C25_27  and  O4_30 
ROOT
HETATM    1  C4  UNL     1       2.620  -3.430  -1.486  1.00  0.00    -0.077 A 
HETATM    2  C5  UNL     1       1.568  -2.743  -1.891  1.00  0.00    -0.012 A 
HETATM    3  C6  UNL     1       1.811  -1.277  -1.829  1.00  0.00     0.067 A 
HETATM    4  C21 UNL     1       3.204  -1.160  -1.356  1.00  0.00     0.151 A 
HETATM    5  C27 UNL     1       3.719  -2.521  -1.096  1.00  0.00     0.041 A 
HETATM    6  C28 UNL     1       4.063  -2.770   0.360  1.00  0.00     0.017 C 
ENDROOT
BRANCH   3   7
HETATM    7  C7  UNL     1       0.813  -0.589  -0.989  1.00  0.00    -0.077 C 
HETATM    8  C8  UNL     1       0.664  -1.004   0.423  1.00  0.00     0.044 C 
HETATM    9  C9  UNL     1       0.058   0.371  -1.468  1.00  0.00    -0.023 C 
BRANCH   9  10
HETATM   10  C10 UNL     1      -0.969   1.138  -0.752  1.00  0.00     0.031 C 
BRANCH  10  11
HETATM   11  C11 UNL     1      -2.327   0.930  -1.430  1.00  0.00     0.031 C 
BRANCH  11  12
HETATM   12  C12 UNL     1      -3.378   1.717  -0.696  1.00  0.00    -0.024 C 
HETATM   13  C13 UNL     1      -4.418   1.113  -0.141  1.00  0.00    -0.087 C 
HETATM   14  C14 UNL     1      -4.608  -0.366  -0.209  1.00  0.00     0.043 C 
BRANCH  13  15
HETATM   15  C15 UNL     1      -5.435   1.910   0.573  1.00  0.00     0.037 C 
BRANCH  15  16
HETATM   16  C16 UNL     1      -6.805   1.752  -0.047  1.00  0.00     0.031 C 
BRANCH  16  17
HETATM   17  C17 UNL     1      -7.742   2.609   0.761  1.00  0.00    -0.024 C 
HETATM   18  C18 UNL     1      -8.762   2.042   1.372  1.00  0.00    -0.091 C 
HETATM   19  C19 UNL     1      -9.711   2.861   2.183  1.00  0.00     0.042 C 
HETATM   20  C20 UNL     1      -9.003   0.575   1.278  1.00  0.00     0.042 C 
ENDBRANCH  16  17
ENDBRANCH  15  16
ENDBRANCH  13  15
ENDBRANCH  11  12
ENDBRANCH  10  11
ENDBRANCH   9  10
ENDBRANCH   3   7
BRANCH   4  21
HETATM   21  O1  UNL     1       3.352  -0.285  -0.245  1.00  0.00    -0.314 OA
BRANCH  21  22
HETATM   22  C22 UNL     1       4.157   0.812  -0.369  1.00  0.00     0.259 C 
HETATM   23  O2  UNL     1       4.747   1.018  -1.460  1.00  0.00    -0.265 OA
BRANCH  22  24
HETATM   24  C23 UNL     1       4.395   1.804   0.713  1.00  0.00     0.116 C 
BRANCH  24  25
HETATM   25  C24 UNL     1       5.332   2.891   0.295  1.00  0.00     0.070 C 
BRANCH  25  26
HETATM   26  C25 UNL     1       5.504   3.846   1.461  1.00  0.00     0.256 C 
BRANCH  26  27
HETATM   27  O3  UNL     1       4.224   4.365   1.766  1.00  0.00    -0.371 OA
ATOM     28  H3  UNL     1       4.332   4.963   2.496  1.00  0.00     0.212 HD
ENDBRANCH  26  27
BRANCH  26  29
HETATM   29  O4  UNL     1       5.912   3.165   2.595  1.00  0.00    -0.366 OA
HETATM   30  C26 UNL     1       7.038   3.725   3.182  1.00  0.00     0.204 C 
ENDBRANCH  26  29
ENDBRANCH  25  26
ENDBRANCH  24  25
ENDBRANCH  22  24
ENDBRANCH  21  22
ENDBRANCH   4  21
BRANCH   1  31
HETATM   31  C3  UNL     1       2.756  -4.932  -1.407  1.00  0.00     0.034 C 
BRANCH  31  32
HETATM   32  C2  UNL     1       3.912  -5.371  -2.304  1.00  0.00    -0.000 C 
HETATM   33  C1  UNL     1       4.083  -6.865  -2.257  1.00  0.00     0.005 C 
ENDBRANCH  31  32
ENDBRANCH   1  31
TORSDOF 16
