REMARK  15 active torsions:
REMARK  status: ('A' for Active; 'I' for Inactive)
REMARK    1  A    between atoms: C2_2  and  C3_3 
REMARK    2  A    between atoms: C3_3  and  C4_4 
REMARK    3  A    between atoms: C4_4  and  C5_5 
REMARK    4  A    between atoms: C6_6  and  C7_7 
REMARK    5  A    between atoms: C7_7  and  C8_8 
REMARK    6  A    between atoms: C14_17  and  C16_19 
REMARK    7  A    between atoms: C16_19  and  O4_20 
REMARK    8  A    between atoms: C16_19  and  C17_22 
REMARK    9  A    between atoms: C17_22  and  C18_23 
REMARK   10  A    between atoms: C18_23  and  C19_24 
REMARK   11  A    between atoms: C19_24  and  C20_25 
REMARK   12  A    between atoms: C19_24  and  O5_31 
REMARK   13  A    between atoms: C20_25  and  C21_26 
REMARK   14  A    between atoms: C21_26  and  C22_27 
REMARK   15  A    between atoms: O5_31  and  C26_32 
ROOT
HETATM    1  C8  UNL     1       3.358  -0.378   0.739  1.00  0.00     0.157 C 
HETATM    2  O1  UNL     1       2.612  -0.033   1.799  1.00  0.00    -0.340 OA
HETATM    3  C9  UNL     1       1.288  -0.301   1.866  1.00  0.00     0.235 C 
HETATM    4  C10 UNL     1       0.748  -1.372   0.981  1.00  0.00     0.079 C 
HETATM    5  C11 UNL     1       1.332  -1.337  -0.413  1.00  0.00     0.041 C 
HETATM    6  C12 UNL     1       2.540  -0.505  -0.484  1.00  0.00    -0.060 C 
HETATM    7  C13 UNL     1       2.849   0.093  -1.619  1.00  0.00     0.017 C 
HETATM    8  O2  UNL     1       0.935  -0.459   3.236  1.00  0.00    -0.196 OA
HETATM    9  O3  UNL     1       1.168   0.838   3.337  1.00  0.00    -0.218 OA
HETATM   10  C14 UNL     1       0.506   0.936   2.084  1.00  0.00     0.177 C 
HETATM   11  C15 UNL     1       1.000   2.086   1.247  1.00  0.00     0.058 C 
ENDROOT
BRANCH  10  12
HETATM   12  C16 UNL     1      -0.962   0.889   2.329  1.00  0.00     0.161 C 
BRANCH  12  13
HETATM   13  O4  UNL     1      -1.401  -0.251   2.954  1.00  0.00    -0.392 OA
ATOM     14  H4  UNL     1      -2.338  -0.281   3.110  1.00  0.00     0.210 HD
ENDBRANCH  12  13
BRANCH  12  15
HETATM   15  C17 UNL     1      -1.765   1.271   1.098  1.00  0.00     0.037 C 
BRANCH  15  16
HETATM   16  C18 UNL     1      -3.246   1.229   1.377  1.00  0.00     0.034 C 
BRANCH  16  17
HETATM   17  C19 UNL     1      -4.037   1.617   0.161  1.00  0.00     0.121 C 
BRANCH  17  18
HETATM   18  C20 UNL     1      -3.788   0.707  -0.991  1.00  0.00     0.036 C 
BRANCH  18  19
HETATM   19  C21 UNL     1      -4.145  -0.734  -0.720  1.00  0.00     0.030 C 
BRANCH  19  20
HETATM   20  C22 UNL     1      -5.560  -0.918  -0.378  1.00  0.00    -0.025 C 
HETATM   21  C23 UNL     1      -6.327  -1.686  -1.124  1.00  0.00    -0.091 C 
HETATM   22  C24 UNL     1      -5.788  -2.380  -2.318  1.00  0.00     0.042 C 
HETATM   23  C25 UNL     1      -7.753  -1.866  -0.774  1.00  0.00     0.042 C 
ENDBRANCH  19  20
ENDBRANCH  18  19
ENDBRANCH  17  18
BRANCH  17  24
HETATM   24  O5  UNL     1      -3.666   2.907  -0.196  1.00  0.00    -0.386 OA
BRANCH  24  25
HETATM   25  C26 UNL     1      -4.644   3.855  -0.078  1.00  0.00     0.163 C 
HETATM   26  C27 UNL     1      -5.145   4.009   1.327  1.00  0.00     0.033 C 
ENDBRANCH  24  25
ENDBRANCH  17  24
ENDBRANCH  16  17
ENDBRANCH  15  16
ENDBRANCH  12  15
ENDBRANCH  10  12
BRANCH   1  27
HETATM   27  C7  UNL     1       4.256  -1.578   0.954  1.00  0.00     0.063 C 
BRANCH  27  28
HETATM   28  C6  UNL     1       5.006  -1.807  -0.331  1.00  0.00    -0.028 C 
HETATM   29  C5  UNL     1       6.323  -1.759  -0.381  1.00  0.00    -0.030 C 
BRANCH  29  30
HETATM   30  C4  UNL     1       7.032  -1.988  -1.658  1.00  0.00     0.030 C 
BRANCH  30  31
HETATM   31  C3  UNL     1       7.856  -0.776  -2.048  1.00  0.00     0.030 C 
BRANCH  31  32
HETATM   32  C2  UNL     1       8.848  -0.531  -0.972  1.00  0.00    -0.037 C 
HETATM   33  C1  UNL     1      10.152  -0.551  -1.196  1.00  0.00     0.007 C 
ENDBRANCH  31  32
ENDBRANCH  30  31
ENDBRANCH  29  30
ENDBRANCH  27  28
ENDBRANCH   1  27
TORSDOF 15
