REMARK  13 active torsions:
REMARK  status: ('A' for Active; 'I' for Inactive)
REMARK    1  A    between atoms: C2_2  and  C4_4 
REMARK    2  A    between atoms: C5_5  and  C6_6 
REMARK    3  A    between atoms: C5_5  and  N2_17 
REMARK    4  A    between atoms: C6_6  and  C7_7 
REMARK    5  A    between atoms: C7_7  and  C8_8 
REMARK    6  A    between atoms: C8_8  and  O1_9 
REMARK    7  A    between atoms: O1_9  and  C9_10 
REMARK       I    between atoms: C9_10  and  N1_12 
REMARK    8  A    between atoms: N1_12  and  C10_14 
REMARK    9  A    between atoms: C15_20  and  C16_21 
REMARK   10  A    between atoms: N3_22  and  O3_24 
REMARK   11  A    between atoms: O3_24  and  C17_25 
REMARK   12  A    between atoms: C17_25  and  C18_26 
REMARK   13  A    between atoms: C18_26  and  C19_27 
ROOT
HETATM    1  N2  UNL     1       0.466  -0.310   0.636  1.00  0.00    -0.287 NA
HETATM    2  C13 UNL     1      -0.022   0.175  -0.585  1.00  0.00     0.096 C 
HETATM    3  C14 UNL     1      -0.768  -0.669  -1.515  1.00  0.00     0.024 C 
HETATM    4  C15 UNL     1      -1.532  -1.806  -0.871  1.00  0.00     0.028 C 
HETATM    5  C25 UNL     1      -1.578  -1.753   0.587  1.00  0.00     0.024 C 
HETATM    6  C26 UNL     1      -0.373  -1.273   1.293  1.00  0.00     0.096 C 
ENDROOT
BRANCH   1   7
HETATM    7  C5  UNL     1       1.875  -0.764   0.628  1.00  0.00    -0.016 C 
HETATM    8  C4  UNL     1       2.202  -2.007   0.034  1.00  0.00    -0.004 C 
BRANCH   8   9
HETATM    9  C2  UNL     1       3.334  -2.204  -0.906  1.00  0.00     0.001 C 
HETATM   10  C1  UNL     1       3.331  -3.716  -1.319  1.00  0.00     0.013 C 
HETATM   11  C3  UNL     1       2.982  -1.537  -2.280  1.00  0.00     0.013 C 
ENDBRANCH   8   9
BRANCH   7  12
HETATM   12  C6  UNL     1       2.615   0.021   1.609  1.00  0.00     0.053 C 
BRANCH  12  13
HETATM   13  C7  UNL     1       3.986   0.496   1.275  1.00  0.00     0.032 C 
BRANCH  13  14
HETATM   14  C8  UNL     1       5.075  -0.484   1.582  1.00  0.00     0.181 C 
BRANCH  14  15
HETATM   15  O1  UNL     1       6.191  -0.133   0.837  1.00  0.00    -0.304 OA
BRANCH  15  16
HETATM   16  C9  UNL     1       6.836   1.064   0.883  1.00  0.00     0.360 C 
HETATM   17  O2  UNL     1       6.499   1.977   1.671  1.00  0.00    -0.239 OA
HETATM   18  N1  UNL     1       7.928   1.296  -0.029  1.00  0.00    -0.333 N 
ATOM     19  H1  UNL     1       8.195   0.554  -0.676  1.00  0.00     0.165 HD
BRANCH  18  20
HETATM   20  C10 UNL     1       8.653   2.536  -0.059  1.00  0.00     0.078 C 
HETATM   21  C11 UNL     1       7.695   3.500  -0.831  1.00  0.00     0.032 C 
HETATM   22  C12 UNL     1       9.954   2.466  -0.795  1.00  0.00     0.032 C 
ENDBRANCH  18  20
ENDBRANCH  15  16
ENDBRANCH  14  15
ENDBRANCH  13  14
ENDBRANCH  12  13
ENDBRANCH   7  12
ENDBRANCH   1   7
BRANCH   4  23
HETATM   23  C16 UNL     1      -2.852  -1.937  -1.521  1.00  0.00     0.091 C 
HETATM   24  N3  UNL     1      -3.716  -1.106  -1.805  1.00  0.00    -0.281 N 
ATOM     25  H3  UNL     1      -4.495  -1.602  -2.238  1.00  0.00     0.193 HD
BRANCH  24  26
HETATM   26  O3  UNL     1      -4.026   0.179  -1.767  1.00  0.00    -0.281 OA
BRANCH  26  27
HETATM   27  C17 UNL     1      -4.667   0.769  -0.598  1.00  0.00     0.201 C 
BRANCH  27  28
HETATM   28  C18 UNL     1      -6.056   0.179  -0.679  1.00  0.00     0.033 C 
BRANCH  28  29
HETATM   29  C19 UNL     1      -7.023   0.577   0.351  1.00  0.00    -0.013 C 
HETATM   30  C20 UNL     1      -7.423   1.989   0.360  1.00  0.00     0.005 C 
HETATM   31  C21 UNL     1      -8.904   2.270   0.427  1.00  0.00     0.000 C 
HETATM   32  C22 UNL     1      -9.766   1.142   0.883  1.00  0.00     0.000 C 
HETATM   33  C23 UNL     1      -9.420  -0.048  -0.025  1.00  0.00     0.000 C 
HETATM   34  C24 UNL     1      -8.066  -0.475   0.412  1.00  0.00     0.005 C 
ENDBRANCH  28  29
ENDBRANCH  27  28
ENDBRANCH  26  27
ENDBRANCH  24  26
ENDBRANCH   4  23
TORSDOF 13
