REMARK  21 active torsions:
REMARK  status: ('A' for Active; 'I' for Inactive)
REMARK    1  A    between atoms: C3_6  and  O1_7 
REMARK    2  A    between atoms: O1_7  and  C4_8 
REMARK    3  A    between atoms: C5_10  and  C6_11 
REMARK    4  A    between atoms: C6_11  and  O3_12 
REMARK    5  A    between atoms: C7_14  and  O4_15 
REMARK    6  A    between atoms: O4_15  and  C8_16 
REMARK    7  A    between atoms: C9_18  and  S1_19 
REMARK    8  A    between atoms: S1_19  and  C10_20 
REMARK    9  A    between atoms: C11_21  and  N2_22 
REMARK   10  A    between atoms: C12_26  and  O5_27 
REMARK   11  A    between atoms: C13_29  and  O6_30 
REMARK   12  A    between atoms: C14_32  and  O7_33 
REMARK   13  A    between atoms: O7_33  and  C15_34 
REMARK   14  A    between atoms: C16_36  and  C17_37 
REMARK   15  A    between atoms: C17_37  and  O9_38 
REMARK   16  A    between atoms: C18_40  and  O10_41 
REMARK   17  A    between atoms: C19_43  and  N3_44 
REMARK   18  A    between atoms: C20_48  and  N4_49 
REMARK   19  A    between atoms: C21_53  and  O11_54 
REMARK   20  A    between atoms: C22_56  and  N5_57 
REMARK   21  A    between atoms: C23_61  and  O12_62 
ROOT
HETATM    1  C10 UNL     1       1.196  -0.498   0.056  1.00  0.00     0.114 C 
HETATM    2  C11 UNL     1       1.210  -1.911   0.516  1.00  0.00     0.230 C 
HETATM    3  C12 UNL     1       2.226  -2.095   1.625  1.00  0.00     0.181 C 
HETATM    4  C13 UNL     1       3.563  -1.529   1.400  1.00  0.00     0.180 C 
HETATM    5  C14 UNL     1       3.653  -0.331   0.516  1.00  0.00     0.187 C 
HETATM    6  C20 UNL     1       2.601  -0.247  -0.543  1.00  0.00     0.230 C 
ENDROOT
BRANCH   1   7
HETATM    7  S1  UNL     1      -0.065  -0.099  -1.061  1.00  0.00    -0.150 SA
BRANCH   7   8
HETATM    8  C9  UNL     1      -1.771  -0.059  -0.665  1.00  0.00     0.113 C 
HETATM    9  C7  UNL     1      -2.165   0.922   0.424  1.00  0.00     0.172 C 
HETATM   10  C5  UNL     1      -2.764   0.272   1.634  1.00  0.00     0.178 C 
HETATM   11  O2  UNL     1      -3.360  -0.954   1.366  1.00  0.00    -0.349 OA
HETATM   12  C4  UNL     1      -3.854  -1.064   0.090  1.00  0.00     0.293 C 
HETATM   13  C21 UNL     1      -2.602  -1.271  -0.789  1.00  0.00     0.189 C 
BRANCH   9  14
HETATM   14  O4  UNL     1      -1.061   1.643   0.873  1.00  0.00    -0.353 OA
BRANCH  14  15
HETATM   15  C8  UNL     1      -1.244   3.017   0.741  1.00  0.00     0.392 C 
HETATM   16  F1  UNL     1      -0.173   3.737   1.173  1.00  0.00    -0.227 F 
ENDBRANCH  14  15
ENDBRANCH   9  14
BRANCH  10  17
HETATM   17  C6  UNL     1      -1.780   0.019   2.755  1.00  0.00     0.198 C 
BRANCH  17  18
HETATM   18  O3  UNL     1      -1.087   1.120   3.178  1.00  0.00    -0.398 OA
ATOM     19  H3  UNL     1      -0.469   0.961   3.882  1.00  0.00     0.209 HD
ENDBRANCH  17  18
ENDBRANCH  10  17
BRANCH  12  20
HETATM   20  O1  UNL     1      -4.615  -0.008  -0.337  1.00  0.00    -0.324 OA
BRANCH  20  21
HETATM   21  C3  UNL     1      -5.907  -0.334  -0.677  1.00  0.00     0.357 C 
HETATM   22  N1  UNL     1      -6.273   0.086  -2.016  1.00  0.00    -0.040 N 
HETATM   23  C2  UNL     1      -7.730   0.096  -2.006  1.00  0.00     0.215 C 
ATOM     24  H12 UNL     1      -5.865  -0.483  -2.758  1.00  0.00     0.280 HD
ATOM     25  H11 UNL     1      -5.852   0.968  -2.306  1.00  0.00     0.280 HD
HETATM   26  C1  UNL     1      -8.240  -1.322  -2.084  1.00  0.00     0.043 C 
HETATM   27  C23 UNL     1      -8.114   0.659  -0.645  1.00  0.00     0.183 C 
HETATM   28  C22 UNL     1      -6.856   0.507   0.168  1.00  0.00     0.270 C 
BRANCH  27  29
HETATM   29  O12 UNL     1      -8.401   2.025  -0.806  1.00  0.00    -0.391 OA
ATOM     30  H12 UNL     1      -8.641   2.376   0.043  1.00  0.00     0.210 HD
ENDBRANCH  27  29
BRANCH  28  31
HETATM   31  N5  UNL     1      -6.207   1.822   0.295  1.00  0.00    -0.068 N 
ATOM     32  H53 UNL     1      -5.258   1.777   0.666  1.00  0.00     0.275 HD
ATOM     33  H52 UNL     1      -5.966   2.249  -0.600  1.00  0.00     0.275 HD
ATOM     34  H51 UNL     1      -6.842   2.385   0.861  1.00  0.00     0.275 HD
ENDBRANCH  28  31
ENDBRANCH  20  21
ENDBRANCH  12  20
BRANCH  13  35
HETATM   35  O11 UNL     1      -2.108  -2.480  -0.453  1.00  0.00    -0.389 OA
ATOM     36  H11 UNL     1      -1.338  -2.607  -0.994  1.00  0.00     0.210 HD
ENDBRANCH  13  35
ENDBRANCH   7   8
ENDBRANCH   1   7
BRANCH   2  37
HETATM   37  N2  UNL     1       1.389  -2.887  -0.536  1.00  0.00    -0.071 N 
ATOM     38  H23 UNL     1       0.684  -2.758  -1.262  1.00  0.00     0.274 HD
ATOM     39  H22 UNL     1       2.233  -2.680  -1.071  1.00  0.00     0.274 HD
ATOM     40  H21 UNL     1       1.399  -3.857  -0.220  1.00  0.00     0.274 HD
ENDBRANCH   2  37
BRANCH   6  41
HETATM   41  N4  UNL     1       2.847  -1.098  -1.688  1.00  0.00    -0.071 N 
ATOM     42  H43 UNL     1       2.709  -2.082  -1.459  1.00  0.00     0.274 HD
ATOM     43  H42 UNL     1       2.117  -0.997  -2.393  1.00  0.00     0.274 HD
ATOM     44  H41 UNL     1       3.773  -0.933  -2.083  1.00  0.00     0.274 HD
ENDBRANCH   6  41
BRANCH   3  45
HETATM   45  O5  UNL     1       2.262  -3.467   1.882  1.00  0.00    -0.391 OA
ATOM     46  H5  UNL     1       2.899  -3.582   2.577  1.00  0.00     0.210 HD
ENDBRANCH   3  45
BRANCH   5  47
HETATM   47  O7  UNL     1       4.896  -0.210  -0.106  1.00  0.00    -0.349 OA
BRANCH  47  48
HETATM   48  C15 UNL     1       5.583   0.921   0.257  1.00  0.00     0.294 C 
HETATM   49  O8  UNL     1       6.782   0.650   0.916  1.00  0.00    -0.349 OA
HETATM   50  C16 UNL     1       7.686   0.373  -0.080  1.00  0.00     0.179 C 
HETATM   51  C18 UNL     1       7.448   1.439  -1.107  1.00  0.00     0.184 C 
HETATM   52  C19 UNL     1       6.007   1.817  -0.847  1.00  0.00     0.269 C 
BRANCH  50  53
HETATM   53  C17 UNL     1       9.107   0.367   0.431  1.00  0.00     0.198 C 
BRANCH  53  54
HETATM   54  O9  UNL     1       9.489   1.580   0.976  1.00  0.00    -0.398 OA
ATOM     55  H9  UNL     1      10.383   1.576   1.297  1.00  0.00     0.209 HD
ENDBRANCH  53  54
ENDBRANCH  50  53
BRANCH  51  56
HETATM   56  O10 UNL     1       7.502   0.850  -2.367  1.00  0.00    -0.391 OA
ATOM     57  H10 UNL     1       7.351   1.525  -3.018  1.00  0.00     0.210 HD
ENDBRANCH  51  56
BRANCH  52  58
HETATM   58  N3  UNL     1       5.199   1.798  -2.019  1.00  0.00    -0.068 N 
ATOM     59  H33 UNL     1       5.115   0.842  -2.364  1.00  0.00     0.275 HD
ATOM     60  H32 UNL     1       4.228   1.991  -1.772  1.00  0.00     0.275 HD
ATOM     61  H31 UNL     1       5.490   2.414  -2.778  1.00  0.00     0.275 HD
ENDBRANCH  52  58
ENDBRANCH  47  48
ENDBRANCH   5  47
BRANCH   4  62
HETATM   62  O6  UNL     1       4.379  -2.527   0.835  1.00  0.00    -0.390 OA
ATOM     63  H6  UNL     1       5.244  -2.161   0.690  1.00  0.00     0.210 HD
ENDBRANCH   4  62
TORSDOF 21
