REMARK  6 active torsions:
REMARK  status: ('A' for Active; 'I' for Inactive)
REMARK    1  A    between atoms: N1_1  and  C1_4 
REMARK    2  A    between atoms: C2_7  and  C3_8 
REMARK    3  A    between atoms: N3_9  and  C4_11 
REMARK    4  A    between atoms: C4_11  and  C5_12 
REMARK    5  A    between atoms: C5_12  and  N4_13 
REMARK    6  A    between atoms: C5_12  and  N5_17 
ROOT
HETATM    1  C3  UNL     1       0.825  -0.088   1.782  1.00  0.00     0.142 C 
HETATM    2  N3  UNL     1      -0.402  -0.076   1.453  1.00  0.00    -0.392 N 
ATOM      3  H3  UNL     1      -1.075  -0.039   2.219  1.00  0.00     0.159 HD
ENDROOT
BRANCH   2   4
HETATM    4  C4  UNL     1      -0.952  -0.109   0.121  1.00  0.00     0.181 C 
BRANCH   4   5
HETATM    5  C5  UNL     1      -2.471  -0.094   0.249  1.00  0.00     0.395 C 
BRANCH   5   6
HETATM    6  N4  UNL     1      -3.013  -0.128  -1.106  1.00  0.00    -0.049 N 
ATOM      7  H43 UNL     1      -2.653   0.619  -1.701  1.00  0.00     0.276 HD
ATOM      8  H42 UNL     1      -2.665  -0.912  -1.658  1.00  0.00     0.276 HD
ATOM      9  H41 UNL     1      -4.029  -0.118  -1.020  1.00  0.00     0.276 HD
ENDBRANCH   5   6
BRANCH   5  10
HETATM   10  N5  UNL     1      -2.949   1.083   0.898  1.00  0.00    -0.049 N 
ATOM     11  H53 UNL     1      -2.502   1.210   1.806  1.00  0.00     0.276 HD
ATOM     12  H52 UNL     1      -2.611   1.924   0.431  1.00  0.00     0.276 HD
ATOM     13  H51 UNL     1      -3.965   1.093   0.984  1.00  0.00     0.276 HD
ENDBRANCH   5  10
ENDBRANCH   4   5
ENDBRANCH   2   4
BRANCH   1  14
HETATM   14  C2  UNL     1       1.852  -0.140   0.760  1.00  0.00     0.200 A 
HETATM   15  N2  UNL     1       1.786  -0.182  -0.570  1.00  0.00    -0.166 N 
HETATM   16  C1  UNL     1       3.020  -0.223  -1.106  1.00  0.00     0.698 A 
ATOM     17  H2  UNL     1       0.919  -0.183  -1.108  1.00  0.00     0.186 HD
HETATM   18  N6  UNL     1       3.856  -0.205  -0.053  1.00  0.00    -0.089 N 
HETATM   19  O1  UNL     1       3.155  -0.156   1.035  1.00  0.00    -0.203 OA
ATOM     20  H6  UNL     1       4.875  -0.226  -0.103  1.00  0.00     0.213 HD
BRANCH  16  21
HETATM   21  N1  UNL     1       3.342  -0.270  -2.356  1.00  0.00    -0.233 N 
ATOM     22  H12 UNL     1       2.708  -0.284  -3.155  1.00  0.00     0.174 HD
ATOM     23  H11 UNL     1       4.277  -0.301  -2.762  1.00  0.00     0.174 HD
ENDBRANCH  16  21
ENDBRANCH   1  14
TORSDOF 6
