REMARK  6 active torsions:
REMARK  status: ('A' for Active; 'I' for Inactive)
REMARK    1  A    between atoms: N1_2  and  O1_4 
REMARK    2  A    between atoms: O1_4  and  C2_5 
REMARK    3  A    between atoms: C2_5  and  C3_6 
REMARK    4  A    between atoms: C3_6  and  N2_7 
REMARK    5  A    between atoms: C4_11  and  N3_12 
REMARK    6  A    between atoms: C5_16  and  O2_17 
ROOT
HETATM    1  C3  UNL     1      -0.920   0.117   0.393  1.00  0.00     0.204 A 
HETATM    2  C4  UNL     1      -1.553   0.033  -0.950  1.00  0.00     0.255 A 
HETATM    3  C5  UNL     1      -1.762  -1.045   0.095  1.00  0.00     0.191 A 
ENDROOT
BRANCH   1   4
HETATM    4  C2  UNL     1       0.604  -0.071   0.369  1.00  0.00     0.244 C 
BRANCH   4   5
HETATM    5  O1  UNL     1       1.142   1.139   0.015  1.00  0.00    -0.283 OA
BRANCH   5   6
HETATM    6  N1  UNL     1       2.456   1.194  -0.064  1.00  0.00    -0.307 N 
HETATM    7  C1  UNL     1       3.145  -0.044  -0.015  1.00  0.00     0.175 C 
ATOM      8  H1  UNL     1       2.952   2.081  -0.156  1.00  0.00     0.186 HD
ENDBRANCH   5   6
ENDBRANCH   4   5
ENDBRANCH   1   4
BRANCH   1   9
HETATM    9  N2  UNL     1      -1.361   1.114   1.325  1.00  0.00    -0.063 N 
ATOM     10  H23 UNL     1      -1.008   0.914   2.261  1.00  0.00     0.275 HD
ATOM     11  H22 UNL     1      -0.891   2.002   1.152  1.00  0.00     0.275 HD
ATOM     12  H21 UNL     1      -2.373   1.239   1.341  1.00  0.00     0.275 HD
ENDBRANCH   1   9
BRANCH   2  13
HETATM   13  N3  UNL     1      -0.793  -0.387  -2.102  1.00  0.00    -0.070 N 
ATOM     14  H33 UNL     1       0.029   0.212  -2.176  1.00  0.00     0.274 HD
ATOM     15  H32 UNL     1      -0.373  -1.292  -1.892  1.00  0.00     0.274 HD
ATOM     16  H31 UNL     1      -1.227  -0.445  -3.023  1.00  0.00     0.274 HD
ENDBRANCH   2  13
BRANCH   3  17
HETATM   17  O2  UNL     1      -3.065  -1.120   0.573  1.00  0.00    -0.391 OA
ATOM     18  H2  UNL     1      -3.611  -1.873   0.380  1.00  0.00     0.210 HD
ENDBRANCH   3  17
TORSDOF 6
