REMARK  5 active torsions:
REMARK  status: ('A' for Active; 'I' for Inactive)
REMARK    1  A    between atoms: C1_4  and  N2_5 
REMARK    2  A    between atoms: N2_5  and  N3_7 
REMARK    3  A    between atoms: N3_7  and  N4_8 
REMARK    4  A    between atoms: N3_7  and  C2_11 
REMARK    5  A    between atoms: C2_11  and  C3_12 
ROOT
HETATM    1  N3  UNL     1       0.965  -0.580   0.233  1.00  0.00    -0.142 NA
ENDROOT
BRANCH   1   2
HETATM    2  N2  UNL     1       2.087  -0.393  -0.559  1.00  0.00    -0.298 N 
ATOM      3  H2  UNL     1       2.135  -0.780  -1.501  1.00  0.00     0.183 HD
BRANCH   2   4
HETATM    4  C1  UNL     1       3.165   0.352  -0.020  1.00  0.00     0.187 C 
HETATM    5  N1  UNL     1       2.935   1.490   0.531  1.00  0.00    -0.395 N 
ATOM      6  H12 UNL     1       1.978   1.840   0.572  1.00  0.00     0.156 HD
ATOM      7  H11 UNL     1       3.711   2.026   0.919  1.00  0.00     0.156 HD
ENDBRANCH   2   4
ENDBRANCH   1   2
BRANCH   1   8
HETATM    8  N4  UNL     1       0.513  -1.872   0.306  1.00  0.00    -0.346 NA
ATOM      9  H42 UNL     1       1.221  -2.559   0.564  1.00  0.00     0.172 HD
ATOM     10  H41 UNL     1      -0.313  -2.010   0.889  1.00  0.00     0.172 HD
ENDBRANCH   1   8
BRANCH   1  11
HETATM   11  C2  UNL     1      -0.032   0.388  -0.131  1.00  0.00     0.200 C 
BRANCH  11  12
HETATM   12  C3  UNL     1      -1.299   0.270   0.675  1.00  0.00     0.402 A 
HETATM   13  N5  UNL     1      -2.251   1.280   0.247  1.00  0.00    -0.021 N 
HETATM   14  C4  UNL     1      -3.182   0.250  -0.135  1.00  0.00     0.468 A 
ATOM     15  H52 UNL     1      -2.541   2.012   0.895  1.00  0.00     0.281 HD
ATOM     16  H51 UNL     1      -1.970   1.988  -0.431  1.00  0.00     0.281 HD
HETATM   17  N6  UNL     1      -2.209  -0.762   0.235  1.00  0.00    -0.021 N 
ATOM     18  H62 UNL     1      -1.904  -1.451  -0.453  1.00  0.00     0.281 HD
ATOM     19  H61 UNL     1      -2.473  -1.514   0.872  1.00  0.00     0.281 HD
ENDBRANCH  11  12
ENDBRANCH   1  11
TORSDOF 5
