REMARK  4 active torsions:
REMARK  status: ('A' for Active; 'I' for Inactive)
REMARK    1  A    between atoms: S1_2  and  N1_5 
REMARK    2  A    between atoms: N1_5  and  N2_7 
REMARK    3  A    between atoms: N2_7  and  N3_9 
REMARK    4  A    between atoms: N3_9  and  N4_11 
ROOT
HETATM    1  N2  UNL     1       0.872   0.049  -0.007  1.00  0.00    -0.219 N 
ATOM      2  H2  UNL     1       0.744   0.302   0.973  1.00  0.00     0.210 HD
ENDROOT
BRANCH   1   3
HETATM    3  N1  UNL     1      -0.172  -0.378  -0.790  1.00  0.00    -0.212 N 
ATOM      4  H1  UNL     1      -0.167  -0.471  -1.806  1.00  0.00     0.201 HD
BRANCH   3   5
HETATM    5  S1  UNL     1      -1.495  -0.729   0.264  1.00  0.00     0.241 S 
HETATM    6  C1  UNL     1      -2.501   0.706   0.517  1.00  0.00     0.187 C 
HETATM    7  O1  UNL     1      -0.931  -1.132   1.595  1.00  0.00    -0.205 OA
HETATM    8  O2  UNL     1      -2.300  -1.869  -0.287  1.00  0.00    -0.205 OA
ENDBRANCH   3   5
ENDBRANCH   1   3
BRANCH   1   9
HETATM    9  N3  UNL     1       2.092   0.115  -0.617  1.00  0.00    -0.234 N 
ATOM     10  H3  UNL     1       2.177   0.215  -1.629  1.00  0.00     0.209 HD
BRANCH   9  11
HETATM   11  N4  UNL     1       3.189   0.041   0.183  1.00  0.00    -0.330 N 
ATOM     12  H42 UNL     1       3.088  -0.059   1.193  1.00  0.00     0.178 HD
ATOM     13  H41 UNL     1       4.100   0.090  -0.273  1.00  0.00     0.178 HD
ENDBRANCH   9  11
ENDBRANCH   1   9
TORSDOF 4
