REMARK  3 active torsions:
REMARK  status: ('A' for Active; 'I' for Inactive)
REMARK    1  A    between atoms: C4_11  and  N4_12 
REMARK    2  A    between atoms: N5_14  and  C5_16 
REMARK    3  A    between atoms: N6_21  and  O3_22 
ROOT
HETATM    1  N4  UNL     1       0.218  -0.522   0.337  1.00  0.00    -0.291 N 
ATOM      2  H4  UNL     1      -0.209  -1.424   0.128  1.00  0.00     0.187 HD
HETATM    3  N5  UNL     1      -0.486   0.503   0.573  1.00  0.00    -0.283 N 
ATOM      4  H5  UNL     1      -0.045   1.399   0.781  1.00  0.00     0.188 HD
ENDROOT
BRANCH   1   5
HETATM    5  C4  UNL     1       1.628  -0.362   0.376  1.00  0.00     0.158 A 
HETATM    6  C1  UNL     1       2.378  -0.253  -0.764  1.00  0.00     0.154 A 
HETATM    7  N1  UNL     1       1.749  -0.300  -2.042  1.00  0.00    -0.080 NA
HETATM    8  N2  UNL     1       3.712  -0.102  -0.660  1.00  0.00    -0.295 N 
HETATM    9  C2  UNL     1       4.357  -0.051   0.511  1.00  0.00     0.328 A 
ATOM     10  H2  UNL     1       4.259  -0.022  -1.518  1.00  0.00     0.172 HD
HETATM   11  O1  UNL     1       5.607   0.090   0.617  1.00  0.00    -0.247 OA
HETATM   12  N3  UNL     1       3.640  -0.156   1.640  1.00  0.00    -0.273 N 
HETATM   13  C3  UNL     1       2.307  -0.308   1.589  1.00  0.00     0.281 A 
ATOM     14  H3  UNL     1       4.111  -0.120   2.544  1.00  0.00     0.173 HD
HETATM   15  O2  UNL     1       1.654  -0.404   2.656  1.00  0.00    -0.265 OA
ENDBRANCH   1   5
BRANCH   3  16
HETATM   16  C5  UNL     1      -1.893   0.384   0.543  1.00  0.00     0.146 A 
HETATM   17  C6  UNL     1      -2.678   1.347   1.139  1.00  0.00     0.052 A 
HETATM   18  C7  UNL     1      -4.052   1.236   1.114  1.00  0.00     0.005 A 
HETATM   19  C8  UNL     1      -4.643   0.153   0.488  1.00  0.00     0.020 A 
HETATM   20  C9  UNL     1      -3.820  -0.787  -0.095  1.00  0.00     0.125 A 
HETATM   21  N6  UNL     1      -2.478  -0.666  -0.063  1.00  0.00    -0.218 N 
BRANCH  21  22
HETATM   22  O3  UNL     1      -1.717  -1.661  -0.677  1.00  0.00    -0.282 OA
ATOM     23  H3  UNL     1      -2.130  -2.402  -1.105  1.00  0.00     0.245 HD
ENDBRANCH  21  22
ENDBRANCH   3  16
TORSDOF 3
