REMARK  5 active torsions:
REMARK  status: ('A' for Active; 'I' for Inactive)
REMARK    1  A    between atoms: O1_2  and  N1_3 
REMARK    2  A    between atoms: C2_5  and  C3_6 
REMARK    3  A    between atoms: C4_7  and  N2_8 
REMARK    4  A    between atoms: N2_8  and  C5_10 
REMARK    5  A    between atoms: C10_16  and  N4_17 
ROOT
HETATM    1  C3  UNL     1       1.227   0.480  -0.216  1.00  0.00     0.094 A 
HETATM    2  C4  UNL     1      -0.179   0.479  -0.141  1.00  0.00     0.137 A 
HETATM    3  N3  UNL     1      -0.804   1.657  -0.034  1.00  0.00    -0.172 N 
HETATM    4  C9  UNL     1      -2.238   1.836   0.092  1.00  0.00     0.177 C 
HETATM    5  C10 UNL     1      -0.108   2.843  -0.001  1.00  0.00     0.682 A 
HETATM    6  N5  UNL     1       1.230   2.888  -0.070  1.00  0.00    -0.155 N 
ATOM      7  H5  UNL     1       1.740   3.771  -0.044  1.00  0.00     0.187 HD
HETATM    8  C11 UNL     1       1.853   1.727  -0.174  1.00  0.00     0.275 A 
HETATM    9  O2  UNL     1       3.123   1.747  -0.240  1.00  0.00    -0.267 OA
ENDROOT
BRANCH   2  10
HETATM   10  N2  UNL     1      -0.820  -0.758  -0.157  1.00  0.00    -0.366 N 
ATOM     11  H2  UNL     1      -0.156  -1.530  -0.099  1.00  0.00     0.162 HD
BRANCH  10  12
HETATM   12  C5  UNL     1      -2.164  -1.220  -0.234  1.00  0.00     0.028 A 
HETATM   13  C6  UNL     1      -2.924  -0.925  -1.542  1.00  0.00     0.038 C 
HETATM   14  C7  UNL     1      -2.963  -1.745   0.884  1.00  0.00     0.033 A 
HETATM   15  C8  UNL     1      -2.259  -2.754   0.071  1.00  0.00     0.033 A 
ENDBRANCH  10  12
ENDBRANCH   2  10
BRANCH   1  16
HETATM   16  C2  UNL     1       2.031  -0.722  -0.349  1.00  0.00     0.135 C 
HETATM   17  N1  UNL     1       3.327  -0.575  -0.405  1.00  0.00    -0.277 N 
ATOM     18  H1  UNL     1       3.713   0.368  -0.353  1.00  0.00     0.193 HD
BRANCH  17  19
HETATM   19  O1  UNL     1       4.192  -1.631  -0.530  1.00  0.00    -0.286 OA
HETATM   20  C1  UNL     1       5.526  -1.534  -0.116  1.00  0.00     0.237 C 
ENDBRANCH  17  19
ENDBRANCH   1  16
BRANCH   5  21
HETATM   21  N4  UNL     1      -0.717   3.973   0.097  1.00  0.00    -0.234 N 
ATOM     22  H42 UNL     1      -1.735   3.939   0.150  1.00  0.00     0.174 HD
ATOM     23  H41 UNL     1      -0.201   4.852   0.121  1.00  0.00     0.174 HD
ENDBRANCH   5  21
TORSDOF 5
