REMARK  8 active torsions:
REMARK  status: ('A' for Active; 'I' for Inactive)
REMARK       I    between atoms: N1_2  and  C2_4 
REMARK    1  A    between atoms: C2_4  and  C3_6 
REMARK    2  A    between atoms: C4_10  and  C6_12 
REMARK    3  A    between atoms: C6_12  and  C7_13 
REMARK    4  A    between atoms: C7_13  and  C8_14 
REMARK    5  A    between atoms: C8_14  and  N3_15 
REMARK    6  A    between atoms: N3_15  and  C9_17 
REMARK    7  A    between atoms: C9_17  and  C10_18 
REMARK    8  A    between atoms: C10_18  and  O2_21 
ROOT
HETATM    1  C3  UNL     1      -2.619   0.111   0.354  1.00  0.00     0.300 C 
HETATM    2  N2  UNL     1      -1.413   0.295  -0.429  1.00  0.00    -0.051 N 
ATOM      3  H21 UNL     1      -1.638   0.474  -1.408  1.00  0.00     0.279 HD
ATOM      4  H22 UNL     1      -0.908  -0.585  -0.533  1.00  0.00     0.279 HD
HETATM    5  C4  UNL     1      -0.549   1.328   0.101  1.00  0.00     0.136 C 
HETATM    6  C5  UNL     1       0.262   1.831  -1.049  1.00  0.00     0.047 C 
HETATM    7  C13 UNL     1      -1.362   2.525   0.581  1.00  0.00     0.179 C 
HETATM    8  S1  UNL     1      -2.930   2.658  -0.171  1.00  0.00     0.157 S 
HETATM    9  O3  UNL     1      -2.833   3.270  -1.552  1.00  0.00    -0.227 OA
HETATM   10  O4  UNL     1      -3.866   3.557   0.598  1.00  0.00    -0.227 OA
HETATM   11  C14 UNL     1      -3.634   1.034  -0.305  1.00  0.00     0.094 C 
HETATM   12  C15 UNL     1      -5.001   0.973   0.313  1.00  0.00     0.034 C 
HETATM   13  C16 UNL     1      -3.729   0.687  -1.784  1.00  0.00     0.034 C 
ENDROOT
BRANCH   5  14
HETATM   14  C6  UNL     1       0.201   0.828   1.287  1.00  0.00     0.041 C 
BRANCH  14  15
HETATM   15  C7  UNL     1       1.071  -0.338   1.183  1.00  0.00     0.022 C 
BRANCH  15  16
HETATM   16  C8  UNL     1       2.242  -0.269   0.218  1.00  0.00     0.119 C 
BRANCH  16  17
HETATM   17  N3  UNL     1       2.999  -1.499   0.300  1.00  0.00    -0.399 N 
ATOM     18  H3  UNL     1       2.759  -2.211   0.990  1.00  0.00     0.158 HD
BRANCH  17  19
HETATM   19  C9  UNL     1       4.064  -1.695  -0.581  1.00  0.00     0.092 C 
BRANCH  19  20
HETATM   20  C10 UNL     1       5.307  -0.897  -0.469  1.00  0.00     0.082 C 
HETATM   21  C11 UNL     1       5.188   0.560  -0.783  1.00  0.00     0.051 C 
HETATM   22  C12 UNL     1       5.956  -1.190   0.861  1.00  0.00     0.051 C 
BRANCH  20  23
HETATM   23  O2  UNL     1       6.179  -1.418  -1.489  1.00  0.00    -0.385 OA
ATOM     24  H2  UNL     1       6.976  -0.906  -1.417  1.00  0.00     0.211 HD
ENDBRANCH  20  23
ENDBRANCH  19  20
ENDBRANCH  17  19
ENDBRANCH  16  17
ENDBRANCH  15  16
ENDBRANCH  14  15
ENDBRANCH   5  14
BRANCH   1  25
HETATM   25  C2  UNL     1      -2.991  -1.323   0.239  1.00  0.00     0.249 C 
HETATM   26  N1  UNL     1      -4.082  -1.931   0.907  1.00  0.00    -0.364 N 
HETATM   27  C1  UNL     1      -4.420  -3.331   0.772  1.00  0.00     0.149 C 
ATOM     28  H1  UNL     1      -4.660  -1.351   1.515  1.00  0.00     0.161 HD
HETATM   29  O1  UNL     1      -2.314  -2.119  -0.501  1.00  0.00    -0.271 OA
ENDBRANCH   1  25
TORSDOF 8
