REMARK  6 active torsions:
REMARK  status: ('A' for Active; 'I' for Inactive)
REMARK    1  A    between atoms: N1_1  and  C1_4 
REMARK    2  A    between atoms: C2_7  and  N3_8 
REMARK    3  A    between atoms: N3_8  and  O1_10 
REMARK    4  A    between atoms: O1_10  and  C3_11 
REMARK    5  A    between atoms: C3_11  and  O2_12 
REMARK    6  A    between atoms: C3_11  and  C4_14 
ROOT
HETATM    1  C1  UNL     1      -2.435  -0.552  -1.485  1.00  0.00     0.153 A 
HETATM    2  N2  UNL     1      -1.092  -0.636  -1.482  1.00  0.00    -0.172 N 
ATOM      3  H2  UNL     1      -0.625  -1.235  -2.163  1.00  0.00     0.186 HD
HETATM    4  C2  UNL     1      -0.345   0.067  -0.582  1.00  0.00     0.705 A 
HETATM    5  N5  UNL     1      -1.001   0.839   0.292  1.00  0.00    -0.166 N 
ATOM      6  H5  UNL     1      -0.449   1.368   0.967  1.00  0.00     0.186 HD
HETATM    7  C5  UNL     1      -2.329   0.964   0.341  1.00  0.00     0.197 A 
HETATM    8  C6  UNL     1      -3.093   0.255  -0.567  1.00  0.00     0.167 A 
HETATM    9  O4  UNL     1      -4.432   0.546  -0.322  1.00  0.00    -0.318 OA
HETATM   10  C7  UNL     1      -4.526   1.107   0.991  1.00  0.00     0.354 C 
HETATM   11  O5  UNL     1      -3.239   1.683   1.133  1.00  0.00    -0.307 OA
ENDROOT
BRANCH   4  12
HETATM   12  N3  UNL     1       0.916  -0.068  -0.648  1.00  0.00    -0.093 N 
ATOM     13  H3  UNL     1       1.269  -0.694  -1.372  1.00  0.00     0.213 HD
BRANCH  12  14
HETATM   14  O1  UNL     1       1.841   0.528   0.137  1.00  0.00    -0.224 OA
BRANCH  14  15
HETATM   15  C3  UNL     1       3.210   0.221  -0.066  1.00  0.00     0.377 C 
BRANCH  15  16
HETATM   16  O2  UNL     1       3.848   1.418  -0.375  1.00  0.00    -0.362 OA
ATOM     17  H2  UNL     1       4.765   1.212  -0.511  1.00  0.00     0.213 HD
ENDBRANCH  15  16
BRANCH  15  18
HETATM   18  C4  UNL     1       3.832  -0.385   1.119  1.00  0.00     0.288 C 
HETATM   19  N4  UNL     1       4.919   0.281   1.745  1.00  0.00    -0.057 NA
HETATM   20  O3  UNL     1       3.450  -1.481   1.624  1.00  0.00    -0.271 OA
ENDBRANCH  15  18
ENDBRANCH  14  15
ENDBRANCH  12  14
ENDBRANCH   4  12
BRANCH   1  21
HETATM   21  N1  UNL     1      -3.180  -1.205  -2.324  1.00  0.00    -0.383 N 
ATOM     22  H12 UNL     1      -2.697  -1.798  -2.999  1.00  0.00     0.157 HD
ATOM     23  H11 UNL     1      -4.198  -1.141  -2.326  1.00  0.00     0.157 HD
ENDBRANCH   1  21
TORSDOF 6
