REMARK  2 active torsions:
REMARK  status: ('A' for Active; 'I' for Inactive)
REMARK    1  A    between atoms: N1_1  and  N2_4 
REMARK       I    between atoms: N2_4  and  C1_6 
REMARK    2  A    between atoms: C1_6  and  C2_8 
ROOT
HETATM    1  C2  UNL     1      -0.385   0.581  -0.215  1.00  0.00     0.195 A 
HETATM    2  N3  UNL     1      -1.065   1.639  -0.482  1.00  0.00    -0.277 N 
ATOM      3  H3  UNL     1      -0.635   2.552  -0.633  1.00  0.00     0.189 HD
HETATM    4  N4  UNL     1      -2.421   1.432  -0.546  1.00  0.00    -0.250 N 
ATOM      5  H4  UNL     1      -3.144   2.124  -0.742  1.00  0.00     0.192 HD
HETATM    6  C3  UNL     1      -2.600   0.052  -0.281  1.00  0.00     0.340 A 
HETATM    7  O2  UNL     1      -3.671  -0.606  -0.232  1.00  0.00    -0.245 OA
HETATM    8  N5  UNL     1      -1.305  -0.498  -0.069  1.00  0.00    -0.288 N 
ATOM      9  H5  UNL     1      -1.080  -1.470   0.145  1.00  0.00     0.172 HD
ENDROOT
BRANCH   1  10
HETATM   10  C1  UNL     1       1.054   0.425  -0.071  1.00  0.00     0.305 C 
HETATM   11  N2  UNL     1       1.642  -0.823   0.228  1.00  0.00    -0.270 N 
ATOM     12  H2  UNL     1       1.053  -1.647   0.349  1.00  0.00     0.189 HD
HETATM   13  O1  UNL     1       1.770   1.440  -0.221  1.00  0.00    -0.263 OA
BRANCH  11  14
HETATM   14  N1  UNL     1       3.028  -0.931   0.358  1.00  0.00    -0.342 N 
ATOM     15  H12 UNL     1       3.602  -0.097   0.234  1.00  0.00     0.176 HD
ATOM     16  H11 UNL     1       3.453  -1.833   0.574  1.00  0.00     0.176 HD
ENDBRANCH  11  14
ENDBRANCH   1  10
TORSDOF 2
