REMARK  8 active torsions:
REMARK  status: ('A' for Active; 'I' for Inactive)
REMARK    1  A    between atoms: C2_2  and  O1_5 
REMARK    2  A    between atoms: O1_5  and  C5_6 
REMARK    3  A    between atoms: C5_6  and  C6_8 
REMARK    4  A    between atoms: C6_8  and  N1_9 
REMARK    5  A    between atoms: N1_9  and  C7_12 
REMARK    6  A    between atoms: C7_12  and  C10_15 
REMARK       I    between atoms: C10_15  and  N2_17 
REMARK    7  A    between atoms: C14_23  and  C15_24 
REMARK       I    between atoms: C15_24  and  N3_26 
REMARK    8  A    between atoms: N3_26  and  C16_28 
ROOT
HETATM    1  C10 UNL     1       0.235  -0.947  -0.138  1.00  0.00     0.257 C 
HETATM    2  O3  UNL     1       0.594   0.297  -0.061  1.00  0.00    -0.271 OA
HETATM    3  N2  UNL     1       1.017  -1.914   0.521  1.00  0.00    -0.325 N 
HETATM    4  C11 UNL     1       0.531  -3.252   0.796  1.00  0.00     0.203 C 
HETATM    5  S1  UNL     1       1.885  -3.943   1.911  1.00  0.00    -0.121 SA
HETATM    6  C12 UNL     1       3.168  -2.947   0.979  1.00  0.00     0.112 C 
HETATM    7  C13 UNL     1       3.290  -3.659  -0.322  1.00  0.00     0.047 C 
HETATM    8 CL1  UNL     1       4.632  -2.781   1.898  1.00  0.00    -0.105 Cl
HETATM    9  C14 UNL     1       2.371  -1.669   0.952  1.00  0.00     0.213 C 
ENDROOT
BRANCH   1  10
HETATM   10  C7  UNL     1      -0.992  -1.132  -0.950  1.00  0.00     0.199 C 
HETATM   11  C8  UNL     1      -1.631  -2.455  -0.891  1.00  0.00     0.056 C 
HETATM   12  C9  UNL     1      -0.593  -0.797  -2.394  1.00  0.00     0.056 C 
BRANCH  10  13
HETATM   13  N1  UNL     1      -1.980  -0.120  -0.533  1.00  0.00    -0.049 N 
ATOM     14  H12 UNL     1      -1.596   0.824  -0.574  1.00  0.00     0.279 HD
ATOM     15  H11 UNL     1      -2.169  -0.164   0.468  1.00  0.00     0.279 HD
BRANCH  13  16
HETATM   16  C6  UNL     1      -3.169  -0.241  -1.301  1.00  0.00     0.344 C 
BRANCH  16  17
HETATM   17  C5  UNL     1      -4.214   0.730  -0.827  1.00  0.00     0.285 C 
HETATM   18  O2  UNL     1      -4.451   1.720  -1.576  1.00  0.00    -0.263 OA
BRANCH  17  19
HETATM   19  O1  UNL     1      -4.854   0.531   0.344  1.00  0.00    -0.310 OA
BRANCH  19  20
HETATM   20  C2  UNL     1      -5.908   1.252   0.857  1.00  0.00     0.060 C 
HETATM   21  C1  UNL     1      -7.169   0.793   0.068  1.00  0.00     0.045 C 
HETATM   22  C3  UNL     1      -5.742   2.762   0.551  1.00  0.00     0.045 C 
HETATM   23  C4  UNL     1      -6.076   1.110   2.331  1.00  0.00     0.045 C 
ENDBRANCH  19  20
ENDBRANCH  17  19
ENDBRANCH  16  17
ENDBRANCH  13  16
ENDBRANCH  10  13
ENDBRANCH   1  10
BRANCH   9  24
HETATM   24  C15 UNL     1       2.988  -0.573   0.221  1.00  0.00     0.243 C 
HETATM   25  O4  UNL     1       2.825  -0.441  -1.025  1.00  0.00    -0.271 OA
HETATM   26  N3  UNL     1       3.774   0.385   0.901  1.00  0.00    -0.354 N 
ATOM     27  H3  UNL     1       3.926   0.184   1.889  1.00  0.00     0.162 HD
BRANCH  26  28
HETATM   28  C16 UNL     1       4.372   1.548   0.453  1.00  0.00     0.099 C 
HETATM   29  C17 UNL     1       5.306   1.316  -0.749  1.00  0.00     0.041 C 
HETATM   30  C18 UNL     1       5.682   2.747  -1.187  1.00  0.00     0.142 C 
HETATM   31  S2  UNL     1       5.974   3.508   0.395  1.00  0.00     0.146 S 
HETATM   32  O5  UNL     1       7.426   3.653   0.652  1.00  0.00    -0.228 OA
HETATM   33  O6  UNL     1       5.259   4.797   0.536  1.00  0.00    -0.228 OA
HETATM   34  C19 UNL     1       5.237   2.234   1.451  1.00  0.00     0.165 C 
ENDBRANCH  26  28
ENDBRANCH   9  24
TORSDOF 8
