REMARK  2 active torsions:
REMARK  status: ('A' for Active; 'I' for Inactive)
REMARK    1  A    between atoms: N1_1  and  C1_4 
REMARK    2  A    between atoms: C2_7  and  N3_8 
ROOT
HETATM    1  C1  UNL     1       3.367  -0.504   0.252  1.00  0.00     0.705 A 
HETATM    2  N2  UNL     1       2.102  -0.963   0.248  1.00  0.00    -0.020 N 
ATOM      3  H2  UNL     1       1.832  -1.938   0.376  1.00  0.00     0.203 HD
HETATM    4  C2  UNL     1       1.245   0.059   0.049  1.00  0.00     0.710 A 
HETATM    5  N5  UNL     1       1.987   1.173  -0.073  1.00  0.00    -0.117 N 
ATOM      6  H5  UNL     1       1.635   2.117  -0.232  1.00  0.00     0.206 HD
HETATM    7  N6  UNL     1       3.257   0.822   0.050  1.00  0.00    -0.118 N 
ATOM      8  H6  UNL     1       4.045   1.468  -0.001  1.00  0.00     0.206 HD
ENDROOT
BRANCH   4   9
HETATM    9  N3  UNL     1      -0.168  -0.018  -0.020  1.00  0.00    -0.213 N 
HETATM   10  C3  UNL     1      -0.856  -1.278   0.127  1.00  0.00     0.160 C 
HETATM   11  C4  UNL     1      -2.260  -1.186  -0.453  1.00  0.00     0.134 C 
HETATM   12  N4  UNL     1      -3.002  -0.136   0.169  1.00  0.00    -0.418 N 
HETATM   13  C5  UNL     1      -2.326   1.100   0.313  1.00  0.00     0.134 C 
ATOM     14  H4  UNL     1      -3.961  -0.268   0.490  1.00  0.00     0.153 HD
HETATM   15  C6  UNL     1      -0.951   1.164  -0.238  1.00  0.00     0.160 C 
ENDBRANCH   4   9
BRANCH   1  16
HETATM   16  N1  UNL     1       4.448  -1.200   0.415  1.00  0.00    -0.233 N 
ATOM     17  H12 UNL     1       4.531  -2.205   0.568  1.00  0.00     0.174 HD
ATOM     18  H11 UNL     1       5.407  -0.852   0.418  1.00  0.00     0.174 HD
ENDBRANCH   1  16
TORSDOF 2
