REMARK  8 active torsions:
REMARK  status: ('A' for Active; 'I' for Inactive)
REMARK    1  A    between atoms: C2_2  and  C4_4 
REMARK    2  A    between atoms: C4_4  and  C5_5 
REMARK    3  A    between atoms: C4_4  and  C22_27 
REMARK    4  A    between atoms: C6_6  and  C7_7 
REMARK    5  A    between atoms: C12_12  and  O1_13 
REMARK    6  A    between atoms: O1_13  and  C13_14 
REMARK    7  A    between atoms: C22_27  and  C23_28 
REMARK    8  A    between atoms: C23_28  and  O7_30 
ROOT
HETATM    1  C7  UNL     1       0.342  -1.075   0.852  1.00  0.00     0.054 C 
HETATM    2  C8  UNL     1       1.426  -0.089   0.391  1.00  0.00    -0.030 C 
HETATM    3  C9  UNL     1       2.790  -0.720   0.684  1.00  0.00     0.016 C 
HETATM    4  C10 UNL     1       1.354   0.109  -1.099  1.00  0.00     0.013 C 
HETATM    5  C11 UNL     1       1.710   1.461  -1.618  1.00  0.00     0.033 C 
HETATM    6  C12 UNL     1       2.545   2.318  -0.718  1.00  0.00     0.132 C 
HETATM    7  C15 UNL     1       2.303   2.155   0.718  1.00  0.00     0.038 C 
HETATM    8  C16 UNL     1       1.254   1.179   1.130  1.00  0.00    -0.001 C 
HETATM    9  C17 UNL     1       1.369   1.056   2.631  1.00  0.00     0.041 C 
HETATM   10  C18 UNL     1       0.632  -0.079   3.198  1.00  0.00     0.170 C 
HETATM   11  O3  UNL     1       1.529  -0.733   4.132  1.00  0.00    -0.290 OA
HETATM   12  C19 UNL     1       1.192  -2.080   4.126  1.00  0.00     0.407 C 
HETATM   13  O4  UNL     1       1.216  -2.850   5.107  1.00  0.00    -0.229 OA
HETATM   14  O5  UNL     1       0.848  -2.343   2.835  1.00  0.00    -0.284 OA
HETATM   15  C20 UNL     1       0.228  -1.153   2.316  1.00  0.00     0.103 C 
HETATM   16  C21 UNL     1      -1.277  -1.446   2.641  1.00  0.00     0.050 C 
ENDROOT
BRANCH   1  17
HETATM   17  C6  UNL     1      -0.938  -0.668   0.258  1.00  0.00    -0.018 C 
HETATM   18  C5  UNL     1      -1.657  -1.571  -0.523  1.00  0.00     0.004 C 
BRANCH  18  19
HETATM   19  C4  UNL     1      -2.829  -1.242  -1.093  1.00  0.00    -0.044 C 
BRANCH  19  20
HETATM   20  C2  UNL     1      -3.476  -2.874  -0.796  1.00  0.00    -0.065 C 
HETATM   21  C1  UNL     1      -2.725  -3.685  -0.260  1.00  0.00     0.019 C 
HETATM   22  C3  UNL     1      -4.847  -3.066  -1.174  1.00  0.00     0.048 C 
ENDBRANCH  19  20
BRANCH  19  23
HETATM   23  C22 UNL     1      -3.962  -0.932  -1.644  1.00  0.00     0.150 C 
BRANCH  23  24
HETATM   24  C23 UNL     1      -3.928   0.542  -2.139  1.00  0.00     0.262 C 
HETATM   25  O6  UNL     1      -2.935   1.246  -1.979  1.00  0.00    -0.265 OA
BRANCH  24  26
HETATM   26  O7  UNL     1      -5.023   1.049  -2.769  1.00  0.00    -0.326 OA
HETATM   27  C24 UNL     1      -4.951   2.406  -3.239  1.00  0.00     0.213 C 
ENDBRANCH  24  26
ENDBRANCH  23  24
ENDBRANCH  19  23
ENDBRANCH  18  19
ENDBRANCH   1  17
BRANCH   6  28
HETATM   28  O1  UNL     1       3.922   2.110  -0.993  1.00  0.00    -0.316 OA
BRANCH  28  29
HETATM   29  C13 UNL     1       4.740   3.057  -1.534  1.00  0.00     0.255 C 
HETATM   30  C14 UNL     1       6.161   2.689  -1.765  1.00  0.00     0.126 C 
HETATM   31  O2  UNL     1       4.327   4.185  -1.825  1.00  0.00    -0.266 OA
ENDBRANCH  28  29
ENDBRANCH   6  28
TORSDOF 8
