REMARK  5 active torsions:
REMARK  status: ('A' for Active; 'I' for Inactive)
REMARK    1  A    between atoms: C6_6  and  O1_7 
REMARK    2  A    between atoms: C8_9  and  C9_10 
REMARK    3  A    between atoms: C10_11  and  C11_12 
REMARK    4  A    between atoms: C11_12  and  N1_13 
REMARK    5  A    between atoms: N1_13  and  C12_15 
ROOT
HETATM    1  C1  UNL     1      -4.643   3.690   0.202  1.00  0.00     0.018 C 
HETATM    2  C2  UNL     1      -4.185   2.570   0.130  1.00  0.00    -0.078 C 
HETATM    3  C3  UNL     1      -3.626   1.248   0.045  1.00  0.00     0.017 A 
HETATM    4  C4  UNL     1      -4.429   0.131   0.103  1.00  0.00     0.023 A 
HETATM    5  C5  UNL     1      -3.890  -1.129   0.022  1.00  0.00     0.039 A 
HETATM    6  C6  UNL     1      -2.541  -1.243  -0.118  1.00  0.00     0.078 A 
HETATM    7  C8  UNL     1      -1.674  -0.143  -0.183  1.00  0.00    -0.002 A 
HETATM    8  C14 UNL     1      -2.250   1.108  -0.098  1.00  0.00     0.034 A 
ENDROOT
BRANCH   7   9
HETATM    9  C9  UNL     1      -0.244  -0.344  -0.342  1.00  0.00     0.012 C 
HETATM   10  C10 UNL     1       0.636   0.624  -0.400  1.00  0.00    -0.007 C 
BRANCH  10  11
HETATM   11  C11 UNL     1       2.107   0.402  -0.565  1.00  0.00     0.148 C 
BRANCH  11  12
HETATM   12  N1  UNL     1       2.852   0.926   0.522  1.00  0.00    -0.374 N 
ATOM     13  H1  UNL     1       2.337   1.321   1.309  1.00  0.00     0.161 HD
BRANCH  12  14
HETATM   14  C12 UNL     1       4.253   0.935   0.583  1.00  0.00     0.125 C 
HETATM   15  N2  UNL     1       4.900   2.048   1.264  1.00  0.00    -0.082 NA
HETATM   16  C13 UNL     1       5.074   0.038   0.092  1.00  0.00     0.144 C 
HETATM   17  N3  UNL     1       4.656  -1.121  -0.603  1.00  0.00    -0.112 NA
ENDBRANCH  12  14
ENDBRANCH  11  12
ENDBRANCH  10  11
ENDBRANCH   7   9
BRANCH   6  18
HETATM   18  O1  UNL     1      -1.951  -2.496  -0.203  1.00  0.00    -0.355 OA
HETATM   19  C7  UNL     1      -2.677  -3.700  -0.156  1.00  0.00     0.210 C 
ENDBRANCH   6  18
TORSDOF 5
