REMARK  7 active torsions:
REMARK  status: ('A' for Active; 'I' for Inactive)
REMARK       I    between atoms: C1_2  and  N2_4 
REMARK    1  A    between atoms: N2_4  and  N3_6 
REMARK       I    between atoms: N3_6  and  C2_8 
REMARK    2  A    between atoms: C2_8  and  C3_10 
REMARK    3  A    between atoms: C4_11  and  N4_12 
REMARK    4  A    between atoms: C4_11  and  C5_16 
REMARK    5  A    between atoms: C7_21  and  C8_22 
REMARK    6  A    between atoms: C10_29  and  O7_30 
REMARK    7  A    between atoms: C11_32  and  O8_33 
ROOT
HETATM    1  C3  UNL     1      -0.136  -0.170   0.570  1.00  0.00     0.102 C 
HETATM    2  C4  UNL     1      -0.533   1.070  -0.097  1.00  0.00     0.305 C 
HETATM    3  C6  UNL     1      -1.906   1.629  -0.041  1.00  0.00     0.207 C 
HETATM    4  O5  UNL     1      -2.187   2.313   0.859  1.00  0.00    -0.291 OA
HETATM    5  C7  UNL     1      -3.062   1.404  -1.078  1.00  0.00     0.219 C 
HETATM    6  N5  UNL     1      -2.650  -0.024  -1.462  1.00  0.00    -0.345 N 
ATOM      7  H5  UNL     1      -2.571  -0.238  -2.456  1.00  0.00     0.163 HD
HETATM    8  C9  UNL     1      -2.394  -0.979  -0.625  1.00  0.00     0.176 C 
HETATM    9  N6  UNL     1      -1.985  -2.263  -1.190  1.00  0.00    -0.332 N 
ATOM     10  H6  UNL     1      -2.373  -2.799  -1.966  1.00  0.00     0.165 HD
HETATM   11  C10 UNL     1      -0.819  -2.559  -0.284  1.00  0.00     0.281 C 
HETATM   12  C11 UNL     1      -0.794  -1.429   0.703  1.00  0.00     0.212 C 
HETATM   13  N7  UNL     1      -2.313  -1.201   0.770  1.00  0.00    -0.323 N 
ATOM     14  H7  UNL     1      -2.997  -1.207   1.527  1.00  0.00     0.166 HD
ENDROOT
BRANCH   1  15
HETATM   15  C2  UNL     1       1.306  -0.393   0.178  1.00  0.00     0.270 C 
HETATM   16  N3  UNL     1       2.394   0.181   0.899  1.00  0.00    -0.262 N 
ATOM     17  H3  UNL     1       2.189   0.761   1.713  1.00  0.00     0.190 HD
HETATM   18  O2  UNL     1       1.626  -1.097  -0.812  1.00  0.00    -0.266 OA
BRANCH  16  19
HETATM   19  N2  UNL     1       3.721  -0.017   0.539  1.00  0.00    -0.251 N 
HETATM   20  C1  UNL     1       4.314   0.350  -0.684  1.00  0.00     0.347 C 
HETATM   21  N1  UNL     1       5.688   0.100  -0.952  1.00  0.00    -0.038 NA
HETATM   22  O1  UNL     1       3.683   0.917  -1.613  1.00  0.00    -0.249 OA
ATOM     23  H2  UNL     1       4.323  -0.471   1.226  1.00  0.00     0.191 HD
ENDBRANCH  16  19
ENDBRANCH   1  15
BRANCH   2  24
HETATM   24  N4  UNL     1      -0.078   1.081  -1.514  1.00  0.00    -0.049 N 
ATOM     25  H43 UNL     1       0.926   0.918  -1.588  1.00  0.00     0.276 HD
ATOM     26  H42 UNL     1      -0.406   0.259  -2.021  1.00  0.00     0.276 HD
ATOM     27  H41 UNL     1      -0.355   1.946  -1.979  1.00  0.00     0.276 HD
ENDBRANCH   2  24
BRANCH   2  28
HETATM   28  C5  UNL     1       0.279   2.173   0.549  1.00  0.00     0.223 C 
HETATM   29  O3  UNL     1      -0.004   2.483   1.730  1.00  0.00    -0.646 OA
HETATM   30  O4  UNL     1       1.273   2.796  -0.128  1.00  0.00    -0.646 OA
ENDBRANCH   2  28
BRANCH  12  31
HETATM   31  O8  UNL     1      -0.432  -2.031   1.915  1.00  0.00    -0.363 OA
ATOM     32  H8  UNL     1      -0.870  -2.869   2.004  1.00  0.00     0.213 HD
ENDBRANCH  12  31
BRANCH  11  33
HETATM   33  O7  UNL     1      -1.291  -3.713   0.404  1.00  0.00    -0.371 OA
ATOM     34  H7  UNL     1      -0.555  -3.900   0.976  1.00  0.00     0.212 HD
ENDBRANCH  11  33
BRANCH   5  35
HETATM   35  C8  UNL     1      -4.342   1.272  -0.397  1.00  0.00     0.264 C 
HETATM   36  O6  UNL     1      -4.947   2.242   0.038  1.00  0.00    -0.304 OA
ENDBRANCH   5  35
TORSDOF 7
