REMARK  6 active torsions:
REMARK  status: ('A' for Active; 'I' for Inactive)
REMARK    1  A    between atoms: C1_2  and  C2_4 
REMARK    2  A    between atoms: C2_4  and  N1_5 
REMARK       I    between atoms: N1_5  and  C3_6 
REMARK    3  A    between atoms: N1_5  and  C13_23 
REMARK    4  A    between atoms: C3_6  and  C4_8 
REMARK    5  A    between atoms: C4_8  and  N2_9 
REMARK    6  A    between atoms: N3_12  and  C7_13 
ROOT
HETATM    1  N2  UNL     1       0.780  -1.146   1.014  1.00  0.00    -0.242 N 
HETATM    2  C5  UNL     1       1.389  -0.343   1.972  1.00  0.00     0.104 C 
HETATM    3  C6  UNL     1       2.487   0.465   1.408  1.00  0.00     0.189 C 
HETATM    4  N3  UNL     1       3.026  -0.132   0.223  1.00  0.00    -0.254 N 
HETATM    5  S1  UNL     1       1.805  -1.284  -0.284  1.00  0.00     0.331 S 
HETATM    6  O4  UNL     1       2.467  -2.614  -0.367  1.00  0.00    -0.181 OA
HETATM    7  O5  UNL     1       1.276  -0.913  -1.613  1.00  0.00    -0.181 OA
ENDROOT
BRANCH   1   8
HETATM    8  C4  UNL     1      -0.580  -1.356   0.938  1.00  0.00     0.184 C 
BRANCH   8   9
HETATM    9  C3  UNL     1      -1.440  -0.235   0.589  1.00  0.00     0.265 C 
HETATM   10  N1  UNL     1      -2.866  -0.353   0.489  1.00  0.00    -0.303 N 
HETATM   11  O3  UNL     1      -0.934   0.879   0.365  1.00  0.00    -0.266 OA
BRANCH  10  12
HETATM   12  C2  UNL     1      -3.563  -1.568   0.758  1.00  0.00     0.245 C 
BRANCH  12  13
HETATM   13  C1  UNL     1      -3.704  -2.469  -0.411  1.00  0.00     0.192 C 
HETATM   14  O1  UNL     1      -3.092  -2.274  -1.491  1.00  0.00    -0.647 OA
HETATM   15  O2  UNL     1      -4.528  -3.593  -0.382  1.00  0.00    -0.647 OA
ENDBRANCH  12  13
ENDBRANCH  10  12
BRANCH  10  16
HETATM   16  C13 UNL     1      -3.660   0.796   0.146  1.00  0.00     0.038 A 
HETATM   17  C14 UNL     1      -3.442   2.001   0.832  1.00  0.00     0.030 A 
HETATM   18  C15 UNL     1      -4.178   3.096   0.528  1.00  0.00     0.002 A 
HETATM   19  C16 UNL     1      -5.161   3.112  -0.441  1.00  0.00     0.000 A 
HETATM   20  C17 UNL     1      -5.369   1.929  -1.106  1.00  0.00     0.002 A 
HETATM   21  C18 UNL     1      -4.625   0.791  -0.813  1.00  0.00     0.030 A 
ENDBRANCH  10  16
ENDBRANCH   8   9
ENDBRANCH   1   8
BRANCH   4  22
HETATM   22  C7  UNL     1       4.238   0.090  -0.452  1.00  0.00     0.046 A 
HETATM   23  C8  UNL     1       4.359   1.034  -1.448  1.00  0.00     0.031 A 
HETATM   24  C9  UNL     1       5.540   1.256  -2.110  1.00  0.00     0.021 A 
HETATM   25  C10 UNL     1       6.655   0.528  -1.791  1.00  0.00     0.011 A 
HETATM   26 BR1  UNL     1       8.314   0.837  -2.719  1.00  0.00    -0.051 Br
HETATM   27  C11 UNL     1       6.564  -0.421  -0.800  1.00  0.00     0.021 A 
HETATM   28  C12 UNL     1       5.376  -0.632  -0.146  1.00  0.00     0.031 A 
ENDBRANCH   4  22
TORSDOF 6
