REMARK  6 active torsions:
REMARK  status: ('A' for Active; 'I' for Inactive)
REMARK    1  A    between atoms: O1_2  and  C2_3 
REMARK    2  A    between atoms: N1_6  and  C5_7 
REMARK    3  A    between atoms: C5_7  and  C6_8 
REMARK    4  A    between atoms: C6_8  and  O2_9 
REMARK    5  A    between atoms: C6_8  and  C7_11 
REMARK    6  A    between atoms: C7_11  and  N2_12 
ROOT
HETATM    1  C6  UNL     1       0.555  -1.474   0.126  1.00  0.00     0.174 C 
ENDROOT
BRANCH   1   2
HETATM    2  C5  UNL     1      -0.146  -0.291  -0.409  1.00  0.00     0.305 C 
BRANCH   2   3
HETATM    3  N1  UNL     1      -1.600  -0.459  -0.460  1.00  0.00     0.091 N 
HETATM    4  C4  UNL     1      -2.185   0.756  -0.999  1.00  0.00     0.275 C 
HETATM    5  C3  UNL     1      -3.147   1.392  -0.018  1.00  0.00     0.062 C 
HETATM    6  C2  UNL     1      -4.241   0.432   0.387  1.00  0.00     0.124 C 
HETATM    7  C14 UNL     1      -3.696  -0.955   0.563  1.00  0.00     0.062 C 
HETATM    8  C13 UNL     1      -2.186  -0.810   0.794  1.00  0.00     0.275 C 
BRANCH   6   9
HETATM    9  O1  UNL     1      -5.269   0.409  -0.548  1.00  0.00    -0.391 OA
HETATM   10  C1  UNL     1      -6.487   0.814  -0.040  1.00  0.00     0.202 C 
ENDBRANCH   6   9
ENDBRANCH   2   3
ENDBRANCH   1   2
BRANCH   1  11
HETATM   11  O2  UNL     1       0.148  -2.581  -0.698  1.00  0.00    -0.392 OA
ATOM     12  H2  UNL     1       0.599  -3.343  -0.354  1.00  0.00     0.210 HD
ENDBRANCH   1  11
BRANCH   1  13
HETATM   13  C7  UNL     1       2.036  -1.452  -0.020  1.00  0.00     0.305 C 
BRANCH  13  14
HETATM   14  N2  UNL     1       2.799  -0.463   0.646  1.00  0.00     0.090 N 
HETATM   15  C8  UNL     1       4.195  -0.975   0.618  1.00  0.00     0.272 C 
HETATM   16  C9  UNL     1       5.175   0.051   1.100  1.00  0.00     0.030 C 
HETATM   17  C10 UNL     1       5.293   1.170   0.073  1.00  0.00     0.003 C 
HETATM   18  C11 UNL     1       4.112   1.052  -0.831  1.00  0.00     0.030 C 
HETATM   19  C12 UNL     1       2.869   0.833   0.035  1.00  0.00     0.272 C 
ENDBRANCH  13  14
ENDBRANCH   1  13
TORSDOF 6
