REMARK  10 active torsions:
REMARK  status: ('A' for Active; 'I' for Inactive)
REMARK    1  A    between atoms: N1_1  and  C1_4 
REMARK    2  A    between atoms: C2_8  and  N4_9 
REMARK    3  A    between atoms: C4_18  and  N8_19 
REMARK    4  A    between atoms: N8_19  and  N9_20 
REMARK    5  A    between atoms: C5_25  and  C6_26 
REMARK    6  A    between atoms: C6_26  and  C7_27 
REMARK    7  A    between atoms: C7_27  and  S1_28 
REMARK    8  A    between atoms: S1_28  and  C8_29 
REMARK    9  A    between atoms: C8_29  and  C9_30 
REMARK   10  A    between atoms: C9_30  and  O1_31 
ROOT
HETATM    1  C1  UNL     1      -2.005   0.028  -1.846  1.00  0.00     0.145 A 
HETATM    2  N2  UNL     1      -3.335   0.168  -1.836  1.00  0.00    -0.246 N 
ATOM      3  H2  UNL     1      -3.829   0.369  -2.706  1.00  0.00     0.191 HD
HETATM    4  N3  UNL     1      -4.014   0.048  -0.711  1.00  0.00     0.006 N 
HETATM    5  C2  UNL     1      -5.348   0.145  -0.449  1.00  0.00     0.730 A 
HETATM    6  N5  UNL     1      -5.494  -0.065   0.869  1.00  0.00    -0.113 N 
ATOM      7  H5  UNL     1      -6.379  -0.057   1.376  1.00  0.00     0.207 HD
HETATM    8  N6  UNL     1      -4.317  -0.281   1.397  1.00  0.00    -0.204 N 
ATOM      9  H6  UNL     1      -4.134  -0.470   2.383  1.00  0.00     0.211 HD
HETATM   10  N7  UNL     1      -3.408  -0.215   0.448  1.00  0.00    -0.138 N 
HETATM   11  C3  UNL     1      -2.074  -0.367   0.507  1.00  0.00     0.169 A 
HETATM   12  C4  UNL     1      -1.479  -0.645   1.757  1.00  0.00     0.237 A 
HETATM   13  N10 UNL     1      -0.100  -0.779   1.673  1.00  0.00    -0.317 N 
ATOM     14  H10 UNL     1       0.411  -0.982   2.532  1.00  0.00     0.170 HD
HETATM   15  C5  UNL     1       0.596  -0.662   0.558  1.00  0.00     0.084 A 
HETATM   16  N11 UNL     1      -0.024  -0.399  -0.594  1.00  0.00    -0.341 N 
ATOM     17  H11 UNL     1       0.526  -0.312  -1.449  1.00  0.00     0.167 HD
HETATM   18  C10 UNL     1      -1.357  -0.246  -0.652  1.00  0.00     0.115 A 
ENDROOT
BRANCH  15  19
HETATM   19  C6  UNL     1       2.079  -0.833   0.647  1.00  0.00     0.087 C 
BRANCH  19  20
HETATM   20  C7  UNL     1       2.734  -0.694  -0.703  1.00  0.00     0.081 C 
BRANCH  20  21
HETATM   21  S1  UNL     1       4.534  -0.929  -0.428  1.00  0.00    -0.167 SA
BRANCH  21  22
HETATM   22  C8  UNL     1       5.163   0.457   0.570  1.00  0.00     0.099 C 
BRANCH  22  23
HETATM   23  C9  UNL     1       5.083   1.754  -0.195  1.00  0.00     0.174 C 
BRANCH  23  24
HETATM   24  O1  UNL     1       5.845   1.655  -1.359  1.00  0.00    -0.400 OA
ATOM     25  H1  UNL     1       5.795   2.472  -1.841  1.00  0.00     0.209 HD
ENDBRANCH  23  24
ENDBRANCH  22  23
ENDBRANCH  21  22
ENDBRANCH  20  21
ENDBRANCH  19  20
ENDBRANCH  15  19
BRANCH  12  26
HETATM   26  N8  UNL     1      -2.056  -0.761   2.793  1.00  0.00    -0.312 NA
BRANCH  26  27
HETATM   27  N9  UNL     1      -2.667  -0.883   3.888  1.00  0.00    -0.278 N 
ATOM     28  H92 UNL     1      -2.210  -0.757   2.985  1.00  0.00     0.191 HD
ATOM     29  H91 UNL     1      -3.161  -0.982   4.775  1.00  0.00     0.191 HD
ENDBRANCH  26  27
ENDBRANCH  12  26
BRANCH   1  30
HETATM   30  N1  UNL     1      -1.341   0.142  -2.931  1.00  0.00    -0.382 N 
ATOM     31  H12 UNL     1      -1.818   0.344  -3.810  1.00  0.00     0.157 HD
ATOM     32  H11 UNL     1      -0.327   0.035  -2.939  1.00  0.00     0.157 HD
ENDBRANCH   1  30
BRANCH   5  33
HETATM   33  N4  UNL     1      -6.307   0.384  -1.254  1.00  0.00    -0.230 N 
ATOM     34  H42 UNL     1      -6.196   0.544  -2.255  1.00  0.00     0.174 HD
ATOM     35  H41 UNL     1      -7.305   0.457  -1.058  1.00  0.00     0.174 HD
ENDBRANCH   5  33
TORSDOF 10
