REMARK  3 active torsions:
REMARK  status: ('A' for Active; 'I' for Inactive)
REMARK    1  A    between atoms: O1_2  and  C2_3 
REMARK    2  A    between atoms: C2_3  and  C3_5 
REMARK    3  A    between atoms: C4_6  and  C5_7 
ROOT
HETATM    1  C3  UNL     1      -1.018   0.124  -0.293  1.00  0.00     0.213 C 
HETATM    2  C4  UNL     1      -0.057  -0.519   0.639  1.00  0.00     0.051 C 
HETATM    3  C10 UNL     1      -0.229  -1.983   0.843  1.00  0.00     0.015 C 
HETATM    4  C11 UNL     1      -0.861  -2.670  -0.357  1.00  0.00     0.061 C 
HETATM    5  C12 UNL     1      -2.124  -1.972  -0.713  1.00  0.00     0.048 A 
HETATM    6  C13 UNL     1      -3.364  -2.450  -1.109  1.00  0.00     0.052 A 
HETATM    7 BR1  UNL     1      -3.847  -4.270  -1.339  1.00  0.00    -0.047 Br
HETATM    8  C14 UNL     1      -4.124  -1.339  -1.287  1.00  0.00     0.128 A 
HETATM    9  N2  UNL     1      -3.397  -0.276  -1.019  1.00  0.00    -0.307 N 
ATOM     10  H2  UNL     1      -3.722   0.689  -1.073  1.00  0.00     0.186 HD
HETATM   11  N3  UNL     1      -2.173  -0.657  -0.667  1.00  0.00    -0.281 N 
ENDROOT
BRANCH   2  12
HETATM   12  C5  UNL     1       1.337  -0.127   0.195  1.00  0.00     0.192 C 
HETATM   13  C6  UNL     1       2.453  -0.607   1.037  1.00  0.00     0.033 C 
HETATM   14  C7  UNL     1       3.748  -0.264   0.326  1.00  0.00     0.004 C 
HETATM   15  C8  UNL     1       3.851   1.139  -0.143  1.00  0.00     0.027 C 
HETATM   16  C9  UNL     1       2.558   1.705  -0.671  1.00  0.00     0.232 C 
HETATM   17  N1  UNL     1       1.419   1.330   0.133  1.00  0.00    -0.070 N 
ATOM     18  H12 UNL     1       0.553   1.753  -0.200  1.00  0.00     0.277 HD
ATOM     19  H11 UNL     1       1.440   1.757   1.059  1.00  0.00     0.277 HD
ENDBRANCH   2  12
BRANCH   1  20
HETATM   20  C2  UNL     1      -1.562   1.383   0.321  1.00  0.00     0.283 C 
HETATM   21  O2  UNL     1      -1.219   1.671   1.480  1.00  0.00    -0.263 OA
BRANCH  20  22
HETATM   22  O1  UNL     1      -2.425   2.206  -0.377  1.00  0.00    -0.325 OA
HETATM   23  C1  UNL     1      -2.940   3.398   0.211  1.00  0.00     0.213 C 
ENDBRANCH  20  22
ENDBRANCH   1  20
TORSDOF 3
