REMARK  6 active torsions:
REMARK  status: ('A' for Active; 'I' for Inactive)
REMARK    1  A    between atoms: N1_5  and  S1_6 
REMARK    2  A    between atoms: S1_6  and  C5_9 
REMARK    3  A    between atoms: C5_9  and  C6_10 
REMARK    4  A    between atoms: C9_13  and  N2_14 
REMARK       I    between atoms: N2_14  and  C10_16 
REMARK       I    between atoms: C10_16  and  N3_18 
REMARK    5  A    between atoms: N3_18  and  C11_20 
REMARK    6  A    between atoms: N4_25  and  O4_26 
ROOT
HETATM    1  N2  UNL     1      -1.155  -0.581  -0.546  1.00  0.00    -0.339 N 
ATOM      2  H2  UNL     1      -1.053  -0.671  -1.557  1.00  0.00     0.164 HD
HETATM    3  C10 UNL     1      -2.372  -0.136   0.020  1.00  0.00     0.316 C 
HETATM    4  O3  UNL     1      -2.510  -0.021   1.252  1.00  0.00    -0.247 OA
HETATM    5  N3  UNL     1      -3.455   0.183  -0.831  1.00  0.00    -0.338 N 
ATOM      6  H3  UNL     1      -3.360   0.095  -1.843  1.00  0.00     0.164 HD
ENDROOT
BRANCH   1   7
HETATM    7  C9  UNL     1      -0.056  -0.906   0.341  1.00  0.00     0.086 C 
HETATM    8  C8  UNL     1       1.174  -0.190  -0.146  1.00  0.00     0.026 C 
HETATM    9  C7  UNL     1       2.032  -1.088  -1.025  1.00  0.00     0.007 C 
HETATM   10  C6  UNL     1       2.587  -2.247  -0.291  1.00  0.00     0.001 C 
HETATM   11  C21 UNL     1       1.520  -2.780   0.661  1.00  0.00     0.007 C 
HETATM   12  C20 UNL     1       0.152  -2.419   0.175  1.00  0.00     0.026 C 
BRANCH  10  13
HETATM   13  C5  UNL     1       3.854  -2.076   0.451  1.00  0.00     0.162 C 
BRANCH  13  14
HETATM   14  S1  UNL     1       5.238  -1.624  -0.520  1.00  0.00     0.211 S 
HETATM   15  O1  UNL     1       5.012  -0.239  -1.086  1.00  0.00    -0.211 OA
HETATM   16  O2  UNL     1       5.494  -2.640  -1.570  1.00  0.00    -0.211 OA
BRANCH  14  17
HETATM   17  N1  UNL     1       6.672  -1.489   0.453  1.00  0.00    -0.211 NA
HETATM   18  C4  UNL     1       6.522  -0.474   1.442  1.00  0.00     0.107 C 
HETATM   19  C3  UNL     1       7.698   0.455   1.530  1.00  0.00     0.020 C 
HETATM   20  C2  UNL     1       7.946   1.110   0.183  1.00  0.00    -0.016 C 
HETATM   21  C1  UNL     1       9.277   1.851   0.304  1.00  0.00     0.010 C 
HETATM   22  C23 UNL     1       8.098   0.050  -0.856  1.00  0.00     0.020 C 
HETATM   23  C22 UNL     1       7.862  -1.340  -0.312  1.00  0.00     0.107 C 
ENDBRANCH  14  17
ENDBRANCH  13  14
ENDBRANCH  10  13
ENDBRANCH   1   7
BRANCH   5  24
HETATM   24  C11 UNL     1      -4.692   0.633  -0.254  1.00  0.00     0.091 C 
HETATM   25  C12 UNL     1      -5.846  -0.295  -0.578  1.00  0.00     0.057 C 
HETATM   26  C13 UNL     1      -6.954   0.056   0.386  1.00  0.00     0.049 C 
HETATM   27  C14 UNL     1      -6.854  -0.918   1.543  1.00  0.00     0.040 C 
HETATM   28  C15 UNL     1      -8.299  -0.164  -0.273  1.00  0.00     0.040 C 
HETATM   29  N4  UNL     1      -6.867   1.383   0.902  1.00  0.00    -0.278 N 
HETATM   30  C16 UNL     1      -6.356   2.370   0.025  1.00  0.00     0.049 C 
HETATM   31  C17 UNL     1      -7.411   2.844  -0.981  1.00  0.00     0.040 C 
HETATM   32  C18 UNL     1      -6.017   3.618   0.852  1.00  0.00     0.040 C 
HETATM   33  C19 UNL     1      -5.116   2.004  -0.736  1.00  0.00     0.057 C 
BRANCH  29  34
HETATM   34  O4  UNL     1      -6.546   1.498   2.179  1.00  0.00    -0.291 OA
ATOM     35  H4  UNL     1      -6.488   2.382   2.523  1.00  0.00     0.244 HD
ENDBRANCH  29  34
ENDBRANCH   5  24
TORSDOF 6
