REMARK  5 active torsions:
REMARK  status: ('A' for Active; 'I' for Inactive)
REMARK       I    between atoms: C1_4  and  N3_6 
REMARK    1  A    between atoms: N3_6  and  C2_8 
REMARK    2  A    between atoms: N6_14  and  C4_16 
REMARK    3  A    between atoms: C4_16  and  C5_17 
REMARK    4  A    between atoms: C5_17  and  C6_18 
REMARK    5  A    between atoms: C6_18  and  N7_19 
ROOT
HETATM    1  C2  UNL     1       4.323   1.086  -0.562  1.00  0.00     0.169 A 
HETATM    2  N4  UNL     1       3.516   1.810  -1.333  1.00  0.00    -0.277 N 
ATOM      3  H4  UNL     1       3.880   2.608  -1.854  1.00  0.00     0.189 HD
HETATM    4  N5  UNL     1       2.282   1.496  -1.414  1.00  0.00    -0.278 N 
ATOM      5  H5  UNL     1       1.645   2.037  -1.999  1.00  0.00     0.189 HD
HETATM    6  C3  UNL     1       1.840   0.446  -0.719  1.00  0.00     0.162 A 
HETATM    7  N6  UNL     1       0.613  -0.028  -0.675  1.00  0.00    -0.369 N 
ATOM      8  H6  UNL     1      -0.133   0.413  -1.212  1.00  0.00     0.161 HD
HETATM    9  S1  UNL     1       3.257  -0.090   0.067  1.00  0.00    -0.015 SA
ENDROOT
BRANCH   7  10
HETATM   10  C4  UNL     1       0.340  -1.192   0.153  1.00  0.00     0.123 C 
BRANCH  10  11
HETATM   11  C5  UNL     1      -0.499  -2.213  -0.595  1.00  0.00     0.039 C 
BRANCH  11  12
HETATM   12  C6  UNL     1      -1.817  -1.619  -1.009  1.00  0.00     0.122 C 
BRANCH  12  13
HETATM   13  N7  UNL     1      -2.552  -1.188   0.157  1.00  0.00    -0.380 N 
HETATM   14  C7  UNL     1      -3.673  -0.565   0.082  1.00  0.00     0.072 C 
HETATM   15  C8  UNL     1      -4.493  -0.086   1.223  1.00  0.00     0.077 C 
HETATM   16  N8  UNL     1      -4.377  -0.197  -1.096  1.00  0.00    -0.380 N 
HETATM   17  C9  UNL     1      -5.211   1.093   0.656  1.00  0.00     0.027 C 
HETATM   18  C10 UNL     1      -5.077   1.045  -0.831  1.00  0.00     0.121 C 
ATOM     19  H8  UNL     1      -4.388  -0.716  -1.974  1.00  0.00     0.160 HD
ATOM     20  H7  UNL     1      -2.165  -1.387   1.079  1.00  0.00     0.160 HD
ENDBRANCH  12  13
ENDBRANCH  11  12
ENDBRANCH  10  11
ENDBRANCH   7  10
BRANCH   1  21
HETATM   21  N3  UNL     1       5.612   1.263  -0.360  1.00  0.00    -0.310 N 
HETATM   22  C1  UNL     1       6.278   0.352   0.519  1.00  0.00     0.187 C 
HETATM   23  N1  UNL     1       6.683  -0.811   0.165  1.00  0.00    -0.373 N 
HETATM   24  N2  UNL     1       6.490   0.786   1.856  1.00  0.00    -0.064 NA
ATOM     25  H12 UNL     1       7.158  -1.461   0.792  1.00  0.00     0.158 HD
ATOM     26  H11 UNL     1       6.531  -1.122  -0.794  1.00  0.00     0.158 HD
ATOM     27  H3  UNL     1       6.118   2.023  -0.814  1.00  0.00     0.170 HD
ENDBRANCH   1  21
TORSDOF 5
