REMARK  7 active torsions:
REMARK  status: ('A' for Active; 'I' for Inactive)
REMARK    1  A    between atoms: N1_1  and  C1_4 
REMARK    2  A    between atoms: C5_10  and  C6_11 
REMARK    3  A    between atoms: C6_11  and  O1_12 
REMARK    4  A    between atoms: C6_11  and  C7_14 
REMARK    5  A    between atoms: C8_15  and  C9_16 
REMARK    6  A    between atoms: C16_23  and  C17_24 
REMARK    7  A    between atoms: N3_30  and  C23_31 
ROOT
HETATM    1  C7  UNL     1      -0.211   0.177  -0.553  1.00  0.00     0.062 A 
HETATM    2  C8  UNL     1      -0.244   1.472  -0.117  1.00  0.00     0.002 A 
HETATM    3  C15 UNL     1       0.974   1.703   0.461  1.00  0.00     0.045 A 
HETATM    4  C16 UNL     1       1.785   0.547   0.390  1.00  0.00     0.051 A 
HETATM    5  N3  UNL     1       1.021  -0.342  -0.231  1.00  0.00    -0.311 N 
ENDROOT
BRANCH   1   6
HETATM    6  C6  UNL     1      -1.297  -0.570  -1.245  1.00  0.00     0.206 C 
BRANCH   6   7
HETATM    7  C5  UNL     1      -2.444  -0.830  -0.364  1.00  0.00     0.020 A 
HETATM    8  C1  UNL     1      -3.710  -0.921  -0.871  1.00  0.00     0.107 A 
HETATM    9  N2  UNL     1      -4.745  -1.133  -0.022  1.00  0.00    -0.352 N 
HETATM   10  C2  UNL     1      -4.555  -1.255   1.291  1.00  0.00     0.089 A 
ATOM     11  H2  UNL     1      -5.691  -1.201  -0.397  1.00  0.00     0.166 HD
HETATM   12  C3  UNL     1      -3.309  -1.176   1.881  1.00  0.00     0.018 A 
HETATM   13  C4  UNL     1      -2.261  -0.960   1.015  1.00  0.00     0.015 A 
BRANCH   8  14
HETATM   14  N1  UNL     1      -3.986  -0.831  -2.100  1.00  0.00    -0.385 N 
ATOM     15  H12 UNL     1      -4.931  -0.899  -2.478  1.00  0.00     0.157 HD
ATOM     16  H11 UNL     1      -3.207  -0.671  -2.739  1.00  0.00     0.157 HD
ENDBRANCH   8  14
ENDBRANCH   6   7
BRANCH   6  17
HETATM   17  O1  UNL     1      -0.857  -1.719  -1.853  1.00  0.00    -0.385 OA
ATOM     18  H1  UNL     1      -0.115  -1.551  -2.423  1.00  0.00     0.211 HD
ENDBRANCH   6  17
ENDBRANCH   1   6
BRANCH   2  19
HETATM   19  C9  UNL     1      -1.309   2.459  -0.228  1.00  0.00    -0.024 A 
HETATM   20  C10 UNL     1      -1.770   3.097   0.933  1.00  0.00     0.012 A 
HETATM   21  C11 UNL     1      -2.756   4.055   0.927  1.00  0.00     0.001 A 
HETATM   22  C12 UNL     1      -3.307   4.391  -0.291  1.00  0.00     0.000 A 
HETATM   23  C13 UNL     1      -2.864   3.772  -1.436  1.00  0.00     0.001 A 
HETATM   24  C14 UNL     1      -1.870   2.807  -1.433  1.00  0.00     0.012 A 
ENDBRANCH   2  19
BRANCH   5  25
HETATM   25  C23 UNL     1       1.404  -1.686  -0.573  1.00  0.00     0.040 A 
HETATM   26  C24 UNL     1       2.159  -1.960  -1.722  1.00  0.00     0.030 A 
HETATM   27  C25 UNL     1       2.517  -3.236  -2.095  1.00  0.00     0.002 A 
HETATM   28  C26 UNL     1       2.133  -4.296  -1.330  1.00  0.00     0.000 A 
HETATM   29  C27 UNL     1       1.390  -4.072  -0.193  1.00  0.00     0.002 A 
HETATM   30  C28 UNL     1       1.031  -2.795   0.181  1.00  0.00     0.030 A 
ENDBRANCH   5  25
BRANCH   4  31
HETATM   31  C17 UNL     1       3.160   0.513   0.880  1.00  0.00    -0.009 A 
HETATM   32  C18 UNL     1       3.756   1.745   1.228  1.00  0.00     0.014 A 
HETATM   33  C19 UNL     1       5.025   1.845   1.734  1.00  0.00     0.001 A 
HETATM   34  C20 UNL     1       5.781   0.716   1.924  1.00  0.00     0.000 A 
HETATM   35  C21 UNL     1       5.217  -0.488   1.591  1.00  0.00     0.001 A 
HETATM   36  C22 UNL     1       3.910  -0.587   1.071  1.00  0.00     0.014 A 
ENDBRANCH   4  31
TORSDOF 7
