REMARK  10 active torsions:
REMARK  status: ('A' for Active; 'I' for Inactive)
REMARK    1  A    between atoms: C2_3  and  C3_4 
REMARK    2  A    between atoms: C5_6  and  O1_7 
REMARK    3  A    between atoms: O1_7  and  C6_8 
REMARK    4  A    between atoms: C6_8  and  C7_9 
REMARK    5  A    between atoms: C7_9  and  C8_10 
REMARK    6  A    between atoms: C8_10  and  N2_11 
REMARK    7  A    between atoms: N2_11  and  C9_14 
REMARK    8  A    between atoms: C9_14  and  C10_15 
REMARK    9  A    between atoms: C10_15  and  C11_16 
REMARK   10  A    between atoms: C11_16  and  N3_17 
ROOT
HETATM    1  C3  UNL     1      -5.882   0.449   0.331  1.00  0.00     0.033 A 
HETATM    2  C4  UNL     1      -4.876   0.102  -0.522  1.00  0.00     0.053 A 
HETATM    3  C5  UNL     1      -3.558   0.542  -0.341  1.00  0.00     0.071 A 
HETATM    4  C22 UNL     1      -3.288   1.349   0.733  1.00  0.00     0.062 A 
HETATM    5  C23 UNL     1      -4.313   1.694   1.584  1.00  0.00     0.058 A 
HETATM    6 CL1  UNL     1      -3.944   2.730   2.945  1.00  0.00    -0.083 Cl
HETATM    7  C24 UNL     1      -5.625   1.271   1.428  1.00  0.00     0.080 A 
HETATM    8  C25 UNL     1      -6.634   1.673   2.373  1.00  0.00     0.102 C 
HETATM    9  N4  UNL     1      -7.427   2.008   3.155  1.00  0.00    -0.191 NA
ENDROOT
BRANCH   1  10
HETATM   10  C2  UNL     1      -7.243  -0.074   0.168  1.00  0.00     0.120 A 
HETATM   11  N1  UNL     1      -7.670  -1.212  -0.397  1.00  0.00    -0.334 N 
HETATM   12  C1  UNL     1      -6.888  -2.269  -0.992  1.00  0.00     0.158 C 
HETATM   13  C31 UNL     1      -9.030  -1.241  -0.258  1.00  0.00     0.086 A 
HETATM   14  C26 UNL     1      -9.443  -0.101   0.409  1.00  0.00     0.084 A 
HETATM   15  C30 UNL     1     -10.020  -2.118  -0.629  1.00  0.00     0.063 A 
HETATM   16  N5  UNL     1      -8.324   0.578   0.648  1.00  0.00    -0.338 N 
HETATM   17  C27 UNL     1     -10.759   0.180   0.709  1.00  0.00     0.063 A 
ATOM     18  H5  UNL     1      -8.287   1.475   1.131  1.00  0.00     0.167 HD
HETATM   19 CL2  UNL     1     -11.236   1.636   1.556  1.00  0.00    -0.082 Cl
HETATM   20  C28 UNL     1     -11.734  -0.705   0.334  1.00  0.00     0.028 A 
HETATM   21  C29 UNL     1     -11.362  -1.852  -0.334  1.00  0.00     0.028 A 
HETATM   22 CL3  UNL     1      -9.693  -3.590  -1.505  1.00  0.00    -0.082 Cl
ENDBRANCH   1  10
BRANCH   3  23
HETATM   23  O1  UNL     1      -2.600   0.163  -1.219  1.00  0.00    -0.351 OA
BRANCH  23  24
HETATM   24  C6  UNL     1      -1.264   0.402  -1.363  1.00  0.00     0.177 C 
BRANCH  24  25
HETATM   25  C7  UNL     1      -0.841   1.812  -1.596  1.00  0.00     0.054 C 
BRANCH  25  26
HETATM   26  C8  UNL     1       0.651   1.896  -1.752  1.00  0.00     0.234 C 
BRANCH  26  27
HETATM   27  N2  UNL     1       1.424   1.436  -0.644  1.00  0.00    -0.075 N 
ATOM     28  H22 UNL     1       1.202   0.463  -0.435  1.00  0.00     0.277 HD
ATOM     29  H21 UNL     1       2.404   1.338  -0.910  1.00  0.00     0.277 HD
BRANCH  27  30
HETATM   30  C9  UNL     1       1.305   2.235   0.527  1.00  0.00     0.234 C 
BRANCH  30  31
HETATM   31  C10 UNL     1       2.258   1.757   1.592  1.00  0.00     0.057 C 
BRANCH  31  32
HETATM   32  C11 UNL     1       3.699   1.855   1.193  1.00  0.00     0.274 C 
BRANCH  32  33
HETATM   33  N3  UNL     1       4.096   1.058   0.068  1.00  0.00     0.088 N 
HETATM   34  C12 UNL     1       4.144  -0.354   0.307  1.00  0.00     0.273 C 
HETATM   35  C13 UNL     1       5.256  -1.043  -0.497  1.00  0.00     0.039 C 
HETATM   36  C14 UNL     1       6.595  -0.611   0.058  1.00  0.00    -0.037 C 
HETATM   37  C15 UNL     1       7.665  -0.575  -1.003  1.00  0.00     0.010 C 
HETATM   38  C19 UNL     1       6.985  -1.398   1.280  1.00  0.00     0.010 C 
HETATM   39  C20 UNL     1       6.427   0.841   0.516  1.00  0.00     0.039 C 
HETATM   40  C16 UNL     1       8.417  -1.838  -1.204  1.00  0.00     0.001 C 
HETATM   41  C17 UNL     1       8.663  -2.644   0.041  1.00  0.00     0.000 C 
HETATM   42  C18 UNL     1       7.426  -2.778   0.897  1.00  0.00     0.001 C 
HETATM   43  C21 UNL     1       5.396   1.491  -0.400  1.00  0.00     0.273 C 
ENDBRANCH  32  33
ENDBRANCH  31  32
ENDBRANCH  30  31
ENDBRANCH  27  30
ENDBRANCH  26  27
ENDBRANCH  25  26
ENDBRANCH  24  25
ENDBRANCH  23  24
ENDBRANCH   3  23
TORSDOF 10
