REMARK  5 active torsions:
REMARK  status: ('A' for Active; 'I' for Inactive)
REMARK    1  A    between atoms: O1_2  and  C2_3 
REMARK    2  A    between atoms: C2_3  and  C3_4 
REMARK    3  A    between atoms: C3_4  and  C4_5 
REMARK    4  A    between atoms: C4_5  and  C5_6 
REMARK       I    between atoms: N3_12  and  C7_14 
REMARK       I    between atoms: C7_14  and  N4_16 
REMARK       I    between atoms: N5_20  and  C11_21 
REMARK    5  A    between atoms: C11_21  and  C12_23 
ROOT
HETATM    1  C5  UNL     1       3.133  -0.575   0.408  1.00  0.00     0.070 A 
HETATM    2  N1  UNL     1       3.089   0.575   1.062  1.00  0.00    -0.296 N 
ATOM      3  H1  UNL     1       3.937   1.133   1.164  1.00  0.00     0.187 HD
HETATM    4  N2  UNL     1       1.999   0.988   1.563  1.00  0.00    -0.279 N 
ATOM      5  H2  UNL     1       1.960   1.872   2.070  1.00  0.00     0.189 HD
HETATM    6  C6  UNL     1       0.900   0.237   1.412  1.00  0.00     0.169 A 
HETATM    7  N3  UNL     1      -0.306   0.507   1.861  1.00  0.00    -0.288 N 
ATOM      8  H3  UNL     1      -0.509   1.357   2.387  1.00  0.00     0.172 HD
HETATM    9  C7  UNL     1      -1.321  -0.465   1.567  1.00  0.00     0.324 C 
HETATM   10  O2  UNL     1      -1.533  -1.339   2.456  1.00  0.00    -0.247 OA
HETATM   11  N4  UNL     1      -2.029  -0.435   0.355  1.00  0.00    -0.332 N 
HETATM   12  C8  UNL     1      -1.680   0.623  -0.569  1.00  0.00     0.129 C 
HETATM   13  C9  UNL     1      -2.920   0.987  -1.392  1.00  0.00     0.040 C 
HETATM   14  C10 UNL     1      -4.012   1.401  -0.457  1.00  0.00     0.127 C 
HETATM   15  N5  UNL     1      -4.789   0.318   0.090  1.00  0.00    -0.347 N 
HETATM   16  C11 UNL     1      -6.187   0.533   0.084  1.00  0.00     0.274 C 
HETATM   17  O3  UNL     1      -6.553   1.674  -0.404  1.00  0.00    -0.268 OA
HETATM   18  C13 UNL     1      -4.352  -0.930   0.658  1.00  0.00     0.145 C 
HETATM   19  C14 UNL     1      -3.028  -1.435   0.127  1.00  0.00     0.147 C 
HETATM   20  S1  UNL     1       1.508  -1.089   0.520  1.00  0.00    -0.038 SA
ENDROOT
BRANCH   1  21
HETATM   21  C4  UNL     1       4.309  -1.246  -0.258  1.00  0.00     0.068 C 
BRANCH  21  22
HETATM   22  C3  UNL     1       5.497  -0.323  -0.034  1.00  0.00     0.033 C 
BRANCH  22  23
HETATM   23  C2  UNL     1       6.749  -0.870  -0.649  1.00  0.00     0.167 C 
BRANCH  23  24
HETATM   24  O1  UNL     1       7.824  -0.043  -0.447  1.00  0.00    -0.396 OA
HETATM   25  C1  UNL     1       7.707   1.223  -0.962  1.00  0.00     0.201 C 
ENDBRANCH  23  24
ENDBRANCH  22  23
ENDBRANCH  21  22
ENDBRANCH   1  21
BRANCH  16  26
HETATM   26  C12 UNL     1      -7.242  -0.366   0.555  1.00  0.00     0.269 C 
HETATM   27 CL1  UNL     1      -7.467  -1.823  -0.420  1.00  0.00    -0.073 Cl
HETATM   28 CL2  UNL     1      -6.864  -0.810   2.258  1.00  0.00    -0.073 Cl
HETATM   29 CL3  UNL     1      -8.809   0.509   0.518  1.00  0.00    -0.073 Cl
ENDBRANCH  16  26
TORSDOF 5
