REMARK  3 active torsions:
REMARK  status: ('A' for Active; 'I' for Inactive)
REMARK    1  A    between atoms: C1_2  and  C2_4 
REMARK    2  A    between atoms: C3_5  and  N2_6 
REMARK       I    between atoms: N2_6  and  C4_8 
REMARK    3  A    between atoms: C4_8  and  C5_10 
ROOT
HETATM    1  C2  UNL     1       0.125   0.492   0.299  1.00  0.00     0.070 A 
HETATM    2  C3  UNL     1       0.843  -0.648   0.431  1.00  0.00     0.093 A 
HETATM    3  S2  UNL     1      -0.324  -1.905   0.143  1.00  0.00    -0.075 SA
HETATM    4  C9  UNL     1      -1.662  -0.938  -0.145  1.00  0.00    -0.008 A 
HETATM    5  C10 UNL     1      -1.224   0.359  -0.016  1.00  0.00    -0.023 A 
HETATM    6  C11 UNL     1      -1.824   1.752  -0.113  1.00  0.00     0.067 C 
HETATM    7  C12 UNL     1      -3.311   1.884  -0.354  1.00  0.00    -0.026 C 
HETATM    8  C13 UNL     1      -3.913   0.674  -0.064  1.00  0.00    -0.030 C 
HETATM    9  C14 UNL     1      -4.960  -0.246   0.219  1.00  0.00     0.027 C 
HETATM   10  C15 UNL     1      -4.111  -1.558   0.425  1.00  0.00     0.009 C 
HETATM   11  C16 UNL     1      -2.954  -1.642  -0.473  1.00  0.00     0.047 C 
ENDROOT
BRANCH   2  12
HETATM   12  N2  UNL     1       2.241  -0.989   0.463  1.00  0.00    -0.316 N 
HETATM   13  C4  UNL     1       3.271  -0.345  -0.190  1.00  0.00     0.266 C 
HETATM   14  O2  UNL     1       3.017   0.654  -0.972  1.00  0.00    -0.267 OA
ATOM     15  H2  UNL     1       2.498  -1.796   1.031  1.00  0.00     0.169 HD
BRANCH  13  16
HETATM   16  C5  UNL     1       4.707  -0.689  -0.089  1.00  0.00     0.115 A 
HETATM   17  S1  UNL     1       5.979   0.120  -0.910  1.00  0.00    -0.068 SA
HETATM   18  C6  UNL     1       7.301  -0.785  -0.332  1.00  0.00     0.100 A 
HETATM   19 CL1  UNL     1       9.024  -0.587  -0.709  1.00  0.00    -0.074 Cl
HETATM   20  C7  UNL     1       6.707  -1.699   0.491  1.00  0.00     0.102 A 
HETATM   21 CL2  UNL     1       7.730  -2.894   1.344  1.00  0.00    -0.079 Cl
HETATM   22  C8  UNL     1       5.363  -1.641   0.611  1.00  0.00     0.163 A 
HETATM   23  F1  UNL     1       4.684  -2.539   1.433  1.00  0.00    -0.203 F 
ENDBRANCH  13  16
ENDBRANCH   2  12
BRANCH   1  24
HETATM   24  C1  UNL     1       0.781   1.762   0.779  1.00  0.00     0.268 C 
HETATM   25  N1  UNL     1       0.423   3.080   0.520  1.00  0.00    -0.057 NA
HETATM   26  O1  UNL     1       1.829   1.621   1.531  1.00  0.00    -0.271 OA
ENDBRANCH   1  24
TORSDOF 3
