REMARK  8 active torsions:
REMARK  status: ('A' for Active; 'I' for Inactive)
REMARK    1  A    between atoms: C1_4  and  C2_5 
REMARK    2  A    between atoms: C1_4  and  N2_14 
REMARK    3  A    between atoms: C6_9  and  C7_10 
REMARK    4  A    between atoms: C9_15  and  C10_16 
REMARK       I    between atoms: C10_16  and  N3_18 
REMARK    5  A    between atoms: N3_18  and  C11_20 
REMARK    6  A    between atoms: C11_20  and  C12_21 
REMARK    7  A    between atoms: C17_26  and  C18_27 
REMARK       I    between atoms: C18_27  and  N4_29 
REMARK    8  A    between atoms: N4_29  and  C19_31 
ROOT
HETATM    1  C10 UNL     1      -1.372  -1.456   1.693  1.00  0.00     0.240 C 
HETATM    2  O3  UNL     1      -1.194  -2.254   2.683  1.00  0.00    -0.271 OA
HETATM    3  N3  UNL     1      -0.212  -1.102   0.966  1.00  0.00    -0.359 N 
ATOM      4  H3  UNL     1      -0.280  -0.471   0.167  1.00  0.00     0.162 HD
ENDROOT
BRANCH   1   5
HETATM    5  C9  UNL     1      -2.731  -1.002   1.422  1.00  0.00     0.182 C 
HETATM    6  N2  UNL     1      -2.898  -0.152   0.268  1.00  0.00    -0.328 N 
HETATM    7  C27 UNL     1      -2.597   1.200   0.700  1.00  0.00     0.255 A 
HETATM    8  C26 UNL     1      -3.048   1.222   2.089  1.00  0.00     0.175 A 
HETATM    9  O5  UNL     1      -1.735   1.447   1.739  1.00  0.00    -0.354 OA
HETATM   10  C25 UNL     1      -3.304  -0.192   2.581  1.00  0.00     0.071 C 
BRANCH   6  11
HETATM   11  C1  UNL     1      -3.306  -0.608  -1.014  1.00  0.00     0.080 C 
HETATM   12  N1  UNL     1      -2.377  -0.828  -1.913  1.00  0.00    -0.389 N 
ATOM     13  H12 UNL     1      -2.670  -1.155  -2.834  1.00  0.00     0.157 HD
ATOM     14  H11 UNL     1      -1.405  -0.666  -1.650  1.00  0.00     0.157 HD
BRANCH  11  15
HETATM   15  C2  UNL     1      -4.705  -0.841  -1.392  1.00  0.00     0.054 C 
HETATM   16  C3  UNL     1      -5.436  -1.843  -0.554  1.00  0.00     0.012 C 
HETATM   17  C4  UNL     1      -6.818  -2.014  -1.161  1.00  0.00     0.002 C 
HETATM   18  C5  UNL     1      -7.551  -0.720  -0.969  1.00  0.00     0.015 C 
HETATM   19  C6  UNL     1      -6.878   0.342  -1.802  1.00  0.00     0.087 C 
HETATM   20  C8  UNL     1      -5.413   0.486  -1.480  1.00  0.00     0.027 C 
BRANCH  19  21
HETATM   21  C7  UNL     1      -7.537   1.638  -1.487  1.00  0.00     0.177 C 
HETATM   22  O1  UNL     1      -8.474   1.762  -0.657  1.00  0.00    -0.648 OA
HETATM   23  O2  UNL     1      -7.118   2.800  -2.126  1.00  0.00    -0.648 OA
ENDBRANCH  19  21
ENDBRANCH  11  15
ENDBRANCH   6  11
ENDBRANCH   1   5
BRANCH   3  24
HETATM   24  C11 UNL     1       1.085  -1.644   1.364  1.00  0.00     0.128 C 
BRANCH  24  25
HETATM   25  C12 UNL     1       2.178  -1.149   0.445  1.00  0.00     0.016 C 
HETATM   26  C13 UNL     1       1.967  -1.547  -0.974  1.00  0.00     0.007 C 
HETATM   27  C14 UNL     1       2.121  -3.051  -1.170  1.00  0.00     0.000 C 
HETATM   28  C15 UNL     1       3.359  -3.531  -0.421  1.00  0.00     0.001 C 
HETATM   29  C16 UNL     1       4.251  -2.343  -0.105  1.00  0.00     0.014 C 
HETATM   30  C17 UNL     1       3.541  -1.506   0.934  1.00  0.00     0.083 C 
BRANCH  30  31
HETATM   31  C18 UNL     1       4.341  -0.339   1.340  1.00  0.00     0.222 C 
HETATM   32  O4  UNL     1       4.684  -0.191   2.530  1.00  0.00    -0.273 OA
HETATM   33  N4  UNL     1       4.731   0.629   0.388  1.00  0.00    -0.356 N 
ATOM     34  H4  UNL     1       4.449   0.505  -0.585  1.00  0.00     0.162 HD
BRANCH  33  35
HETATM   35  C19 UNL     1       5.524   1.801   0.750  1.00  0.00     0.084 C 
HETATM   36  C20 UNL     1       4.796   3.042   0.372  1.00  0.00     0.025 C 
HETATM   37  C21 UNL     1       5.789   4.204   0.279  1.00  0.00     0.002 C 
HETATM   38  C22 UNL     1       6.750   4.047  -0.852  1.00  0.00     0.000 C 
HETATM   39  C23 UNL     1       6.991   2.597  -1.119  1.00  0.00     0.002 C 
HETATM   40  C24 UNL     1       6.899   1.764   0.122  1.00  0.00     0.025 C 
ENDBRANCH  33  35
ENDBRANCH  30  31
ENDBRANCH  24  25
ENDBRANCH   3  24
TORSDOF 8
