REMARK  6 active torsions:
REMARK  status: ('A' for Active; 'I' for Inactive)
REMARK    1  A    between atoms: C5_6  and  N1_7 
REMARK    2  A    between atoms: N1_7  and  C6_8 
REMARK    3  A    between atoms: C6_8  and  C7_9 
REMARK    4  A    between atoms: C7_9  and  C8_10 
REMARK    5  A    between atoms: C8_10  and  O2_13 
REMARK    6  A    between atoms: C19_28  and  S1_29 
ROOT
HETATM    1  C1  UNL     1      -3.294  -3.618  -1.002  1.00  0.00     0.210 C 
HETATM    2  O1  UNL     1      -3.008  -2.496  -0.664  1.00  0.00    -0.354 OA
HETATM    3  C2  UNL     1      -2.672  -1.243  -0.287  1.00  0.00     0.090 A 
HETATM    4  C3  UNL     1      -1.318  -0.898  -0.305  1.00  0.00     0.055 A 
HETATM    5  C4  UNL     1      -0.957   0.369   0.069  1.00  0.00     0.036 A 
HETATM    6  C5  UNL     1       0.428   0.648   0.015  1.00  0.00     0.147 A 
HETATM    7  C11 UNL     1       0.791   1.963   0.393  1.00  0.00     0.101 A 
HETATM    8  N3  UNL     1       2.115   2.239   0.338  1.00  0.00    -0.360 N 
ATOM      9  H3  UNL     1       2.789   1.532   0.044  1.00  0.00     0.165 HD
HETATM   10  C12 UNL     1       2.517   3.490   0.688  1.00  0.00     0.111 A 
HETATM   11  C13 UNL     1       1.598   4.451   1.087  1.00  0.00     0.062 A 
HETATM   12  C14 UNL     1       2.032   5.782   1.457  1.00  0.00     0.101 C 
HETATM   13  N4  UNL     1       2.376   6.849   1.733  1.00  0.00    -0.191 NA
HETATM   14  C15 UNL     1       0.244   4.165   1.142  1.00  0.00     0.056 A 
HETATM   15  C16 UNL     1      -0.155   2.873   0.778  1.00  0.00     0.064 A 
HETATM   16  N5  UNL     1      -1.446   2.518   0.799  1.00  0.00    -0.353 N 
ATOM     17  H5  UNL     1      -2.131   3.215   1.090  1.00  0.00     0.166 HD
HETATM   18  C17 UNL     1      -1.887   1.306   0.461  1.00  0.00     0.048 A 
HETATM   19  C18 UNL     1      -3.230   0.965   0.480  1.00  0.00     0.056 A 
HETATM   20  C19 UNL     1      -3.598  -0.294   0.108  1.00  0.00     0.094 A 
ENDROOT
BRANCH  20  21
HETATM   21  S1  UNL     1      -5.269  -0.779   0.111  1.00  0.00     0.174 S 
HETATM   22  C20 UNL     1      -6.310   0.540   0.666  1.00  0.00     0.167 C 
HETATM   23  O3  UNL     1      -5.669  -1.120  -1.296  1.00  0.00    -0.223 OA
HETATM   24  O4  UNL     1      -5.462  -2.028   0.938  1.00  0.00    -0.223 OA
ENDBRANCH  20  21
BRANCH   6  25
HETATM   25  N1  UNL     1       1.192  -0.182  -0.325  1.00  0.00    -0.419 NA
BRANCH  25  26
HETATM   26  C6  UNL     1       2.063  -1.124  -0.711  1.00  0.00     0.159 C 
BRANCH  26  27
HETATM   27  C7  UNL     1       3.529  -0.891  -0.312  1.00  0.00     0.106 C 
BRANCH  27  28
HETATM   28  C8  UNL     1       4.309  -2.072  -0.844  1.00  0.00     0.232 C 
HETATM   29  C9  UNL     1       3.729  -3.276  -0.199  1.00  0.00     0.091 C 
HETATM   30  N2  UNL     1       3.279  -4.224   0.285  1.00  0.00    -0.195 NA
BRANCH  28  31
HETATM   31  O2  UNL     1       5.653  -1.931  -0.501  1.00  0.00    -0.376 OA
HETATM   32  C10 UNL     1       6.398  -1.894  -1.664  1.00  0.00     0.203 C 
ENDBRANCH  28  31
ENDBRANCH  27  28
ENDBRANCH  26  27
ENDBRANCH  25  26
ENDBRANCH   6  25
TORSDOF 6
