REMARK  8 active torsions:
REMARK  status: ('A' for Active; 'I' for Inactive)
REMARK    1  A    between atoms: O1_2  and  C2_3 
REMARK    2  A    between atoms: C2_3  and  C3_4 
REMARK    3  A    between atoms: C3_4  and  O2_5 
REMARK    4  A    between atoms: C3_4  and  O3_7 
REMARK    5  A    between atoms: O3_7  and  C4_8 
REMARK    6  A    between atoms: C8_12  and  C9_13 
REMARK    7  A    between atoms: C19_26  and  O7_27 
REMARK    8  A    between atoms: C21_29  and  O8_30 
ROOT
HETATM    1  C4  UNL     1      -2.338  -0.346  -0.474  1.00  0.00     0.114 A 
HETATM    2  C5  UNL     1      -1.449   0.512   0.131  1.00  0.00    -0.025 A 
HETATM    3  C6  UNL     1      -1.921   1.648   0.964  1.00  0.00     0.051 C 
HETATM    4  C7  UNL     1      -0.059   0.373  -0.021  1.00  0.00     0.022 A 
HETATM    5  C8  UNL     1       0.489  -0.620  -0.779  1.00  0.00     0.009 A 
HETATM    6  C19 UNL     1      -0.403  -1.486  -1.392  1.00  0.00     0.113 A 
HETATM    7  C21 UNL     1      -1.771  -1.357  -1.247  1.00  0.00     0.136 A 
ENDROOT
BRANCH   5   8
HETATM    8  C9  UNL     1       1.955  -0.804  -0.988  1.00  0.00     0.183 C 
HETATM    9  O4  UNL     1       2.256  -0.619  -2.385  1.00  0.00    -0.307 OA
HETATM   10  C10 UNL     1       2.646   0.601  -2.916  1.00  0.00     0.283 C 
HETATM   11  O5  UNL     1       2.544   0.835  -4.169  1.00  0.00    -0.260 OA
HETATM   12  C11 UNL     1       3.170   1.596  -1.997  1.00  0.00     0.086 C 
HETATM   13  C12 UNL     1       3.255   1.321  -0.728  1.00  0.00    -0.060 C 
HETATM   14  C13 UNL     1       3.786   2.294   0.254  1.00  0.00     0.040 C 
HETATM   15  C18 UNL     1       2.826   0.007  -0.115  1.00  0.00     0.118 C 
HETATM   16  C14 UNL     1       4.782   1.559   1.133  1.00  0.00    -0.008 C 
HETATM   17  C15 UNL     1       6.011   2.395   1.396  1.00  0.00     0.010 C 
HETATM   18  C16 UNL     1       5.255   0.252   0.519  1.00  0.00     0.083 C 
HETATM   19  C17 UNL     1       4.139  -0.663   0.177  1.00  0.00     0.138 C 
HETATM   20  O6  UNL     1       4.303  -1.840   0.145  1.00  0.00    -0.297 OA
ENDBRANCH   5   8
BRANCH   6  21
HETATM   21  O7  UNL     1       0.151  -2.510  -2.175  1.00  0.00    -0.352 OA
HETATM   22  C20 UNL     1       0.451  -3.740  -1.548  1.00  0.00     0.210 C 
ENDBRANCH   6  21
BRANCH   7  23
HETATM   23  O8  UNL     1      -2.598  -2.254  -1.882  1.00  0.00    -0.351 OA
HETATM   24  C22 UNL     1      -2.984  -3.506  -1.345  1.00  0.00     0.210 C 
ENDBRANCH   7  23
BRANCH   1  25
HETATM   25  O3  UNL     1      -3.704  -0.216  -0.328  1.00  0.00    -0.315 OA
BRANCH  25  26
HETATM   26  C3  UNL     1      -4.574  -0.787   0.570  1.00  0.00     0.287 C 
BRANCH  26  27
HETATM   27  C2  UNL     1      -5.243   0.326   1.393  1.00  0.00     0.228 C 
BRANCH  27  28
HETATM   28  O1  UNL     1      -5.731   1.251   0.497  1.00  0.00    -0.391 OA
HETATM   29  C1  UNL     1      -6.358   2.304   1.134  1.00  0.00     0.201 C 
ENDBRANCH  27  28
ENDBRANCH  26  27
BRANCH  26  30
HETATM   30  O2  UNL     1      -5.609  -1.366  -0.235  1.00  0.00    -0.369 OA
ATOM     31  H2  UNL     1      -5.196  -2.054  -0.744  1.00  0.00     0.212 HD
ENDBRANCH  26  30
ENDBRANCH  25  26
ENDBRANCH   1  25
TORSDOF 8
