REMARK  6 active torsions:
REMARK  status: ('A' for Active; 'I' for Inactive)
REMARK    1  A    between atoms: C2_2  and  N1_3 
REMARK    2  A    between atoms: C4_8  and  O2_9 
REMARK    3  A    between atoms: C5_11  and  C6_12 
REMARK    4  A    between atoms: C6_12  and  C8_14 
REMARK    5  A    between atoms: C8_14  and  C9_15 
REMARK    6  A    between atoms: C12_20  and  N4_21 
ROOT
HETATM    1  C9  UNL     1      -1.587   0.301   0.980  1.00  0.00     0.085 A 
HETATM    2  N3  UNL     1      -2.351  -0.145  -0.011  1.00  0.00    -0.326 N 
ATOM      3  H3  UNL     1      -1.873  -0.678  -0.738  1.00  0.00     0.169 HD
HETATM    4  C10 UNL     1      -3.654   0.015  -0.174  1.00  0.00     0.165 A 
HETATM    5  C11 UNL     1      -4.348   0.727   0.778  1.00  0.00     0.126 A 
HETATM    6  C12 UNL     1      -3.591   1.219   1.847  1.00  0.00     0.120 A 
HETATM    7  N5  UNL     1      -2.278   1.013   1.938  1.00  0.00    -0.331 N 
ATOM      8  H5  UNL     1      -1.770   1.392   2.737  1.00  0.00     0.168 HD
HETATM    9  C13 UNL     1      -5.751   0.968   0.607  1.00  0.00     0.261 C 
HETATM   10  O3  UNL     1      -6.394   1.609   1.464  1.00  0.00    -0.267 OA
HETATM   11  N6  UNL     1      -6.398   0.451  -0.579  1.00  0.00    -0.335 N 
ATOM     12  H6  UNL     1      -7.325   0.787  -0.840  1.00  0.00     0.164 HD
HETATM   13  C14 UNL     1      -5.736  -0.537  -1.393  1.00  0.00     0.303 C 
HETATM   14  O4  UNL     1      -4.362  -0.498  -1.257  1.00  0.00    -0.315 OA
ENDROOT
BRANCH   1  15
HETATM   15  C8  UNL     1      -0.129   0.145   1.127  1.00  0.00     0.086 C 
BRANCH  15  16
HETATM   16  C6  UNL     1       0.509  -0.530  -0.029  1.00  0.00     0.031 C 
HETATM   17  C7  UNL     1       0.261   0.302  -1.261  1.00  0.00     0.016 C 
BRANCH  16  18
HETATM   18  C5  UNL     1       1.965  -0.704   0.120  1.00  0.00     0.065 A 
HETATM   19  C4  UNL     1       2.348  -1.803   0.876  1.00  0.00     0.156 A 
HETATM   20  N2  UNL     1       3.629  -2.077   1.138  1.00  0.00    -0.288 N 
HETATM   21  C3  UNL     1       4.566  -1.242   0.639  1.00  0.00     0.331 A 
ATOM     22  H2  UNL     1       3.891  -2.890   1.696  1.00  0.00     0.172 HD
HETATM   23  N1  UNL     1       4.283  -0.179  -0.088  1.00  0.00    -0.266 N 
HETATM   24  O1  UNL     1       5.774  -1.499   0.886  1.00  0.00    -0.246 OA
HETATM   25  C15 UNL     1       2.970   0.111  -0.362  1.00  0.00     0.262 A 
HETATM   26  O5  UNL     1       2.686   1.122  -1.045  1.00  0.00    -0.267 OA
BRANCH  19  27
HETATM   27  O2  UNL     1       1.408  -2.704   1.420  1.00  0.00    -0.345 OA
ATOM     28  H2  UNL     1       0.497  -2.509   1.234  1.00  0.00     0.219 HD
ENDBRANCH  19  27
BRANCH  23  29
HETATM   29  C2  UNL     1       5.268   0.696  -0.614  1.00  0.00     0.132 C 
HETATM   30  C1  UNL     1       5.784   0.368  -1.986  1.00  0.00     0.027 C 
ENDBRANCH  23  29
ENDBRANCH  16  18
ENDBRANCH  15  16
ENDBRANCH   1  15
BRANCH   6  31
HETATM   31  N4  UNL     1      -4.272   1.877   2.723  1.00  0.00    -0.384 N 
ATOM     32  H42 UNL     1      -5.277   2.035   2.653  1.00  0.00     0.157 HD
ATOM     33  H41 UNL     1      -3.720   2.236   3.502  1.00  0.00     0.157 HD
ENDBRANCH   6  31
TORSDOF 6
