REMARK  1 active torsions:
REMARK  status: ('A' for Active; 'I' for Inactive)
REMARK    1  A    between atoms: C14_18  and  O1_19 
ROOT
HETATM    1  C1  UNL     1      -3.123   0.289   0.125  1.00  0.00     0.013 C 
HETATM    2  C2  UNL     1      -1.796  -0.400  -0.243  1.00  0.00     0.019 C 
HETATM    3  C3  UNL     1      -1.441  -1.370   0.774  1.00  0.00     0.008 C 
HETATM    4  C4  UNL     1      -0.040  -1.630   1.133  1.00  0.00     0.007 C 
HETATM    5  C5  UNL     1       1.004  -1.446   0.123  1.00  0.00     0.011 C 
HETATM    6  C6  UNL     1       0.340  -1.631  -1.252  1.00  0.00     0.085 C 
HETATM    7 BR1  UNL     1       1.525  -2.487  -2.501  1.00  0.00    -0.089 Br
HETATM    8  C7  UNL     1       0.183  -0.168  -1.618  1.00  0.00     0.065 C 
HETATM    9 BR2  UNL     1      -0.280  -0.074  -3.476  1.00  0.00    -0.081 Br
HETATM   10  C8  UNL     1       1.647   0.233  -1.382  1.00  0.00     0.036 C 
HETATM   11  C9  UNL     1       1.743  -0.168   0.095  1.00  0.00    -0.019 C 
HETATM   12  C10 UNL     1       3.208  -0.287   0.458  1.00  0.00     0.017 C 
HETATM   13  C11 UNL     1       1.165   0.970   0.861  1.00  0.00     0.117 C 
HETATM   14 CL1  UNL     1       2.381   2.304   0.773  1.00  0.00    -0.122 Cl
HETATM   15  C12 UNL     1      -0.137   1.469   0.253  1.00  0.00     0.083 C 
HETATM   16  C13 UNL     1      -1.002   1.873   1.422  1.00  0.00     0.037 C 
HETATM   17 CL2  UNL     1       0.170   3.066  -0.549  1.00  0.00    -0.115 Cl
HETATM   18  C14 UNL     1      -0.762   0.575  -0.724  1.00  0.00     0.102 C 
ENDROOT
BRANCH  18  19
HETATM   19  O1  UNL     1      -1.500   1.410  -1.619  1.00  0.00    -0.386 OA
ATOM     20  H1  UNL     1      -0.845   2.027  -1.924  1.00  0.00     0.210 HD
ENDBRANCH  18  19
TORSDOF 1
