REMARK  7 active torsions:
REMARK  status: ('A' for Active; 'I' for Inactive)
REMARK    1  A    between atoms: C5_5  and  C6_6 
REMARK    2  A    between atoms: C7_7  and  C8_8 
REMARK    3  A    between atoms: N3_21  and  C16_22 
REMARK    4  A    between atoms: C16_22  and  C17_23 
REMARK    5  A    between atoms: C21_28  and  N4_29 
REMARK    6  A    between atoms: N4_29  and  C22_31 
REMARK    7  A    between atoms: C22_31  and  C23_32 
ROOT
HETATM    1  C1  UNL     1       5.477  -3.610   0.287  1.00  0.00     0.103 C 
HETATM    2  C2  UNL     1       4.910  -2.530   0.328  1.00  0.00    -0.146 C 
HETATM    3  C3  UNL     1       4.259  -1.247   0.387  1.00  0.00     0.032 A 
HETATM    4  C4  UNL     1       2.887  -1.160   0.239  1.00  0.00     0.044 A 
HETATM    5  C5  UNL     1       2.285   0.067   0.298  1.00  0.00     0.041 A 
HETATM    6  C19 UNL     1       3.081   1.183   0.505  1.00  0.00     0.055 A 
HETATM    7 CL1  UNL     1       2.342   2.769   0.586  1.00  0.00    -0.083 Cl
HETATM    8  C20 UNL     1       4.452   1.092   0.652  1.00  0.00     0.056 A 
HETATM    9  C21 UNL     1       5.064  -0.153   0.593  1.00  0.00     0.047 A 
ENDROOT
BRANCH   9  10
HETATM   10  N4  UNL     1       6.471  -0.240   0.745  1.00  0.00    -0.389 N 
ATOM     11  H4  UNL     1       6.922  -1.154   0.702  1.00  0.00     0.159 HD
BRANCH  10  12
HETATM   12  C22 UNL     1       7.274   0.927   0.958  1.00  0.00     0.119 C 
BRANCH  12  13
HETATM   13  C23 UNL     1       8.735   0.627   1.094  1.00  0.00     0.015 C 
HETATM   14  C24 UNL     1       9.307  -0.045  -0.132  1.00  0.00     0.006 C 
ENDBRANCH  12  13
ENDBRANCH  10  12
ENDBRANCH   9  10
BRANCH   5  15
HETATM   15  C6  UNL     1       0.854   0.163   0.144  1.00  0.00    -0.058 C 
HETATM   16  C7  UNL     1      -0.342   0.238  -0.004  1.00  0.00    -0.043 C 
BRANCH  16  17
HETATM   17  C8  UNL     1      -1.771   0.340  -0.203  1.00  0.00     0.095 A 
HETATM   18  N1  UNL     1      -2.681  -0.633  -0.338  1.00  0.00    -0.334 N 
HETATM   19  C9  UNL     1      -3.917  -0.119  -0.507  1.00  0.00     0.129 A 
ATOM     20  H1  UNL     1      -2.468  -1.630  -0.316  1.00  0.00     0.168 HD
HETATM   21  C10 UNL     1      -3.803   1.243  -0.480  1.00  0.00     0.085 A 
HETATM   22  N3  UNL     1      -5.139  -0.694  -0.682  1.00  0.00    -0.284 N 
HETATM   23  C11 UNL     1      -2.461   1.532  -0.291  1.00  0.00    -0.007 A 
HETATM   24  C13 UNL     1      -4.901   2.053  -0.628  1.00  0.00     0.265 A 
HETATM   25  C12 UNL     1      -1.914   2.910  -0.203  1.00  0.00     0.052 C 
HETATM   26  O1  UNL     1      -4.748   3.295  -0.596  1.00  0.00    -0.267 OA
HETATM   27  N2  UNL     1      -6.099   1.462  -0.800  1.00  0.00    -0.270 N 
HETATM   28  C14 UNL     1      -7.291   2.273  -0.960  1.00  0.00     0.164 C 
HETATM   29  C15 UNL     1      -6.194   0.121  -0.824  1.00  0.00     0.332 A 
HETATM   30  O2  UNL     1      -7.330  -0.385  -0.988  1.00  0.00    -0.246 OA
BRANCH  22  31
HETATM   31  C16 UNL     1      -5.255  -2.138  -0.721  1.00  0.00     0.135 C 
BRANCH  31  32
HETATM   32  C17 UNL     1      -5.442  -2.774   0.615  1.00  0.00     0.016 C 
HETATM   33  C18 UNL     1      -6.658  -2.344   1.362  1.00  0.00     0.006 C 
ENDBRANCH  31  32
ENDBRANCH  22  31
ENDBRANCH  16  17
ENDBRANCH   5  15
TORSDOF 7
