REMARK  4 active torsions:
REMARK  status: ('A' for Active; 'I' for Inactive)
REMARK    1  A    between atoms: N1_9  and  O4_11 
REMARK    2  A    between atoms: C10_19  and  O7_20 
REMARK    3  A    between atoms: N3_37  and  O12_39 
REMARK    4  A    between atoms: C21_43  and  O14_44 
ROOT
HETATM    1  C1  UNL     1      -1.140  -0.860   3.667  1.00  0.00     0.043 C 
HETATM    2  C2  UNL     1      -0.669  -0.722   2.211  1.00  0.00     0.160 C 
HETATM    3  O1  UNL     1      -1.635  -0.404   1.311  1.00  0.00    -0.311 OA
HETATM    4  C3  UNL     1      -2.626   0.464   1.130  1.00  0.00     0.297 C 
HETATM    5  O2  UNL     1      -3.859   0.084   1.280  1.00  0.00    -0.262 OA
HETATM    6  C4  UNL     1      -2.512   1.896   0.755  1.00  0.00     0.305 C 
HETATM    7  O3  UNL     1      -2.859   2.146  -0.585  1.00  0.00    -0.314 OA
HETATM    8  C5  UNL     1      -3.348   1.299  -1.528  1.00  0.00     0.139 C 
HETATM    9  N1  UNL     1      -4.526   1.270  -2.044  1.00  0.00    -0.251 N 
ATOM     10  H1  UNL     1      -4.701   0.550  -2.745  1.00  0.00     0.196 HD
HETATM   11  C6  UNL     1      -2.425   0.251  -2.061  1.00  0.00     0.096 C 
HETATM   12  C7  UNL     1      -3.093  -1.073  -2.169  1.00  0.00     0.119 C 
HETATM   13  C8  UNL     1      -2.099  -2.128  -2.511  1.00  0.00     0.259 C 
HETATM   14  O5  UNL     1      -2.356  -2.810  -3.563  1.00  0.00    -0.265 OA
HETATM   15  O6  UNL     1      -1.007  -2.304  -1.713  1.00  0.00    -0.318 OA
HETATM   16  C9  UNL     1      -0.955  -2.758  -0.385  1.00  0.00     0.229 C 
HETATM   17  C10 UNL     1       0.231  -2.225   0.389  1.00  0.00     0.188 C 
HETATM   18  C11 UNL     1       1.323  -3.229   0.305  1.00  0.00     0.257 C 
HETATM   19  O8  UNL     1       0.924  -4.448   0.230  1.00  0.00    -0.270 OA
HETATM   20  N2  UNL     1       2.698  -2.974   0.302  1.00  0.00    -0.358 N 
ATOM     21  H2  UNL     1       3.245  -3.473   1.004  1.00  0.00     0.162 HD
HETATM   22  C12 UNL     1       3.442  -2.095  -0.568  1.00  0.00     0.130 C 
HETATM   23  C13 UNL     1       4.452  -1.309   0.269  1.00  0.00     0.098 C 
HETATM   24  C14 UNL     1       4.080   0.125   0.156  1.00  0.00     0.129 C 
HETATM   25  O9  UNL     1       3.638   0.677   1.143  1.00  0.00    -0.298 OA
HETATM   26  C15 UNL     1       4.247   0.840  -1.110  1.00  0.00     0.088 C 
HETATM   27  C16 UNL     1       3.024   1.553  -1.612  1.00  0.00     0.118 C 
HETATM   28  C17 UNL     1       2.720   2.810  -0.888  1.00  0.00     0.259 C 
HETATM   29  O10 UNL     1       3.593   3.273  -0.115  1.00  0.00    -0.265 OA
HETATM   30  O11 UNL     1       1.499   3.412  -1.095  1.00  0.00    -0.315 OA
HETATM   31  C18 UNL     1       0.233   2.799  -0.857  1.00  0.00     0.241 C 
HETATM   32  C19 UNL     1      -0.354   3.299   0.416  1.00  0.00     0.105 C 
HETATM   33  N3  UNL     1       0.073   4.488   0.770  1.00  0.00    -0.268 N 
ATOM     34  H3  UNL     1       0.747   4.946   0.157  1.00  0.00     0.194 HD
HETATM   35  C20 UNL     1      -1.309   2.576   1.229  1.00  0.00     0.214 C 
HETATM   36  O13 UNL     1      -1.056   2.547   2.476  1.00  0.00    -0.288 OA
HETATM   37  C21 UNL     1      -0.087  -2.091   1.885  1.00  0.00     0.193 C 
ENDROOT
BRANCH   9  38
HETATM   38  O4  UNL     1      -5.561   2.101  -1.751  1.00  0.00    -0.288 OA
ATOM     39  H4  UNL     1      -6.431   2.080  -2.132  1.00  0.00     0.244 HD
ENDBRANCH   9  38
BRANCH  33  40
HETATM   40  O12 UNL     1      -0.309   5.153   1.881  1.00  0.00    -0.290 OA
ATOM     41  H12 UNL     1       0.000   6.014   2.137  1.00  0.00     0.244 HD
ENDBRANCH  33  40
BRANCH  37  42
HETATM   42  O14 UNL     1      -0.896  -3.125   2.291  1.00  0.00    -0.389 OA
ATOM     43  H14 UNL     1      -0.533  -3.979   2.088  1.00  0.00     0.210 HD
ENDBRANCH  37  42
BRANCH  17  44
HETATM   44  O7  UNL     1       0.662  -1.003  -0.091  1.00  0.00    -0.376 OA
ATOM     45  H7  UNL     1       1.407  -0.668   0.395  1.00  0.00     0.211 HD
ENDBRANCH  17  44
TORSDOF 4
