REMARK  6 active torsions:
REMARK  status: ('A' for Active; 'I' for Inactive)
REMARK    1  A    between atoms: C2_2  and  O1_3 
REMARK    2  A    between atoms: C2_2  and  C3_5 
REMARK    3  A    between atoms: C5_7  and  C6_8 
REMARK    4  A    between atoms: C13_15  and  C14_16 
REMARK    5  A    between atoms: C14_16  and  C16_18 
REMARK    6  A    between atoms: C16_18  and  C17_19 
ROOT
HETATM    1  C3  UNL     1      -2.393  -1.651  -0.048  1.00  0.00     0.044 C 
HETATM    2  C4  UNL     1      -2.686  -0.467   0.893  1.00  0.00     0.017 C 
HETATM    3  C5  UNL     1      -2.475   0.742   0.019  1.00  0.00     0.001 C 
HETATM    4  C9  UNL     1      -1.185   0.865  -0.668  1.00  0.00    -0.009 C 
HETATM    5  C10 UNL     1      -1.465   1.705  -1.940  1.00  0.00     0.018 C 
HETATM    6  C11 UNL     1      -0.151   1.668   0.105  1.00  0.00     0.015 C 
HETATM    7  C12 UNL     1       1.050   1.910  -0.813  1.00  0.00     0.033 C 
HETATM    8  C13 UNL     1       1.566   0.658  -1.413  1.00  0.00     0.126 C 
HETATM    9  O2  UNL     1       0.855  -0.419  -1.010  1.00  0.00    -0.374 OA
HETATM   10  C20 UNL     1      -0.504  -0.409  -1.063  1.00  0.00     0.066 C 
HETATM   11  C21 UNL     1      -0.892  -0.763  -2.508  1.00  0.00     0.047 C 
HETATM   12  C22 UNL     1      -0.925  -1.613  -0.240  1.00  0.00     0.049 C 
ENDROOT
BRANCH   8  13
HETATM   13  C14 UNL     1       3.037   0.352  -0.965  1.00  0.00     0.011 C 
HETATM   14  C15 UNL     1       3.418  -0.945  -1.672  1.00  0.00     0.012 C 
BRANCH  13  15
HETATM   15  C16 UNL     1       3.110   0.195   0.492  1.00  0.00     0.010 C 
BRANCH  15  16
HETATM   16  C17 UNL     1       4.469  -0.035   1.038  1.00  0.00    -0.022 C 
HETATM   17  C18 UNL     1       5.247  -1.221   0.646  1.00  0.00     0.009 C 
HETATM   18  C19 UNL     1       4.432   0.015   2.595  1.00  0.00     0.009 C 
ENDBRANCH  15  16
ENDBRANCH  13  15
ENDBRANCH   8  13
BRANCH   3  19
HETATM   19  C6  UNL     1      -2.977   1.954   0.733  1.00  0.00    -0.018 C 
HETATM   20  C7  UNL     1      -4.488   1.723   0.971  1.00  0.00     0.010 C 
HETATM   21  C8  UNL     1      -2.406   2.124   2.132  1.00  0.00     0.010 C 
ENDBRANCH   3  19
BRANCH   1  22
HETATM   22  C2  UNL     1      -2.964  -2.890   0.445  1.00  0.00     0.038 C 
HETATM   23  C1  UNL     1      -2.219  -3.932   0.715  1.00  0.00     0.046 C 
BRANCH  22  24
HETATM   24  O1  UNL     1      -4.333  -2.971   0.635  1.00  0.00    -0.365 OA
ATOM     25  H1  UNL     1      -4.874  -2.215   0.439  1.00  0.00     0.217 HD
ENDBRANCH  22  24
ENDBRANCH   1  22
TORSDOF 6
