REMARK  1 active torsions:
REMARK  status: ('A' for Active; 'I' for Inactive)
REMARK    1  A    between atoms: C8_8  and  C9_9 
ROOT
HETATM    1  C9  UNL     1      -0.021   1.266  -0.650  1.00  0.00     0.209 A 
HETATM    2  N1  UNL     1       0.965   0.386  -1.275  1.00  0.00    -0.365 N 
ATOM      3  H1  UNL     1       0.679  -0.154  -2.091  1.00  0.00     0.161 HD
HETATM    4  C10 UNL     1       2.306   0.241  -0.806  1.00  0.00     0.098 A 
HETATM    5  S1  UNL     1       3.629  -0.693  -1.349  1.00  0.00    -0.075 SA
HETATM    6  C11 UNL     1       4.785  -0.226  -0.189  1.00  0.00    -0.017 A 
HETATM    7  C12 UNL     1       6.224  -0.662  -0.040  1.00  0.00     0.056 C 
HETATM    8  C13 UNL     1       4.100   0.652   0.595  1.00  0.00     0.046 A 
HETATM    9  C14 UNL     1       2.802   0.894   0.269  1.00  0.00     0.069 A 
HETATM   10  N2  UNL     1       1.855   1.782   0.935  1.00  0.00    -0.323 N 
ATOM     11  H2  UNL     1       2.161   2.306   1.755  1.00  0.00     0.169 HD
HETATM   12  C15 UNL     1       0.535   1.937   0.482  1.00  0.00     0.249 A 
HETATM   13  O1  UNL     1      -0.193   2.744   1.150  1.00  0.00    -0.270 OA
ENDROOT
BRANCH   1  14
HETATM   14  C8  UNL     1      -1.247   0.487  -0.543  1.00  0.00    -0.019 A 
HETATM   15  C6  UNL     1      -1.520  -0.409   0.454  1.00  0.00    -0.047 A 
HETATM   16  C4  UNL     1      -2.753  -1.063   0.398  1.00  0.00    -0.055 A 
HETATM   17  C7  UNL     1      -0.547  -0.654   1.504  1.00  0.00     0.049 C 
HETATM   18  C3  UNL     1      -3.678  -0.851  -0.591  1.00  0.00     0.014 A 
HETATM   19  C5  UNL     1      -3.026  -2.025   1.486  1.00  0.00     0.049 C 
HETATM   20  C2  UNL     1      -3.407   0.049  -1.597  1.00  0.00    -0.061 A 
HETATM   21  C1  UNL     1      -4.399   0.306  -2.697  1.00  0.00     0.048 C 
HETATM   22  C16 UNL     1      -2.198   0.698  -1.551  1.00  0.00     0.017 A 
ENDBRANCH   1  14
TORSDOF 1
