REMARK  1 active torsions:
REMARK  status: ('A' for Active; 'I' for Inactive)
REMARK    1  A    between atoms: C6_8  and  C7_9 
ROOT
HETATM    1  C1  UNL     1       4.558  -1.840   0.190  1.00  0.00     0.050 C 
HETATM    2  C2  UNL     1       3.179  -1.306   0.152  1.00  0.00    -0.037 A 
HETATM    3  C3  UNL     1       2.104  -2.159   0.192  1.00  0.00     0.042 A 
HETATM    4  C4  UNL     1       0.816  -1.625   0.048  1.00  0.00     0.079 A 
HETATM    5  C5  UNL     1       0.603  -0.275  -0.140  1.00  0.00     0.129 A 
HETATM    6  N1  UNL     1       1.715   0.525  -0.175  1.00  0.00    -0.344 N 
ATOM      7  H1  UNL     1       1.588   1.527  -0.320  1.00  0.00     0.167 HD
HETATM    8  C6  UNL     1       2.970   0.052  -0.027  1.00  0.00     0.020 A 
HETATM    9  N2  UNL     1      -0.714   0.256  -0.249  1.00  0.00    -0.356 N 
ATOM     10  H2  UNL     1      -0.821   1.251  -0.448  1.00  0.00     0.162 HD
HETATM   11  C10 UNL     1      -1.925  -0.557  -0.089  1.00  0.00     0.113 A 
HETATM   12  C11 UNL     1      -2.666  -0.587  -1.382  1.00  0.00     0.041 C 
HETATM   13  C12 UNL     1      -3.777   0.328  -1.585  1.00  0.00     0.003 C 
HETATM   14  C13 UNL     1      -3.892   1.564  -0.783  1.00  0.00     0.000 C 
HETATM   15  C14 UNL     1      -4.680   1.248   0.495  1.00  0.00     0.000 C 
HETATM   16  C15 UNL     1      -4.189  -0.097   0.972  1.00  0.00     0.003 C 
HETATM   17  C16 UNL     1      -2.696  -0.031   1.081  1.00  0.00     0.041 C 
HETATM   18  C17 UNL     1      -1.580  -1.976   0.223  1.00  0.00     0.250 A 
HETATM   19  O1  UNL     1      -2.539  -2.737   0.497  1.00  0.00    -0.270 OA
HETATM   20  N3  UNL     1      -0.268  -2.506   0.229  1.00  0.00    -0.322 N 
ATOM     21  H3  UNL     1      -0.111  -3.505   0.362  1.00  0.00     0.169 HD
ENDROOT
BRANCH   8  22
HETATM   22  C7  UNL     1       4.130   0.925   0.213  1.00  0.00     0.028 C 
HETATM   23  C8  UNL     1       4.773   1.518  -1.023  1.00  0.00     0.016 C 
HETATM   24  C9  UNL     1       3.465   2.248   0.855  1.00  0.00     0.016 C 
ENDBRANCH   8  22
TORSDOF 1
