REMARK  5 active torsions:
REMARK  status: ('A' for Active; 'I' for Inactive)
REMARK    1  A    between atoms: O1_1  and  C1_3 
REMARK    2  A    between atoms: C4_6  and  N1_7 
REMARK    3  A    between atoms: N2_10  and  C7_11 
REMARK    4  A    between atoms: C9_13  and  O2_14 
REMARK    5  A    between atoms: C13_20  and  O3_21 
ROOT
HETATM    1  N1  UNL     1      -0.521  -0.642  -0.136  1.00  0.00     0.132 N 
HETATM    2  C5  UNL     1       0.362  -0.890   0.996  1.00  0.00     0.307 C 
HETATM    3  C6  UNL     1       1.510   0.041   1.131  1.00  0.00     0.303 C 
HETATM    4  N2  UNL     1       2.196   0.115  -0.134  1.00  0.00     0.099 N 
HETATM    5  C11 UNL     1       1.300   0.464  -1.185  1.00  0.00     0.342 C 
HETATM    6  C12 UNL     1      -0.144   0.632  -0.679  1.00  0.00     0.433 C 
HETATM    7  F1  UNL     1      -0.840   1.078  -1.751  1.00  0.00    -0.214 F 
ENDROOT
BRANCH   1   8
HETATM    8  C4  UNL     1      -1.902  -0.727   0.277  1.00  0.00     0.255 C 
HETATM    9  C3  UNL     1      -2.362   0.325   1.225  1.00  0.00     0.041 C 
HETATM   10  C2  UNL     1      -3.872   0.090   1.408  1.00  0.00     0.034 C 
HETATM   11  C1  UNL     1      -4.461   0.578   0.091  1.00  0.00     0.120 C 
HETATM   12  C14 UNL     1      -3.950  -0.188  -1.098  1.00  0.00     0.065 C 
HETATM   13  C13 UNL     1      -2.832  -1.127  -0.790  1.00  0.00     0.154 C 
BRANCH  11  14
HETATM   14  O1  UNL     1      -5.852   0.458   0.245  1.00  0.00    -0.395 OA
ATOM     15  H1  UNL     1      -6.219   0.762  -0.576  1.00  0.00     0.210 HD
ENDBRANCH  11  14
BRANCH  13  16
HETATM   16  O3  UNL     1      -2.155  -1.426  -1.964  1.00  0.00    -0.393 OA
ATOM     17  H3  UNL     1      -2.756  -1.684  -2.653  1.00  0.00     0.210 HD
ENDBRANCH  13  16
ENDBRANCH   1   8
BRANCH   4  18
HETATM   18  C7  UNL     1       3.406   0.857  -0.135  1.00  0.00     0.228 C 
HETATM   19  C8  UNL     1       4.525   0.348   0.731  1.00  0.00     0.067 C 
HETATM   20  C9  UNL     1       4.943  -0.538  -0.422  1.00  0.00     0.122 C 
HETATM   21  C10 UNL     1       4.266   0.467  -1.344  1.00  0.00     0.067 C 
BRANCH  20  22
HETATM   22  O2  UNL     1       6.313  -0.535  -0.656  1.00  0.00    -0.395 OA
ATOM     23  H2  UNL     1       6.575  -1.091  -1.380  1.00  0.00     0.210 HD
ENDBRANCH  20  22
ENDBRANCH   4  18
TORSDOF 5
