REMARK  4 active torsions:
REMARK  status: ('A' for Active; 'I' for Inactive)
REMARK    1  A    between atoms: O1_1  and  C1_3 
REMARK    2  A    between atoms: C2_7  and  C3_8 
REMARK    3  A    between atoms: C4_10  and  N2_11 
REMARK    4  A    between atoms: C9_17  and  O3_18 
ROOT
HETATM    1  C1  UNL     1      -2.000  -0.346  -1.356  1.00  0.00     0.350 C 
HETATM    2  N1  UNL     1      -2.571  -0.654  -0.050  1.00  0.00    -0.039 N 
ATOM      3  H11 UNL     1      -3.174  -1.476  -0.027  1.00  0.00     0.280 HD
ATOM      4  H12 UNL     1      -3.284  -0.000   0.273  1.00  0.00     0.280 HD
HETATM    5  C2  UNL     1      -1.379  -0.738   0.799  1.00  0.00     0.234 C 
HETATM    6  C4  UNL     1      -0.503   0.366   0.331  1.00  0.00     0.287 C 
HETATM    7  C9  UNL     1      -1.031   0.764  -1.004  1.00  0.00     0.209 C 
ENDROOT
BRANCH   6   8
HETATM    8  N2  UNL     1       0.888   0.105   0.407  1.00  0.00     0.102 N 
HETATM    9  C5  UNL     1       1.397  -0.967  -0.378  1.00  0.00     0.299 C 
HETATM   10  C6  UNL     1       2.640  -1.457   0.384  1.00  0.00     0.198 C 
HETATM   11  O2  UNL     1       3.308  -0.365   0.887  1.00  0.00    -0.388 OA
HETATM   12  C7  UNL     1       3.136   0.795   0.156  1.00  0.00     0.198 C 
HETATM   13  C8  UNL     1       1.692   1.270   0.170  1.00  0.00     0.299 C 
ENDBRANCH   6   8
BRANCH   5  14
HETATM   14  C3  UNL     1      -1.812  -0.582   2.247  1.00  0.00     0.120 C 
HETATM   15 BR1  UNL     1      -3.055  -1.999   2.691  1.00  0.00    -0.094 Br
ENDBRANCH   5  14
BRANCH   7  16
HETATM   16  O3  UNL     1      -1.811   1.942  -0.943  1.00  0.00    -0.389 OA
ATOM     17  H3  UNL     1      -1.203   2.638  -0.722  1.00  0.00     0.210 HD
ENDBRANCH   7  16
BRANCH   1  18
HETATM   18  O1  UNL     1      -2.962   0.073  -2.262  1.00  0.00    -0.368 OA
ATOM     19  H1  UNL     1      -2.590   0.274  -3.113  1.00  0.00     0.212 HD
ENDBRANCH   1  18
TORSDOF 4
