REMARK  12 active torsions:
REMARK  status: ('A' for Active; 'I' for Inactive)
REMARK    1  A    between atoms: N1_2  and  C3_4 
REMARK    2  A    between atoms: C3_4  and  C4_5 
REMARK    3  A    between atoms: C4_5  and  C5_6 
REMARK    4  A    between atoms: C5_6  and  C6_9 
REMARK    5  A    between atoms: C6_9  and  N2_10 
REMARK    6  A    between atoms: N2_10  and  C7_12 
REMARK    7  A    between atoms: C8_15  and  N4_16 
REMARK    8  A    between atoms: C9_21  and  N6_22 
REMARK    9  A    between atoms: C10_25  and  N7_26 
REMARK   10  A    between atoms: C11_30  and  C12_31 
REMARK   11  A    between atoms: C12_31  and  N10_32 
REMARK   12  A    between atoms: C14_39  and  N13_40 
ROOT
HETATM    1  C7  UNL     1      -0.767   0.203   0.878  1.00  0.00     0.151 A 
HETATM    2  N3  UNL     1      -1.751   0.503   1.772  1.00  0.00    -0.175 N 
ATOM      3  H3  UNL     1      -2.696   0.686   1.435  1.00  0.00     0.186 HD
HETATM    4  C8  UNL     1      -1.497   0.562   3.091  1.00  0.00     0.679 A 
HETATM    5  N5  UNL     1      -0.253   0.321   3.526  1.00  0.00    -0.175 N 
ATOM      6  H5  UNL     1      -0.059   0.365   4.526  1.00  0.00     0.186 HD
HETATM    7  C9  UNL     1       0.753   0.021   2.671  1.00  0.00     0.148 A 
HETATM    8  C10 UNL     1       0.527  -0.047   1.325  1.00  0.00     0.161 A 
ENDROOT
BRANCH   8   9
HETATM    9  N7  UNL     1       1.548  -0.361   0.387  1.00  0.00    -0.172 N 
HETATM   10  N8  UNL     1       1.718  -1.484  -0.299  1.00  0.00     0.003 NA
HETATM   11  N9  UNL     1       2.785  -1.402  -1.074  1.00  0.00    -0.269 N 
HETATM   12  C11 UNL     1       3.341  -0.192  -0.900  1.00  0.00     0.129 A 
ATOM     13  H9  UNL     1       3.128  -2.133  -1.698  1.00  0.00     0.185 HD
HETATM   14  N15 UNL     1       2.548   0.418   0.008  1.00  0.00    -0.266 N 
ATOM     15  H15 UNL     1       2.702   1.364   0.358  1.00  0.00     0.190 HD
BRANCH  12  16
HETATM   16  C12 UNL     1       4.557   0.350  -1.564  1.00  0.00     0.231 C 
BRANCH  16  17
HETATM   17  N10 UNL     1       5.775   0.047  -0.857  1.00  0.00    -0.125 N 
HETATM   18  C13 UNL     1       6.487  -1.060  -1.124  1.00  0.00     0.697 A 
HETATM   19  N11 UNL     1       6.171  -1.927  -2.024  1.00  0.00    -0.234 N 
HETATM   20  N12 UNL     1       7.631  -1.296  -0.409  1.00  0.00    -0.022 N 
ATOM     21 2H11 UNL     1       5.319  -1.751  -2.557  1.00  0.00     0.174 HD
ATOM     22 1H11 UNL     1       6.712  -2.768  -2.227  1.00  0.00     0.174 HD
HETATM   23  C14 UNL     1       8.079  -0.475   0.548  1.00  0.00     0.694 A 
ATOM     24  H12 UNL     1       8.168  -2.138  -0.616  1.00  0.00     0.203 HD
HETATM   25  N14 UNL     1       7.331   0.622   0.779  1.00  0.00    -0.140 N 
HETATM   26  C15 UNL     1       6.208   0.883   0.099  1.00  0.00     0.355 A 
ATOM     27  H14 UNL     1       7.632   1.278   1.499  1.00  0.00     0.189 HD
HETATM   28  O1  UNL     1       5.565   1.951   0.390  1.00  0.00    -0.245 OA
BRANCH  23  29
HETATM   29  N13 UNL     1       9.158  -0.716   1.209  1.00  0.00    -0.234 N 
ATOM     30 2H13 UNL     1       9.724  -1.546   1.034  1.00  0.00     0.174 HD
ATOM     31 1H13 UNL     1       9.499  -0.090   1.938  1.00  0.00     0.174 HD
ENDBRANCH  23  29
ENDBRANCH  16  17
ENDBRANCH  12  16
ENDBRANCH   8   9
BRANCH   1  32
HETATM   32  N2  UNL     1      -0.982   0.168  -0.503  1.00  0.00    -0.368 N 
ATOM     33  H2  UNL     1      -0.185   0.013  -1.121  1.00  0.00     0.161 HD
BRANCH  32  34
HETATM   34  C6  UNL     1      -2.284   0.343  -1.084  1.00  0.00     0.200 C 
BRANCH  34  35
HETATM   35  C5  UNL     1      -3.102  -0.899  -1.157  1.00  0.00     0.260 C 
HETATM   36  F1  UNL     1      -2.413  -1.855  -1.955  1.00  0.00    -0.204 F 
HETATM   37  F2  UNL     1      -3.324  -1.552   0.030  1.00  0.00    -0.204 F 
BRANCH  35  38
HETATM   38  C4  UNL     1      -4.435  -0.610  -1.788  1.00  0.00     0.111 C 
BRANCH  38  39
HETATM   39  C3  UNL     1      -5.211   0.380  -1.001  1.00  0.00     0.277 C 
BRANCH  39  40
HETATM   40  N1  UNL     1      -6.528   0.638  -1.588  1.00  0.00     0.080 N 
HETATM   41  C1  UNL     1      -7.393  -0.510  -1.485  1.00  0.00     0.309 C 
HETATM   42  C2  UNL     1      -7.106   1.853  -1.082  1.00  0.00     0.309 C 
ENDBRANCH  39  40
ENDBRANCH  38  39
ENDBRANCH  35  38
ENDBRANCH  34  35
ENDBRANCH  32  34
ENDBRANCH   1  32
BRANCH   7  43
HETATM   43  N6  UNL     1       1.947  -0.204   3.106  1.00  0.00    -0.383 N 
ATOM     44  H62 UNL     1       2.116  -0.153   4.111  1.00  0.00     0.157 HD
ATOM     45  H61 UNL     1       2.705  -0.430   2.462  1.00  0.00     0.157 HD
ENDBRANCH   7  43
BRANCH   4  46
HETATM   46  N4  UNL     1      -2.433   0.845   3.956  1.00  0.00    -0.234 N 
ATOM     47  H42 UNL     1      -3.380   1.028   3.625  1.00  0.00     0.174 HD
ATOM     48  H41 UNL     1      -2.240   0.890   4.957  1.00  0.00     0.174 HD
ENDBRANCH   4  46
TORSDOF 12
