REMARK  10 active torsions:
REMARK  status: ('A' for Active; 'I' for Inactive)
REMARK    1  A    between atoms: N1_2  and  C3_4 
REMARK    2  A    between atoms: N1_2  and  C22_28 
REMARK    3  A    between atoms: C3_4  and  C4_5 
REMARK    4  A    between atoms: C4_5  and  C5_6 
REMARK    5  A    between atoms: C5_6  and  N2_7 
REMARK       I    between atoms: N2_7  and  C6_9 
REMARK    6  A    between atoms: C6_9  and  C7_11 
REMARK       I    between atoms: N3_15  and  C11_16 
REMARK    7  A    between atoms: C11_16  and  C12_18 
REMARK    8  A    between atoms: C22_28  and  C23_29 
REMARK    9  A    between atoms: C23_29  and  N4_30 
REMARK   10  A    between atoms: N5_33  and  C26_34 
ROOT
HETATM    1  C5  UNL     1      -1.132  -0.251  -0.529  1.00  0.00     0.124 C 
ENDROOT
BRANCH   1   2
HETATM    2  C4  UNL     1       0.344  -0.153  -0.065  1.00  0.00     0.047 C 
BRANCH   2   3
HETATM    3  C3  UNL     1       1.111  -0.979  -1.015  1.00  0.00     0.238 C 
BRANCH   3   4
HETATM    4  N1  UNL     1       2.542  -1.089  -0.853  1.00  0.00    -0.073 N 
HETATM    5  C1  UNL     1       2.961  -0.354   0.307  1.00  0.00     0.272 C 
HETATM    6  C2  UNL     1       2.795  -2.508  -0.583  1.00  0.00     0.272 C 
BRANCH   4   7
HETATM    7  C22 UNL     1       3.217  -0.644  -2.028  1.00  0.00     0.256 C 
BRANCH   7   8
HETATM    8  C23 UNL     1       4.589  -0.998  -2.354  1.00  0.00     0.154 C 
BRANCH   8   9
HETATM    9  N4  UNL     1       5.671  -0.597  -1.520  1.00  0.00    -0.347 N 
HETATM   10  C24 UNL     1       6.308   0.734  -1.676  1.00  0.00     0.156 C 
HETATM   11  C25 UNL     1       7.744   0.520  -1.254  1.00  0.00     0.293 C 
HETATM   12  N5  UNL     1       7.896   0.204   0.154  1.00  0.00     0.103 N 
HETATM   13  C32 UNL     1       6.822  -0.623   0.662  1.00  0.00     0.375 C 
HETATM   14  C33 UNL     1       6.256  -1.367  -0.490  1.00  0.00     0.248 C 
HETATM   15  O3  UNL     1       6.311  -2.627  -0.527  1.00  0.00    -0.271 OA
BRANCH  12  16
HETATM   16  C26 UNL     1       9.206  -0.405   0.291  1.00  0.00     0.223 C 
HETATM   17  C27 UNL     1       9.665  -0.612   1.687  1.00  0.00     0.036 C 
HETATM   18  C28 UNL     1      10.316   0.654   2.207  1.00  0.00     0.002 C 
HETATM   19  C29 UNL     1      11.682   0.754   1.539  1.00  0.00     0.000 C 
HETATM   20  C30 UNL     1      11.598   0.349   0.081  1.00  0.00     0.002 C 
HETATM   21  C31 UNL     1      10.180   0.477  -0.441  1.00  0.00     0.036 C 
ENDBRANCH  12  16
ENDBRANCH   8   9
ENDBRANCH   7   8
ENDBRANCH   4   7
ENDBRANCH   3   4
ENDBRANCH   2   3
ENDBRANCH   1   2
BRANCH   1  22
HETATM   22  N2  UNL     1      -1.992   0.522   0.328  1.00  0.00    -0.359 N 
HETATM   23  C6  UNL     1      -3.377   0.532   0.030  1.00  0.00     0.240 C 
HETATM   24  O1  UNL     1      -3.847  -0.107  -0.947  1.00  0.00    -0.271 OA
ATOM     25  H2  UNL     1      -1.618   1.043   1.121  1.00  0.00     0.162 HD
BRANCH  23  26
HETATM   26  C7  UNL     1      -4.289   1.319   0.897  1.00  0.00     0.179 C 
HETATM   27  C8  UNL     1      -3.915   2.758   0.898  1.00  0.00     0.037 C 
HETATM   28  C9  UNL     1      -5.091   3.503   0.365  1.00  0.00     0.022 C 
HETATM   29  C10 UNL     1      -6.011   2.422  -0.195  1.00  0.00     0.127 C 
HETATM   30  N3  UNL     1      -5.665   1.199   0.461  1.00  0.00    -0.338 N 
HETATM   31  C11 UNL     1      -6.469   0.066   0.651  1.00  0.00     0.229 C 
HETATM   32  O2  UNL     1      -5.925  -0.919   1.244  1.00  0.00    -0.272 OA
BRANCH  31  33
HETATM   33  C12 UNL     1      -7.870  -0.123   0.248  1.00  0.00     0.042 C 
HETATM   34  C13 UNL     1      -8.198  -1.623   0.406  1.00  0.00     0.024 C 
HETATM   35  C14 UNL     1      -9.647  -1.916   0.176  1.00  0.00    -0.013 C 
HETATM   36  C15 UNL     1      -9.943  -1.559  -1.276  1.00  0.00     0.009 C 
HETATM   37  C19 UNL     1     -10.553  -1.137   1.072  1.00  0.00     0.009 C 
HETATM   38  C16 UNL     1      -9.651  -0.084  -1.429  1.00  0.00    -0.013 C 
HETATM   39  C17 UNL     1     -10.483   0.753  -0.488  1.00  0.00     0.009 C 
HETATM   40  C21 UNL     1      -8.178   0.220  -1.168  1.00  0.00     0.024 C 
HETATM   41  C18 UNL     1     -10.242   0.338   0.931  1.00  0.00    -0.013 C 
HETATM   42  C20 UNL     1      -8.779   0.557   1.253  1.00  0.00     0.024 C 
ENDBRANCH  31  33
ENDBRANCH  23  26
ENDBRANCH   1  22
TORSDOF 10
