REMARK  5 active torsions:
REMARK  status: ('A' for Active; 'I' for Inactive)
REMARK    1  A    between atoms: N1_1  and  C1_4 
REMARK    2  A    between atoms: C2_7  and  N3_8 
REMARK    3  A    between atoms: N3_8  and  N4_10 
REMARK    4  A    between atoms: N6_15  and  C3_16 
REMARK    5  A    between atoms: C3_16  and  C4_17 
ROOT
HETATM    1  C1  UNL     1      -0.056   1.203  -0.826  1.00  0.00     0.707 A 
HETATM    2  N2  UNL     1       1.274   1.036  -0.978  1.00  0.00    -0.018 N 
ATOM      3  H2  UNL     1       1.880   1.514  -1.645  1.00  0.00     0.203 HD
HETATM    4  C2  UNL     1       1.641   0.109  -0.070  1.00  0.00     0.726 A 
HETATM    5  N5  UNL     1       0.565  -0.294   0.633  1.00  0.00    -0.114 N 
ATOM      6  H5  UNL     1       0.546  -0.985   1.383  1.00  0.00     0.206 HD
HETATM    7  N6  UNL     1      -0.461   0.387   0.155  1.00  0.00    -0.108 N 
ENDROOT
BRANCH   4   8
HETATM    8  N3  UNL     1       2.854  -0.318   0.087  1.00  0.00    -0.137 N 
ATOM      9  H3  UNL     1       3.590   0.063  -0.507  1.00  0.00     0.205 HD
BRANCH   8  10
HETATM   10  N4  UNL     1       3.186  -1.271   1.031  1.00  0.00    -0.331 N 
ATOM     11  H42 UNL     1       2.438  -1.641   1.617  1.00  0.00     0.177 HD
ATOM     12  H41 UNL     1       4.141  -1.607   1.155  1.00  0.00     0.177 HD
ENDBRANCH   8  10
ENDBRANCH   4   8
BRANCH   1  13
HETATM   13  N1  UNL     1      -0.781   2.029  -1.534  1.00  0.00    -0.233 N 
ATOM     14  H12 UNL     1      -0.472   2.651  -2.281  1.00  0.00     0.174 HD
ATOM     15  H11 UNL     1      -1.787   2.155  -1.419  1.00  0.00     0.174 HD
ENDBRANCH   1  13
BRANCH   7  16
HETATM   16  C3  UNL     1      -1.852   0.311   0.583  1.00  0.00     0.183 C 
BRANCH  16  17
HETATM   17  C4  UNL     1      -2.606  -0.751  -0.217  1.00  0.00     0.137 C 
HETATM   18 CL1  UNL     1      -1.889  -2.355  -0.009  1.00  0.00    -0.129 Cl
ENDBRANCH  16  17
ENDBRANCH   7  16
TORSDOF 5
