REMARK  6 active torsions:
REMARK  status: ('A' for Active; 'I' for Inactive)
REMARK    1  A    between atoms: C4_7  and  C5_8 
REMARK    2  A    between atoms: N3_11  and  C8_12 
REMARK    3  A    between atoms: C8_12  and  C9_13 
REMARK    4  A    between atoms: C9_13  and  N4_14 
REMARK       I    between atoms: N4_14  and  C10_16 
REMARK       I    between atoms: C10_16  and  N5_18 
REMARK    5  A    between atoms: N5_18  and  C11_20 
REMARK    6  A    between atoms: C15_24  and  O2_25 
ROOT
HETATM    1  C9  UNL     1      -0.035  -2.117   0.936  1.00  0.00     0.154 C 
ENDROOT
BRANCH   1   2
HETATM    2  C8  UNL     1       0.674  -0.882   1.441  1.00  0.00     0.292 C 
BRANCH   2   3
HETATM    3  N3  UNL     1       1.226  -0.188   0.289  1.00  0.00     0.090 N 
HETATM    4  C7  UNL     1       1.912   1.028   0.683  1.00  0.00     0.273 C 
HETATM    5  C6  UNL     1       3.340   0.720   1.076  1.00  0.00     0.041 C 
HETATM    6  C5  UNL     1       4.087   0.429  -0.206  1.00  0.00     0.040 C 
HETATM    7  C18 UNL     1       3.203  -0.341  -1.184  1.00  0.00     0.041 C 
HETATM    8  C17 UNL     1       2.094  -1.067  -0.470  1.00  0.00     0.273 C 
BRANCH   6   9
HETATM    9  C4  UNL     1       5.341  -0.323   0.048  1.00  0.00     0.031 A 
HETATM   10  N1  UNL     1       6.582   0.089  -0.279  1.00  0.00    -0.349 N 
HETATM   11  C1  UNL     1       6.872   1.344  -0.937  1.00  0.00     0.156 C 
HETATM   12  C2  UNL     1       7.485  -0.835   0.097  1.00  0.00     0.182 A 
HETATM   13  N2  UNL     1       6.799  -1.839   0.667  1.00  0.00    -0.360 N 
HETATM   14  C3  UNL     1       5.489  -1.545   0.647  1.00  0.00     0.114 A 
ATOM     15  H2  UNL     1       7.208  -2.690   1.054  1.00  0.00     0.166 HD
ENDBRANCH   6   9
ENDBRANCH   2   3
ENDBRANCH   1   2
BRANCH   1  16
HETATM   16  N4  UNL     1      -1.078  -1.715   0.024  1.00  0.00    -0.341 N 
HETATM   17  C10 UNL     1      -2.153  -0.899   0.437  1.00  0.00     0.316 C 
HETATM   18  O1  UNL     1      -2.221  -0.515   1.621  1.00  0.00    -0.247 OA
HETATM   19  N5  UNL     1      -3.167  -0.506  -0.489  1.00  0.00    -0.338 N 
ATOM     20  H5  UNL     1      -3.118  -0.816  -1.460  1.00  0.00     0.164 HD
ATOM     21  H4  UNL     1      -1.037  -2.029  -0.946  1.00  0.00     0.164 HD
BRANCH  19  22
HETATM   22  C11 UNL     1      -4.269   0.335  -0.051  1.00  0.00     0.088 C 
HETATM   23  C12 UNL     1      -4.223   1.595  -0.882  1.00  0.00     0.025 C 
HETATM   24  C13 UNL     1      -5.504   1.841  -1.625  1.00  0.00     0.004 C 
HETATM   25  C14 UNL     1      -6.703   1.729  -0.713  1.00  0.00     0.032 C 
HETATM   26  C15 UNL     1      -6.778   0.397  -0.038  1.00  0.00     0.120 C 
HETATM   27  C16 UNL     1      -5.542  -0.444  -0.245  1.00  0.00     0.057 C 
BRANCH  26  28
HETATM   28  O2  UNL     1      -7.858  -0.346  -0.548  1.00  0.00    -0.396 OA
ATOM     29  H2  UNL     1      -7.906  -1.192  -0.119  1.00  0.00     0.210 HD
ENDBRANCH  26  28
ENDBRANCH  19  22
ENDBRANCH   1  16
TORSDOF 6
