REMARK  7 active torsions:
REMARK  status: ('A' for Active; 'I' for Inactive)
REMARK    1  A    between atoms: C2_2  and  O2_4 
REMARK    2  A    between atoms: O2_4  and  C3_5 
REMARK    3  A    between atoms: C3_5  and  C4_6 
REMARK    4  A    between atoms: C11_15  and  O5_16 
REMARK    5  A    between atoms: C15_21  and  C16_22 
REMARK    6  A    between atoms: C16_22  and  C17_23 
REMARK    7  A    between atoms: C17_23  and  O6_24 
ROOT
HETATM    1  C4  UNL     1       0.716  -1.383   0.517  1.00  0.00     0.071 C 
HETATM    2  C5  UNL     1      -0.616  -1.805   0.968  1.00  0.00     0.159 C 
HETATM    3  O3  UNL     1      -1.336  -0.703   1.499  1.00  0.00    -0.374 OA
HETATM    4  C6  UNL     1      -1.648   0.289   0.586  1.00  0.00     0.165 C 
HETATM    5  C7  UNL     1      -2.901   0.051  -0.184  1.00  0.00     0.186 A 
HETATM    6  O4  UNL     1      -3.006  -0.772  -1.269  1.00  0.00    -0.367 OA
HETATM    7  C8  UNL     1      -3.558  -1.212  -0.080  1.00  0.00     0.089 A 
HETATM    8  C9  UNL     1      -5.094  -1.208  -0.026  1.00  0.00     0.049 C 
HETATM    9  C10 UNL     1      -2.957  -2.339   0.672  1.00  0.00     0.074 C 
HETATM   10  C11 UNL     1      -1.516  -2.660   0.212  1.00  0.00     0.150 C 
HETATM   11  C12 UNL     1      -0.463   0.770  -0.143  1.00  0.00     0.014 C 
HETATM   12  C13 UNL     1      -0.485   0.838  -1.611  1.00  0.00     0.020 C 
HETATM   13  C14 UNL     1      -0.030   2.202   0.271  1.00  0.00     0.046 C 
HETATM   14  C15 UNL     1       1.467   2.070  -0.043  1.00  0.00     0.125 C 
HETATM   15  O7  UNL     1       1.759   0.726  -0.175  1.00  0.00    -0.379 OA
HETATM   16  C18 UNL     1       0.754   0.106   0.469  1.00  0.00     0.141 C 
ENDROOT
BRANCH   1  17
HETATM   17  C3  UNL     1       1.313  -2.021  -0.677  1.00  0.00     0.188 C 
BRANCH  17  18
HETATM   18  O2  UNL     1       2.583  -1.585  -1.067  1.00  0.00    -0.321 OA
BRANCH  18  19
HETATM   19  C2  UNL     1       3.733  -1.697  -0.330  1.00  0.00     0.254 C 
HETATM   20  C1  UNL     1       5.061  -1.206  -0.794  1.00  0.00     0.126 C 
HETATM   21  O1  UNL     1       3.676  -2.242   0.802  1.00  0.00    -0.266 OA
ENDBRANCH  18  19
ENDBRANCH  17  18
ENDBRANCH   1  17
BRANCH  10  22
HETATM   22  O5  UNL     1      -1.575  -2.649  -1.133  1.00  0.00    -0.393 OA
ATOM     23  H5  UNL     1      -2.163  -3.208  -1.627  1.00  0.00     0.210 HD
ENDBRANCH  10  22
BRANCH  14  24
HETATM   24  C16 UNL     1       2.288   2.770   0.993  1.00  0.00     0.058 C 
BRANCH  24  25
HETATM   25  C17 UNL     1       1.874   4.242   0.972  1.00  0.00     0.166 C 
BRANCH  25  26
HETATM   26  O6  UNL     1       2.104   4.807  -0.278  1.00  0.00    -0.401 OA
ATOM     27  H6  UNL     1       1.847   5.721  -0.291  1.00  0.00     0.209 HD
ENDBRANCH  25  26
ENDBRANCH  24  25
ENDBRANCH  14  24
TORSDOF 7
