REMARK  6 active torsions:
REMARK  status: ('A' for Active; 'I' for Inactive)
REMARK    1  A    between atoms: C2_2  and  O2_4 
REMARK    2  A    between atoms: O2_4  and  C3_5 
REMARK    3  A    between atoms: C8_12  and  O5_13 
REMARK    4  A    between atoms: C9_15  and  O6_16 
REMARK    5  A    between atoms: C11_20  and  C12_21 
REMARK    6  A    between atoms: C12_21  and  C13_22 
ROOT
HETATM    1  C3  UNL     1      -1.355   0.506  -0.122  1.00  0.00     0.152 C 
HETATM    2  C4  UNL     1      -1.619  -0.662   0.754  1.00  0.00     0.057 C 
HETATM    3  C5  UNL     1      -2.324  -0.193   2.035  1.00  0.00     0.186 C 
HETATM    4  O3  UNL     1      -2.828  -1.440   2.509  1.00  0.00    -0.321 OA
HETATM    5  C6  UNL     1      -3.178  -2.250   1.416  1.00  0.00     0.266 C 
HETATM    6  O4  UNL     1      -3.783  -3.342   1.577  1.00  0.00    -0.265 OA
HETATM    7  C7  UNL     1      -2.716  -1.580   0.199  1.00  0.00     0.125 C 
HETATM    8  C8  UNL     1      -2.075  -2.504  -0.804  1.00  0.00     0.163 C 
HETATM    9  C9  UNL     1      -1.684  -1.698  -1.996  1.00  0.00     0.177 C 
HETATM   10  C10 UNL     1      -0.400  -0.986  -1.913  1.00  0.00     0.166 C 
HETATM   11  O7  UNL     1       0.553  -1.428  -0.999  1.00  0.00    -0.376 OA
HETATM   12  C11 UNL     1       0.990  -0.090  -0.949  1.00  0.00     0.138 C 
HETATM   13  C17 UNL     1      -0.397   0.326  -1.215  1.00  0.00     0.038 C 
HETATM   14  C18 UNL     1      -0.419   1.540  -2.153  1.00  0.00     0.023 C 
ENDROOT
BRANCH  12  15
HETATM   15  C12 UNL     1       1.667   0.319   0.300  1.00  0.00     0.060 C 
BRANCH  15  16
HETATM   16  C13 UNL     1       2.887  -0.499   0.547  1.00  0.00    -0.022 C 
HETATM   17  C14 UNL     1       4.096   0.034   0.638  1.00  0.00    -0.091 C 
HETATM   18  C15 UNL     1       4.212   1.507   0.485  1.00  0.00     0.042 C 
HETATM   19  C16 UNL     1       5.302  -0.795   0.884  1.00  0.00     0.042 C 
ENDBRANCH  15  16
ENDBRANCH  12  15
BRANCH   1  20
HETATM   20  O2  UNL     1      -0.964   1.597   0.689  1.00  0.00    -0.315 OA
BRANCH  20  21
HETATM   21  C2  UNL     1      -1.686   2.753   0.844  1.00  0.00     0.255 C 
HETATM   22  C1  UNL     1      -1.203   3.846   1.713  1.00  0.00     0.126 C 
HETATM   23  O1  UNL     1      -2.773   2.851   0.221  1.00  0.00    -0.266 OA
ENDBRANCH  20  21
ENDBRANCH   1  20
BRANCH   9  24
HETATM   24  O6  UNL     1      -1.611  -2.603  -3.083  1.00  0.00    -0.390 OA
ATOM     25  H6  UNL     1      -1.362  -2.089  -3.842  1.00  0.00     0.210 HD
ENDBRANCH   9  24
BRANCH   8  26
HETATM   26  O5  UNL     1      -1.016  -3.150  -0.195  1.00  0.00    -0.392 OA
ATOM     27  H5  UNL     1      -0.612  -3.733  -0.827  1.00  0.00     0.210 HD
ENDBRANCH   8  26
TORSDOF 6
