REMARK  11 active torsions:
REMARK  status: ('A' for Active; 'I' for Inactive)
REMARK    1  A    between atoms: C3_3  and  C4_4 
REMARK    2  A    between atoms: C4_4  and  C5_5 
REMARK    3  A    between atoms: C4_4  and  C8_14 
REMARK    4  A    between atoms: C6_6  and  C7_7 
REMARK    5  A    between atoms: C7_7  and  O1_8 
REMARK    6  A    between atoms: N1_10  and  O2_12 
REMARK    7  A    between atoms: C9_17  and  C10_18 
REMARK    8  A    between atoms: C10_18  and  O4_20 
REMARK    9  A    between atoms: C13_23  and  O5_24 
REMARK   10  A    between atoms: C14_26  and  O6_27 
REMARK   11  A    between atoms: O6_27  and  C15_28 
ROOT
HETATM    1  C8  UNL     1      -0.294  -0.038  -0.170  1.00  0.00     0.058 A 
HETATM    2  N2  UNL     1      -1.079  -1.098  -0.423  1.00  0.00    -0.351 N 
ATOM      3  H2  UNL     1      -0.636  -2.009  -0.542  1.00  0.00     0.166 HD
HETATM    4  C9  UNL     1      -2.410  -1.022  -0.527  1.00  0.00     0.111 A 
HETATM    5  C12 UNL     1      -3.046   0.195  -0.372  1.00  0.00     0.075 A 
HETATM    6  C13 UNL     1      -2.300   1.298  -0.115  1.00  0.00     0.104 A 
HETATM    7  C14 UNL     1      -0.903   1.185  -0.012  1.00  0.00     0.135 A 
ENDROOT
BRANCH   1   8
HETATM    8  C4  UNL     1       1.214  -0.196  -0.070  1.00  0.00     0.083 C 
BRANCH   8   9
HETATM    9  C3  UNL     1       1.727   0.588   1.072  1.00  0.00    -0.016 C 
HETATM   10  C2  UNL     1       1.385   0.295   2.307  1.00  0.00    -0.034 C 
HETATM   11  C1  UNL     1       0.477  -0.819   2.682  1.00  0.00     0.036 C 
ENDBRANCH   8   9
BRANCH   8  12
HETATM   12  C5  UNL     1       1.850   0.087  -1.357  1.00  0.00    -0.008 C 
HETATM   13  C6  UNL     1       3.020  -0.282  -1.761  1.00  0.00     0.054 C 
BRANCH  13  14
HETATM   14  C7  UNL     1       4.016  -1.059  -1.084  1.00  0.00     0.159 C 
HETATM   15  N1  UNL     1       3.852  -1.514   0.085  1.00  0.00    -0.248 N 
ATOM     16  H1  UNL     1       2.964  -1.303   0.540  1.00  0.00     0.196 HD
BRANCH  14  17
HETATM   17  O1  UNL     1       5.252  -1.356  -1.710  1.00  0.00    -0.345 OA
ATOM     18  H1  UNL     1       5.912  -1.871  -1.261  1.00  0.00     0.219 HD
ENDBRANCH  14  17
BRANCH  15  19
HETATM   19  O2  UNL     1       4.739  -2.253   0.792  1.00  0.00    -0.288 OA
ATOM     20  H2  UNL     1       4.616  -2.595   1.670  1.00  0.00     0.244 HD
ENDBRANCH  15  19
ENDBRANCH  13  14
ENDBRANCH   8  12
ENDBRANCH   1   8
BRANCH   7  21
HETATM   21  O6  UNL     1      -0.135   2.302   0.249  1.00  0.00    -0.274 OA
BRANCH  21  22
HETATM   22  C15 UNL     1       0.217   3.278  -0.649  1.00  0.00     0.260 C 
HETATM   23  C16 UNL     1       1.052   4.459  -0.308  1.00  0.00     0.126 C 
HETATM   24  O7  UNL     1      -0.191   3.170  -1.834  1.00  0.00    -0.265 OA
ENDBRANCH  21  22
ENDBRANCH   7  21
BRANCH   4  25
HETATM   25  C10 UNL     1      -3.248  -2.185  -0.802  1.00  0.00     0.309 C 
HETATM   26  O3  UNL     1      -2.704  -3.310  -0.949  1.00  0.00    -0.258 OA
BRANCH  25  27
HETATM   27  O4  UNL     1      -4.618  -2.094  -0.907  1.00  0.00    -0.321 OA
HETATM   28  C11 UNL     1      -5.415  -3.235  -1.174  1.00  0.00     0.213 C 
ENDBRANCH  25  27
ENDBRANCH   4  25
BRANCH   6  29
HETATM   29  O5  UNL     1      -2.836   2.578   0.059  1.00  0.00    -0.358 OA
ATOM     30  H5  UNL     1      -2.313   3.351   0.239  1.00  0.00     0.217 HD
ENDBRANCH   6  29
TORSDOF 11
