REMARK  13 active torsions:
REMARK  status: ('A' for Active; 'I' for Inactive)
REMARK    1  A    between atoms: C2_2  and  O1_3 
REMARK    2  A    between atoms: O1_3  and  C3_4 
REMARK    3  A    between atoms: C3_4  and  C4_6 
REMARK    4  A    between atoms: C4_6  and  C5_7 
REMARK    5  A    between atoms: C4_6  and  C8_11 
REMARK    6  A    between atoms: C5_7  and  C6_8 
REMARK    7  A    between atoms: C9_12  and  O4_13 
REMARK    8  A    between atoms: C10_15  and  C11_16 
REMARK    9  A    between atoms: C11_16  and  O5_18 
REMARK   10  A    between atoms: C13_20  and  O6_21 
REMARK   11  A    between atoms: C14_23  and  C15_24 
REMARK   12  A    between atoms: C15_24  and  O7_26 
REMARK   13  A    between atoms: C17_28  and  O8_29 
ROOT
HETATM    1  C8  UNL     1      -0.349  -0.054   0.449  1.00  0.00     0.024 A 
HETATM    2  C9  UNL     1      -0.648   1.309   0.396  1.00  0.00     0.091 A 
HETATM    3  C10 UNL     1      -1.864   1.792  -0.042  1.00  0.00     0.060 A 
HETATM    4  C13 UNL     1      -2.868   0.878  -0.465  1.00  0.00     0.096 A 
HETATM    5  C14 UNL     1      -2.578  -0.475  -0.420  1.00  0.00     0.060 A 
HETATM    6  C17 UNL     1      -1.343  -0.929   0.029  1.00  0.00     0.091 A 
ENDROOT
BRANCH   1   7
HETATM    7  C4  UNL     1       0.996  -0.545   0.812  1.00  0.00     0.131 C 
BRANCH   7   8
HETATM    8  C3  UNL     1       1.792  -0.750  -0.452  1.00  0.00     0.268 C 
HETATM    9  O2  UNL     1       1.937  -1.833  -1.027  1.00  0.00    -0.264 OA
BRANCH   8  10
HETATM   10  O1  UNL     1       2.414   0.353  -1.007  1.00  0.00    -0.321 OA
BRANCH  10  11
HETATM   11  C2  UNL     1       3.178   0.209  -2.210  1.00  0.00     0.174 C 
HETATM   12  C1  UNL     1       3.794   1.536  -2.542  1.00  0.00     0.034 C 
ENDBRANCH  10  11
ENDBRANCH   8  10
ENDBRANCH   7   8
BRANCH   7  13
HETATM   13  C5  UNL     1       1.027  -1.790   1.631  1.00  0.00     0.097 C 
BRANCH  13  14
HETATM   14  C6  UNL     1       2.369  -2.254   2.051  1.00  0.00     0.124 C 
HETATM   15  C7  UNL     1       2.883  -1.977   3.408  1.00  0.00     0.091 C 
HETATM   16  O3  UNL     1       3.079  -2.873   1.287  1.00  0.00    -0.298 OA
ENDBRANCH  13  14
ENDBRANCH   7  13
ENDBRANCH   1   7
BRANCH   2  17
HETATM   17  O4  UNL     1       0.322   2.186   0.805  1.00  0.00    -0.359 OA
ATOM     18  H4  UNL     1       0.119   3.113   0.769  1.00  0.00     0.217 HD
ENDBRANCH   2  17
BRANCH   6  19
HETATM   19  O8  UNL     1      -1.147  -2.241   0.028  1.00  0.00    -0.359 OA
ATOM     20  H8  UNL     1      -1.827  -2.839  -0.259  1.00  0.00     0.217 HD
ENDBRANCH   6  19
BRANCH   3  21
HETATM   21  C11 UNL     1      -2.239   3.179  -0.069  1.00  0.00     0.055 C 
HETATM   22  C12 UNL     1      -1.431   4.315   0.353  1.00  0.00     0.077 C 
BRANCH  21  23
HETATM   23  O5  UNL     1      -3.434   3.484  -0.516  1.00  0.00    -0.364 OA
ATOM     24  H5  UNL     1      -3.682   4.401  -0.534  1.00  0.00     0.217 HD
ENDBRANCH  21  23
ENDBRANCH   3  21
BRANCH   5  25
HETATM   25  C15 UNL     1      -3.617  -1.374  -0.877  1.00  0.00     0.055 C 
HETATM   26  C16 UNL     1      -3.639  -2.825  -0.977  1.00  0.00     0.077 C 
BRANCH  25  27
HETATM   27  O7  UNL     1      -4.740  -0.811  -1.276  1.00  0.00    -0.364 OA
ATOM     28  H7  UNL     1      -5.422  -1.401  -1.576  1.00  0.00     0.217 HD
ENDBRANCH  25  27
ENDBRANCH   5  25
BRANCH   4  29
HETATM   29  O6  UNL     1      -4.040   1.330  -0.886  1.00  0.00    -0.359 OA
ATOM     30  H6  UNL     1      -4.711   0.719  -1.169  1.00  0.00     0.217 HD
ENDBRANCH   4  29
TORSDOF 13
