REMARK  12 active torsions:
REMARK  status: ('A' for Active; 'I' for Inactive)
REMARK    1  A    between atoms: O1_2  and  C2_3 
REMARK    2  A    between atoms: C4_5  and  C5_6 
REMARK    3  A    between atoms: C8_9  and  C9_10 
REMARK    4  A    between atoms: C9_10  and  C10_12 
REMARK    5  A    between atoms: C10_12  and  N1_13 
REMARK    6  A    between atoms: C10_12  and  C29_41 
REMARK       I    between atoms: N1_13  and  C11_15 
REMARK    7  A    between atoms: C11_15  and  C12_17 
REMARK    8  A    between atoms: C12_17  and  N2_18 
REMARK    9  A    between atoms: C12_17  and  C25_37 
REMARK       I    between atoms: N2_18  and  C13_20 
REMARK   10  A    between atoms: C13_20  and  C14_22 
REMARK       I    between atoms: N3_26  and  C18_27 
REMARK   11  A    between atoms: C18_27  and  C19_29 
REMARK   12  A    between atoms: C19_29  and  N4_30 
ROOT
HETATM    1  C12 UNL     1       0.426  -1.424   0.990  1.00  0.00     0.184 C 
ENDROOT
BRANCH   1   2
HETATM    2  C11 UNL     1      -0.563  -0.701   0.227  1.00  0.00     0.245 C 
HETATM    3  N1  UNL     1      -1.745  -0.103   0.710  1.00  0.00    -0.325 N 
ATOM      4  H1  UNL     1      -1.931  -0.193   1.709  1.00  0.00     0.169 HD
HETATM    5  O3  UNL     1      -0.376  -0.565  -1.038  1.00  0.00    -0.271 OA
BRANCH   3   6
HETATM    6  C10 UNL     1      -2.718   0.625  -0.071  1.00  0.00     0.066 C 
BRANCH   6   7
HETATM    7  C9  UNL     1      -3.964  -0.084  -0.295  1.00  0.00     0.179 C 
HETATM    8  O2  UNL     1      -3.902  -1.308   0.062  1.00  0.00    -0.291 OA
BRANCH   7   9
HETATM    9  C8  UNL     1      -5.265   0.261  -0.818  1.00  0.00     0.095 C 
HETATM   10  C2  UNL     1      -6.288   0.970  -0.001  1.00  0.00     0.133 C 
HETATM   11  C3  UNL     1      -7.120  -0.337   0.091  1.00  0.00     0.038 C 
HETATM   12  C4  UNL     1      -6.214  -0.889  -0.969  1.00  0.00     0.005 C 
BRANCH  10  13
HETATM   13  O1  UNL     1      -7.086   1.915  -0.581  1.00  0.00    -0.390 OA
HETATM   14  C1  UNL     1      -7.463   2.965   0.204  1.00  0.00     0.202 C 
ENDBRANCH  10  13
BRANCH  12  15
HETATM   15  C5  UNL     1      -6.850  -1.098  -2.308  1.00  0.00    -0.018 C 
HETATM   16  C6  UNL     1      -5.972  -1.634  -3.366  1.00  0.00     0.010 C 
HETATM   17  C7  UNL     1      -8.007  -2.091  -2.113  1.00  0.00     0.010 C 
ENDBRANCH  12  15
ENDBRANCH   7   9
ENDBRANCH   6   7
BRANCH   6  18
HETATM   18  C29 UNL     1      -2.710   2.090   0.180  1.00  0.00    -0.005 C 
HETATM   19  C30 UNL     1      -1.231   2.551   0.373  1.00  0.00     0.021 C 
HETATM   20  C31 UNL     1      -3.151   2.906  -1.019  1.00  0.00     0.021 C 
HETATM   21  C32 UNL     1      -3.377   2.576   1.415  1.00  0.00     0.021 C 
ENDBRANCH   6  18
ENDBRANCH   3   6
ENDBRANCH   1   2
BRANCH   1  22
HETATM   22  N2  UNL     1       1.512  -1.844   0.120  1.00  0.00    -0.345 N 
HETATM   23  C13 UNL     1       2.842  -1.286   0.265  1.00  0.00     0.241 C 
HETATM   24  O4  UNL     1       2.955  -0.447   1.155  1.00  0.00    -0.271 OA
ATOM     25  H2  UNL     1       1.336  -2.542  -0.603  1.00  0.00     0.163 HD
BRANCH  23  26
HETATM   26  C14 UNL     1       3.832  -1.787  -0.638  1.00  0.00     0.179 C 
HETATM   27  C15 UNL     1       3.406  -1.736  -2.111  1.00  0.00     0.037 C 
HETATM   28  C16 UNL     1       4.682  -2.320  -2.745  1.00  0.00     0.022 C 
HETATM   29  C17 UNL     1       5.741  -2.305  -1.664  1.00  0.00     0.127 C 
HETATM   30  N3  UNL     1       5.139  -1.258  -0.747  1.00  0.00    -0.337 N 
HETATM   31  C18 UNL     1       5.942  -0.195  -0.339  1.00  0.00     0.238 C 
HETATM   32  O5  UNL     1       7.161  -0.204  -0.767  1.00  0.00    -0.272 OA
BRANCH  31  33
HETATM   33  C19 UNL     1       5.622   0.958   0.511  1.00  0.00     0.228 C 
BRANCH  33  34
HETATM   34  N4  UNL     1       6.776   1.869   0.647  1.00  0.00    -0.343 N 
HETATM   35  C20 UNL     1       6.921   2.933  -0.302  1.00  0.00     0.126 C 
HETATM   36  C21 UNL     1       8.076   3.850   0.063  1.00  0.00     0.020 C 
HETATM   37  C22 UNL     1       9.327   3.045   0.349  1.00  0.00     0.011 C 
HETATM   38  C23 UNL     1       9.081   2.302   1.643  1.00  0.00     0.103 C 
HETATM   39  C24 UNL     1       7.722   1.711   1.693  1.00  0.00     0.220 C 
HETATM   40  O6  UNL     1       7.397   1.047   2.697  1.00  0.00    -0.273 OA
ENDBRANCH  33  34
ENDBRANCH  31  33
ENDBRANCH  23  26
ENDBRANCH   1  22
BRANCH   1  41
HETATM   41  C25 UNL     1       0.007  -2.627   1.750  1.00  0.00    -0.022 C 
HETATM   42  C26 UNL     1      -1.025  -2.431   2.804  1.00  0.00     0.017 C 
HETATM   43  C27 UNL     1      -0.397  -3.782   0.837  1.00  0.00     0.017 C 
HETATM   44  C28 UNL     1       1.261  -3.129   2.492  1.00  0.00     0.017 C 
ENDBRANCH   1  41
TORSDOF 12
