REMARK  14 active torsions:
REMARK  status: ('A' for Active; 'I' for Inactive)
REMARK    1  A    between atoms: C2_3  and  N2_4 
REMARK    2  A    between atoms: N2_4  and  N3_5 
REMARK    3  A    between atoms: N2_4  and  C3_8 
REMARK    4  A    between atoms: C4_11  and  N5_12 
REMARK    5  A    between atoms: C7_19  and  N7_20 
REMARK    6  A    between atoms: N7_20  and  C8_22 
REMARK    7  A    between atoms: C14_31  and  C15_32 
REMARK    8  A    between atoms: C15_32  and  N9_33 
REMARK    9  A    between atoms: C16_39  and  C17_40 
REMARK   10  A    between atoms: C17_40  and  N11_41 
REMARK   11  A    between atoms: C17_40  and  C18_45 
REMARK   12  A    between atoms: C18_45  and  O1_46 
REMARK   13  A    between atoms: C18_45  and  C19_48 
REMARK   14  A    between atoms: C19_48  and  O2_49 
ROOT
HETATM    1  N1  UNL     1      -1.576   6.838   1.776  1.00  0.00    -0.195 NA
HETATM    2  C1  UNL     1      -1.398   6.215   0.812  1.00  0.00     0.081 C 
HETATM    3  C2  UNL     1      -1.170   5.400  -0.402  1.00  0.00     0.290 C 
ENDROOT
BRANCH   3   4
HETATM    4  N2  UNL     1      -2.133   4.350  -0.492  1.00  0.00    -0.117 N 
BRANCH   4   5
HETATM    5  N3  UNL     1      -3.509   4.702  -0.598  1.00  0.00    -0.328 N 
ATOM      6  H32 UNL     1      -3.744   5.694  -0.610  1.00  0.00     0.177 HD
ATOM      7  H31 UNL     1      -4.197   3.952  -0.662  1.00  0.00     0.177 HD
ENDBRANCH   4   5
BRANCH   4   8
HETATM    8  C3  UNL     1      -1.803   2.959  -0.475  1.00  0.00     0.702 A 
HETATM    9  N4  UNL     1      -2.801   2.087  -0.595  1.00  0.00    -0.173 N 
HETATM   10  C4  UNL     1      -2.583   0.731  -0.587  1.00  0.00     0.146 A 
ATOM     11  H4  UNL     1      -3.754   2.435  -0.696  1.00  0.00     0.186 HD
HETATM   12  C5  UNL     1      -1.307   0.304  -0.451  1.00  0.00     0.130 A 
HETATM   13  C6  UNL     1      -0.246   1.205  -0.323  1.00  0.00     0.154 A 
HETATM   14  N12 UNL     1      -0.984  -1.020  -0.432  1.00  0.00    -0.287 N 
HETATM   15  N6  UNL     1       1.027   0.849  -0.189  1.00  0.00    -0.325 N 
HETATM   16  N13 UNL     1      -0.543   2.539  -0.341  1.00  0.00    -0.172 N 
HETATM   17  C7  UNL     1       1.339  -0.458  -0.172  1.00  0.00     0.133 A 
ATOM     18  H6  UNL     1       1.756   1.557  -0.100  1.00  0.00     0.169 HD
HETATM   19  C13 UNL     1       0.355  -1.409  -0.291  1.00  0.00     0.109 A 
HETATM   20  C14 UNL     1       0.355  -2.772  -0.305  1.00  0.00     0.067 A 
HETATM   21  N10 UNL     1      -0.890  -3.155  -0.444  1.00  0.00    -0.344 N 
HETATM   22  C16 UNL     1      -1.760  -2.063  -0.527  1.00  0.00     0.123 A 
ATOM     23  H10 UNL     1      -1.188  -4.130  -0.486  1.00  0.00     0.167 HD
ATOM     24  H13 UNL     1       0.208   3.223  -0.251  1.00  0.00     0.186 HD
BRANCH  10  25
HETATM   25  N5  UNL     1      -3.624   0.089  -0.712  1.00  0.00    -0.383 N 
ATOM     26  H52 UNL     1      -4.586   0.411  -0.815  1.00  0.00     0.157 HD
ATOM     27  H51 UNL     1      -3.462  -0.918  -0.706  1.00  0.00     0.157 HD
ENDBRANCH  10  25
BRANCH  17  28
HETATM   28  N7  UNL     1       2.725  -0.801  -0.056  1.00  0.00    -0.370 N 
ATOM     29  H7  UNL     1       3.001  -1.783  -0.078  1.00  0.00     0.161 HD
BRANCH  28  30
HETATM   30  C8  UNL     1       3.746   0.224   0.092  1.00  0.00     0.086 C 
HETATM   31  C9  UNL     1       3.771   1.260  -0.979  1.00  0.00     0.052 C 
HETATM   32  C10 UNL     1       5.203   1.840  -0.940  1.00  0.00     0.234 C 
HETATM   33  N8  UNL     1       5.621   1.946   0.449  1.00  0.00    -0.075 N 
HETATM   34  C11 UNL     1       4.509   2.130   1.359  1.00  0.00     0.234 C 
ATOM     35  H82 UNL     1       6.187   1.143   0.722  1.00  0.00     0.277 HD
ATOM     36  H81 UNL     1       6.314   2.685   0.566  1.00  0.00     0.277 HD
HETATM   37  C12 UNL     1       3.667   0.855   1.454  1.00  0.00     0.052 C 
ENDBRANCH  28  30
ENDBRANCH  17  28
BRANCH  20  38
HETATM   38  C15 UNL     1       1.542  -3.673  -0.169  1.00  0.00     0.288 C 
BRANCH  38  39
HETATM   39  N9  UNL     1       1.051  -5.073  -0.252  1.00  0.00    -0.074 N 
ATOM     40  H93 UNL     1       0.316  -5.278   0.425  1.00  0.00     0.274 HD
ATOM     41  H92 UNL     1       0.508  -5.255  -1.096  1.00  0.00     0.274 HD
ATOM     42  H91 UNL     1       1.860  -5.687  -0.159  1.00  0.00     0.274 HD
ENDBRANCH  38  39
ENDBRANCH  20  38
BRANCH  22  43
HETATM   43  C17 UNL     1      -3.115  -2.432  -0.683  1.00  0.00     0.281 C 
BRANCH  43  44
HETATM   44  N11 UNL     1      -3.196  -3.529  -1.788  1.00  0.00    -0.066 N 
ATOM     45 3H11 UNL     1      -2.764  -3.237  -2.665  1.00  0.00     0.275 HD
ATOM     46 2H11 UNL     1      -2.591  -4.327  -1.595  1.00  0.00     0.275 HD
ATOM     47 1H11 UNL     1      -4.174  -3.795  -1.901  1.00  0.00     0.275 HD
ENDBRANCH  43  44
BRANCH  43  48
HETATM   48  C18 UNL     1      -3.441  -3.430   0.516  1.00  0.00     0.179 C 
BRANCH  48  49
HETATM   49  O1  UNL     1      -4.698  -3.926   0.197  1.00  0.00    -0.391 OA
ATOM     50  H1  UNL     1      -4.892  -4.521   0.912  1.00  0.00     0.210 HD
ENDBRANCH  48  49
BRANCH  48  51
HETATM   51  C19 UNL     1      -3.493  -2.704   1.806  1.00  0.00     0.198 C 
BRANCH  51  52
HETATM   52  O2  UNL     1      -2.252  -2.186   2.175  1.00  0.00    -0.398 OA
ATOM     53  H2  UNL     1      -2.285  -1.720   3.002  1.00  0.00     0.209 HD
ENDBRANCH  51  52
ENDBRANCH  48  51
ENDBRANCH  43  48
ENDBRANCH  22  43
ENDBRANCH   4   8
ENDBRANCH   3   4
TORSDOF 14
