REMARK  9 active torsions:
REMARK  status: ('A' for Active; 'I' for Inactive)
REMARK    1  A    between atoms: C2_2  and  C3_3 
REMARK    2  A    between atoms: C3_3  and  C4_4 
REMARK    3  A    between atoms: C4_4  and  C5_5 
REMARK    4  A    between atoms: C7_10  and  C8_11 
REMARK    5  A    between atoms: C8_11  and  C9_12 
REMARK    6  A    between atoms: C13_19  and  C14_20 
REMARK    7  A    between atoms: C20_29  and  C21_30 
REMARK    8  A    between atoms: C21_30  and  C23_32 
REMARK    9  A    between atoms: C26_38  and  C27_39 
ROOT
HETATM    1  C5  UNL     1      -1.873  -1.013  -0.902  1.00  0.00     0.176 C 
HETATM    2  N1  UNL     1      -2.707   0.033  -1.457  1.00  0.00    -0.346 N 
ATOM      3  H1  UNL     1      -3.645  -0.240  -1.751  1.00  0.00     0.163 HD
HETATM    4  C6  UNL     1      -2.362   1.384  -1.634  1.00  0.00     0.241 C 
HETATM    5  O1  UNL     1      -2.438   1.853  -2.826  1.00  0.00    -0.271 OA
HETATM    6  C7  UNL     1      -1.917   2.314  -0.584  1.00  0.00     0.177 C 
HETATM    7  N2  UNL     1      -1.150   3.420  -1.163  1.00  0.00    -0.346 N 
ATOM      8  H2  UNL     1      -1.675   4.274  -1.352  1.00  0.00     0.163 HD
HETATM    9  C12 UNL     1       0.203   3.456  -1.488  1.00  0.00     0.241 C 
HETATM   10  O2  UNL     1       0.477   3.731  -2.713  1.00  0.00    -0.271 OA
HETATM   11  C13 UNL     1       1.374   3.220  -0.613  1.00  0.00     0.173 C 
HETATM   12  N3  UNL     1       1.361   2.057   0.155  1.00  0.00    -0.398 N 
ATOM     13  H3  UNL     1       0.865   2.031   1.046  1.00  0.00     0.154 HD
HETATM   14  C17 UNL     1       2.053   0.900  -0.324  1.00  0.00     0.145 C 
HETATM   15  C18 UNL     1       3.140   1.187  -1.286  1.00  0.00     0.040 C 
HETATM   16  C19 UNL     1       2.422   0.036   0.827  1.00  0.00     0.171 C 
HETATM   17  O3  UNL     1       2.481   0.580   1.945  1.00  0.00    -0.293 OA
HETATM   18  C20 UNL     1       2.724  -1.392   0.805  1.00  0.00     0.160 C 
HETATM   19  N4  UNL     1       3.022  -1.962  -0.480  1.00  0.00    -0.347 N 
ATOM     20  H4  UNL     1       4.008  -2.097  -0.705  1.00  0.00     0.163 HD
HETATM   21  C25 UNL     1       2.088  -2.353  -1.459  1.00  0.00     0.241 C 
HETATM   22  O4  UNL     1       2.436  -2.161  -2.673  1.00  0.00    -0.271 OA
HETATM   23  C26 UNL     1       0.766  -2.955  -1.234  1.00  0.00     0.180 C 
HETATM   24  N5  UNL     1      -0.129  -2.376  -2.222  1.00  0.00    -0.346 N 
ATOM     25  H5  UNL     1       0.235  -2.300  -3.172  1.00  0.00     0.163 HD
HETATM   26  C30 UNL     1      -1.426  -1.914  -2.021  1.00  0.00     0.241 C 
HETATM   27  O5  UNL     1      -2.336  -2.255  -2.822  1.00  0.00    -0.271 OA
ENDROOT
BRANCH   1  28
HETATM   28  C4  UNL     1      -2.642  -1.916   0.041  1.00  0.00     0.035 C 
BRANCH  28  29
HETATM   29  C3  UNL     1      -3.220  -1.160   1.214  1.00  0.00     0.002 C 
BRANCH  29  30
HETATM   30  C2  UNL     1      -3.980  -2.074   2.144  1.00  0.00    -0.004 C 
HETATM   31  C1  UNL     1      -5.132  -2.770   1.474  1.00  0.00     0.005 C 
ENDBRANCH  29  30
ENDBRANCH  28  29
ENDBRANCH   1  28
BRANCH   6  32
HETATM   32  C8  UNL     1      -2.991   2.816   0.306  1.00  0.00     0.038 C 
BRANCH  32  33
HETATM   33  C9  UNL     1      -4.073   3.611  -0.295  1.00  0.00    -0.020 C 
HETATM   34  C10 UNL     1      -5.063   4.063   0.839  1.00  0.00     0.009 C 
HETATM   35  C11 UNL     1      -4.903   3.040  -1.384  1.00  0.00     0.009 C 
ENDBRANCH  32  33
ENDBRANCH   6  32
BRANCH  23  36
HETATM   36  C27 UNL     1       0.881  -4.431  -1.643  1.00  0.00     0.009 C 
HETATM   37  C28 UNL     1      -0.454  -5.078  -1.426  1.00  0.00     0.012 C 
HETATM   38  C29 UNL     1       1.967  -5.096  -0.865  1.00  0.00     0.012 C 
ENDBRANCH  23  36
BRANCH  11  39
HETATM   39  C14 UNL     1       1.593   4.426   0.317  1.00  0.00     0.009 C 
HETATM   40  C15 UNL     1       2.791   4.166   1.197  1.00  0.00     0.012 C 
HETATM   41  C16 UNL     1       0.429   4.696   1.208  1.00  0.00     0.012 C 
ENDBRANCH  11  39
BRANCH  18  42
HETATM   42  C21 UNL     1       3.684  -1.749   1.896  1.00  0.00     0.011 C 
HETATM   43  C22 UNL     1       3.992  -3.247   1.893  1.00  0.00     0.012 C 
BRANCH  42  44
HETATM   44  C23 UNL     1       4.937  -0.960   1.986  1.00  0.00     0.002 C 
HETATM   45  C24 UNL     1       5.848  -0.989   0.814  1.00  0.00     0.005 C 
ENDBRANCH  42  44
ENDBRANCH  18  42
TORSDOF 9
