REMARK  10 active torsions:
REMARK  status: ('A' for Active; 'I' for Inactive)
REMARK    1  A    between atoms: C2_2  and  C3_3 
REMARK    2  A    between atoms: C2_2  and  C33_42 
REMARK    3  A    between atoms: C3_3  and  N1_4 
REMARK       I    between atoms: N1_4  and  C4_6 
REMARK    4  A    between atoms: C4_6  and  C5_8 
REMARK    5  A    between atoms: C8_11  and  C10_13 
REMARK       I    between atoms: C10_13  and  N2_15 
REMARK    6  A    between atoms: N2_15  and  C11_17 
REMARK    7  A    between atoms: C11_17  and  C12_18 
REMARK    8  A    between atoms: C12_18  and  C13_19 
REMARK    9  A    between atoms: C13_19  and  N3_20 
REMARK   10  A    between atoms: C23_30  and  O3_31 
ROOT
HETATM    1  C5  UNL     1      -0.354   0.474  -0.405  1.00  0.00     0.053 C 
HETATM    2  C6  UNL     1       0.642   0.420  -1.519  1.00  0.00     0.022 C 
HETATM    3  C7  UNL     1       1.780  -0.470  -1.109  1.00  0.00     0.020 C 
HETATM    4  C8  UNL     1       1.684  -0.617   0.394  1.00  0.00     0.042 C 
HETATM    5  C9  UNL     1       1.956  -2.067   0.731  1.00  0.00     0.026 C 
HETATM    6  C16 UNL     1       0.326  -0.151   0.794  1.00  0.00     0.021 C 
HETATM    7  C17 UNL     1      -0.441  -1.213   1.487  1.00  0.00     0.007 C 
HETATM    8  C18 UNL     1      -1.901  -0.959   1.608  1.00  0.00     0.006 C 
HETATM    9  C19 UNL     1      -2.523  -0.241   0.461  1.00  0.00    -0.001 C 
HETATM   10  C20 UNL     1      -3.878  -0.779   0.083  1.00  0.00    -0.004 C 
HETATM   11  C21 UNL     1      -4.706  -1.048   1.326  1.00  0.00     0.013 C 
HETATM   12  C22 UNL     1      -5.033  -2.503   1.352  1.00  0.00     0.023 C 
HETATM   13  C23 UNL     1      -6.522  -2.737   1.541  1.00  0.00     0.123 C 
HETATM   14  C24 UNL     1      -6.940  -3.673   0.452  1.00  0.00     0.033 C 
HETATM   15  C25 UNL     1      -5.970  -3.402  -0.650  1.00  0.00     0.012 C 
HETATM   16  C26 UNL     1      -4.646  -3.078   0.034  1.00  0.00    -0.034 C 
HETATM   17  C27 UNL     1      -3.913  -4.387   0.202  1.00  0.00     0.016 C 
HETATM   18  C28 UNL     1      -3.852  -2.034  -0.720  1.00  0.00    -0.001 C 
HETATM   19  C29 UNL     1      -2.495  -2.531  -1.055  1.00  0.00     0.006 C 
HETATM   20  C30 UNL     1      -1.478  -1.514  -1.427  1.00  0.00     0.011 C 
HETATM   21  C31 UNL     1      -1.641  -0.162  -0.763  1.00  0.00    -0.023 C 
HETATM   22  C32 UNL     1      -2.379   0.689  -1.772  1.00  0.00     0.017 C 
ENDROOT
BRANCH   4  23
HETATM   23  C10 UNL     1       2.775   0.168   1.051  1.00  0.00     0.226 C 
HETATM   24  O2  UNL     1       2.465   1.086   1.847  1.00  0.00    -0.273 OA
HETATM   25  N2  UNL     1       4.141  -0.089   0.804  1.00  0.00    -0.360 N 
ATOM     26  H2  UNL     1       4.396  -0.835   0.156  1.00  0.00     0.162 HD
BRANCH  25  27
HETATM   27  C11 UNL     1       5.191   0.677   1.445  1.00  0.00     0.124 C 
BRANCH  27  28
HETATM   28  C12 UNL     1       6.560   0.209   1.025  1.00  0.00     0.050 C 
BRANCH  28  29
HETATM   29  C13 UNL     1       6.800   0.322  -0.455  1.00  0.00     0.273 C 
BRANCH  29  30
HETATM   30  N3  UNL     1       8.161  -0.169  -0.685  1.00  0.00     0.080 N 
HETATM   31  C14 UNL     1       9.136   0.736  -0.109  1.00  0.00     0.309 C 
HETATM   32  C15 UNL     1       8.395  -0.407  -2.095  1.00  0.00     0.309 C 
ENDBRANCH  29  30
ENDBRANCH  28  29
ENDBRANCH  27  28
ENDBRANCH  25  27
ENDBRANCH   4  23
BRANCH   1  33
HETATM   33  C4  UNL     1      -0.590   1.932  -0.067  1.00  0.00     0.231 C 
HETATM   34  N1  UNL     1      -0.656   2.942  -1.012  1.00  0.00    -0.339 N 
ATOM     35  H1  UNL     1      -0.546   2.639  -1.980  1.00  0.00     0.167 HD
HETATM   36  O1  UNL     1      -0.726   2.177   1.151  1.00  0.00    -0.272 OA
BRANCH  34  37
HETATM   37  C3  UNL     1      -0.852   4.320  -0.836  1.00  0.00     0.077 C 
BRANCH  37  38
HETATM   38  C2  UNL     1       0.144   5.179  -0.176  1.00  0.00     0.109 C 
HETATM   39  C1  UNL     1       0.523   4.922   1.237  1.00  0.00     0.025 C 
BRANCH  38  40
HETATM   40  C33 UNL     1      -0.241   6.635  -0.293  1.00  0.00     0.239 C 
HETATM   41  N4  UNL     1      -0.651   7.138  -1.564  1.00  0.00    -0.062 NA
HETATM   42  O4  UNL     1      -0.182   7.340   0.735  1.00  0.00    -0.276 OA
ENDBRANCH  38  40
ENDBRANCH  37  38
ENDBRANCH  34  37
ENDBRANCH   1  33
BRANCH  13  43
HETATM   43  O3  UNL     1      -6.813  -3.316   2.773  1.00  0.00    -0.395 OA
ATOM     44  H3  UNL     1      -7.744  -3.462   2.891  1.00  0.00     0.210 HD
ENDBRANCH  13  43
TORSDOF 10
