REMARK  3 active torsions:
REMARK  status: ('A' for Active; 'I' for Inactive)
REMARK    1  A    between atoms: N3_10  and  C7_12 
REMARK    2  A    between atoms: C7_12  and  C8_13 
REMARK    3  A    between atoms: C10_19  and  C11_20 
ROOT
HETATM    1  N1  UNL     1       4.005  -3.693  -0.362  1.00  0.00    -0.191 NA
HETATM    2  C1  UNL     1       3.871  -2.570  -0.100  1.00  0.00     0.103 C 
HETATM    3  C2  UNL     1       3.687  -1.177   0.243  1.00  0.00     0.088 A 
HETATM    4  C3  UNL     1       4.799  -0.373   0.413  1.00  0.00     0.028 A 
HETATM    5  C4  UNL     1       4.602   0.943   0.738  1.00  0.00     0.019 A 
HETATM    6  C5  UNL     1       3.329   1.402   0.878  1.00  0.00     0.090 A 
HETATM    7  N2  UNL     1       2.264   0.596   0.706  1.00  0.00    -0.351 N 
ATOM      8  H2  UNL     1       1.326   0.979   0.821  1.00  0.00     0.166 HD
HETATM    9  C6  UNL     1       2.408  -0.693   0.389  1.00  0.00     0.122 A 
HETATM   10  N3  UNL     1       1.422  -1.502   0.214  1.00  0.00    -0.369 N 
ATOM     11  H3  UNL     1       1.621  -2.473  -0.027  1.00  0.00     0.161 HD
ENDROOT
BRANCH  10  12
HETATM   12  C7  UNL     1       0.035  -1.083   0.347  1.00  0.00     0.180 C 
BRANCH  12  13
HETATM   13  C8  UNL     1      -0.393  -0.292  -0.847  1.00  0.00     0.056 A 
HETATM   14  N4  UNL     1       0.401  -0.009  -1.898  1.00  0.00    -0.303 N 
HETATM   15  N5  UNL     1      -0.230   0.698  -2.814  1.00  0.00    -0.311 N 
ATOM     16  H4  UNL     1       1.374  -0.306  -1.975  1.00  0.00     0.186 HD
HETATM   17  C9  UNL     1      -1.473   0.880  -2.345  1.00  0.00     0.121 A 
ATOM     18  H5  UNL     1       0.149   1.037  -3.698  1.00  0.00     0.186 HD
HETATM   19  C10 UNL     1      -1.617   0.269  -1.102  1.00  0.00     0.018 A 
BRANCH  19  20
HETATM   20  C11 UNL     1      -2.805   0.241  -0.263  1.00  0.00    -0.007 A 
HETATM   21  C12 UNL     1      -2.828   0.552   1.075  1.00  0.00     0.015 A 
HETATM   22  C13 UNL     1      -4.017   0.489   1.805  1.00  0.00     0.018 A 
HETATM   23  C14 UNL     1      -5.206   0.115   1.215  1.00  0.00     0.087 A 
HETATM   24  N6  UNL     1      -5.163  -0.186  -0.096  1.00  0.00    -0.374 N 
HETATM   25  C15 UNL     1      -4.032  -0.134  -0.822  1.00  0.00     0.100 A 
ATOM     26  H6  UNL     1      -6.027  -0.466  -0.560  1.00  0.00     0.164 HD
ENDBRANCH  19  20
ENDBRANCH  12  13
ENDBRANCH  10  12
TORSDOF 3
