REMARK  10 active torsions:
REMARK  status: ('A' for Active; 'I' for Inactive)
REMARK    1  A    between atoms: C2_2  and  O1_4 
REMARK    2  A    between atoms: C2_2  and  C4_6 
REMARK    3  A    between atoms: C4_6  and  C8_22 
REMARK    4  A    between atoms: N1_7  and  O2_9 
REMARK    5  A    between atoms: O2_9  and  C5_10 
REMARK    6  A    between atoms: C5_10  and  C6_12 
REMARK    7  A    between atoms: C7_18  and  N4_19 
REMARK       I    between atoms: C8_22  and  N5_24 
REMARK    8  A    between atoms: N5_24  and  N6_26 
REMARK       I    between atoms: N6_26  and  C9_28 
REMARK    9  A    between atoms: C9_28  and  C10_30 
REMARK   10  A    between atoms: C12_33  and  N7_34 
ROOT
HETATM    1  C4  UNL     1      -1.126  -1.997  -0.356  1.00  0.00     0.135 C 
HETATM    2  N1  UNL     1      -2.241  -1.461  -0.452  1.00  0.00    -0.253 N 
ATOM      3  H1  UNL     1      -3.043  -2.091  -0.432  1.00  0.00     0.195 HD
ENDROOT
BRANCH   1   4
HETATM    4  C2  UNL     1      -1.106  -3.501  -0.223  1.00  0.00     0.100 C 
HETATM    5  C1  UNL     1      -2.492  -4.062  -0.233  1.00  0.00     0.052 C 
HETATM    6  C3  UNL     1      -0.437  -3.884   1.083  1.00  0.00     0.052 C 
BRANCH   4   7
HETATM    7  O1  UNL     1      -0.329  -4.002  -1.264  1.00  0.00    -0.384 OA
ATOM      8  H1  UNL     1       0.552  -3.646  -1.258  1.00  0.00     0.211 HD
ENDBRANCH   4   7
ENDBRANCH   1   4
BRANCH   1   9
HETATM    9  C8  UNL     1       0.138  -1.313  -0.364  1.00  0.00     0.287 C 
HETATM   10  O5  UNL     1       1.192  -2.045  -0.253  1.00  0.00    -0.264 OA
HETATM   11  N5  UNL     1       0.392   0.053  -0.477  1.00  0.00    -0.262 N 
ATOM     12  H5  UNL     1      -0.389   0.702  -0.569  1.00  0.00     0.190 HD
BRANCH  11  13
HETATM   13  N6  UNL     1       1.690   0.544  -0.466  1.00  0.00    -0.263 N 
HETATM   14  C9  UNL     1       2.149   1.371   0.562  1.00  0.00     0.270 C 
HETATM   15  O6  UNL     1       1.365   1.668   1.485  1.00  0.00    -0.266 OA
ATOM     16  H6  UNL     1       2.323   0.295  -1.226  1.00  0.00     0.190 HD
BRANCH  14  17
HETATM   17  C10 UNL     1       3.537   1.911   0.598  1.00  0.00     0.043 A 
HETATM   18  C11 UNL     1       3.925   2.801   1.565  1.00  0.00     0.069 A 
HETATM   19  S1  UNL     1       5.561   3.097   1.177  1.00  0.00    -0.077 SA
HETATM   20  C12 UNL     1       5.712   2.096  -0.189  1.00  0.00     0.144 A 
HETATM   21  C13 UNL     1       4.466   1.549  -0.307  1.00  0.00     0.061 A 
BRANCH  20  22
HETATM   22  N7  UNL     1       6.855   1.878  -1.008  1.00  0.00    -0.108 N 
HETATM   23  O7  UNL     1       7.934   2.447  -0.779  1.00  0.00    -0.531 OA
HETATM   24  O8  UNL     1       6.793   1.028  -2.078  1.00  0.00    -0.531 OA
ENDBRANCH  20  22
ENDBRANCH  14  17
ENDBRANCH  11  13
ENDBRANCH   1   9
BRANCH   2  25
HETATM   25  O2  UNL     1      -2.519  -0.169  -0.577  1.00  0.00    -0.193 OA
BRANCH  25  26
HETATM   26  C5  UNL     1      -3.387   0.560   0.230  1.00  0.00     0.337 C 
HETATM   27  O3  UNL     1      -3.949  -0.068   1.151  1.00  0.00    -0.255 OA
BRANCH  26  28
HETATM   28  C6  UNL     1      -3.570   1.969  -0.058  1.00  0.00     0.178 A 
HETATM   29  N2  UNL     1      -2.973   2.666  -1.046  1.00  0.00    -0.232 N 
HETATM   30  O4  UNL     1      -3.361   3.883  -1.011  1.00  0.00    -0.155 OA
ATOM     31  H2  UNL     1      -2.311   2.280  -1.720  1.00  0.00     0.197 HD
HETATM   32  N3  UNL     1      -4.202   4.079  -0.047  1.00  0.00    -0.224 N 
HETATM   33  C7  UNL     1      -4.364   2.898   0.583  1.00  0.00     0.156 A 
ATOM     34  H3  UNL     1      -4.656   4.961   0.191  1.00  0.00     0.198 HD
BRANCH  33  35
HETATM   35  N4  UNL     1      -5.120   2.708   1.584  1.00  0.00    -0.382 N 
ATOM     36  H42 UNL     1      -5.243   1.815   2.061  1.00  0.00     0.157 HD
ATOM     37  H41 UNL     1      -5.707   3.395   2.058  1.00  0.00     0.157 HD
ENDBRANCH  33  35
ENDBRANCH  26  28
ENDBRANCH  25  26
ENDBRANCH   2  25
TORSDOF 10
