REMARK  17 active torsions:
REMARK  status: ('A' for Active; 'I' for Inactive)
REMARK    1  A    between atoms: N1_2  and  C2_4 
REMARK    2  A    between atoms: C2_4  and  C3_5 
REMARK    3  A    between atoms: C2_4  and  C30_47 
REMARK       I    between atoms: C3_5  and  N2_7 
REMARK    4  A    between atoms: N2_7  and  C4_9 
REMARK    5  A    between atoms: C4_9  and  C5_10 
REMARK    6  A    between atoms: C4_9  and  C26_43 
REMARK       I    between atoms: C5_10  and  N3_12 
REMARK    7  A    between atoms: N3_12  and  C6_14 
REMARK    8  A    between atoms: C6_14  and  C7_15 
REMARK    9  A    between atoms: C6_14  and  C10_18 
REMARK   10  A    between atoms: C10_18  and  C11_19 
REMARK   11  A    between atoms: C10_18  and  C21_38 
REMARK   12  A    between atoms: C11_19  and  O3_20 
REMARK   13  A    between atoms: N4_22  and  C13_24 
REMARK   14  A    between atoms: N5_27  and  S1_28 
REMARK   15  A    between atoms: S1_28  and  N6_31 
REMARK   16  A    between atoms: N6_31  and  C16_33 
REMARK   17  A    between atoms: C21_38  and  C23_40 
ROOT
HETATM    1  C6  UNL     1      -0.679   1.623   0.713  1.00  0.00     0.051 C 
ENDROOT
BRANCH   1   2
HETATM    2  N3  UNL     1      -1.715   1.498  -0.245  1.00  0.00    -0.324 N 
HETATM    3  C5  UNL     1      -1.919   1.128  -1.571  1.00  0.00     0.245 C 
HETATM    4  O2  UNL     1      -1.050   0.751  -2.383  1.00  0.00    -0.271 OA
ATOM      5  H3  UNL     1      -2.604   1.768   0.175  1.00  0.00     0.169 HD
BRANCH   3   6
HETATM    6  C4  UNL     1      -3.321   1.152  -2.148  1.00  0.00     0.184 C 
BRANCH   6   7
HETATM    7  N2  UNL     1      -4.113   0.191  -1.356  1.00  0.00    -0.342 N 
HETATM    8  C3  UNL     1      -5.462   0.225  -1.026  1.00  0.00     0.265 C 
HETATM    9  O1  UNL     1      -6.179   1.191  -1.473  1.00  0.00    -0.266 OA
ATOM     10  H2  UNL     1      -3.596  -0.613  -1.000  1.00  0.00     0.163 HD
BRANCH   8  11
HETATM   11  C2  UNL     1      -6.129  -0.795  -0.187  1.00  0.00     0.081 C 
BRANCH  11  12
HETATM   12  N1  UNL     1      -6.451  -2.024  -0.727  1.00  0.00    -0.393 N 
HETATM   13  C1  UNL     1      -7.355  -2.241  -1.763  1.00  0.00     0.146 C 
ATOM     14  H1  UNL     1      -5.987  -2.843  -0.333  1.00  0.00     0.159 HD
ENDBRANCH  11  12
BRANCH  11  15
HETATM   15  C30 UNL     1      -5.786  -0.715   1.278  1.00  0.00    -0.004 C 
HETATM   16  C31 UNL     1      -4.609  -1.527   1.709  1.00  0.00     0.021 C 
HETATM   17  C32 UNL     1      -5.654   0.757   1.688  1.00  0.00     0.021 C 
HETATM   18  C33 UNL     1      -6.980  -1.222   2.122  1.00  0.00     0.021 C 
ENDBRANCH  11  15
ENDBRANCH   8  11
ENDBRANCH   6   7
BRANCH   6  19
HETATM   19  C26 UNL     1      -3.358   0.542  -3.543  1.00  0.00    -0.022 C 
HETATM   20  C27 UNL     1      -2.805  -0.880  -3.561  1.00  0.00     0.017 C 
HETATM   21  C28 UNL     1      -2.640   1.352  -4.588  1.00  0.00     0.017 C 
HETATM   22  C29 UNL     1      -4.782   0.399  -4.036  1.00  0.00     0.017 C 
ENDBRANCH   6  19
ENDBRANCH   3   6
ENDBRANCH   1   2
BRANCH   1  23
HETATM   23  C7  UNL     1      -1.060   2.645   1.698  1.00  0.00    -0.060 C 
HETATM   24  C8  UNL     1      -2.245   2.444   2.571  1.00  0.00     0.045 C 
HETATM   25  C9  UNL     1      -0.073   3.570   2.289  1.00  0.00     0.045 C 
ENDBRANCH   1  23
BRANCH   1  26
HETATM   26  C10 UNL     1       0.241   0.506   0.918  1.00  0.00     0.044 C 
BRANCH  26  27
HETATM   27  C11 UNL     1       1.265   0.295  -0.117  1.00  0.00     0.151 C 
HETATM   28  N4  UNL     1       1.697  -0.668  -0.913  1.00  0.00    -0.361 N 
HETATM   29  C12 UNL     1       1.013  -1.906  -1.244  1.00  0.00     0.152 C 
BRANCH  27  30
HETATM   30  O3  UNL     1       1.924   1.443  -0.218  1.00  0.00    -0.345 OA
ATOM     31  H3  UNL     1       2.585   1.307  -0.886  1.00  0.00     0.219 HD
ENDBRANCH  27  30
BRANCH  28  32
HETATM   32  C13 UNL     1       3.131  -0.726  -1.369  1.00  0.00     0.088 C 
HETATM   33  C14 UNL     1       3.877   0.504  -1.382  1.00  0.00     0.041 C 
HETATM   34  C15 UNL     1       5.374   0.177  -1.693  1.00  0.00     0.111 C 
HETATM   35  N5  UNL     1       5.914  -0.490  -0.569  1.00  0.00    -0.193 NA
HETATM   36  C19 UNL     1       4.948  -1.132   0.302  1.00  0.00     0.111 C 
HETATM   37  C20 UNL     1       3.758  -1.721  -0.296  1.00  0.00     0.041 C 
BRANCH  35  38
HETATM   38  S1  UNL     1       6.899   0.451   0.470  1.00  0.00     0.299 S 
HETATM   39  O4  UNL     1       7.327  -0.368   1.690  1.00  0.00    -0.188 OA
HETATM   40  O5  UNL     1       6.023   1.593   0.992  1.00  0.00    -0.188 OA
BRANCH  38  41
HETATM   41  N6  UNL     1       8.261   1.050  -0.348  1.00  0.00    -0.303 N 
ATOM     42  H6  UNL     1       8.408   2.044  -0.524  1.00  0.00     0.173 HD
BRANCH  41  43
HETATM   43  C16 UNL     1       9.194   0.034  -0.773  1.00  0.00     0.086 C 
HETATM   44  C17 UNL     1      10.497   0.070   0.022  1.00  0.00     0.032 C 
HETATM   45  C18 UNL     1       9.521   0.157  -2.223  1.00  0.00     0.032 C 
ENDBRANCH  41  43
ENDBRANCH  38  41
ENDBRANCH  35  38
ENDBRANCH  28  32
ENDBRANCH  26  27
BRANCH  26  46
HETATM   46  C21 UNL     1       0.805   0.027   2.193  1.00  0.00    -0.064 C 
HETATM   47  C22 UNL     1       1.698   0.872   3.007  1.00  0.00     0.045 C 
BRANCH  46  48
HETATM   48  C23 UNL     1      -0.152  -0.789   3.075  1.00  0.00     0.007 C 
HETATM   49  C24 UNL     1       0.673  -1.136   4.325  1.00  0.00     0.014 C 
HETATM   50  C25 UNL     1      -0.455  -2.110   2.427  1.00  0.00     0.014 C 
ENDBRANCH  46  48
ENDBRANCH  26  46
ENDBRANCH   1  26
TORSDOF 17
