REMARK  7 active torsions:
REMARK  status: ('A' for Active; 'I' for Inactive)
REMARK    1  A    between atoms: C2_2  and  C3_3 
REMARK       I    between atoms: C3_3  and  N1_5 
REMARK    2  A    between atoms: N2_8  and  C6_9 
REMARK    3  A    between atoms: N3_19  and  C13_20 
REMARK    4  A    between atoms: C13_20  and  C14_21 
REMARK    5  A    between atoms: C14_21  and  O2_22 
REMARK    6  A    between atoms: C17_27  and  C18_28 
REMARK    7  A    between atoms: C18_28  and  O3_29 
ROOT
HETATM    1  C6  UNL     1      -0.786   0.466  -0.554  1.00  0.00     0.095 A 
HETATM    2  C7  UNL     1      -1.793   1.094  -1.294  1.00  0.00     0.185 A 
HETATM    3  F1  UNL     1      -1.550   2.106  -2.147  1.00  0.00    -0.200 F 
HETATM    4  C8  UNL     1      -3.077   0.645  -1.130  1.00  0.00     0.184 A 
HETATM    5  F2  UNL     1      -4.051   1.253  -1.841  1.00  0.00    -0.200 F 
HETATM    6  C9  UNL     1      -3.408  -0.404  -0.262  1.00  0.00     0.090 A 
HETATM    7  C10 UNL     1      -2.369  -1.003   0.458  1.00  0.00     0.037 A 
HETATM    8  C11 UNL     1      -2.895  -2.000   1.248  1.00  0.00     0.041 A 
HETATM    9 BR1  UNL     1      -1.913  -3.121   2.422  1.00  0.00    -0.049 Br
HETATM   10  C12 UNL     1      -4.237  -1.993   0.998  1.00  0.00     0.111 A 
HETATM   11  N3  UNL     1      -4.544  -1.028   0.085  1.00  0.00    -0.350 N 
HETATM   12  C15 UNL     1      -1.073  -0.561   0.304  1.00  0.00     0.077 A 
HETATM   13 CL1  UNL     1       0.194  -1.334   1.219  1.00  0.00    -0.081 Cl
ENDROOT
BRANCH   1  14
HETATM   14  N2  UNL     1       0.544   0.914  -0.709  1.00  0.00    -0.373 N 
HETATM   15  C5  UNL     1       1.006   1.952   0.149  1.00  0.00     0.143 C 
HETATM   16  C4  UNL     1       2.502   2.030   0.313  1.00  0.00     0.146 C 
HETATM   17  N1  UNL     1       3.112   0.730  -0.008  1.00  0.00    -0.342 N 
HETATM   18  C3  UNL     1       4.036   0.175   0.913  1.00  0.00     0.220 C 
HETATM   19  C17 UNL     1       2.746   0.081  -1.225  1.00  0.00     0.128 C 
HETATM   20  O1  UNL     1       4.330   0.804   1.990  1.00  0.00    -0.273 OA
HETATM   21  C16 UNL     1       1.368   0.339  -1.714  1.00  0.00     0.150 C 
BRANCH  18  22
HETATM   22  C2  UNL     1       4.706  -1.120   0.716  1.00  0.00     0.098 C 
HETATM   23  C1  UNL     1       5.635  -1.455   1.885  1.00  0.00     0.014 C 
ENDBRANCH  18  22
BRANCH  19  24
HETATM   24  C18 UNL     1       3.701   0.383  -2.361  1.00  0.00     0.191 C 
BRANCH  24  25
HETATM   25  O3  UNL     1       3.754   1.748  -2.638  1.00  0.00    -0.399 OA
ATOM     26  H3  UNL     1       4.353   1.937  -3.351  1.00  0.00     0.209 HD
ENDBRANCH  24  25
ENDBRANCH  19  24
ENDBRANCH   1  14
BRANCH  11  27
HETATM   27  C13 UNL     1      -5.853  -0.729  -0.428  1.00  0.00     0.154 C 
BRANCH  27  28
HETATM   28  C14 UNL     1      -6.558   0.328   0.383  1.00  0.00     0.184 C 
BRANCH  28  29
HETATM   29  O2  UNL     1      -6.705  -0.114   1.717  1.00  0.00    -0.399 OA
ATOM     30  H2  UNL     1      -7.149   0.552   2.228  1.00  0.00     0.209 HD
ENDBRANCH  28  29
ENDBRANCH  27  28
ENDBRANCH  11  27
TORSDOF 7
