REMARK  7 active torsions:
REMARK  status: ('A' for Active; 'I' for Inactive)
REMARK    1  A    between atoms: C2_3  and  C3_4 
REMARK    2  A    between atoms: C3_4  and  N2_5 
REMARK    3  A    between atoms: C3_4  and  N3_9 
REMARK    4  A    between atoms: N4_14  and  C5_15 
REMARK    5  A    between atoms: C6_18  and  N6_19 
REMARK    6  A    between atoms: C8_26  and  C9_27 
REMARK    7  A    between atoms: N9_28  and  N10_30 
ROOT
HETATM    1  C5  UNL     1      -0.071  -1.236  -1.461  1.00  0.00     0.146 A 
HETATM    2  N5  UNL     1      -0.578  -2.304  -2.170  1.00  0.00    -0.175 N 
ATOM      3  H5  UNL     1      -1.587  -2.454  -2.183  1.00  0.00     0.186 HD
HETATM    4  C6  UNL     1       0.208  -3.146  -2.838  1.00  0.00     0.678 A 
HETATM    5  N7  UNL     1       1.550  -2.996  -2.856  1.00  0.00    -0.178 N 
ATOM      6  H7  UNL     1       2.140  -3.649  -3.372  1.00  0.00     0.185 HD
HETATM    7  C7  UNL     1       2.086  -1.981  -2.188  1.00  0.00     0.147 A 
HETATM    8  N8  UNL     1       3.477  -1.793  -2.183  1.00  0.00    -0.081 NA
HETATM    9  C8  UNL     1       1.280  -1.075  -1.473  1.00  0.00     0.068 A 
ENDROOT
BRANCH   1  10
HETATM   10  N4  UNL     1      -0.982  -0.391  -0.779  1.00  0.00    -0.257 N 
HETATM   11  C4  UNL     1      -1.430  -0.593   0.482  1.00  0.00     0.132 A 
HETATM   12  C2  UNL     1      -2.334   0.390   0.835  1.00  0.00     0.089 A 
HETATM   13  N1  UNL     1      -2.441   1.202  -0.221  1.00  0.00    -0.302 N 
HETATM   14  C1  UNL     1      -3.283   2.404  -0.361  1.00  0.00     0.161 C 
HETATM   15  C11 UNL     1      -1.629   0.721  -1.169  1.00  0.00     0.334 A 
HETATM   16  O1  UNL     1      -1.490   1.254  -2.301  1.00  0.00    -0.246 OA
BRANCH  12  17
HETATM   17  C3  UNL     1      -3.051   0.544   2.119  1.00  0.00     0.429 C 
BRANCH  17  18
HETATM   18  N2  UNL     1      -2.940   1.897   2.598  1.00  0.00    -0.045 N 
ATOM     19  H23 UNL     1      -1.967   2.196   2.668  1.00  0.00     0.277 HD
ATOM     20  H22 UNL     1      -3.257   2.573   1.903  1.00  0.00     0.277 HD
ATOM     21  H21 UNL     1      -3.435   2.003   3.484  1.00  0.00     0.277 HD
ENDBRANCH  17  18
BRANCH  17  22
HETATM   22  N3  UNL     1      -2.462  -0.318   3.134  1.00  0.00    -0.045 N 
ATOM     23  H33 UNL     1      -2.427  -1.292   2.832  1.00  0.00     0.277 HD
ATOM     24  H32 UNL     1      -1.460  -0.156   3.236  1.00  0.00     0.277 HD
ATOM     25  H31 UNL     1      -2.957  -0.212   4.020  1.00  0.00     0.277 HD
ENDBRANCH  17  22
ENDBRANCH  12  17
ENDBRANCH   1  10
BRANCH   9  26
HETATM   26  C9  UNL     1       1.910   0.016  -0.758  1.00  0.00     0.126 C 
HETATM   27  N9  UNL     1       1.282   0.895  -0.079  1.00  0.00    -0.309 N 
ATOM     28  H9  UNL     1       0.265   0.850  -0.018  1.00  0.00     0.186 HD
BRANCH  27  29
HETATM   29  N10 UNL     1       1.957   1.907   0.575  1.00  0.00    -0.276 N 
HETATM   30  C10 UNL     1       2.810   1.629   1.488  1.00  0.00     0.215 C 
HETATM   31  N11 UNL     1       3.059   0.273   1.826  1.00  0.00    -0.065 NA
HETATM   32  N12 UNL     1       3.534   2.620   2.194  1.00  0.00    -0.065 NA
ATOM     33  H10 UNL     1       1.775   2.880   0.329  1.00  0.00     0.189 HD
ENDBRANCH  27  29
ENDBRANCH   9  26
BRANCH   4  34
HETATM   34  N6  UNL     1      -0.321  -4.131  -3.486  1.00  0.00    -0.234 N 
ATOM     35  H62 UNL     1      -1.335  -4.244  -3.472  1.00  0.00     0.174 HD
ATOM     36  H61 UNL     1       0.281  -4.776  -3.998  1.00  0.00     0.174 HD
ENDBRANCH   4  34
TORSDOF 7
