REMARK  14 active torsions:
REMARK  status: ('A' for Active; 'I' for Inactive)
REMARK    1  A    between atoms: C2_2  and  C3_3 
REMARK    2  A    between atoms: C3_3  and  C4_4 
REMARK    3  A    between atoms: C4_4  and  C5_5 
REMARK    4  A    between atoms: C5_5  and  N1_6 
REMARK    5  A    between atoms: C5_5  and  C11_15 
REMARK       I    between atoms: N1_6  and  C6_8 
REMARK    6  A    between atoms: C6_8  and  O2_10 
REMARK    7  A    between atoms: O2_10  and  C7_11 
REMARK    8  A    between atoms: C11_15  and  C12_17 
REMARK    9  A    between atoms: C12_17  and  N2_18 
REMARK       I    between atoms: N2_18  and  C13_19 
REMARK   10  A    between atoms: N2_18  and  C25_40 
REMARK   11  A    between atoms: C13_19  and  C14_21 
REMARK   12  A    between atoms: C14_21  and  N3_23 
REMARK   13  A    between atoms: C19_29  and  N4_30 
REMARK   14  A    between atoms: N5_33  and  C20_34 
ROOT
HETATM    1  N2  UNL     1      -0.572   0.753   1.342  1.00  0.00    -0.335 N 
HETATM    2  C13 UNL     1      -1.616   0.612   0.350  1.00  0.00     0.243 C 
HETATM    3  O4  UNL     1      -2.578  -0.124   0.675  1.00  0.00    -0.271 OA
ENDROOT
BRANCH   1   4
HETATM    4  C12 UNL     1       0.642   1.475   1.139  1.00  0.00     0.207 C 
BRANCH   4   5
HETATM    5  C11 UNL     1       1.776   0.644   0.670  1.00  0.00     0.167 C 
HETATM    6  O3  UNL     1       1.661  -0.574   0.468  1.00  0.00    -0.294 OA
BRANCH   5   7
HETATM    7  C5  UNL     1       3.124   1.187   0.415  1.00  0.00     0.158 C 
BRANCH   7   8
HETATM    8  C4  UNL     1       2.995   2.090  -0.813  1.00  0.00     0.033 C 
BRANCH   8   9
HETATM    9  C3  UNL     1       2.610   1.267  -2.027  1.00  0.00     0.002 C 
BRANCH   9  10
HETATM   10  C2  UNL     1       2.479   2.127  -3.260  1.00  0.00    -0.004 C 
HETATM   11  C1  UNL     1       2.103   1.231  -4.422  1.00  0.00     0.005 C 
ENDBRANCH   9  10
ENDBRANCH   8   9
ENDBRANCH   7   8
BRANCH   7  12
HETATM   12  N1  UNL     1       4.128   0.176   0.188  1.00  0.00    -0.325 N 
HETATM   13  C6  UNL     1       5.301   0.183   0.986  1.00  0.00     0.361 C 
HETATM   14  O1  UNL     1       5.418   1.086   1.861  1.00  0.00    -0.238 OA
ATOM     15  H1  UNL     1       3.997  -0.532  -0.534  1.00  0.00     0.165 HD
BRANCH  13  16
HETATM   16  O2  UNL     1       6.333  -0.729   0.881  1.00  0.00    -0.294 OA
BRANCH  16  17
HETATM   17  C7  UNL     1       7.505  -0.719   1.676  1.00  0.00     0.061 C 
HETATM   18  C8  UNL     1       8.352  -1.895   1.249  1.00  0.00     0.046 C 
HETATM   19  C9  UNL     1       8.313   0.543   1.445  1.00  0.00     0.046 C 
HETATM   20  C10 UNL     1       7.236  -0.835   3.149  1.00  0.00     0.046 C 
ENDBRANCH  16  17
ENDBRANCH  13  16
ENDBRANCH   7  12
ENDBRANCH   5   7
ENDBRANCH   4   5
ENDBRANCH   1   4
BRANCH   1  21
HETATM   21  C25 UNL     1      -0.835   0.080   2.627  1.00  0.00     0.025 C 
HETATM   22  C26 UNL     1      -0.972  -1.404   2.427  1.00  0.00     0.037 C 
HETATM   23  C27 UNL     1      -2.103   0.689   3.253  1.00  0.00     0.037 C 
HETATM   24  C28 UNL     1       0.282   0.342   3.605  1.00  0.00     0.037 C 
ENDBRANCH   1  21
BRANCH   2  25
HETATM   25  C14 UNL     1      -1.564   1.290  -0.961  1.00  0.00     0.170 C 
HETATM   26  C15 UNL     1      -1.975   2.736  -0.688  1.00  0.00     0.042 C 
BRANCH  25  27
HETATM   27  N3  UNL     1      -2.143   0.658  -1.998  1.00  0.00    -0.369 N 
HETATM   28  C16 UNL     1      -3.405   0.281  -2.343  1.00  0.00     0.148 C 
HETATM   29  C17 UNL     1      -4.446   1.336  -2.508  1.00  0.00     0.207 C 
HETATM   30  C24 UNL     1      -4.000  -0.985  -1.868  1.00  0.00     0.280 C 
HETATM   31  O5  UNL     1      -4.223   2.284  -3.275  1.00  0.00    -0.286 OA
HETATM   32  C18 UNL     1      -5.658   1.199  -1.773  1.00  0.00     0.112 C 
HETATM   33  C19 UNL     1      -6.078   0.023  -1.206  1.00  0.00     0.183 C 
HETATM   34  N5  UNL     1      -5.272  -1.128  -1.233  1.00  0.00    -0.284 N 
HETATM   35  O8  UNL     1      -3.310  -2.016  -2.046  1.00  0.00    -0.265 OA
ATOM     36  H3  UNL     1      -1.461   0.393  -2.709  1.00  0.00     0.160 HD
BRANCH  33  37
HETATM   37  N4  UNL     1      -7.317   0.195  -0.551  1.00  0.00    -0.098 N 
HETATM   38  O6  UNL     1      -8.377  -0.017  -1.127  1.00  0.00    -0.531 OA
HETATM   39  O7  UNL     1      -7.326   0.653   0.738  1.00  0.00    -0.531 OA
ENDBRANCH  33  37
BRANCH  34  40
HETATM   40  C20 UNL     1      -5.626  -2.383  -0.746  1.00  0.00     0.031 C 
HETATM   41  C21 UNL     1      -4.715  -2.988   0.313  1.00  0.00     0.038 C 
HETATM   42  C22 UNL     1      -5.491  -3.361  -1.959  1.00  0.00     0.038 C 
HETATM   43  C23 UNL     1      -7.018  -2.609  -0.196  1.00  0.00     0.038 C 
ENDBRANCH  34  40
ENDBRANCH  25  27
ENDBRANCH   2  25
TORSDOF 14
