REMARK  4 active torsions:
REMARK  status: ('A' for Active; 'I' for Inactive)
REMARK    1  A    between atoms: C2_2  and  C4_4 
REMARK    2  A    between atoms: C8_8  and  C9_9 
REMARK    3  A    between atoms: C10_12  and  C11_13 
REMARK       I    between atoms: C11_13  and  N2_15 
REMARK    4  A    between atoms: N2_15  and  C12_17 
ROOT
HETATM    1  C9  UNL     1      -0.792  -0.287  -0.264  1.00  0.00     0.086 A 
HETATM    2  N1  UNL     1       0.515  -0.169  -0.187  1.00  0.00    -0.343 N 
ATOM      3  H1  UNL     1       0.927   0.603   0.337  1.00  0.00     0.167 HD
HETATM    4  C10 UNL     1       1.283  -1.037  -0.779  1.00  0.00     0.133 A 
HETATM    5  C16 UNL     1       0.662  -2.052  -1.469  1.00  0.00     0.121 A 
HETATM    6  N3  UNL     1       1.270  -3.132  -2.206  1.00  0.00    -0.092 NA
HETATM    7  S1  UNL     1      -0.988  -1.685  -1.216  1.00  0.00    -0.054 SA
ENDROOT
BRANCH   1   8
HETATM    8  C8  UNL     1      -1.864   0.547   0.305  1.00  0.00    -0.002 A 
HETATM    9  C7  UNL     1      -1.584   1.645   1.052  1.00  0.00     0.014 A 
HETATM   10  C6  UNL     1      -2.602   2.424   1.585  1.00  0.00     0.002 A 
HETATM   11  C5  UNL     1      -3.905   2.051   1.333  1.00  0.00     0.007 A 
HETATM   12  C4  UNL     1      -4.237   0.938   0.575  1.00  0.00    -0.054 A 
HETATM   13  C17 UNL     1      -3.185   0.205   0.074  1.00  0.00     0.021 A 
BRANCH  12  14
HETATM   14  C2  UNL     1      -5.649   0.547   0.310  1.00  0.00     0.010 C 
HETATM   15  C1  UNL     1      -5.977   0.540  -1.160  1.00  0.00     0.015 C 
HETATM   16  C3  UNL     1      -5.878  -0.876   0.820  1.00  0.00     0.015 C 
ENDBRANCH  12  14
ENDBRANCH   1   8
BRANCH   4  17
HETATM   17  C11 UNL     1       2.767  -0.950  -0.722  1.00  0.00     0.271 C 
HETATM   18  O1  UNL     1       3.464  -1.804  -1.305  1.00  0.00    -0.266 OA
HETATM   19  N2  UNL     1       3.434   0.084  -0.020  1.00  0.00    -0.348 N 
ATOM     20  H2  UNL     1       2.867   0.785   0.457  1.00  0.00     0.163 HD
BRANCH  19  21
HETATM   21  C12 UNL     1       4.864   0.202   0.058  1.00  0.00     0.022 C 
HETATM   22  C13 UNL     1       5.294   1.388   0.866  1.00  0.00     0.037 C 
HETATM   23  C14 UNL     1       5.502   0.328  -1.314  1.00  0.00     0.037 C 
HETATM   24  C15 UNL     1       5.412  -1.082   0.679  1.00  0.00     0.037 C 
ENDBRANCH  19  21
ENDBRANCH   4  17
TORSDOF 4
