REMARK  2 active torsions:
REMARK  status: ('A' for Active; 'I' for Inactive)
REMARK    1  A    between atoms: C4_4  and  C5_5 
REMARK    2  A    between atoms: C5_5  and  C6_9 
ROOT
HETATM    1  C1  UNL     1      -1.586   0.908   1.214  1.00  0.00     0.012 C 
HETATM    2  C2  UNL     1      -1.115   0.794  -0.197  1.00  0.00     0.014 C 
HETATM    3  C3  UNL     1       0.381   1.135  -0.254  1.00  0.00     0.045 C 
HETATM    4  C4  UNL     1       1.074  -0.147  -0.603  1.00  0.00     0.236 C 
HETATM    5  N2  UNL     1       0.116  -1.132  -0.073  1.00  0.00    -0.061 N 
ATOM      6  H21 UNL     1       0.092  -1.235   0.942  1.00  0.00     0.278 HD
ATOM      7  H22 UNL     1       0.339  -2.112  -0.244  1.00  0.00     0.278 HD
HETATM    8  C7  UNL     1      -1.104  -0.634  -0.696  1.00  0.00     0.186 C 
HETATM    9  C8  UNL     1      -2.319  -1.407  -0.290  1.00  0.00     0.040 C 
ENDROOT
BRANCH   4  10
HETATM   10  C5  UNL     1       2.386  -0.332   0.027  1.00  0.00     0.044 C 
HETATM   11  N1  UNL     1       2.585  -1.343   0.795  1.00  0.00    -0.400 N 
ATOM     12  H12 UNL     1       1.820  -1.999   0.951  1.00  0.00     0.156 HD
ATOM     13  H11 UNL     1       3.497  -1.472   1.233  1.00  0.00     0.156 HD
BRANCH  10  14
HETATM   14  C6  UNL     1       3.469   0.596  -0.194  1.00  0.00     0.107 C 
HETATM   15  S1  UNL     1       3.239   1.897  -1.173  1.00  0.00    -0.091 SA
ENDBRANCH  10  14
ENDBRANCH   4  10
TORSDOF 2
