REMARK  12 active torsions:
REMARK  status: ('A' for Active; 'I' for Inactive)
REMARK    1  A    between atoms: C1_2  and  C2_3 
REMARK       I    between atoms: C1_2  and  N3_12 
REMARK    2  A    between atoms: C2_3  and  C3_4 
REMARK    3  A    between atoms: N3_12  and  C6_14 
REMARK    4  A    between atoms: C6_14  and  C7_15 
REMARK    5  A    between atoms: C7_15  and  C8_16 
REMARK    6  A    between atoms: C8_16  and  C9_17 
REMARK    7  A    between atoms: C9_17  and  C10_18 
REMARK    8  A    between atoms: C10_18  and  C11_19 
REMARK    9  A    between atoms: C11_19  and  C12_20 
REMARK   10  A    between atoms: N4_23  and  C14_24 
REMARK   11  A    between atoms: C16_28  and  C17_29 
REMARK   12  A    between atoms: C21_37  and  C22_38 
REMARK       I    between atoms: C22_38  and  N6_40 
ROOT
HETATM    1  C12 UNL     1       1.798   0.448  -1.667  1.00  0.00     0.093 C 
HETATM    2  C13 UNL     1       2.686  -0.811  -1.857  1.00  0.00     0.230 C 
HETATM    3  O2  UNL     1       2.758  -1.485  -2.928  1.00  0.00    -0.273 OA
HETATM    4  N4  UNL     1       3.345  -1.005  -0.629  1.00  0.00    -0.301 N 
HETATM    5  C20 UNL     1       2.894   0.025   0.320  1.00  0.00     0.148 C 
HETATM    6  C21 UNL     1       2.653   1.135  -0.696  1.00  0.00     0.109 C 
ENDROOT
BRANCH   1   7
HETATM    7  C11 UNL     1       0.478  -0.134  -1.354  1.00  0.00     0.015 C 
BRANCH   7   8
HETATM    8  C10 UNL     1      -0.680   0.757  -1.172  1.00  0.00     0.001 C 
BRANCH   8   9
HETATM    9  C9  UNL     1      -2.025   0.102  -0.980  1.00  0.00     0.000 C 
BRANCH   9  10
HETATM   10  C8  UNL     1      -2.085  -0.707   0.251  1.00  0.00     0.002 C 
BRANCH  10  11
HETATM   11  C7  UNL     1      -3.464  -1.316   0.514  1.00  0.00     0.020 C 
BRANCH  11  12
HETATM   12  C6  UNL     1      -4.516  -0.265   0.598  1.00  0.00     0.122 C 
BRANCH  12  13
HETATM   13  N3  UNL     1      -5.790  -0.859   0.950  1.00  0.00    -0.361 N 
HETATM   14  C1  UNL     1      -6.963  -0.034   1.059  1.00  0.00     0.223 C 
HETATM   15  O1  UNL     1      -6.856   1.187   0.803  1.00  0.00    -0.273 OA
ATOM     16  H3  UNL     1      -5.855  -1.863   1.121  1.00  0.00     0.162 HD
BRANCH  14  17
HETATM   17  C2  UNL     1      -8.240  -0.614   1.461  1.00  0.00     0.163 C 
BRANCH  17  18
HETATM   18  C3  UNL     1      -9.294  -0.436   0.456  1.00  0.00     0.057 A 
HETATM   19  N1  UNL     1      -9.778  -1.438  -0.308  1.00  0.00    -0.303 N 
HETATM   20  N2  UNL     1     -10.726  -0.932  -1.045  1.00  0.00    -0.310 N 
ATOM     21  H1  UNL     1      -9.462  -2.408  -0.308  1.00  0.00     0.186 HD
HETATM   22  C4  UNL     1     -10.911   0.377  -0.824  1.00  0.00     0.133 A 
ATOM     23  H2  UNL     1     -11.269  -1.474  -1.718  1.00  0.00     0.186 HD
HETATM   24  C5  UNL     1      -9.979   0.708   0.151  1.00  0.00     0.075 A 
HETATM   25 CL1  UNL     1      -9.755   2.301   0.839  1.00  0.00    -0.081 Cl
ENDBRANCH  17  18
ENDBRANCH  14  17
ENDBRANCH  12  13
ENDBRANCH  11  12
ENDBRANCH  10  11
ENDBRANCH   9  10
ENDBRANCH   8   9
ENDBRANCH   7   8
ENDBRANCH   1   7
BRANCH   6  26
HETATM   26  C22 UNL     1       2.437   2.455  -0.198  1.00  0.00     0.226 C 
HETATM   27  O3  UNL     1       1.375   3.095  -0.351  1.00  0.00    -0.273 OA
HETATM   28  N6  UNL     1       3.444   3.149   0.523  1.00  0.00    -0.352 N 
HETATM   29  C23 UNL     1       4.779   2.684   0.818  1.00  0.00     0.126 C 
HETATM   30  C26 UNL     1       3.376   4.508   1.094  1.00  0.00     0.126 C 
HETATM   31  C24 UNL     1       5.645   3.928   0.918  1.00  0.00     0.021 C 
HETATM   32  C25 UNL     1       4.698   5.054   0.529  1.00  0.00     0.021 C 
ENDBRANCH   6  26
BRANCH   4  33
HETATM   33  C14 UNL     1       4.288  -2.016  -0.380  1.00  0.00     0.132 A 
HETATM   34  N5  UNL     1       3.956  -3.036   0.439  1.00  0.00    -0.350 N 
HETATM   35  C15 UNL     1       4.852  -4.056   0.642  1.00  0.00     0.106 A 
ATOM     36  H5  UNL     1       3.048  -3.049   0.903  1.00  0.00     0.166 HD
HETATM   37  C16 UNL     1       6.092  -4.055   0.020  1.00  0.00     0.065 A 
HETATM   38  C18 UNL     1       6.451  -3.028  -0.820  1.00  0.00     0.045 A 
HETATM   39  C19 UNL     1       5.520  -2.004  -1.008  1.00  0.00     0.079 A 
HETATM   40 CL2  UNL     1       5.950  -0.712  -2.079  1.00  0.00    -0.080 Cl
BRANCH  37  41
HETATM   41  C17 UNL     1       6.972  -5.222   0.277  1.00  0.00     0.418 C 
HETATM   42  F1  UNL     1       7.147  -5.433   1.607  1.00  0.00    -0.166 F 
HETATM   43  F2  UNL     1       8.222  -4.903  -0.288  1.00  0.00    -0.166 F 
HETATM   44  F3  UNL     1       6.462  -6.308  -0.410  1.00  0.00    -0.166 F 
ENDBRANCH  37  41
ENDBRANCH   4  33
TORSDOF 12
