REMARK  15 active torsions:
REMARK  status: ('A' for Active; 'I' for Inactive)
REMARK    1  A    between atoms: O1_2  and  C2_3 
REMARK    2  A    between atoms: C2_3  and  C3_4 
REMARK    3  A    between atoms: C3_4  and  C4_5 
REMARK    4  A    between atoms: C4_5  and  N1_6 
REMARK    5  A    between atoms: C7_9  and  C8_10 
REMARK    6  A    between atoms: C8_10  and  O2_11 
REMARK    7  A    between atoms: N2_17  and  C13_18 
REMARK    8  A    between atoms: C13_18  and  C14_19 
REMARK    9  A    between atoms: C14_19  and  C15_20 
REMARK   10  A    between atoms: C15_20  and  N3_21 
REMARK   11  A    between atoms: N3_21  and  C16_22 
REMARK   12  A    between atoms: N3_21  and  C20_26 
REMARK   13  A    between atoms: C16_22  and  C17_23 
REMARK   14  A    between atoms: C20_26  and  C21_27 
REMARK   15  A    between atoms: C30_37  and  O3_38 
ROOT
HETATM    1  N1  UNL     1       3.585   0.466   0.819  1.00  0.00    -0.406 N 
HETATM    2  C5  UNL     1       4.402  -0.661   1.168  1.00  0.00     0.118 C 
HETATM    3  C6  UNL     1       4.602  -1.679   0.130  1.00  0.00     0.034 C 
HETATM    4  C7  UNL     1       3.385  -2.187  -0.587  1.00  0.00     0.020 C 
HETATM    5  C9  UNL     1       2.997  -1.261  -1.686  1.00  0.00     0.017 C 
HETATM    6  C10 UNL     1       2.289  -0.020  -1.254  1.00  0.00     0.028 C 
HETATM    7  C11 UNL     1       2.324   0.175   0.234  1.00  0.00     0.105 C 
HETATM    8  C12 UNL     1       1.729  -1.050   0.853  1.00  0.00     0.147 C 
HETATM    9  N2  UNL     1       0.262  -1.030   0.563  1.00  0.00    -0.370 N 
HETATM   10  C24 UNL     1      -0.011  -2.246  -0.074  1.00  0.00     0.040 A 
HETATM   11  C25 UNL     1      -1.222  -2.751  -0.578  1.00  0.00     0.031 A 
HETATM   12  C26 UNL     1      -1.337  -4.055  -1.056  1.00  0.00     0.021 A 
HETATM   13  C27 UNL     1      -0.258  -4.880  -1.045  1.00  0.00     0.011 A 
HETATM   14 BR1  UNL     1      -0.350  -6.690  -1.689  1.00  0.00    -0.051 Br
HETATM   15  C28 UNL     1       0.922  -4.388  -0.556  1.00  0.00     0.031 A 
HETATM   16  C29 UNL     1       1.095  -3.088  -0.068  1.00  0.00     0.007 A 
HETATM   17  C30 UNL     1       2.247  -2.351   0.395  1.00  0.00     0.119 C 
ENDROOT
BRANCH   9  18
HETATM   18  C13 UNL     1      -0.538   0.061   0.996  1.00  0.00     0.125 C 
BRANCH  18  19
HETATM   19  C14 UNL     1      -1.963  -0.023   0.699  1.00  0.00     0.040 C 
BRANCH  19  20
HETATM   20  C15 UNL     1      -2.742   1.177   1.355  1.00  0.00     0.128 C 
BRANCH  20  21
HETATM   21  N3  UNL     1      -4.094   1.020   0.945  1.00  0.00    -0.373 N 
BRANCH  21  22
HETATM   22  C16 UNL     1      -4.482   1.337  -0.348  1.00  0.00     0.067 C 
BRANCH  22  23
HETATM   23  C17 UNL     1      -4.543   2.794  -0.739  1.00  0.00     0.016 C 
HETATM   24  C18 UNL     1      -4.985   2.850  -2.200  1.00  0.00     0.015 C 
HETATM   25  C19 UNL     1      -3.329   3.610  -0.590  1.00  0.00     0.015 C 
ENDBRANCH  22  23
ENDBRANCH  21  22
BRANCH  21  26
HETATM   26  C20 UNL     1      -4.893   0.256   1.810  1.00  0.00     0.067 C 
BRANCH  26  27
HETATM   27  C21 UNL     1      -6.194  -0.271   1.330  1.00  0.00     0.016 C 
HETATM   28  C22 UNL     1      -6.938  -1.029   2.442  1.00  0.00     0.015 C 
HETATM   29  C23 UNL     1      -5.999  -1.354   0.257  1.00  0.00     0.015 C 
ENDBRANCH  26  27
ENDBRANCH  21  26
ENDBRANCH  20  21
ENDBRANCH  19  20
ENDBRANCH  18  19
ENDBRANCH   9  18
BRANCH  17  30
HETATM   30  O3  UNL     1       2.816  -3.026   1.506  1.00  0.00    -0.382 OA
ATOM     31  H3  UNL     1       2.101  -3.129   2.123  1.00  0.00     0.211 HD
ENDBRANCH  17  30
BRANCH   1  32
HETATM   32  C4  UNL     1       4.364   1.507   0.273  1.00  0.00     0.119 C 
BRANCH  32  33
HETATM   33  C3  UNL     1       3.668   2.818   0.031  1.00  0.00     0.045 C 
BRANCH  33  34
HETATM   34  C2  UNL     1       4.660   3.830  -0.549  1.00  0.00     0.168 C 
BRANCH  34  35
HETATM   35  O1  UNL     1       5.713   4.022   0.363  1.00  0.00    -0.396 OA
HETATM   36  C1  UNL     1       6.598   4.934  -0.164  1.00  0.00     0.201 C 
ENDBRANCH  34  35
ENDBRANCH  33  34
ENDBRANCH  32  33
ENDBRANCH   1  32
BRANCH   4  37
HETATM   37  C8  UNL     1       3.809  -3.520  -1.166  1.00  0.00     0.177 C 
BRANCH  37  38
HETATM   38  O2  UNL     1       4.931  -3.326  -2.030  1.00  0.00    -0.400 OA
ATOM     39  H2  UNL     1       5.197  -4.162  -2.393  1.00  0.00     0.209 HD
ENDBRANCH  37  38
ENDBRANCH   4  37
TORSDOF 15
