REMARK  11 active torsions:
REMARK  status: ('A' for Active; 'I' for Inactive)
REMARK    1  A    between atoms: C2_2  and  C3_3 
REMARK    2  A    between atoms: C3_3  and  C4_4 
REMARK    3  A    between atoms: C4_4  and  C5_5 
REMARK       I    between atoms: C5_5  and  N1_7 
REMARK    4  A    between atoms: N1_7  and  C6_8 
REMARK    5  A    between atoms: C6_8  and  C7_9 
REMARK    6  A    between atoms: C7_9  and  C8_10 
REMARK       I    between atoms: C8_10  and  N2_12 
REMARK    7  A    between atoms: N2_12  and  C9_14 
REMARK    8  A    between atoms: C10_15  and  C11_16 
REMARK    9  A    between atoms: C10_15  and  C25_34 
REMARK   10  A    between atoms: C12_18  and  C13_19 
REMARK   11  A    between atoms: N3_39  and  C30_40 
ROOT
HETATM    1  C9  UNL     1       0.442   1.585   1.789  1.00  0.00     0.101 C 
HETATM    2  C10 UNL     1      -0.521   2.048   0.816  1.00  0.00    -0.001 C 
ENDROOT
BRANCH   2   3
HETATM    3  C11 UNL     1      -1.764   1.168   0.840  1.00  0.00     0.036 A 
HETATM    4  S1  UNL     1      -2.128  -0.315   0.111  1.00  0.00    -0.091 SA
HETATM    5  C12 UNL     1      -3.778  -0.461   0.516  1.00  0.00     0.004 A 
HETATM    6  C23 UNL     1      -4.006   0.667   1.227  1.00  0.00     0.041 A 
HETATM    7  C24 UNL     1      -2.967   1.521   1.404  1.00  0.00     0.052 A 
HETATM    8 CL1  UNL     1      -3.212   2.953   2.483  1.00  0.00    -0.083 Cl
BRANCH   5   9
HETATM    9  C13 UNL     1      -4.752  -1.526   0.133  1.00  0.00     0.082 C 
HETATM   10  C14 UNL     1      -6.106  -1.320   0.706  1.00  0.00     0.026 C 
HETATM   11  C15 UNL     1      -6.706  -2.550   1.370  1.00  0.00     0.007 C 
HETATM   12  C16 UNL     1      -6.504  -3.761   0.502  1.00  0.00    -0.008 C 
HETATM   13  C17 UNL     1      -7.153  -3.611  -0.848  1.00  0.00     0.037 C 
HETATM   14  C20 UNL     1      -5.042  -4.024   0.252  1.00  0.00    -0.006 C 
HETATM   15  C18 UNL     1      -6.041  -3.734  -1.892  1.00  0.00     0.132 C 
HETATM   16  C19 UNL     1      -4.979  -4.524  -1.157  1.00  0.00     0.037 C 
HETATM   17  O3  UNL     1      -5.603  -2.419  -2.174  1.00  0.00    -0.315 OA
HETATM   18  C22 UNL     1      -4.870  -1.584  -1.365  1.00  0.00     0.273 C 
HETATM   19  O4  UNL     1      -4.193  -0.734  -1.994  1.00  0.00    -0.264 OA
HETATM   20  C21 UNL     1      -4.154  -2.854   0.561  1.00  0.00     0.030 C 
ENDBRANCH   5   9
ENDBRANCH   2   3
BRANCH   2  21
HETATM   21  C25 UNL     1      -0.759   3.471   0.468  1.00  0.00     0.119 C 
HETATM   22  C26 UNL     1      -1.757   3.433  -0.688  1.00  0.00     0.030 C 
HETATM   23  C27 UNL     1      -1.525   4.386  -1.780  1.00  0.00     0.007 C 
HETATM   24  C28 UNL     1      -0.258   5.125  -1.874  1.00  0.00     0.044 C 
HETATM   25  C29 UNL     1       0.813   4.513  -1.073  1.00  0.00     0.059 C 
HETATM   26  N3  UNL     1       0.426   4.180   0.225  1.00  0.00    -0.385 N 
BRANCH  26  27
HETATM   27  C30 UNL     1       0.866   5.070   1.233  1.00  0.00     0.118 C 
HETATM   28  C31 UNL     1      -0.018   6.254   1.497  1.00  0.00     0.026 C 
ENDBRANCH  26  27
ENDBRANCH   2  21
BRANCH   1  29
HETATM   29  N2  UNL     1       1.042   0.291   1.577  1.00  0.00    -0.336 N 
HETATM   30  C8  UNL     1       2.030   0.169   0.560  1.00  0.00     0.227 C 
HETATM   31  O2  UNL     1       2.341   1.177  -0.148  1.00  0.00    -0.273 OA
ATOM     32  H2  UNL     1       0.766  -0.514   2.140  1.00  0.00     0.168 HD
BRANCH  30  33
HETATM   33  C7  UNL     1       2.784  -1.088   0.249  1.00  0.00     0.162 C 
BRANCH  33  34
HETATM   34  C6  UNL     1       4.280  -0.683   0.341  1.00  0.00     0.168 C 
BRANCH  34  35
HETATM   35  N1  UNL     1       5.237  -1.568   0.149  1.00  0.00    -0.387 NA
HETATM   36  C5  UNL     1       6.244  -2.518  -0.040  1.00  0.00     0.290 C 
HETATM   37  O1  UNL     1       6.354  -3.612   0.541  1.00  0.00    -0.257 OA
BRANCH  36  38
HETATM   38  C4  UNL     1       7.363  -2.237  -1.024  1.00  0.00     0.119 C 
BRANCH  38  39
HETATM   39  C3  UNL     1       8.623  -2.517  -0.204  1.00  0.00     0.010 C 
BRANCH  39  40
HETATM   40  C2  UNL     1       9.846  -2.269  -1.023  1.00  0.00    -0.004 C 
HETATM   41  C1  UNL     1      11.051  -2.470  -0.096  1.00  0.00     0.005 C 
ENDBRANCH  39  40
ENDBRANCH  38  39
ENDBRANCH  36  38
ENDBRANCH  34  35
ENDBRANCH  33  34
ENDBRANCH  30  33
ENDBRANCH   1  29
TORSDOF 11
