REMARK  15 active torsions:
REMARK  status: ('A' for Active; 'I' for Inactive)
REMARK    1  A    between atoms: C2_2  and  C3_3 
REMARK    2  A    between atoms: C3_3  and  C4_4 
REMARK    3  A    between atoms: C4_4  and  O1_7 
REMARK    4  A    between atoms: O1_7  and  C7_8 
REMARK       I    between atoms: C7_8  and  N1_10 
REMARK    5  A    between atoms: N1_10  and  C8_12 
REMARK    6  A    between atoms: C8_12  and  C10_14 
REMARK    7  A    between atoms: C10_14  and  C11_16 
REMARK    8  A    between atoms: C11_16  and  C12_17 
REMARK    9  A    between atoms: C11_16  and  N2_20 
REMARK   10  A    between atoms: C17_23  and  C18_24 
REMARK   11  A    between atoms: C18_24  and  N3_26 
REMARK   12  A    between atoms: N3_26  and  C20_28 
REMARK   13  A    between atoms: C20_28  and  C21_29 
REMARK   14  A    between atoms: C21_29  and  O4_32 
REMARK   15  A    between atoms: O4_32  and  C24_33 
REMARK       I    between atoms: C24_33  and  N4_35 
ROOT
HETATM    1  N2  UNL     1      -0.921  -2.896  -0.380  1.00  0.00    -0.401 N 
HETATM    2  C15 UNL     1      -0.141  -2.259  -1.323  1.00  0.00     0.118 C 
HETATM    3  C16 UNL     1       1.221  -1.886  -0.664  1.00  0.00     0.026 C 
HETATM    4  C17 UNL     1       1.602  -2.999   0.250  1.00  0.00     0.010 C 
HETATM    5  C30 UNL     1       0.677  -2.979   1.476  1.00  0.00     0.026 C 
HETATM    6  C31 UNL     1      -0.640  -2.434   0.971  1.00  0.00     0.118 C 
ENDROOT
BRANCH   1   7
HETATM    7  C11 UNL     1      -2.278  -3.216  -0.553  1.00  0.00     0.154 C 
BRANCH   7   8
HETATM    8  C10 UNL     1      -3.264  -2.159  -0.739  1.00  0.00     0.171 C 
HETATM    9  O3  UNL     1      -4.394  -2.500  -0.285  1.00  0.00    -0.293 OA
BRANCH   8  10
HETATM   10  C8  UNL     1      -3.293  -0.841  -1.298  1.00  0.00     0.154 C 
HETATM   11  C9  UNL     1      -3.281  -0.757  -2.815  1.00  0.00     0.040 C 
BRANCH  10  12
HETATM   12  N1  UNL     1      -4.596  -0.209  -0.984  1.00  0.00    -0.326 N 
HETATM   13  C7  UNL     1      -4.689   1.111  -0.469  1.00  0.00     0.361 C 
HETATM   14  O2  UNL     1      -3.649   1.808  -0.259  1.00  0.00    -0.238 OA
ATOM     15  H1  UNL     1      -5.453  -0.739  -1.143  1.00  0.00     0.165 HD
BRANCH  13  16
HETATM   16  O1  UNL     1      -5.735   1.808  -0.142  1.00  0.00    -0.294 OA
BRANCH  16  17
HETATM   17  C4  UNL     1      -6.534   2.717   0.251  1.00  0.00     0.065 C 
HETATM   18  C5  UNL     1      -6.689   3.766  -0.904  1.00  0.00     0.046 C 
HETATM   19  C6  UNL     1      -7.963   1.995   0.004  1.00  0.00     0.046 C 
BRANCH  17  20
HETATM   20  C3  UNL     1      -6.744   3.440   1.483  1.00  0.00     0.037 C 
BRANCH  20  21
HETATM   21  C2  UNL     1      -5.888   4.609   1.850  1.00  0.00    -0.002 C 
HETATM   22  C1  UNL     1      -4.433   4.373   2.029  1.00  0.00     0.005 C 
ENDBRANCH  20  21
ENDBRANCH  17  20
ENDBRANCH  16  17
ENDBRANCH  13  16
ENDBRANCH  10  12
ENDBRANCH   8  10
ENDBRANCH   7   8
BRANCH   7  23
HETATM   23  C12 UNL     1      -2.414  -4.364  -1.533  1.00  0.00     0.007 C 
HETATM   24  C13 UNL     1      -1.338  -5.364  -1.197  1.00  0.00     0.012 C 
HETATM   25  C14 UNL     1      -3.744  -5.066  -1.236  1.00  0.00     0.012 C 
ENDBRANCH   7  23
ENDBRANCH   1   7
BRANCH   4  26
HETATM   26  C18 UNL     1       3.012  -3.250   0.547  1.00  0.00     0.076 C 
HETATM   27  C19 UNL     1       3.017  -4.489   1.511  1.00  0.00     0.032 C 
BRANCH  26  28
HETATM   28  N3  UNL     1       3.747  -2.271   1.224  1.00  0.00    -0.414 N 
ATOM     29  H3  UNL     1       4.103  -2.482   2.156  1.00  0.00     0.153 HD
BRANCH  28  30
HETATM   30  C20 UNL     1       4.013  -1.009   0.670  1.00  0.00     0.152 C 
BRANCH  30  31
HETATM   31  C21 UNL     1       4.974  -0.236   1.586  1.00  0.00     0.080 C 
HETATM   32  C22 UNL     1       6.164  -1.132   1.803  1.00  0.00     0.048 C 
HETATM   33  C23 UNL     1       4.265  -0.077   2.925  1.00  0.00     0.048 C 
BRANCH  31  34
HETATM   34  O4  UNL     1       5.296   1.027   1.124  1.00  0.00    -0.292 OA
BRANCH  34  35
HETATM   35  C24 UNL     1       5.927   1.363  -0.059  1.00  0.00     0.363 C 
HETATM   36  O5  UNL     1       6.260   0.426  -0.826  1.00  0.00    -0.238 OA
HETATM   37  N4  UNL     1       6.199   2.735  -0.414  1.00  0.00    -0.328 N 
HETATM   38  C25 UNL     1       5.840   3.827   0.439  1.00  0.00     0.128 C 
HETATM   39  C29 UNL     1       6.856   2.995  -1.671  1.00  0.00     0.128 C 
HETATM   40  C26 UNL     1       4.999   4.804  -0.330  1.00  0.00     0.020 C 
HETATM   41  C27 UNL     1       5.616   5.193  -1.646  1.00  0.00     0.003 C 
HETATM   42  C28 UNL     1       6.084   4.015  -2.440  1.00  0.00     0.020 C 
ENDBRANCH  34  35
ENDBRANCH  31  34
ENDBRANCH  30  31
ENDBRANCH  28  30
ENDBRANCH  26  28
ENDBRANCH   4  26
TORSDOF 15
