REMARK  6 active torsions:
REMARK  status: ('A' for Active; 'I' for Inactive)
REMARK    1  A    between atoms: C2_2  and  N1_3 
REMARK    2  A    between atoms: C5_6  and  C6_7 
REMARK    3  A    between atoms: C7_10  and  C8_11 
REMARK    4  A    between atoms: C8_11  and  N3_12 
REMARK    5  A    between atoms: C8_11  and  C16_26 
REMARK    6  A    between atoms: N3_12  and  C9_14 
ROOT
HETATM    1  C8  UNL     1      -1.943  -0.728   0.592  1.00  0.00     0.156 C 
ENDROOT
BRANCH   1   2
HETATM    2  C7  UNL     1      -0.465  -0.466   0.513  1.00  0.00     0.120 A 
HETATM    3  N2  UNL     1       0.507  -0.800   1.358  1.00  0.00    -0.331 N 
HETATM    4  C6  UNL     1       1.690  -0.365   0.913  1.00  0.00     0.101 A 
ATOM      5  H2  UNL     1       0.368  -1.317   2.226  1.00  0.00     0.168 HD
HETATM    6  N7  UNL     1       1.419   0.257  -0.251  1.00  0.00    -0.287 N 
HETATM    7  N6  UNL     1       0.120   0.197  -0.491  1.00  0.00    -0.286 N 
ATOM      8  H7  UNL     1       2.109   0.705  -0.854  1.00  0.00     0.188 HD
ATOM      9  H6  UNL     1      -0.355   0.590  -1.304  1.00  0.00     0.188 HD
BRANCH   4  10
HETATM   10  C5  UNL     1       3.048  -0.498   1.503  1.00  0.00     0.058 C 
HETATM   11  C4  UNL     1       3.586   0.866   1.819  1.00  0.00     0.042 C 
HETATM   12  C3  UNL     1       5.078   0.814   1.863  1.00  0.00     0.273 C 
HETATM   13  N1  UNL     1       5.578   0.627   0.536  1.00  0.00     0.088 N 
HETATM   14  C23 UNL     1       4.885  -0.373  -0.216  1.00  0.00     0.273 C 
HETATM   15  C22 UNL     1       3.995  -1.244   0.616  1.00  0.00     0.042 C 
BRANCH  13  16
HETATM   16  C2  UNL     1       7.010   0.522   0.489  1.00  0.00     0.268 C 
HETATM   17  C1  UNL     1       7.695   1.820   0.838  1.00  0.00     0.037 C 
ENDBRANCH  13  16
ENDBRANCH   4  10
ENDBRANCH   1   2
BRANCH   1  18
HETATM   18  N3  UNL     1      -2.604   0.445   0.205  1.00  0.00    -0.364 N 
ATOM     19  H3  UNL     1      -2.186   0.888  -0.613  1.00  0.00     0.162 HD
BRANCH  18  20
HETATM   20  C9  UNL     1      -3.604   1.072   0.649  1.00  0.00     0.115 A 
HETATM   21  N4  UNL     1      -4.267   0.620   1.716  1.00  0.00    -0.338 N 
HETATM   22  C10 UNL     1      -5.346   1.224   2.256  1.00  0.00     0.182 A 
ATOM     23  H4  UNL     1      -3.935  -0.240   2.153  1.00  0.00     0.168 HD
HETATM   24  N5  UNL     1      -5.775   2.354   1.674  1.00  0.00    -0.346 N 
HETATM   25  C11 UNL     1      -5.137   2.869   0.574  1.00  0.00     0.089 A 
ATOM     26  H5  UNL     1      -6.588   2.838   2.055  1.00  0.00     0.167 HD
HETATM   27  S1  UNL     1      -5.378   4.242  -0.413  1.00  0.00    -0.076 SA
HETATM   28  C15 UNL     1      -4.045   2.270   0.017  1.00  0.00     0.043 A 
HETATM   29  C12 UNL     1      -4.091   4.025  -1.507  1.00  0.00    -0.018 A 
HETATM   30  C13 UNL     1      -3.676   4.874  -2.685  1.00  0.00     0.056 C 
HETATM   31  C14 UNL     1      -3.504   2.872  -1.064  1.00  0.00     0.032 A 
ENDBRANCH  18  20
ENDBRANCH   1  18
BRANCH   1  32
HETATM   32  C16 UNL     1      -2.261  -1.957  -0.228  1.00  0.00     0.016 C 
HETATM   33  C17 UNL     1      -3.715  -2.303  -0.212  1.00  0.00     0.007 C 
HETATM   34  C18 UNL     1      -3.934  -3.699  -0.719  1.00  0.00     0.000 C 
HETATM   35  C19 UNL     1      -2.818  -4.164  -1.624  1.00  0.00     0.000 C 
HETATM   36  C20 UNL     1      -2.297  -3.025  -2.471  1.00  0.00     0.000 C 
HETATM   37  C21 UNL     1      -1.753  -1.896  -1.628  1.00  0.00     0.007 C 
ENDBRANCH   1  32
TORSDOF 6
