REMARK  10 active torsions:
REMARK  status: ('A' for Active; 'I' for Inactive)
REMARK    1  A    between atoms: O1_1  and  C1_3 
REMARK    2  A    between atoms: C1_3  and  N1_4 
REMARK    3  A    between atoms: C1_3  and  N3_27 
REMARK    4  A    between atoms: N1_4  and  C2_6 
REMARK    5  A    between atoms: C2_6  and  O2_7 
REMARK    6  A    between atoms: C8_14  and  O3_15 
REMARK    7  A    between atoms: O3_15  and  C9_16 
REMARK    8  A    between atoms: C9_16  and  C10_18 
REMARK    9  A    between atoms: C14_22  and  N2_23 
REMARK   10  A    between atoms: N3_27  and  C16_29 
ROOT
HETATM    1  C2  UNL     1       0.787   1.291  -0.005  1.00  0.00     0.156 C 
HETATM    2  C3  UNL     1       1.909   0.717  -0.424  1.00  0.00     0.049 A 
HETATM    3  C4  UNL     1       0.993  -0.206  -1.581  1.00  0.00     0.018 A 
HETATM    4  C5  UNL     1       1.460  -1.037  -2.389  1.00  0.00     0.001 A 
HETATM    5  C6  UNL     1       2.828  -1.378  -2.516  1.00  0.00     0.003 A 
HETATM    6  C7  UNL     1       3.622  -0.665  -1.608  1.00  0.00     0.038 A 
HETATM    7  C8  UNL     1       2.995   0.161  -0.831  1.00  0.00     0.094 A 
ENDROOT
BRANCH   1   8
HETATM    8  N1  UNL     1      -0.468   1.558   0.306  1.00  0.00    -0.302 N 
ATOM      9  H1  UNL     1      -0.486   2.457   0.788  1.00  0.00     0.171 HD
BRANCH   8  10
HETATM   10  C1  UNL     1      -1.786   1.085   0.231  1.00  0.00     0.223 C 
BRANCH  10  11
HETATM   11  O1  UNL     1      -2.659   1.948   0.734  1.00  0.00    -0.332 OA
ATOM     12  H1  UNL     1      -3.552   1.628   0.683  1.00  0.00     0.220 HD
ENDBRANCH  10  11
BRANCH  10  13
HETATM   13  N3  UNL     1      -2.401  -0.058  -0.269  1.00  0.00    -0.330 N 
ATOM     14  H3  UNL     1      -1.792  -0.852  -0.466  1.00  0.00     0.169 HD
BRANCH  13  15
HETATM   15  C16 UNL     1      -3.814  -0.244  -0.541  1.00  0.00    -0.010 C 
HETATM   16  C17 UNL     1      -4.584   1.036  -0.755  1.00  0.00     0.052 C 
HETATM   17  C18 UNL     1      -5.729   0.928  -1.728  1.00  0.00     0.006 C 
HETATM   18  C19 UNL     1      -6.475  -0.314  -1.843  1.00  0.00     0.000 C 
HETATM   19  C20 UNL     1      -7.108  -0.976  -0.690  1.00  0.00     0.000 C 
HETATM   20  C21 UNL     1      -6.678  -0.541   0.696  1.00  0.00     0.000 C 
HETATM   21  C22 UNL     1      -5.402  -1.144   1.161  1.00  0.00     0.006 C 
HETATM   22  C23 UNL     1      -4.402  -1.409   0.059  1.00  0.00     0.052 C 
ENDBRANCH  13  15
ENDBRANCH  10  13
ENDBRANCH   8  10
ENDBRANCH   1   8
BRANCH   1  23
HETATM   23  O2  UNL     1       1.480   2.639   0.406  1.00  0.00    -0.345 OA
ATOM     24  H2  UNL     1       2.383   2.447   0.182  1.00  0.00     0.219 HD
ENDBRANCH   1  23
BRANCH   7  25
HETATM   25  O3  UNL     1       4.006   0.865   0.148  1.00  0.00    -0.274 OA
BRANCH  25  26
HETATM   26  C9  UNL     1       4.823  -0.039   0.788  1.00  0.00     0.298 C 
HETATM   27  O4  UNL     1       4.648  -1.265   0.591  1.00  0.00    -0.259 OA
BRANCH  26  28
HETATM   28  C10 UNL     1       5.904   0.336   1.663  1.00  0.00     0.042 A 
HETATM   29  C11 UNL     1       6.081   1.452   2.398  1.00  0.00     0.018 A 
HETATM   30  C12 UNL     1       7.264   1.830   2.899  1.00  0.00     0.003 A 
HETATM   31  C13 UNL     1       8.461   1.098   2.705  1.00  0.00     0.036 A 
HETATM   32  C14 UNL     1       8.298  -0.051   1.953  1.00  0.00     0.103 A 
HETATM   33  C15 UNL     1       7.080  -0.425   1.455  1.00  0.00     0.053 A 
BRANCH  32  34
HETATM   34  N2  UNL     1       9.494  -0.806   1.598  1.00  0.00    -0.116 N 
HETATM   35  O5  UNL     1      10.616  -0.404   1.888  1.00  0.00    -0.532 OA
HETATM   36  O6  UNL     1       9.342  -1.957   0.853  1.00  0.00    -0.532 OA
ENDBRANCH  32  34
ENDBRANCH  26  28
ENDBRANCH  25  26
ENDBRANCH   7  25
TORSDOF 10
