REMARK  5 active torsions:
REMARK  status: ('A' for Active; 'I' for Inactive)
REMARK    1  A    between atoms: N3_4  and  N4_6 
REMARK    2  A    between atoms: N4_6  and  C2_7 
REMARK    3  A    between atoms: C2_7  and  C3_8 
REMARK    4  A    between atoms: C6_11  and  C7_12 
REMARK    5  A    between atoms: N6_26  and  C19_27 
ROOT
HETATM    1  C7  UNL     1       1.471  -1.049  -0.209  1.00  0.00     0.059 A 
HETATM    2  C8  UNL     1       1.311  -2.367  -0.539  1.00  0.00     0.032 A 
HETATM    3  C9  UNL     1       0.047  -2.870  -0.679  1.00  0.00     0.005 A 
HETATM    4  C10 UNL     1      -1.060  -2.004  -0.475  1.00  0.00     0.033 A 
HETATM    5  C11 UNL     1      -0.892  -0.706  -0.150  1.00  0.00     0.077 A 
HETATM    6  C12 UNL     1      -1.925   0.272   0.102  1.00  0.00     0.136 A 
HETATM    7  N5  UNL     1      -1.537   1.548   0.450  1.00  0.00    -0.339 N 
ATOM      8  H5  UNL     1      -0.570   1.859   0.544  1.00  0.00     0.167 HD
HETATM    9  C13 UNL     1      -2.588   2.303   0.642  1.00  0.00     0.060 A 
HETATM   10  C14 UNL     1      -2.698   3.651   1.009  1.00  0.00     0.032 A 
HETATM   11  C15 UNL     1      -3.961   4.168   1.138  1.00  0.00     0.002 A 
HETATM   12  C16 UNL     1      -5.079   3.386   0.914  1.00  0.00     0.002 A 
HETATM   13  C17 UNL     1      -4.929   2.055   0.552  1.00  0.00     0.032 A 
HETATM   14  C18 UNL     1      -3.680   1.496   0.410  1.00  0.00     0.063 A 
HETATM   15  N6  UNL     1      -3.255   0.222   0.071  1.00  0.00    -0.325 N 
HETATM   16  N7  UNL     1       0.410  -0.303  -0.035  1.00  0.00    -0.351 N 
ATOM     17  H7  UNL     1       0.569   0.674   0.210  1.00  0.00     0.166 HD
ENDROOT
BRANCH  15  18
HETATM   18  C19 UNL     1      -4.142  -0.859  -0.252  1.00  0.00     0.092 C 
HETATM   19  C20 UNL     1      -5.074  -0.543  -1.419  1.00  0.00     0.026 C 
HETATM   20  C21 UNL     1      -6.441  -1.055  -1.250  1.00  0.00     0.002 C 
HETATM   21  C22 UNL     1      -6.604  -2.321  -0.506  1.00  0.00     0.000 C 
HETATM   22  C23 UNL     1      -5.576  -2.644   0.515  1.00  0.00     0.002 C 
HETATM   23  C24 UNL     1      -4.947  -1.316   0.966  1.00  0.00     0.026 C 
ENDBRANCH  15  18
BRANCH   1  24
HETATM   24  C6  UNL     1       2.796  -0.447  -0.044  1.00  0.00     0.059 A 
HETATM   25  C5  UNL     1       2.929   0.882   0.288  1.00  0.00     0.033 A 
HETATM   26  C4  UNL     1       4.161   1.483   0.451  1.00  0.00     0.017 A 
HETATM   27  C3  UNL     1       5.275   0.695   0.266  1.00  0.00     0.010 A 
HETATM   28  C25 UNL     1       5.128  -0.633  -0.066  1.00  0.00     0.102 A 
HETATM   29  N8  UNL     1       3.909  -1.187  -0.217  1.00  0.00    -0.363 N 
ATOM     30  H8  UNL     1       3.828  -2.173  -0.464  1.00  0.00     0.165 HD
BRANCH  27  31
HETATM   31  C2  UNL     1       6.643   1.257   0.421  1.00  0.00     0.221 C 
BRANCH  31  32
HETATM   32  N4  UNL     1       7.656   0.634   0.277  1.00  0.00    -0.336 NA
BRANCH  32  33
HETATM   33  N3  UNL     1       8.742  -0.014   0.127  1.00  0.00    -0.209 N 
HETATM   34  C1  UNL     1       9.976   0.313   0.025  1.00  0.00     0.226 C 
HETATM   35  N1  UNL     1      10.968  -0.677  -0.137  1.00  0.00    -0.065 NA
HETATM   36  N2  UNL     1      10.357   1.672   0.074  1.00  0.00    -0.065 NA
ATOM     37  H3  UNL     1       8.596  -1.022   0.077  1.00  0.00     0.204 HD
ENDBRANCH  32  33
ENDBRANCH  31  32
ENDBRANCH  27  31
ENDBRANCH   1  24
TORSDOF 5
