REMARK  11 active torsions:
REMARK  status: ('A' for Active; 'I' for Inactive)
REMARK    1  A    between atoms: C2_2  and  C3_3 
REMARK    2  A    between atoms: C3_3  and  C4_4 
REMARK    3  A    between atoms: C4_4  and  N1_5 
REMARK    4  A    between atoms: C4_4  and  C25_36 
REMARK       I    between atoms: N1_5  and  C5_7 
REMARK    5  A    between atoms: C5_7  and  C6_9 
REMARK    6  A    between atoms: N2_12  and  C9_13 
REMARK    7  A    between atoms: C9_13  and  C10_14 
REMARK    8  A    between atoms: C10_14  and  C11_15 
REMARK       I    between atoms: C11_15  and  N3_17 
REMARK    9  A    between atoms: C14_20  and  C15_21 
REMARK   10  A    between atoms: C14_20  and  N5_24 
REMARK   11  A    between atoms: C19_28  and  C20_29 
ROOT
HETATM    1  C6  UNL     1       2.677   1.496  -1.537  1.00  0.00     0.081 C 
HETATM    2  C7  UNL     1       2.049   2.747  -0.971  1.00  0.00     0.044 C 
HETATM    3  C8  UNL     1       1.419   2.592   0.359  1.00  0.00     0.273 C 
HETATM    4  N2  UNL     1       0.483   1.476   0.302  1.00  0.00     0.088 N 
HETATM    5  C23 UNL     1       1.249   0.240   0.146  1.00  0.00     0.273 C 
HETATM    6  C24 UNL     1       2.076   0.220  -1.094  1.00  0.00     0.044 C 
ENDROOT
BRANCH   4   7
HETATM    7  C9  UNL     1      -0.446   1.640  -0.803  1.00  0.00     0.281 C 
BRANCH   7   8
HETATM    8  C10 UNL     1      -1.555   0.601  -0.782  1.00  0.00     0.133 C 
BRANCH   8   9
HETATM    9  C11 UNL     1      -2.353   0.699   0.456  1.00  0.00     0.221 C 
HETATM   10  O2  UNL     1      -1.895   1.388   1.400  1.00  0.00    -0.273 OA
HETATM   11  N3  UNL     1      -3.576   0.055   0.593  1.00  0.00    -0.352 N 
HETATM   12  C12 UNL     1      -4.347   0.163   1.806  1.00  0.00     0.128 C 
HETATM   13  C22 UNL     1      -4.155  -0.740  -0.458  1.00  0.00     0.128 C 
HETATM   14  C13 UNL     1      -5.658  -0.516   1.673  1.00  0.00     0.060 C 
HETATM   15  C14 UNL     1      -6.449  -0.098   0.410  1.00  0.00     0.110 C 
HETATM   16  C21 UNL     1      -5.529  -0.204  -0.799  1.00  0.00     0.060 C 
BRANCH  15  17
HETATM   17  C15 UNL     1      -6.699   1.335   0.608  1.00  0.00     0.259 C 
HETATM   18  N4  UNL     1      -7.876   2.001   0.955  1.00  0.00    -0.060 NA
HETATM   19  O3  UNL     1      -5.684   2.118   0.443  1.00  0.00    -0.274 OA
ENDBRANCH  15  17
BRANCH  15  20
HETATM   20  N5  UNL     1      -7.517  -0.963   0.217  1.00  0.00    -0.389 N 
HETATM   21  C16 UNL     1      -7.298  -2.338  -0.017  1.00  0.00     0.118 C 
HETATM   22  C17 UNL     1      -8.645  -3.017   0.023  1.00  0.00     0.022 C 
HETATM   23  C18 UNL     1      -9.614  -1.956   0.360  1.00  0.00     0.029 C 
HETATM   24  C19 UNL     1      -8.845  -0.643   0.078  1.00  0.00     0.113 C 
BRANCH  24  25
HETATM   25  C20 UNL     1      -9.189  -0.214  -1.348  1.00  0.00     0.200 C 
HETATM   26 CL1  UNL     1      -8.874  -1.457  -2.550  1.00  0.00    -0.106 Cl
HETATM   27 CL2  UNL     1     -10.888   0.311  -1.444  1.00  0.00    -0.106 Cl
ENDBRANCH  24  25
ENDBRANCH  15  20
ENDBRANCH   8   9
ENDBRANCH   7   8
ENDBRANCH   4   7
BRANCH   1  28
HETATM   28  C5  UNL     1       4.108   1.541  -1.139  1.00  0.00     0.222 C 
HETATM   29  N1  UNL     1       4.700   0.754  -0.138  1.00  0.00    -0.346 N 
ATOM     30  H1  UNL     1       4.157   0.068   0.386  1.00  0.00     0.163 HD
HETATM   31  O1  UNL     1       4.818   2.383  -1.786  1.00  0.00    -0.273 OA
BRANCH  29  32
HETATM   32  C4  UNL     1       6.150   0.958   0.130  1.00  0.00     0.186 C 
BRANCH  32  33
HETATM   33  C3  UNL     1       6.774  -0.335  -0.230  1.00  0.00     0.045 C 
BRANCH  33  34
HETATM   34  C2  UNL     1       8.232  -0.525  -0.112  1.00  0.00    -0.042 C 
HETATM   35  C1  UNL     1       8.999   0.499  -0.962  1.00  0.00     0.015 C 
HETATM   36  C26 UNL     1       8.525  -1.864  -0.855  1.00  0.00     0.009 C 
HETATM   37  C27 UNL     1       8.944  -2.843   0.191  1.00  0.00     0.001 C 
HETATM   38  C28 UNL     1       9.745  -1.955   1.132  1.00  0.00     0.001 C 
HETATM   39  C29 UNL     1       8.832  -0.710   1.220  1.00  0.00     0.009 C 
ENDBRANCH  33  34
ENDBRANCH  32  33
BRANCH  32  40
HETATM   40  C25 UNL     1       6.196   1.344   1.552  1.00  0.00     0.196 C 
HETATM   41  O4  UNL     1       5.151   1.298   2.286  1.00  0.00    -0.646 OA
HETATM   42  O5  UNL     1       7.369   1.778   2.153  1.00  0.00    -0.646 OA
ENDBRANCH  32  40
ENDBRANCH  29  32
ENDBRANCH   1  28
TORSDOF 11
