REMARK  9 active torsions:
REMARK  status: ('A' for Active; 'I' for Inactive)
REMARK    1  A    between atoms: C2_2  and  C3_3 
REMARK    2  A    between atoms: C3_3  and  N1_4 
REMARK    3  A    between atoms: C8_9  and  O1_10 
REMARK    4  A    between atoms: O1_10  and  C9_11 
REMARK    5  A    between atoms: C12_15  and  O3_16 
REMARK    6  A    between atoms: C13_18  and  O4_19 
REMARK    7  A    between atoms: C15_22  and  C16_23 
REMARK    8  A    between atoms: C16_23  and  C17_24 
REMARK    9  A    between atoms: C17_24  and  O5_25 
ROOT
HETATM    1  N1  UNL     1      -1.499  -1.327   0.318  1.00  0.00     0.103 N 
HETATM    2  C4  UNL     1      -2.599  -1.063  -0.542  1.00  0.00     0.224 C 
HETATM    3  C5  UNL     1      -2.362  -1.899  -1.748  1.00  0.00     0.038 C 
HETATM    4  C6  UNL     1      -0.977  -2.456  -1.615  1.00  0.00     0.040 C 
HETATM    5  C7  UNL     1      -0.347  -1.728  -0.450  1.00  0.00     0.252 C 
HETATM    6  C8  UNL     1       0.492  -0.612  -0.968  1.00  0.00     0.158 C 
HETATM    7  C14 UNL     1      -0.290   0.551  -1.519  1.00  0.00     0.039 C 
HETATM    8  C15 UNL     1      -1.369   1.074  -0.608  1.00  0.00    -0.008 C 
HETATM    9  C18 UNL     1      -2.696   0.424  -0.801  1.00  0.00     0.040 C 
ENDROOT
BRANCH   6  10
HETATM   10  O1  UNL     1       1.419  -0.097  -0.109  1.00  0.00    -0.351 OA
BRANCH  10  11
HETATM   11  C9  UNL     1       2.730  -0.187  -0.482  1.00  0.00     0.292 C 
HETATM   12  O2  UNL     1       3.438  -0.794   0.554  1.00  0.00    -0.351 OA
HETATM   13  C10 UNL     1       3.665   0.241   1.457  1.00  0.00     0.152 C 
HETATM   14  C11 UNL     1       4.681  -0.090   2.505  1.00  0.00     0.042 C 
HETATM   15  C12 UNL     1       4.308   1.267   0.510  1.00  0.00     0.180 C 
HETATM   16  C13 UNL     1       3.288   1.217  -0.619  1.00  0.00     0.204 C 
BRANCH  15  17
HETATM   17  O3  UNL     1       5.513   0.733   0.056  1.00  0.00    -0.390 OA
ATOM     18  H3  UNL     1       5.910   1.367  -0.529  1.00  0.00     0.210 HD
ENDBRANCH  15  17
BRANCH  16  19
HETATM   19  O4  UNL     1       3.856   1.474  -1.844  1.00  0.00    -0.388 OA
ATOM     20  H4  UNL     1       4.205   2.353  -1.930  1.00  0.00     0.210 HD
ENDBRANCH  16  19
ENDBRANCH  10  11
ENDBRANCH   6  10
BRANCH   1  21
HETATM   21  C3  UNL     1      -1.816  -2.314   1.335  1.00  0.00     0.300 C 
BRANCH  21  22
HETATM   22  C2  UNL     1      -2.788  -1.842   2.320  1.00  0.00    -0.007 C 
HETATM   23  C1  UNL     1      -3.946  -2.465   2.485  1.00  0.00     0.008 C 
ENDBRANCH  21  22
ENDBRANCH   1  21
BRANCH   8  24
HETATM   24  C16 UNL     1      -1.420   2.578  -0.714  1.00  0.00     0.031 C 
BRANCH  24  25
HETATM   25  C17 UNL     1      -2.475   3.159   0.168  1.00  0.00     0.164 C 
BRANCH  25  26
HETATM   26  O5  UNL     1      -2.521   4.553   0.098  1.00  0.00    -0.401 OA
ATOM     27  H5  UNL     1      -3.192   4.923   0.659  1.00  0.00     0.209 HD
ENDBRANCH  25  26
ENDBRANCH  24  25
ENDBRANCH   8  24
TORSDOF 9
