REMARK  5 active torsions:
REMARK  status: ('A' for Active; 'I' for Inactive)
REMARK       I    between atoms: C1_2  and  N1_3 
REMARK    1  A    between atoms: C1_2  and  O3_14 
REMARK    2  A    between atoms: N1_3  and  C2_4 
REMARK    3  A    between atoms: O3_14  and  C11_15 
REMARK    4  A    between atoms: C11_15  and  C12_16 
REMARK    5  A    between atoms: C15_19  and  C16_20 
ROOT
HETATM    1  O3  UNL     1       0.805  -2.135   0.744  1.00  0.00    -0.290 OA
ENDROOT
BRANCH   1   2
HETATM    2  C1  UNL     1       1.514  -1.008   1.254  1.00  0.00     0.440 C 
HETATM    3  O1  UNL     1       0.831  -0.399   2.119  1.00  0.00    -0.221 OA
HETATM    4  N1  UNL     1       2.752  -0.684   0.833  1.00  0.00    -0.346 NA
BRANCH   4   5
HETATM    5  C2  UNL     1       3.991  -0.360   0.413  1.00  0.00     0.116 A 
HETATM    6  C3  UNL     1       4.640  -1.394  -0.330  1.00  0.00     0.045 A 
HETATM    7  C4  UNL     1       5.886  -1.242  -0.867  1.00  0.00     0.013 A 
HETATM    8  C5  UNL     1       6.566  -0.072  -0.705  1.00  0.00    -0.025 A 
HETATM    9  C6  UNL     1       5.998   0.952  -0.004  1.00  0.00     0.078 A 
HETATM   10  C10 UNL     1       7.920   0.168  -1.254  1.00  0.00     0.043 C 
HETATM   11  C7  UNL     1       4.735   0.776   0.529  1.00  0.00     0.082 A 
HETATM   12  O2  UNL     1       6.728   2.122   0.134  1.00  0.00    -0.350 OA
HETATM   13  C8  UNL     1       8.146   2.125   0.211  1.00  0.00     0.176 C 
HETATM   14  C9  UNL     1       8.761   0.823  -0.204  1.00  0.00     0.031 C 
ENDBRANCH   4   5
ENDBRANCH   1   2
BRANCH   1  15
HETATM   15  C11 UNL     1      -0.441  -2.570   1.068  1.00  0.00     0.216 C 
BRANCH  15  16
HETATM   16  C12 UNL     1      -1.643  -1.777   0.747  1.00  0.00     0.184 C 
HETATM   17  C13 UNL     1      -2.020  -1.775  -0.725  1.00  0.00     0.040 C 
HETATM   18  C14 UNL     1      -3.535  -1.500  -0.749  1.00  0.00     0.038 C 
HETATM   19  C15 UNL     1      -3.721  -0.313   0.195  1.00  0.00     0.164 C 
HETATM   20  O4  UNL     1      -2.485   0.233   0.430  1.00  0.00    -0.235 OA
HETATM   21  O5  UNL     1      -1.758  -0.513   1.240  1.00  0.00    -0.233 OA
BRANCH  19  22
HETATM   22  C16 UNL     1      -4.671   0.663  -0.442  1.00  0.00     0.018 C 
HETATM   23  C17 UNL     1      -4.855   1.887   0.430  1.00  0.00     0.007 C 
HETATM   24  C18 UNL     1      -6.139   2.557   0.026  1.00  0.00     0.000 C 
HETATM   25  C19 UNL     1      -7.289   1.777   0.633  1.00  0.00     0.000 C 
HETATM   26  C20 UNL     1      -6.891   0.306   0.677  1.00  0.00     0.000 C 
HETATM   27  C21 UNL     1      -6.016  -0.053  -0.528  1.00  0.00     0.007 C 
ENDBRANCH  19  22
ENDBRANCH  15  16
ENDBRANCH   1  15
TORSDOF 5
