REMARK  12 active torsions:
REMARK  status: ('A' for Active; 'I' for Inactive)
REMARK    1  A    between atoms: C4_4  and  O1_5 
REMARK    2  A    between atoms: O1_5  and  C5_6 
REMARK    3  A    between atoms: C7_8  and  N1_9 
REMARK    4  A    between atoms: C8_13  and  O2_14 
REMARK    5  A    between atoms: C9_16  and  C10_17 
REMARK    6  A    between atoms: C10_17  and  O3_18 
REMARK    7  A    between atoms: C11_21  and  O5_22 
REMARK    8  A    between atoms: O5_22  and  C12_23 
REMARK    9  A    between atoms: C15_27  and  O7_28 
REMARK   10  A    between atoms: C16_30  and  N2_31 
REMARK   11  A    between atoms: N2_31  and  C17_33 
REMARK   12  A    between atoms: C18_35  and  O9_36 
ROOT
HETATM    1  C1  UNL     1       2.943   2.538  -1.864  1.00  0.00     0.010 C 
HETATM    2  C2  UNL     1       1.674   3.347  -1.773  1.00  0.00    -0.012 C 
HETATM    3  C3  UNL     1       1.072   3.333  -0.400  1.00  0.00     0.039 C 
HETATM    4  C4  UNL     1       0.347   2.073  -0.046  1.00  0.00     0.154 C 
HETATM    5  C11 UNL     1      -0.439   1.451  -1.169  1.00  0.00     0.154 C 
HETATM    6  C19 UNL     1      -0.626   2.541  -2.237  1.00  0.00     0.039 C 
HETATM    7  C20 UNL     1       0.723   2.819  -2.822  1.00  0.00    -0.012 C 
HETATM    8  C21 UNL     1       0.512   3.826  -3.949  1.00  0.00     0.010 C 
ENDROOT
BRANCH   4   9
HETATM    9  O1  UNL     1       1.311   1.143   0.439  1.00  0.00    -0.353 OA
BRANCH   9  10
HETATM   10  C5  UNL     1       1.099   0.746   1.725  1.00  0.00     0.263 C 
HETATM   11  C6  UNL     1       2.148   1.276   2.695  1.00  0.00     0.096 C 
HETATM   12  C7  UNL     1       3.491   0.653   2.544  1.00  0.00     0.219 C 
HETATM   13  C8  UNL     1       3.345  -0.849   2.573  1.00  0.00     0.179 C 
HETATM   14  C9  UNL     1       2.223  -1.303   1.699  1.00  0.00     0.178 C 
HETATM   15  O4  UNL     1       1.049  -0.614   1.892  1.00  0.00    -0.351 OA
BRANCH  12  16
HETATM   16  N1  UNL     1       4.291   1.101   3.684  1.00  0.00    -0.072 N 
ATOM     17  H13 UNL     1       4.326   2.116   3.778  1.00  0.00     0.274 HD
ATOM     18  H12 UNL     1       3.855   0.904   4.585  1.00  0.00     0.274 HD
ATOM     19  H11 UNL     1       5.212   0.674   3.581  1.00  0.00     0.274 HD
ENDBRANCH  12  16
BRANCH  13  20
HETATM   20  O2  UNL     1       3.176  -1.213   3.905  1.00  0.00    -0.391 OA
ATOM     21  H2  UNL     1       3.084  -2.158   3.923  1.00  0.00     0.210 HD
ENDBRANCH  13  20
BRANCH  14  22
HETATM   22  C10 UNL     1       1.972  -2.767   1.870  1.00  0.00     0.198 C 
BRANCH  22  23
HETATM   23  O3  UNL     1       3.100  -3.549   1.690  1.00  0.00    -0.398 OA
ATOM     24  H3  UNL     1       2.941  -4.479   1.799  1.00  0.00     0.209 HD
ENDBRANCH  22  23
ENDBRANCH  14  22
ENDBRANCH   9  10
ENDBRANCH   4   9
BRANCH   5  25
HETATM   25  O5  UNL     1      -1.554   0.828  -0.877  1.00  0.00    -0.351 OA
BRANCH  25  26
HETATM   26  C12 UNL     1      -1.877  -0.450  -0.952  1.00  0.00     0.291 C 
HETATM   27  O6  UNL     1      -2.826  -0.512  -1.990  1.00  0.00    -0.351 OA
HETATM   28  C13 UNL     1      -3.500  -1.662  -2.161  1.00  0.00     0.151 C 
HETATM   29  C14 UNL     1      -5.014  -1.527  -2.148  1.00  0.00     0.042 C 
HETATM   30  C15 UNL     1      -3.136  -2.785  -1.257  1.00  0.00     0.172 C 
HETATM   31  C16 UNL     1      -3.201  -2.285   0.177  1.00  0.00     0.148 C 
HETATM   32  C18 UNL     1      -2.415  -1.027   0.339  1.00  0.00     0.198 C 
BRANCH  30  33
HETATM   33  O7  UNL     1      -4.081  -3.808  -1.401  1.00  0.00    -0.391 OA
ATOM     34  H7  UNL     1      -3.848  -4.526  -0.823  1.00  0.00     0.210 HD
ENDBRANCH  30  33
BRANCH  31  35
HETATM   35  N2  UNL     1      -2.638  -3.399   0.950  1.00  0.00    -0.358 N 
ATOM     36  H2  UNL     1      -1.694  -3.735   0.758  1.00  0.00     0.162 HD
BRANCH  35  37
HETATM   37  C17 UNL     1      -3.416  -3.999   1.959  1.00  0.00     0.349 C 
HETATM   38  O8  UNL     1      -4.588  -3.596   2.224  1.00  0.00    -0.284 OA
ENDBRANCH  35  37
ENDBRANCH  31  35
BRANCH  32  39
HETATM   39  O9  UNL     1      -2.998  -0.054   1.102  1.00  0.00    -0.388 OA
ATOM     40  H9  UNL     1      -3.336  -0.416   1.913  1.00  0.00     0.210 HD
ENDBRANCH  32  39
ENDBRANCH  25  26
ENDBRANCH   5  25
TORSDOF 12
