REMARK  13 active torsions:
REMARK  status: ('A' for Active; 'I' for Inactive)
REMARK    1  A    between atoms: O1_2  and  C2_3 
REMARK    2  A    between atoms: C5_6  and  C6_7 
REMARK    3  A    between atoms: C7_8  and  C8_9 
REMARK    4  A    between atoms: C8_9  and  O2_10 
REMARK    5  A    between atoms: O2_10  and  C9_11 
REMARK    6  A    between atoms: C13_15  and  N1_16 
REMARK    7  A    between atoms: C15_22  and  O4_23 
REMARK    8  A    between atoms: O4_23  and  C16_24 
REMARK    9  A    between atoms: C17_26  and  C18_27 
REMARK   10  A    between atoms: C18_27  and  N2_28 
REMARK   11  A    between atoms: C19_32  and  O6_33 
REMARK   12  A    between atoms: C20_35  and  N3_36 
REMARK   13  A    between atoms: C21_40  and  O7_41 
ROOT
HETATM    1  C6  UNL     1      -0.061   0.387  -0.574  1.00  0.00     0.081 C 
HETATM    2  C7  UNL     1      -0.944  -0.808  -0.380  1.00  0.00     0.156 C 
HETATM    3  O3  UNL     1      -0.357  -1.585   0.621  1.00  0.00    -0.380 OA
HETATM    4  C14 UNL     1       0.228  -0.677   1.500  1.00  0.00     0.201 C 
HETATM    5  C15 UNL     1       0.887   0.304   0.567  1.00  0.00     0.159 C 
ENDROOT
BRANCH   5   6
HETATM    6  O4  UNL     1       2.107  -0.278   0.180  1.00  0.00    -0.350 OA
BRANCH   6   7
HETATM    7  C16 UNL     1       3.197   0.506   0.512  1.00  0.00     0.291 C 
HETATM    8  O5  UNL     1       4.008  -0.090   1.475  1.00  0.00    -0.349 OA
HETATM    9  C17 UNL     1       4.536  -1.301   1.074  1.00  0.00     0.181 C 
HETATM   10  C19 UNL     1       4.872  -1.248  -0.363  1.00  0.00     0.182 C 
HETATM   11  C20 UNL     1       5.250   0.147  -0.824  1.00  0.00     0.247 C 
HETATM   12  C21 UNL     1       3.987   0.997  -0.667  1.00  0.00     0.206 C 
BRANCH   9  13
HETATM   13  C18 UNL     1       5.669  -1.650   1.989  1.00  0.00     0.264 C 
BRANCH  13  14
HETATM   14  N2  UNL     1       6.316  -2.886   1.693  1.00  0.00    -0.077 N 
ATOM     15  H23 UNL     1       5.635  -3.645   1.668  1.00  0.00     0.274 HD
ATOM     16  H22 UNL     1       6.629  -2.898   0.722  1.00  0.00     0.274 HD
ATOM     17  H21 UNL     1       7.088  -3.124   2.316  1.00  0.00     0.274 HD
ENDBRANCH  13  14
ENDBRANCH   9  13
BRANCH  10  18
HETATM   18  O6  UNL     1       5.803  -2.195  -0.778  1.00  0.00    -0.391 OA
ATOM     19  H6  UNL     1       6.019  -2.161  -1.702  1.00  0.00     0.210 HD
ENDBRANCH  10  18
BRANCH  11  20
HETATM   20  N3  UNL     1       6.364   0.695  -0.114  1.00  0.00    -0.070 N 
ATOM     21  H33 UNL     1       6.196   0.679   0.892  1.00  0.00     0.274 HD
ATOM     22  H32 UNL     1       7.167   0.068  -0.161  1.00  0.00     0.274 HD
ATOM     23  H31 UNL     1       6.618   1.633  -0.424  1.00  0.00     0.274 HD
ENDBRANCH  11  20
BRANCH  12  24
HETATM   24  O7  UNL     1       3.313   0.937  -1.868  1.00  0.00    -0.388 OA
ATOM     25  H7  UNL     1       3.813   1.248  -2.614  1.00  0.00     0.210 HD
ENDBRANCH  12  24
ENDBRANCH   6   7
ENDBRANCH   5   6
BRANCH   1  26
HETATM   26  C5  UNL     1      -0.723   1.664  -0.753  1.00  0.00    -0.049 A 
HETATM   27  C4  UNL     1      -1.273   2.355   0.300  1.00  0.00     0.010 A 
HETATM   28  C3  UNL     1      -1.918   3.584   0.104  1.00  0.00     0.037 A 
HETATM   29  C2  UNL     1      -2.008   4.121  -1.167  1.00  0.00     0.068 A 
HETATM   30  C23 UNL     1      -1.461   3.440  -2.239  1.00  0.00     0.037 A 
HETATM   31  C22 UNL     1      -0.836   2.236  -2.001  1.00  0.00     0.010 A 
BRANCH  29  32
HETATM   32  O1  UNL     1      -2.652   5.346  -1.359  1.00  0.00    -0.356 OA
HETATM   33  C1  UNL     1      -2.785   5.953  -2.609  1.00  0.00     0.210 C 
ENDBRANCH  29  32
ENDBRANCH   1  26
BRANCH   2  34
HETATM   34  C8  UNL     1      -2.355  -0.539  -0.014  1.00  0.00     0.200 C 
BRANCH  34  35
HETATM   35  O2  UNL     1      -2.982  -1.809   0.076  1.00  0.00    -0.381 OA
BRANCH  35  36
HETATM   36  C9  UNL     1      -4.308  -1.692   0.412  1.00  0.00     0.151 C 
HETATM   37  C10 UNL     1      -5.129  -2.314  -0.703  1.00  0.00     0.034 C 
HETATM   38  C11 UNL     1      -6.425  -2.637   0.018  1.00  0.00     0.005 C 
HETATM   39  C12 UNL     1      -5.916  -3.269   1.293  1.00  0.00     0.035 C 
HETATM   40  C13 UNL     1      -4.666  -2.494   1.652  1.00  0.00     0.212 C 
BRANCH  40  41
HETATM   41  N1  UNL     1      -4.973  -1.603   2.753  1.00  0.00    -0.073 N 
ATOM     42  H13 UNL     1      -4.216  -0.943   2.931  1.00  0.00     0.274 HD
ATOM     43  H12 UNL     1      -5.702  -0.933   2.509  1.00  0.00     0.274 HD
ATOM     44  H11 UNL     1      -5.213  -2.141   3.585  1.00  0.00     0.274 HD
ENDBRANCH  40  41
ENDBRANCH  35  36
ENDBRANCH  34  35
ENDBRANCH   2  34
TORSDOF 13
