REMARK  20 active torsions:
REMARK  status: ('A' for Active; 'I' for Inactive)
REMARK    1  A    between atoms: N1_2  and  C2_5 
REMARK    2  A    between atoms: C3_6  and  O1_7 
REMARK    3  A    between atoms: C4_9  and  C5_10 
REMARK    4  A    between atoms: C5_10  and  O2_11 
REMARK    5  A    between atoms: C6_14  and  O4_15 
REMARK    6  A    between atoms: O4_15  and  C7_16 
REMARK    7  A    between atoms: C8_17  and  N2_18 
REMARK    8  A    between atoms: C10_23  and  N3_24 
REMARK    9  A    between atoms: C11_28  and  O5_29 
REMARK   10  A    between atoms: O5_29  and  C12_30 
REMARK   11  A    between atoms: C13_31  and  N4_32 
REMARK   12  A    between atoms: C15_37  and  N5_38 
REMARK   13  A    between atoms: C16_42  and  N6_43 
REMARK   14  A    between atoms: C17_47  and  N7_48 
REMARK   15  A    between atoms: C18_52  and  O6_53 
REMARK   16  A    between atoms: O6_53  and  C19_54 
REMARK   17  A    between atoms: C19_54  and  C20_55 
REMARK   18  A    between atoms: C20_55  and  C21_56 
REMARK   19  A    between atoms: C21_56  and  C22_57 
REMARK   20  A    between atoms: C22_57  and  N8_58 
ROOT
HETATM    1  C7  UNL     1      -0.555  -0.867  -0.941  1.00  0.00     0.186 C 
HETATM    2  C8  UNL     1      -1.471  -1.280  -2.126  1.00  0.00     0.217 C 
HETATM    3  C9  UNL     1      -1.599  -0.017  -2.957  1.00  0.00     0.071 C 
HETATM    4  C10 UNL     1      -0.792   1.036  -2.184  1.00  0.00     0.217 C 
HETATM    5  C11 UNL     1      -1.089   0.531  -0.760  1.00  0.00     0.183 C 
ENDROOT
BRANCH   1   6
HETATM    6  O4  UNL     1       0.713  -0.902  -1.519  1.00  0.00    -0.349 OA
BRANCH   6   7
HETATM    7  C6  UNL     1       1.552  -1.817  -0.946  1.00  0.00     0.292 C 
HETATM    8  O3  UNL     1       1.625  -2.895  -1.840  1.00  0.00    -0.349 OA
HETATM    9  C4  UNL     1       2.309  -3.962  -1.359  1.00  0.00     0.179 C 
HETATM   10  C3  UNL     1       3.730  -3.625  -1.124  1.00  0.00     0.182 C 
HETATM   11  C2  UNL     1       4.021  -2.217  -0.814  1.00  0.00     0.250 C 
HETATM   12  C18 UNL     1       2.852  -1.295  -0.535  1.00  0.00     0.209 C 
BRANCH   9  13
HETATM   13  C5  UNL     1       1.637  -4.667  -0.209  1.00  0.00     0.198 C 
BRANCH  13  14
HETATM   14  O2  UNL     1       2.384  -5.768   0.232  1.00  0.00    -0.398 OA
ATOM     15  H2  UNL     1       1.960  -6.212   0.957  1.00  0.00     0.209 HD
ENDBRANCH  13  14
ENDBRANCH   9  13
BRANCH  10  16
HETATM   16  O1  UNL     1       4.335  -4.514  -0.203  1.00  0.00    -0.391 OA
ATOM     17  H1  UNL     1       4.147  -5.423  -0.403  1.00  0.00     0.210 HD
ENDBRANCH  10  16
BRANCH  11  18
HETATM   18  N1  UNL     1       4.971  -2.220   0.316  1.00  0.00    -0.070 N 
HETATM   19  C1  UNL     1       6.222  -2.842  -0.039  1.00  0.00     0.267 C 
ATOM     20  H12 UNL     1       4.562  -2.654   1.144  1.00  0.00     0.277 HD
ATOM     21  H11 UNL     1       5.115  -1.279   0.683  1.00  0.00     0.277 HD
ENDBRANCH  11  18
BRANCH  12  22
HETATM   22  O6  UNL     1       3.147  -0.098  -1.188  1.00  0.00    -0.379 OA
BRANCH  22  23
HETATM   23  C19 UNL     1       3.514   0.947  -0.391  1.00  0.00     0.168 C 
BRANCH  23  24
HETATM   24  C20 UNL     1       2.523   1.411   0.621  1.00  0.00     0.028 C 
BRANCH  24  25
HETATM   25  C21 UNL     1       3.103   2.542   1.449  1.00  0.00     0.029 C 
BRANCH  25  26
HETATM   26  C22 UNL     1       3.462   3.710   0.572  1.00  0.00     0.230 C 
BRANCH  26  27
HETATM   27  N8  UNL     1       3.999   4.778   1.416  1.00  0.00    -0.079 N 
ATOM     28  H83 UNL     1       3.364   5.036   2.171  1.00  0.00     0.274 HD
ATOM     29  H82 UNL     1       4.781   4.466   1.991  1.00  0.00     0.274 HD
ATOM     30  H81 UNL     1       4.242   5.570   0.821  1.00  0.00     0.274 HD
ENDBRANCH  26  27
ENDBRANCH  25  26
ENDBRANCH  24  25
ENDBRANCH  23  24
ENDBRANCH  22  23
ENDBRANCH  12  22
ENDBRANCH   6   7
ENDBRANCH   1   6
BRANCH   2  31
HETATM   31  N2  UNL     1      -2.722  -1.806  -1.673  1.00  0.00    -0.072 N 
ATOM     32  H23 UNL     1      -2.586  -2.579  -1.022  1.00  0.00     0.274 HD
ATOM     33  H22 UNL     1      -3.195  -1.153  -1.048  1.00  0.00     0.274 HD
ATOM     34  H21 UNL     1      -3.323  -2.077  -2.451  1.00  0.00     0.274 HD
ENDBRANCH   2  31
BRANCH   5  35
HETATM   35  O5  UNL     1      -2.470   0.409  -0.580  1.00  0.00    -0.372 OA
BRANCH  35  36
HETATM   36  C12 UNL     1      -2.952   1.077   0.535  1.00  0.00     0.185 C 
HETATM   37  C13 UNL     1      -3.654   0.107   1.462  1.00  0.00     0.216 C 
HETATM   38  C14 UNL     1      -4.348   0.769   2.606  1.00  0.00     0.070 C 
HETATM   39  C15 UNL     1      -5.180   1.953   2.246  1.00  0.00     0.218 C 
HETATM   40  C16 UNL     1      -4.500   2.833   1.219  1.00  0.00     0.246 C 
HETATM   41  C17 UNL     1      -4.045   2.037   0.041  1.00  0.00     0.246 C 
BRANCH  37  42
HETATM   42  N4  UNL     1      -2.756  -0.890   2.012  1.00  0.00    -0.072 N 
ATOM     43  H43 UNL     1      -2.261  -1.385   1.271  1.00  0.00     0.274 HD
ATOM     44  H42 UNL     1      -1.961  -0.450   2.476  1.00  0.00     0.274 HD
ATOM     45  H41 UNL     1      -3.229  -1.543   2.636  1.00  0.00     0.274 HD
ENDBRANCH  37  42
BRANCH  39  46
HETATM   46  N5  UNL     1      -5.361   2.766   3.447  1.00  0.00    -0.073 N 
ATOM     47  H53 UNL     1      -5.749   2.235   4.227  1.00  0.00     0.274 HD
ATOM     48  H52 UNL     1      -4.476   3.025   3.884  1.00  0.00     0.274 HD
ATOM     49  H51 UNL     1      -5.930   3.576   3.201  1.00  0.00     0.274 HD
ENDBRANCH  39  46
BRANCH  40  50
HETATM   50  N6  UNL     1      -5.341   3.944   0.884  1.00  0.00    -0.071 N 
ATOM     51  H63 UNL     1      -6.265   3.643   0.575  1.00  0.00     0.274 HD
ATOM     52  H62 UNL     1      -5.623   4.471   1.710  1.00  0.00     0.274 HD
ATOM     53  H61 UNL     1      -4.883   4.537   0.192  1.00  0.00     0.274 HD
ENDBRANCH  40  50
BRANCH  41  54
HETATM   54  N7  UNL     1      -5.104   1.283  -0.576  1.00  0.00    -0.070 N 
ATOM     55  H73 UNL     1      -4.761   0.674  -1.319  1.00  0.00     0.274 HD
ATOM     56  H72 UNL     1      -5.475   0.562   0.043  1.00  0.00     0.274 HD
ATOM     57  H71 UNL     1      -5.830   1.920  -0.904  1.00  0.00     0.274 HD
ENDBRANCH  41  54
ENDBRANCH  35  36
ENDBRANCH   5  35
BRANCH   4  58
HETATM   58  N3  UNL     1      -1.190   2.363  -2.429  1.00  0.00    -0.072 N 
ATOM     59  H33 UNL     1      -1.171   2.562  -3.429  1.00  0.00     0.274 HD
ATOM     60  H32 UNL     1      -2.188   2.475  -2.249  1.00  0.00     0.274 HD
ATOM     61  H31 UNL     1      -0.654   3.063  -1.915  1.00  0.00     0.274 HD
ENDBRANCH   4  58
TORSDOF 20
