REMARK  11 active torsions:
REMARK  status: ('A' for Active; 'I' for Inactive)
REMARK    1  A    between atoms: C5_5  and  C6_6 
REMARK    2  A    between atoms: C6_6  and  N1_7 
REMARK    3  A    between atoms: N1_7  and  C7_10 
REMARK    4  A    between atoms: C7_10  and  C8_11 
REMARK    5  A    between atoms: C8_11  and  C9_12 
REMARK    6  A    between atoms: C9_12  and  C10_13 
REMARK    7  A    between atoms: C10_13  and  C11_14 
REMARK    8  A    between atoms: C11_14  and  C12_15 
REMARK    9  A    between atoms: C12_15  and  N2_16 
REMARK   10  A    between atoms: N2_16  and  C13_18 
REMARK   11  A    between atoms: C13_18  and  C14_19 
ROOT
HETATM    1  C8  UNL     1       1.531  -1.334   0.220  1.00  0.00     0.027 C 
ENDROOT
BRANCH   1   2
HETATM    2  C7  UNL     1       2.914  -1.749  -0.290  1.00  0.00     0.232 C 
BRANCH   2   3
HETATM    3  N1  UNL     1       3.803  -0.670   0.076  1.00  0.00    -0.071 N 
ATOM      4  H12 UNL     1       3.763  -0.501   1.081  1.00  0.00     0.277 HD
ATOM      5  H11 UNL     1       3.441   0.221  -0.265  1.00  0.00     0.277 HD
BRANCH   3   6
HETATM    6  C6  UNL     1       5.161  -0.853  -0.347  1.00  0.00     0.273 C 
BRANCH   6   7
HETATM    7  C5  UNL     1       5.940   0.338   0.105  1.00  0.00    -0.005 A 
HETATM    8  C4  UNL     1       7.287   0.503  -0.140  1.00  0.00    -0.000 A 
HETATM    9  C3  UNL     1       8.276  -0.212  -0.778  1.00  0.00     0.014 A 
HETATM   10  C22 UNL     1       7.625   1.725   0.443  1.00  0.00     0.043 A 
HETATM   11  C2  UNL     1       9.575   0.253  -0.851  1.00  0.00     0.001 A 
HETATM   12  C1  UNL     1       9.909   1.461  -0.276  1.00  0.00     0.002 A 
HETATM   13  C23 UNL     1       8.920   2.184   0.368  1.00  0.00     0.030 A 
HETATM   14  N3  UNL     1       6.514   2.249   1.005  1.00  0.00    -0.365 N 
HETATM   15  C21 UNL     1       5.472   1.430   0.817  1.00  0.00     0.098 A 
ATOM     16  H3  UNL     1       6.475   3.140   1.501  1.00  0.00     0.165 HD
ENDBRANCH   6   7
ENDBRANCH   3   6
ENDBRANCH   2   3
ENDBRANCH   1   2
BRANCH   1  17
HETATM   17  C9  UNL     1       0.489  -2.387  -0.100  1.00  0.00     0.002 C 
BRANCH  17  18
HETATM   18  C10 UNL     1      -0.873  -1.977   0.394  1.00  0.00     0.002 C 
BRANCH  18  19
HETATM   19  C11 UNL     1      -1.309  -0.676  -0.257  1.00  0.00     0.020 C 
BRANCH  19  20
HETATM   20  C12 UNL     1      -2.704  -0.254   0.252  1.00  0.00     0.119 C 
BRANCH  20  21
HETATM   21  N2  UNL     1      -3.594  -1.275  -0.083  1.00  0.00    -0.400 N 
ATOM     22  H2  UNL     1      -3.238  -2.070  -0.614  1.00  0.00     0.158 HD
BRANCH  21  23
HETATM   23  C13 UNL     1      -4.935  -1.268   0.267  1.00  0.00     0.087 C 
BRANCH  23  24
HETATM   24  C14 UNL     1      -5.882  -0.297  -0.338  1.00  0.00     0.169 C 
HETATM   25  C15 UNL     1      -5.548   1.132  -0.035  1.00  0.00     0.043 C 
HETATM   26  C16 UNL     1      -6.689   2.025   0.290  1.00  0.00     0.046 C 
HETATM   27  C17 UNL     1      -8.026   1.516  -0.013  1.00  0.00     0.002 A 
HETATM   28  C18 UNL     1      -9.234   2.102  -0.308  1.00  0.00     0.036 A 
HETATM   29  C20 UNL     1      -8.261   0.156  -0.033  1.00  0.00     0.192 A 
HETATM   30  C19 UNL     1     -10.131   1.070  -0.489  1.00  0.00     0.145 A 
HETATM   31  O1  UNL     1      -9.515  -0.092  -0.317  1.00  0.00    -0.300 OA
HETATM   32  O2  UNL     1      -7.169  -0.638   0.239  1.00  0.00    -0.319 OA
ENDBRANCH  23  24
ENDBRANCH  21  23
ENDBRANCH  20  21
ENDBRANCH  19  20
ENDBRANCH  18  19
ENDBRANCH  17  18
ENDBRANCH   1  17
TORSDOF 11
