REMARK  11 active torsions:
REMARK  status: ('A' for Active; 'I' for Inactive)
REMARK    1  A    between atoms: C2_2  and  N1_3 
REMARK    2  A    between atoms: C2_2  and  C12_26 
REMARK       I    between atoms: N1_3  and  C3_5 
REMARK    3  A    between atoms: C3_5  and  C4_7 
REMARK    4  A    between atoms: C4_7  and  N2_8 
REMARK    5  A    between atoms: C4_7  and  C11_23 
REMARK       I    between atoms: N2_8  and  C5_10 
REMARK    6  A    between atoms: C5_10  and  C6_12 
REMARK    7  A    between atoms: C6_12  and  C7_13 
REMARK    8  A    between atoms: C6_12  and  C9_19 
REMARK    9  A    between atoms: C7_13  and  N3_14 
REMARK       I    between atoms: N3_14  and  C8_16 
REMARK   10  A    between atoms: C9_19  and  C10_20 
REMARK   11  A    between atoms: C17_31  and  C18_32 
ROOT
HETATM    1  C4  UNL     1       0.788   0.668   0.766  1.00  0.00     0.266 C 
ENDROOT
BRANCH   1   2
HETATM    2  C3  UNL     1      -0.193   0.846  -0.323  1.00  0.00     0.249 C 
HETATM    3  N1  UNL     1      -1.522   1.336  -0.147  1.00  0.00    -0.354 N 
ATOM      4  H1  UNL     1      -1.828   1.587   0.793  1.00  0.00     0.162 HD
HETATM    5  O1  UNL     1       0.210   0.528  -1.498  1.00  0.00    -0.271 OA
BRANCH   3   6
HETATM    6  C2  UNL     1      -2.449   1.491  -1.237  1.00  0.00     0.085 C 
HETATM    7  C1  UNL     1      -2.794   2.949  -1.500  1.00  0.00     0.032 C 
BRANCH   6   8
HETATM    8  C12 UNL     1      -3.725   0.682  -1.074  1.00  0.00     0.017 C 
HETATM    9  C13 UNL     1      -4.477   1.240   0.068  1.00  0.00     0.007 C 
HETATM   10  C14 UNL     1      -5.421   0.334   0.772  1.00  0.00     0.000 C 
HETATM   11  C15 UNL     1      -4.840  -1.056   0.991  1.00  0.00     0.001 C 
HETATM   12  C16 UNL     1      -4.521  -1.588  -0.362  1.00  0.00     0.010 C 
HETATM   13  C17 UNL     1      -3.441  -0.779  -1.062  1.00  0.00     0.057 C 
BRANCH  13  14
HETATM   14  C18 UNL     1      -3.403  -1.390  -2.471  1.00  0.00     0.357 C 
HETATM   15  F3  UNL     1      -4.610  -1.202  -3.073  1.00  0.00    -0.214 F 
HETATM   16  F4  UNL     1      -2.321  -1.045  -3.200  1.00  0.00    -0.214 F 
ENDBRANCH  13  14
ENDBRANCH   6   8
ENDBRANCH   3   6
ENDBRANCH   1   2
BRANCH   1  17
HETATM   17  N2  UNL     1       2.052   0.191   0.211  1.00  0.00    -0.340 N 
HETATM   18  C5  UNL     1       3.262   0.880   0.361  1.00  0.00     0.224 C 
HETATM   19  O2  UNL     1       3.320   1.950   0.985  1.00  0.00    -0.273 OA
ATOM     20  H2  UNL     1       2.054  -0.686  -0.311  1.00  0.00     0.163 HD
BRANCH  18  21
HETATM   21  C6  UNL     1       4.554   0.351  -0.233  1.00  0.00     0.101 C 
BRANCH  21  22
HETATM   22  C7  UNL     1       4.780  -1.017   0.334  1.00  0.00     0.138 C 
BRANCH  22  23
HETATM   23  N3  UNL     1       4.854  -0.964   1.802  1.00  0.00    -0.344 N 
HETATM   24  C8  UNL     1       5.061  -2.111   2.597  1.00  0.00     0.328 C 
HETATM   25  N4  UNL     1       5.120  -1.979   3.997  1.00  0.00    -0.040 NA
HETATM   26  O3  UNL     1       5.195  -3.254   2.084  1.00  0.00    -0.251 OA
ATOM     27  H3  UNL     1       4.751  -0.061   2.264  1.00  0.00     0.163 HD
ENDBRANCH  22  23
ENDBRANCH  21  22
BRANCH  21  28
HETATM   28  C9  UNL     1       4.484   0.443  -1.712  1.00  0.00     0.086 C 
BRANCH  28  29
HETATM   29  C10 UNL     1       5.694  -0.038  -2.412  1.00  0.00     0.354 C 
HETATM   30  F1  UNL     1       6.047  -1.337  -2.250  1.00  0.00    -0.214 F 
HETATM   31  F2  UNL     1       5.531   0.143  -3.802  1.00  0.00    -0.214 F 
ENDBRANCH  28  29
ENDBRANCH  21  28
ENDBRANCH  18  21
ENDBRANCH   1  17
BRANCH   1  32
HETATM   32  C11 UNL     1       0.328  -0.240   1.847  1.00  0.00     0.263 C 
HETATM   33  N5  UNL     1      -0.863   0.003   2.567  1.00  0.00    -0.060 NA
HETATM   34  O4  UNL     1       1.025  -1.241   2.117  1.00  0.00    -0.274 OA
ENDBRANCH   1  32
TORSDOF 11
