REMARK  5 active torsions:
REMARK  status: ('A' for Active; 'I' for Inactive)
REMARK    1  A    between atoms: N2_4  and  N3_6 
REMARK    2  A    between atoms: C1_8  and  C2_9 
REMARK    3  A    between atoms: C3_13  and  C4_14 
REMARK    4  A    between atoms: C4_14  and  N5_15 
REMARK    5  A    between atoms: N5_15  and  C5_17 
ROOT
HETATM    1  C2  UNL     1       0.812   0.104  -0.498  1.00  0.00     0.258 A 
HETATM    2  N4  UNL     1      -0.148  -0.963  -0.834  1.00  0.00    -0.056 N 
ATOM      3  H41 UNL     1      -0.121  -1.983  -0.822  1.00  0.00     0.278 HD
ATOM      4  H42 UNL     1      -0.553  -1.318  -1.701  1.00  0.00     0.278 HD
HETATM    5  C3  UNL     1      -0.529   0.077   0.140  1.00  0.00     0.240 A 
ENDROOT
BRANCH   1   6
HETATM    6  C1  UNL     1       2.017  -0.350   0.195  1.00  0.00     0.116 C 
HETATM    7  N3  UNL     1       3.113   0.341   0.256  1.00  0.00    -0.300 N 
ATOM      8  H3  UNL     1       3.141   1.252  -0.202  1.00  0.00     0.187 HD
BRANCH   7   9
HETATM    9  N2  UNL     1       4.249  -0.104   0.917  1.00  0.00    -0.250 N 
HETATM   10  N1  UNL     1       5.142   0.727   1.253  1.00  0.00    -0.331 N 
ATOM     11  H12 UNL     1       5.012   1.714   1.032  1.00  0.00     0.178 HD
ATOM     12  H11 UNL     1       5.977   0.400   1.739  1.00  0.00     0.178 HD
ATOM     13  H2  UNL     1       4.363  -1.095   1.131  1.00  0.00     0.207 HD
ENDBRANCH   7   9
ENDBRANCH   1   6
BRANCH   5  14
HETATM   14  C4  UNL     1      -1.602   1.002  -0.323  1.00  0.00     0.157 C 
BRANCH  14  15
HETATM   15  N5  UNL     1      -2.794   0.785   0.463  1.00  0.00    -0.366 N 
ATOM     16  H5  UNL     1      -3.172   1.553   1.018  1.00  0.00     0.161 HD
BRANCH  15  17
HETATM   17  C5  UNL     1      -3.445  -0.459   0.481  1.00  0.00     0.348 C 
HETATM   18  O1  UNL     1      -3.007  -1.409  -0.186  1.00  0.00    -0.284 OA
ENDBRANCH  15  17
ENDBRANCH  14  15
ENDBRANCH   5  14
TORSDOF 5
