REMARK  9 active torsions:
REMARK  status: ('A' for Active; 'I' for Inactive)
REMARK    1  A    between atoms: C2_2  and  C3_3 
REMARK    2  A    between atoms: C2_2  and  C6_6 
REMARK    3  A    between atoms: C3_3  and  C4_4 
REMARK    4  A    between atoms: C6_6  and  C7_8 
REMARK    5  A    between atoms: C17_23  and  O6_25 
REMARK    6  A    between atoms: C22_30  and  C23_31 
REMARK    7  A    between atoms: C23_31  and  C25_34 
REMARK    8  A    between atoms: C25_34  and  O7_35 
REMARK    9  A    between atoms: C26_37  and  O8_38 
ROOT
HETATM    1  C7  UNL     1       0.825   0.617  -0.778  1.00  0.00     0.071 C 
HETATM    2  C8  UNL     1       0.377  -0.750  -0.685  1.00  0.00     0.166 C 
HETATM    3  O2  UNL     1      -0.739  -0.964  -1.230  1.00  0.00    -0.292 OA
HETATM    4  C9  UNL     1       0.917  -1.977  -0.099  1.00  0.00     0.059 C 
HETATM    5  C10 UNL     1       1.475  -2.985  -1.076  1.00  0.00     0.018 C 
HETATM    6  C11 UNL     1       0.014  -2.598   0.907  1.00  0.00     0.055 C 
HETATM    7  C12 UNL     1      -1.271  -3.184   0.470  1.00  0.00     0.111 A 
HETATM    8  C13 UNL     1      -1.355  -4.141  -0.699  1.00  0.00     0.051 C 
HETATM    9  O3  UNL     1      -1.733  -4.047   1.633  1.00  0.00    -0.342 OA
HETATM   10  C14 UNL     1      -2.441  -2.919   1.211  1.00  0.00     0.301 A 
HETATM   11  O4  UNL     1      -2.482  -1.948   2.168  1.00  0.00    -0.296 OA
HETATM   12  C15 UNL     1      -3.573  -1.101   1.950  1.00  0.00     0.320 C 
HETATM   13  C16 UNL     1      -4.808  -1.937   1.852  1.00  0.00     0.121 C 
HETATM   14  F1  UNL     1      -3.638  -0.298   3.106  1.00  0.00    -0.181 F 
HETATM   15  O5  UNL     1      -3.210  -0.380   0.876  1.00  0.00    -0.289 OA
HETATM   16  C17 UNL     1      -3.979   0.476   0.238  1.00  0.00     0.183 C 
HETATM   17  C18 UNL     1      -4.230  -0.080  -1.180  1.00  0.00     0.084 C 
HETATM   18  C19 UNL     1      -3.617   1.904   0.189  1.00  0.00     0.040 C 
HETATM   19  C20 UNL     1      -2.650   2.593   0.712  1.00  0.00     0.002 C 
HETATM   20  C21 UNL     1      -1.505   2.364   1.545  1.00  0.00     0.008 C 
HETATM   21  C22 UNL     1      -0.228   1.954   1.262  1.00  0.00    -0.022 C 
HETATM   22  C26 UNL     1       0.180   1.737  -0.131  1.00  0.00     0.190 C 
ENDROOT
BRANCH   1  23
HETATM   23  C6  UNL     1       2.300   0.803  -1.101  1.00  0.00     0.190 C 
HETATM   24  O1  UNL     1       3.097   1.327  -0.271  1.00  0.00    -0.287 OA
BRANCH  23  25
HETATM   25  C2  UNL     1       2.927   0.411  -2.349  1.00  0.00    -0.017 C 
HETATM   26  C1  UNL     1       2.222  -0.138  -3.312  1.00  0.00     0.023 C 
BRANCH  25  27
HETATM   27  C3  UNL     1       4.387   0.586  -2.599  1.00  0.00     0.041 C 
BRANCH  27  28
HETATM   28  C4  UNL     1       4.743   2.036  -2.708  1.00  0.00     0.000 C 
HETATM   29  C5  UNL     1       6.255   2.165  -2.959  1.00  0.00     0.005 C 
ENDBRANCH  27  28
ENDBRANCH  25  27
ENDBRANCH  23  25
ENDBRANCH   1  23
BRANCH  22  30
HETATM   30  O8  UNL     1       0.937   2.894  -0.572  1.00  0.00    -0.386 OA
ATOM     31  H8  UNL     1       0.513   3.630  -0.147  1.00  0.00     0.210 HD
ENDBRANCH  22  30
BRANCH  21  32
HETATM   32  C23 UNL     1       0.654   1.851   2.458  1.00  0.00     0.081 C 
HETATM   33  C24 UNL     1       1.303   0.568   2.750  1.00  0.00     0.040 C 
HETATM   34 CL1  UNL     1      -0.280   2.118   4.012  1.00  0.00    -0.112 Cl
BRANCH  32  35
HETATM   35  C25 UNL     1       1.603   3.042   2.564  1.00  0.00     0.194 C 
BRANCH  35  36
HETATM   36  O7  UNL     1       2.358   2.810   3.720  1.00  0.00    -0.399 OA
ATOM     37  H7  UNL     1       2.949   3.551   3.786  1.00  0.00     0.209 HD
ENDBRANCH  35  36
ENDBRANCH  32  35
ENDBRANCH  21  32
BRANCH  16  38
HETATM   38  O6  UNL     1      -5.290   0.310   0.803  1.00  0.00    -0.362 OA
ATOM     39  H6  UNL     1      -5.845   0.928   0.342  1.00  0.00     0.213 HD
ENDBRANCH  16  38
TORSDOF 9
