REMARK  6 active torsions:
REMARK  status: ('A' for Active; 'I' for Inactive)
REMARK    1  A    between atoms: C3_3  and  N1_6 
REMARK    2  A    between atoms: N1_6  and  C6_8 
REMARK    3  A    between atoms: C7_11  and  N3_12 
REMARK    4  A    between atoms: C9_17  and  N5_18 
REMARK    5  A    between atoms: N5_18  and  C10_20 
REMARK    6  A    between atoms: C10_20  and  C11_21 
ROOT
HETATM    1  C1  UNL     1      -4.177  -2.511   1.443  1.00  0.00     0.015 C 
HETATM    2  C2  UNL     1      -3.549  -1.683   0.833  1.00  0.00    -0.086 C 
HETATM    3  C3  UNL     1      -2.779  -0.642   0.093  1.00  0.00     0.103 C 
HETATM    4  C4  UNL     1      -3.035  -0.893  -1.376  1.00  0.00     0.053 C 
HETATM    5  C5  UNL     1      -3.356   0.686   0.495  1.00  0.00     0.053 C 
ENDROOT
BRANCH   3   6
HETATM    6  N1  UNL     1      -1.406  -0.807   0.354  1.00  0.00    -0.206 N 
ATOM      7  H1  UNL     1      -1.210  -1.631   0.923  1.00  0.00     0.179 HD
BRANCH   6   8
HETATM    8  C6  UNL     1      -0.379  -0.179   0.050  1.00  0.00     0.708 A 
HETATM    9  N2  UNL     1      -0.435   0.930  -0.693  1.00  0.00    -0.021 N 
HETATM   10  C7  UNL     1       0.698   1.619  -1.025  1.00  0.00     0.706 A 
ATOM     11  H2  UNL     1      -1.340   1.269  -1.019  1.00  0.00     0.203 HD
HETATM   12  N4  UNL     1       1.879   1.164  -0.593  1.00  0.00    -0.022 N 
HETATM   13  C9  UNL     1       1.957   0.063   0.146  1.00  0.00     0.707 A 
ATOM     14  H4  UNL     1       2.732   1.669  -0.834  1.00  0.00     0.203 HD
HETATM   15  N6  UNL     1       0.822  -0.606   0.466  1.00  0.00    -0.021 N 
ATOM     16  H6  UNL     1       0.883  -1.451   1.034  1.00  0.00     0.203 HD
BRANCH  10  17
HETATM   17  N3  UNL     1       0.653   2.674  -1.732  1.00  0.00    -0.229 N 
HETATM   18  C8  UNL     1      -0.575   3.231  -2.237  1.00  0.00     0.165 C 
ATOM     19  H3  UNL     1       1.528   3.149  -1.952  1.00  0.00     0.177 HD
ENDBRANCH  10  17
BRANCH  13  20
HETATM   20  N5  UNL     1       3.101  -0.343   0.542  1.00  0.00    -0.222 N 
ATOM     21  H5  UNL     1       3.942   0.176   0.290  1.00  0.00     0.178 HD
BRANCH  20  22
HETATM   22  C10 UNL     1       3.203  -1.536   1.346  1.00  0.00     0.164 C 
BRANCH  22  23
HETATM   23  C11 UNL     1       4.605  -1.745   1.814  1.00  0.00    -0.017 C 
HETATM   24  C12 UNL     1       5.522  -0.869   1.458  1.00  0.00     0.008 C 
ENDBRANCH  22  23
ENDBRANCH  20  22
ENDBRANCH  13  20
ENDBRANCH   6   8
ENDBRANCH   3   6
TORSDOF 6
