REMARK  5 active torsions:
REMARK  status: ('A' for Active; 'I' for Inactive)
REMARK    1  A    between atoms: C3_3  and  C4_4 
REMARK    2  A    between atoms: C4_4  and  C5_5 
REMARK    3  A    between atoms: C5_5  and  O1_6 
REMARK    4  A    between atoms: O1_6  and  C6_7 
REMARK    5  A    between atoms: C6_7  and  C7_8 
ROOT
HETATM    1  C4  UNL     1      -1.025  -0.325  -1.122  1.00  0.00     0.031 C 
ENDROOT
BRANCH   1   2
HETATM    2  C3  UNL     1      -2.076  -0.520  -0.069  1.00  0.00    -0.009 C 
HETATM    3  C2  UNL     1      -2.505   0.782   0.558  1.00  0.00     0.032 C 
HETATM    4  C1  UNL     1      -3.990   0.990   0.515  1.00  0.00     0.232 C 
HETATM    5  N1  UNL     1      -4.744  -0.156   0.923  1.00  0.00    -0.075 N 
HETATM    6  C12 UNL     1      -4.317  -1.384   0.326  1.00  0.00     0.232 C 
ATOM      7  H12 UNL     1      -4.748  -0.236   1.940  1.00  0.00     0.277 HD
ATOM      8  H11 UNL     1      -5.739  -0.006   0.756  1.00  0.00     0.277 HD
HETATM    9  C11 UNL     1      -3.294  -1.117  -0.743  1.00  0.00     0.032 C 
ENDBRANCH   1   2
BRANCH   1  10
HETATM   10  C5  UNL     1       0.229   0.323  -0.563  1.00  0.00     0.168 C 
BRANCH  10  11
HETATM   11  O1  UNL     1       0.804  -0.427   0.431  1.00  0.00    -0.391 OA
BRANCH  11  12
HETATM   12  C6  UNL     1       1.943   0.132   0.980  1.00  0.00     0.174 C 
BRANCH  12  13
HETATM   13  C7  UNL     1       3.055   0.349  -0.010  1.00  0.00     0.035 C 
HETATM   14  C8  UNL     1       4.281   0.969   0.682  1.00  0.00     0.035 C 
HETATM   15  C9  UNL     1       5.347   0.541  -0.313  1.00  0.00     0.168 C 
HETATM   16  O2  UNL     1       4.950  -0.639  -0.871  1.00  0.00    -0.391 OA
HETATM   17  C10 UNL     1       3.687  -0.956  -0.448  1.00  0.00     0.174 C 
ENDBRANCH  12  13
ENDBRANCH  11  12
ENDBRANCH  10  11
ENDBRANCH   1  10
TORSDOF 5
