REMARK  2 active torsions:
REMARK  status: ('A' for Active; 'I' for Inactive)
REMARK    1  A    between atoms: C2_2  and  N1_3 
REMARK    2  A    between atoms: N1_3  and  C3_5 
ROOT
HETATM    1  C3  UNL     1       0.385  -0.541   0.665  1.00  0.00     0.298 A 
HETATM    2  N2  UNL     1       0.854  -1.243  -0.480  1.00  0.00    -0.092 NA
HETATM    3  N3  UNL     1       2.096  -0.734  -0.852  1.00  0.00    -0.274 N 
ATOM      4  H3  UNL     1       2.651  -1.064  -1.642  1.00  0.00     0.185 HD
HETATM    5  C4  UNL     1       2.444   0.223  -0.045  1.00  0.00     0.202 A 
HETATM    6  N4  UNL     1       3.650   0.992  -0.098  1.00  0.00    -0.062 NA
HETATM    7  N5  UNL     1       1.448   0.434   0.947  1.00  0.00    -0.328 N 
ATOM      8  H5  UNL     1       1.467   1.121   1.700  1.00  0.00     0.165 HD
ENDROOT
BRANCH   1   9
HETATM    9  N1  UNL     1      -0.819   0.187   0.480  1.00  0.00    -0.388 N 
ATOM     10  H1  UNL     1      -0.865   1.197   0.614  1.00  0.00     0.156 HD
BRANCH   9  11
HETATM   11  C2  UNL     1      -1.958  -0.575   0.097  1.00  0.00     0.112 C 
HETATM   12  C1  UNL     1      -3.136   0.388  -0.048  1.00  0.00     0.026 C 
ENDBRANCH   9  11
ENDBRANCH   1   9
TORSDOF 2
