REMARK  3 active torsions:
REMARK  status: ('A' for Active; 'I' for Inactive)
REMARK    1  A    between atoms: N1_1  and  C1_4 
REMARK    2  A    between atoms: C2_7  and  N3_8 
REMARK    3  A    between atoms: N4_10  and  N5_12 
ROOT
HETATM    1  C1  UNL     1      -1.778  -0.267   0.547  1.00  0.00     0.705 A 
HETATM    2  N2  UNL     1      -0.746  -0.934   1.083  1.00  0.00    -0.019 N 
ATOM      3  H2  UNL     1      -0.751  -1.424   1.977  1.00  0.00     0.203 HD
HETATM    4  C2  UNL     1       0.298  -0.846   0.239  1.00  0.00     0.727 A 
HETATM    5  N6  UNL     1      -0.076  -0.122  -0.833  1.00  0.00    -0.116 N 
ATOM      6  H6  UNL     1       0.497   0.116  -1.642  1.00  0.00     0.206 HD
HETATM    7  N7  UNL     1      -1.335   0.217  -0.625  1.00  0.00    -0.117 N 
ATOM      8  H7  UNL     1      -1.897   0.773  -1.269  1.00  0.00     0.206 HD
ENDROOT
BRANCH   4   9
HETATM    9  N3  UNL     1       1.556  -1.450   0.513  1.00  0.00    -0.116 N 
HETATM   10  N4  UNL     1       2.581  -0.766   0.724  1.00  0.00    -0.235 N 
ATOM     11  H4  UNL     1       3.471  -1.226   0.917  1.00  0.00     0.208 HD
ATOM     12  H3  UNL     1       1.624  -2.467   0.538  1.00  0.00     0.207 HD
BRANCH  10  13
HETATM   13  N5  UNL     1       2.508   0.613   0.695  1.00  0.00    -0.330 N 
ATOM     14  H52 UNL     1       1.611   1.057   0.500  1.00  0.00     0.178 HD
ATOM     15  H51 UNL     1       3.344   1.171   0.867  1.00  0.00     0.178 HD
ENDBRANCH  10  13
ENDBRANCH   4   9
BRANCH   1  16
HETATM   16  N1  UNL     1      -2.978  -0.115   1.055  1.00  0.00    -0.233 N 
ATOM     17  H12 UNL     1      -3.314  -0.483   1.945  1.00  0.00     0.174 HD
ATOM     18  H11 UNL     1      -3.763   0.392   0.647  1.00  0.00     0.174 HD
ENDBRANCH   1  16
TORSDOF 3
