REMARK  6 active torsions:
REMARK  status: ('A' for Active; 'I' for Inactive)
REMARK    1  A    between atoms: N1_2  and  C2_3 
REMARK    2  A    between atoms: N1_2  and  C3_10 
REMARK    3  A    between atoms: C2_3  and  O1_4 
REMARK    4  A    between atoms: C2_3  and  N2_6 
REMARK    5  A    between atoms: N2_6  and  N3_7 
REMARK    6  A    between atoms: C6_13  and  N4_14 
ROOT
HETATM    1  C1  UNL     1       0.075  -1.773  -0.866  1.00  0.00     0.147 C 
HETATM    2  N1  UNL     1       0.466  -0.563  -0.284  1.00  0.00    -0.371 N 
ENDROOT
BRANCH   2   3
HETATM    3  C2  UNL     1       1.844  -0.384  -0.011  1.00  0.00     0.334 C 
BRANCH   3   4
HETATM    4  O1  UNL     1       2.588  -0.538  -1.193  1.00  0.00    -0.362 OA
ATOM      5  H1  UNL     1       3.512  -0.418  -1.010  1.00  0.00     0.213 HD
ENDBRANCH   3   4
BRANCH   3   6
HETATM    6  N2  UNL     1       2.102   0.928   0.561  1.00  0.00    -0.095 NA
BRANCH   6   7
HETATM    7  N3  UNL     1       3.454   1.121   0.867  1.00  0.00    -0.344 N 
ATOM      8  H32 UNL     1       4.167   0.411   0.701  1.00  0.00     0.172 HD
ATOM      9  H31 UNL     1       3.635   2.041   1.268  1.00  0.00     0.172 HD
ENDBRANCH   6   7
ENDBRANCH   3   6
ENDBRANCH   2   3
BRANCH   2  10
HETATM   10  C3  UNL     1      -0.453   0.379   0.137  1.00  0.00     0.113 C 
HETATM   11  C4  UNL     1      -1.367   1.046  -0.856  1.00  0.00     0.029 C 
HETATM   12  C5  UNL     1      -2.291   1.275   0.341  1.00  0.00     0.037 C 
HETATM   13  C6  UNL     1      -1.723  -0.061   0.860  1.00  0.00     0.206 C 
BRANCH  13  14
HETATM   14  N4  UNL     1      -2.459  -1.130   0.273  1.00  0.00    -0.073 N 
ATOM     15  H43 UNL     1      -2.680  -0.901  -0.696  1.00  0.00     0.274 HD
ATOM     16  H42 UNL     1      -1.846  -1.934   0.140  1.00  0.00     0.274 HD
ATOM     17  H41 UNL     1      -3.308  -1.424   0.756  1.00  0.00     0.274 HD
ENDBRANCH  13  14
ENDBRANCH   2  10
TORSDOF 6
