REMARK  8 active torsions:
REMARK  status: ('A' for Active; 'I' for Inactive)
REMARK    1  A    between atoms: N1_1  and  C1_4 
REMARK    2  A    between atoms: C3_6  and  C4_7 
REMARK    3  A    between atoms: C4_7  and  C5_8 
REMARK    4  A    between atoms: C5_8  and  O1_9 
REMARK    5  A    between atoms: O1_9  and  N2_10 
REMARK    6  A    between atoms: C6_12  and  C7_13 
REMARK    7  A    between atoms: C7_13  and  N3_14 
REMARK    8  A    between atoms: C8_20  and  N5_21 
ROOT
HETATM    1  C1  UNL     1      -3.270  -1.715  -0.035  1.00  0.00     0.116 A 
HETATM    2  C2  UNL     1      -2.172  -1.363  -0.795  1.00  0.00     0.074 A 
HETATM    3  C3  UNL     1      -1.760  -0.045  -0.891  1.00  0.00     0.032 A 
HETATM    4  N4  UNL     1      -2.482   0.863  -0.209  1.00  0.00    -0.196 N 
ATOM      5  H4  UNL     1      -2.211   1.845  -0.253  1.00  0.00     0.184 HD
HETATM    6  C8  UNL     1      -3.560   0.510   0.536  1.00  0.00     0.677 A 
HETATM    7  N6  UNL     1      -3.966  -0.777   0.632  1.00  0.00    -0.177 N 
ATOM      8  H6  UNL     1      -4.778  -1.029   1.195  1.00  0.00     0.185 HD
ENDROOT
BRANCH   3   9
HETATM    9  C4  UNL     1      -0.585   0.362  -1.699  1.00  0.00     0.086 C 
BRANCH   9  10
HETATM   10  C5  UNL     1       0.696   0.343  -0.906  1.00  0.00     0.207 C 
BRANCH  10  11
HETATM   11  O1  UNL     1       1.729   0.755  -1.812  1.00  0.00    -0.281 OA
BRANCH  11  12
HETATM   12  N2  UNL     1       3.042   0.851  -1.420  1.00  0.00    -0.280 N 
HETATM   13  C6  UNL     1       3.425   0.514  -0.240  1.00  0.00     0.114 C 
ATOM     14  H2  UNL     1       3.733   1.200  -2.084  1.00  0.00     0.193 HD
BRANCH  13  15
HETATM   15  C7  UNL     1       4.857   0.620   0.185  1.00  0.00     0.276 C 
BRANCH  15  16
HETATM   16  N3  UNL     1       5.013  -0.127   1.416  1.00  0.00    -0.075 N 
ATOM     17  H33 UNL     1       4.362   0.170   2.143  1.00  0.00     0.274 HD
ATOM     18  H32 UNL     1       4.695  -1.093   1.335  1.00  0.00     0.274 HD
ATOM     19  H31 UNL     1       5.988  -0.055   1.705  1.00  0.00     0.274 HD
ENDBRANCH  15  16
ENDBRANCH  13  15
ENDBRANCH  11  12
ENDBRANCH  10  11
ENDBRANCH   9  10
ENDBRANCH   3   9
BRANCH   1  20
HETATM   20  N1  UNL     1      -3.661  -2.932   0.061  1.00  0.00    -0.385 N 
ATOM     21  H12 UNL     1      -3.133  -3.643  -0.445  1.00  0.00     0.157 HD
ATOM     22  H11 UNL     1      -4.472  -3.192   0.622  1.00  0.00     0.157 HD
ENDBRANCH   1  20
BRANCH   6  23
HETATM   23  N5  UNL     1      -4.258   1.379   1.194  1.00  0.00    -0.234 N 
ATOM     24  H52 UNL     1      -3.952   2.349   1.122  1.00  0.00     0.174 HD
ATOM     25  H51 UNL     1      -5.068   1.114   1.754  1.00  0.00     0.174 HD
ENDBRANCH   6  23
TORSDOF 8
