REMARK  6 active torsions:
REMARK  status: ('A' for Active; 'I' for Inactive)
REMARK    1  A    between atoms: O1_1  and  C1_3 
REMARK    2  A    between atoms: N1_6  and  N2_7 
REMARK    3  A    between atoms: C4_9  and  C5_10 
REMARK    4  A    between atoms: C6_12  and  O3_13 
REMARK    5  A    between atoms: C7_15  and  O4_16 
REMARK    6  A    between atoms: C8_18  and  O5_19 
ROOT
HETATM    1  C5  UNL     1      -1.310  -0.784   0.671  1.00  0.00     0.196 C 
HETATM    2  O2  UNL     1      -2.164   0.159   1.259  1.00  0.00    -0.346 OA
HETATM    3  C6  UNL     1      -2.547   1.000   0.210  1.00  0.00     0.289 C 
HETATM    4  C7  UNL     1      -2.722   0.083  -0.994  1.00  0.00     0.204 C 
HETATM    5  C8  UNL     1      -2.067  -1.206  -0.545  1.00  0.00     0.185 C 
ENDROOT
BRANCH   1   6
HETATM    6  C4  UNL     1      -0.047  -0.149   0.281  1.00  0.00     0.115 C 
HETATM    7  N2  UNL     1       1.068  -0.634   0.697  1.00  0.00    -0.307 N 
ATOM      8  H2  UNL     1       1.049  -1.459   1.296  1.00  0.00     0.186 HD
BRANCH   7   9
HETATM    9  N1  UNL     1       2.298  -0.080   0.364  1.00  0.00    -0.277 N 
HETATM   10  C3  UNL     1       2.654   1.225   0.373  1.00  0.00     0.118 A 
HETATM   11  C2  UNL     1       3.962   1.317  -0.027  1.00  0.00     0.057 A 
HETATM   12  C1  UNL     1       4.410   0.030  -0.285  1.00  0.00     0.084 A 
HETATM   13  C9  UNL     1       3.356  -0.822  -0.034  1.00  0.00     0.152 A 
BRANCH  12  14
HETATM   14  O1  UNL     1       5.685  -0.329  -0.715  1.00  0.00    -0.359 OA
ATOM     15  H1  UNL     1       5.992  -1.211  -0.892  1.00  0.00     0.217 HD
ENDBRANCH  12  14
ENDBRANCH   7   9
ENDBRANCH   1   6
BRANCH   5  16
HETATM   16  O5  UNL     1      -2.984  -2.209  -0.323  1.00  0.00    -0.390 OA
ATOM     17  H5  UNL     1      -3.466  -2.477  -1.097  1.00  0.00     0.210 HD
ENDBRANCH   5  16
BRANCH   3  18
HETATM   18  O3  UNL     1      -3.745   1.640   0.516  1.00  0.00    -0.368 OA
ATOM     19  H3  UNL     1      -4.005   2.211  -0.197  1.00  0.00     0.212 HD
ENDBRANCH   3  18
BRANCH   4  20
HETATM   20  O4  UNL     1      -4.072  -0.129  -1.273  1.00  0.00    -0.388 OA
ATOM     21  H4  UNL     1      -4.181  -0.701  -2.024  1.00  0.00     0.210 HD
ENDBRANCH   4  20
TORSDOF 6
