REMARK  6 active torsions:
REMARK  status: ('A' for Active; 'I' for Inactive)
REMARK    1  A    between atoms: C2_2  and  C3_4 
REMARK    2  A    between atoms: C3_4  and  N1_5 
REMARK    3  A    between atoms: N1_5  and  C4_7 
REMARK    4  A    between atoms: C4_7  and  O1_8 
REMARK    5  A    between atoms: C4_7  and  C5_10 
REMARK    6  A    between atoms: C11_17  and  C12_18 
ROOT
HETATM    1  C3  UNL     1       1.152  -0.374   0.478  1.00  0.00     0.044 C 
HETATM    2  C9  UNL     1       0.038  -0.971   1.290  1.00  0.00     0.033 C 
HETATM    3  C10 UNL     1      -1.262  -0.278   1.136  1.00  0.00     0.013 C 
HETATM    4  C11 UNL     1      -1.744  -0.495  -0.299  1.00  0.00     0.038 C 
HETATM    5  C17 UNL     1      -0.770   0.365  -1.093  1.00  0.00     0.013 C 
HETATM    6  C18 UNL     1       0.649   0.330  -0.761  1.00  0.00     0.033 C 
ENDROOT
BRANCH   1   7
HETATM    7  C2  UNL     1       1.804   0.669   1.353  1.00  0.00     0.106 C 
HETATM    8  C1  UNL     1       0.890   1.809   1.761  1.00  0.00     0.029 C 
HETATM    9 CL1  UNL     1       2.335  -0.068   2.895  1.00  0.00    -0.123 Cl
ENDBRANCH   1   7
BRANCH   1  10
HETATM   10  N1  UNL     1       2.089  -1.364   0.229  1.00  0.00    -0.383 N 
ATOM     11  H1  UNL     1       1.923  -2.219   0.760  1.00  0.00     0.157 HD
BRANCH  10  12
HETATM   12  C4  UNL     1       3.172  -1.435  -0.566  1.00  0.00     0.249 C 
BRANCH  12  13
HETATM   13  O1  UNL     1       2.879  -1.763  -1.946  1.00  0.00    -0.373 OA
ATOM     14  H1  UNL     1       3.644  -1.813  -2.507  1.00  0.00     0.212 HD
ENDBRANCH  12  13
BRANCH  12  15
HETATM   15  C5  UNL     1       4.253  -0.370  -0.599  1.00  0.00    -0.004 A 
HETATM   16  C6  UNL     1       4.371   0.473  -1.660  1.00  0.00     0.019 A 
HETATM   17  C7  UNL     1       5.385   1.382  -1.658  1.00  0.00     0.050 A 
HETATM   18  S1  UNL     1       6.173   1.065  -0.184  1.00  0.00    -0.113 SA
HETATM   19  C8  UNL     1       5.195  -0.204   0.376  1.00  0.00     0.061 A 
ENDBRANCH  12  15
ENDBRANCH  10  12
ENDBRANCH   1  10
BRANCH   4  20
HETATM   20  C12 UNL     1      -3.065   0.245  -0.369  1.00  0.00     0.045 A 
HETATM   21  N2  UNL     1      -3.181   1.532  -0.727  1.00  0.00    -0.353 N 
HETATM   22  C13 UNL     1      -4.368   2.149  -0.898  1.00  0.00     0.182 A 
ATOM     23  H2  UNL     1      -2.329   2.072  -0.878  1.00  0.00     0.166 HD
HETATM   24  N3  UNL     1      -5.486   1.429  -0.691  1.00  0.00    -0.337 N 
HETATM   25  C14 UNL     1      -5.429   0.123  -0.325  1.00  0.00     0.136 A 
ATOM     26  H3  UNL     1      -6.396   1.874  -0.812  1.00  0.00     0.168 HD
HETATM   27  N4  UNL     1      -6.393  -0.774  -0.011  1.00  0.00    -0.337 N 
HETATM   28  C16 UNL     1      -4.203  -0.457  -0.169  1.00  0.00     0.101 A 
HETATM   29  C15 UNL     1      -5.725  -1.911   0.339  1.00  0.00     0.182 A 
ATOM     30  H4  UNL     1      -7.403  -0.631  -0.032  1.00  0.00     0.168 HD
HETATM   31  N5  UNL     1      -4.406  -1.713   0.238  1.00  0.00    -0.348 N 
ATOM     32  H5  UNL     1      -3.681  -2.402   0.437  1.00  0.00     0.167 HD
ENDBRANCH   4  20
TORSDOF 6
