REMARK  8 active torsions:
REMARK  status: ('A' for Active; 'I' for Inactive)
REMARK    1  A    between atoms: O1_2  and  N1_3 
REMARK    2  A    between atoms: N1_3  and  C2_4 
REMARK    3  A    between atoms: N1_3  and  C14_21 
REMARK    4  A    between atoms: C2_4  and  C3_5 
REMARK       I    between atoms: C3_5  and  N2_7 
REMARK    5  A    between atoms: N2_7  and  C5_9 
REMARK    6  A    between atoms: C5_9  and  C6_10 
REMARK       I    between atoms: C6_10  and  N3_12 
REMARK    7  A    between atoms: N3_12  and  C7_14 
REMARK    8  A    between atoms: C7_14  and  C8_15 
ROOT
HETATM    1  C2  UNL     1      -1.353  -0.656  -0.173  1.00  0.00     0.261 C 
ENDROOT
BRANCH   1   2
HETATM    2  N1  UNL     1      -2.401  -0.297  -1.071  1.00  0.00    -0.232 N 
BRANCH   2   3
HETATM    3  O1  UNL     1      -2.391  -0.794  -2.328  1.00  0.00    -0.281 OA
HETATM    4  C1  UNL     1      -2.729  -2.130  -2.349  1.00  0.00     0.238 C 
ENDBRANCH   2   3
BRANCH   2   5
HETATM    5  C14 UNL     1      -3.498   0.590  -0.703  1.00  0.00     0.149 A 
HETATM    6  N4  UNL     1      -3.524   1.765  -1.210  1.00  0.00    -0.263 N 
HETATM    7  S1  UNL     1      -4.915   2.575  -0.603  1.00  0.00     0.265 S 
ATOM      8  H4  UNL     1      -2.840   2.153  -1.860  1.00  0.00     0.180 HD
HETATM    9  O4  UNL     1      -4.581   3.778   0.204  1.00  0.00    -0.200 OA
HETATM   10  O5  UNL     1      -5.911   2.860  -1.689  1.00  0.00    -0.200 OA
HETATM   11  C15 UNL     1      -5.494   1.245   0.393  1.00  0.00     0.096 A 
HETATM   12  C16 UNL     1      -6.587   1.114   1.211  1.00  0.00     0.068 A 
HETATM   13  C20 UNL     1      -4.567   0.259   0.188  1.00  0.00     0.034 A 
HETATM   14  C17 UNL     1      -6.778  -0.071   1.872  1.00  0.00     0.117 A 
HETATM   15  F1  UNL     1      -7.872  -0.201   2.691  1.00  0.00    -0.206 F 
HETATM   16  C18 UNL     1      -5.875  -1.089   1.697  1.00  0.00     0.043 A 
HETATM   17  C19 UNL     1      -4.789  -0.940   0.876  1.00  0.00     0.020 A 
ENDBRANCH   2   5
ENDBRANCH   1   2
BRANCH   1  18
HETATM   18  C3  UNL     1      -0.457   0.454   0.177  1.00  0.00     0.240 C 
HETATM   19  O2  UNL     1      -0.659   1.589  -0.308  1.00  0.00    -0.271 OA
HETATM   20  N2  UNL     1       0.644   0.290   1.055  1.00  0.00    -0.346 N 
HETATM   21  C4  UNL     1       0.895  -1.037   1.626  1.00  0.00     0.153 C 
BRANCH  20  22
HETATM   22  C5  UNL     1       1.531   1.354   1.428  1.00  0.00     0.228 C 
BRANCH  22  23
HETATM   23  C6  UNL     1       2.656   1.416   0.447  1.00  0.00     0.235 C 
HETATM   24  O3  UNL     1       3.539   2.308   0.648  1.00  0.00    -0.272 OA
HETATM   25  N3  UNL     1       2.769   0.552  -0.653  1.00  0.00    -0.355 N 
ATOM     26  H3  UNL     1       2.067  -0.167  -0.827  1.00  0.00     0.162 HD
BRANCH  25  27
HETATM   27  C7  UNL     1       3.916   0.709  -1.541  1.00  0.00     0.161 C 
BRANCH  27  28
HETATM   28  C8  UNL     1       5.144   0.143  -0.937  1.00  0.00    -0.041 A 
HETATM   29  C9  UNL     1       5.085  -0.613   0.201  1.00  0.00     0.009 A 
HETATM   30  C10 UNL     1       6.223  -1.141   0.773  1.00  0.00     0.001 A 
HETATM   31  C11 UNL     1       7.442  -0.879   0.150  1.00  0.00     0.000 A 
HETATM   32  C12 UNL     1       7.524  -0.121  -0.995  1.00  0.00     0.001 A 
HETATM   33  C13 UNL     1       6.355   0.387  -1.531  1.00  0.00     0.009 A 
ENDBRANCH  27  28
ENDBRANCH  25  27
ENDBRANCH  22  23
ENDBRANCH  20  22
ENDBRANCH   1  18
TORSDOF 8
