REMARK  1 active torsions:
REMARK  status: ('A' for Active; 'I' for Inactive)
REMARK    1  A    between atoms: N1_1  and  C1_5 
ROOT
HETATM    1  C1  UNL     1       2.174   0.039  -0.575  1.00  0.00     0.342 C 
HETATM    2  C2  UNL     1       1.221  -1.117  -0.873  1.00  0.00     0.228 C 
HETATM    3  O1  UNL     1       0.846  -1.795   0.267  1.00  0.00    -0.385 OA
HETATM    4  C3  UNL     1      -0.482  -2.233   0.232  1.00  0.00     0.194 C 
HETATM    5  C4  UNL     1      -1.211  -1.623   1.393  1.00  0.00     0.193 C 
HETATM    6  O2  UNL     1      -2.494  -1.241   1.130  1.00  0.00    -0.387 OA
HETATM    7  C5  UNL     1      -2.658  -0.258   0.206  1.00  0.00     0.193 C 
HETATM    8  C6  UNL     1      -2.159   1.103   0.650  1.00  0.00     0.193 C 
HETATM    9  O3  UNL     1      -0.816   1.167   0.427  1.00  0.00    -0.387 OA
HETATM   10  C7  UNL     1      -0.372   2.220  -0.317  1.00  0.00     0.194 C 
HETATM   11  C8  UNL     1       1.155   2.109  -0.393  1.00  0.00     0.196 C 
HETATM   12  O4  UNL     1       1.615   0.976   0.266  1.00  0.00    -0.356 OA
ENDROOT
BRANCH   1  13
HETATM   13  N1  UNL     1       3.364  -0.480   0.056  1.00  0.00    -0.051 N 
ATOM     14  H13 UNL     1       3.153  -1.032   0.887  1.00  0.00     0.277 HD
ATOM     15  H12 UNL     1       3.806  -1.215  -0.496  1.00  0.00     0.277 HD
ATOM     16  H11 UNL     1       4.000   0.292   0.255  1.00  0.00     0.277 HD
ENDBRANCH   1  13
TORSDOF 1
