REMARK  1 active torsions:
REMARK  status: ('A' for Active; 'I' for Inactive)
REMARK    1  A    between atoms: C2_2  and  C3_3 
ROOT
HETATM    1  C3  UNL     1       0.023  -0.453   0.338  1.00  0.00     0.344 C 
HETATM    2  N1  UNL     1       0.216   0.967   0.074  1.00  0.00    -0.043 N 
ATOM      3  H11 UNL     1       0.918   1.206  -0.627  1.00  0.00     0.280 HD
ATOM      4  H12 UNL     1       0.665   1.508   0.813  1.00  0.00     0.280 HD
HETATM    5  C4  UNL     1      -1.173   1.326  -0.245  1.00  0.00     0.262 C 
HETATM    6  C5  UNL     1      -1.692   0.040  -0.872  1.00  0.00     0.198 C 
HETATM    7  O1  UNL     1      -0.616  -0.864  -0.818  1.00  0.00    -0.355 OA
ENDROOT
BRANCH   1   8
HETATM    8  C2  UNL     1       1.274  -1.168   0.610  1.00  0.00     0.023 C 
HETATM    9  C1  UNL     1       2.450  -0.878   0.090  1.00  0.00     0.011 C 
ENDBRANCH   1   8
TORSDOF 1
