REMARK  4 active torsions:
REMARK  status: ('A' for Active; 'I' for Inactive)
REMARK    1  A    between atoms: N1_2  and  N2_3 
REMARK    2  A    between atoms: N2_3  and  N3_4 
REMARK    3  A    between atoms: N2_3  and  C2_7 
REMARK    4  A    between atoms: C4_9  and  N4_10 
ROOT
HETATM    1  C2  UNL     1      -0.108  -0.523  -0.055  1.00  0.00     0.145 A 
HETATM    2  C3  UNL     1       0.919   0.083   0.667  1.00  0.00     0.099 A 
HETATM    3  C4  UNL     1       2.166   0.198   0.080  1.00  0.00     0.103 A 
HETATM    4  N5  UNL     1       2.375  -0.268  -1.162  1.00  0.00    -0.339 N 
ATOM      5  H5  UNL     1       3.296  -0.182  -1.591  1.00  0.00     0.168 HD
HETATM    6  C5  UNL     1       1.377  -0.844  -1.835  1.00  0.00     0.183 A 
HETATM    7  N6  UNL     1       0.169  -0.961  -1.278  1.00  0.00    -0.336 N 
ATOM      8  H6  UNL     1      -0.574  -1.407  -1.816  1.00  0.00     0.168 HD
ENDROOT
BRANCH   1   9
HETATM    9  N2  UNL     1      -1.374  -0.619   0.558  1.00  0.00    -0.191 N 
BRANCH   9  10
HETATM   10  N1  UNL     1      -2.444   0.117   0.054  1.00  0.00    -0.121 NA
HETATM   11  C1  UNL     1      -2.119   1.470  -0.306  1.00  0.00     0.161 C 
ENDBRANCH   9  10
BRANCH   9  12
HETATM   12  N3  UNL     1      -1.598  -1.422   1.660  1.00  0.00    -0.325 N 
ATOM     13  H32 UNL     1      -2.514  -1.491   2.103  1.00  0.00     0.178 HD
ATOM     14  H31 UNL     1      -0.815  -1.961   2.029  1.00  0.00     0.178 HD
ENDBRANCH   9  12
ENDBRANCH   1   9
BRANCH   3  15
HETATM   15  N4  UNL     1       3.182   0.738   0.655  1.00  0.00    -0.385 N 
ATOM     16  H42 UNL     1       3.023   1.092   1.598  1.00  0.00     0.157 HD
ATOM     17  H41 UNL     1       4.102   0.823   0.222  1.00  0.00     0.157 HD
ENDBRANCH   3  15
TORSDOF 4
