REMARK  8 active torsions:
REMARK  status: ('A' for Active; 'I' for Inactive)
REMARK    1  A    between atoms: C1_2  and  C2_4 
REMARK    2  A    between atoms: C3_5  and  C4_6 
REMARK    3  A    between atoms: C5_9  and  O4_10 
REMARK    4  A    between atoms: C5_9  and  C12_17 
REMARK    5  A    between atoms: O4_10  and  C6_11 
REMARK    6  A    between atoms: C16_24  and  O7_25 
REMARK    7  A    between atoms: C17_27  and  C18_28 
REMARK    8  A    between atoms: C18_28  and  O8_29 
ROOT
HETATM    1  C2  UNL     1       1.574   0.925   0.055  1.00  0.00     0.112 C 
HETATM    2  C3  UNL     1       0.121   0.696   0.074  1.00  0.00     0.147 C 
HETATM    3  C5  UNL     1      -0.457  -0.514   0.688  1.00  0.00     0.171 C 
HETATM    4  C13 UNL     1       0.315  -1.798   0.264  1.00  0.00     0.125 C 
HETATM    5  S1  UNL     1       1.930  -1.624   1.035  1.00  0.00    -0.154 SA
HETATM    6  C14 UNL     1       2.576  -0.124   0.203  1.00  0.00     0.031 A 
HETATM    7  C15 UNL     1       3.855   0.290   0.961  1.00  0.00     0.054 A 
HETATM    8  C16 UNL     1       4.736  -0.093  -0.177  1.00  0.00     0.127 A 
HETATM    9  C17 UNL     1       3.471  -0.529  -0.909  1.00  0.00     0.058 A 
ENDROOT
BRANCH   3  10
HETATM   10  O4  UNL     1      -1.696  -0.893   0.243  1.00  0.00    -0.362 OA
BRANCH  10  11
HETATM   11  C6  UNL     1      -2.812  -0.240   0.323  1.00  0.00     0.123 C 
HETATM   12  C7  UNL     1      -3.309  -0.000  -1.131  1.00  0.00     0.032 C 
HETATM   13  C8  UNL     1      -4.414   1.032  -1.120  1.00  0.00     0.002 C 
HETATM   14  C9  UNL     1      -5.302   0.796   0.085  1.00  0.00     0.000 C 
HETATM   15  C10 UNL     1      -5.290  -0.681   0.419  1.00  0.00     0.002 C 
HETATM   16  C11 UNL     1      -3.924  -1.152   0.886  1.00  0.00     0.032 C 
ENDBRANCH  10  11
ENDBRANCH   3  10
BRANCH   3  17
HETATM   17  C12 UNL     1      -0.345  -0.555   2.181  1.00  0.00     0.211 C 
HETATM   18  O5  UNL     1      -1.266  -0.905   2.960  1.00  0.00    -0.646 OA
HETATM   19  O6  UNL     1       0.814  -0.201   2.863  1.00  0.00    -0.646 OA
ENDBRANCH   3  17
BRANCH   2  20
HETATM   20  C4  UNL     1      -0.534   1.919   0.594  1.00  0.00     0.181 C 
HETATM   21  O2  UNL     1      -1.200   2.745  -0.070  1.00  0.00    -0.648 OA
HETATM   22  O3  UNL     1      -0.421   2.221   1.940  1.00  0.00    -0.648 OA
ENDBRANCH   2  20
BRANCH   1  23
HETATM   23  C1  UNL     1       1.912   1.787  -1.110  1.00  0.00     0.237 C 
HETATM   24  N1  UNL     1       1.431   1.402  -2.395  1.00  0.00    -0.062 NA
HETATM   25  O1  UNL     1       2.596   2.840  -1.050  1.00  0.00    -0.276 OA
ENDBRANCH   1  23
BRANCH   9  26
HETATM   26  C18 UNL     1       3.575  -2.033  -1.147  1.00  0.00     0.172 C 
BRANCH  26  27
HETATM   27  O8  UNL     1       4.439  -2.303  -2.211  1.00  0.00    -0.400 OA
ATOM     28  H8  UNL     1       4.504  -3.239  -2.359  1.00  0.00     0.209 HD
ENDBRANCH  26  27
ENDBRANCH   9  26
BRANCH   8  29
HETATM   29  O7  UNL     1       5.419   0.963  -0.789  1.00  0.00    -0.395 OA
ATOM     30  H7  UNL     1       5.981   0.719  -1.515  1.00  0.00     0.210 HD
ENDBRANCH   8  29
TORSDOF 8
