REMARK  12 active torsions:
REMARK  status: ('A' for Active; 'I' for Inactive)
REMARK    1  A    between atoms: C3_3  and  C4_4 
REMARK    2  A    between atoms: C5_5  and  C6_6 
REMARK    3  A    between atoms: C7_7  and  C8_8 
REMARK    4  A    between atoms: C8_8  and  O1_9 
REMARK    5  A    between atoms: C8_8  and  C9_11 
REMARK    6  A    between atoms: C9_11  and  C10_12 
REMARK    7  A    between atoms: C10_12  and  O2_13 
REMARK    8  A    between atoms: C13_18  and  O4_19 
REMARK    9  A    between atoms: C15_22  and  O5_23 
REMARK   10  A    between atoms: C19_29  and  O7_30 
REMARK   11  A    between atoms: C19_29  and  C20_32 
REMARK   12  A    between atoms: C20_32  and  O8_34 
ROOT
HETATM    1  C6  UNL     1      -1.243   0.027   0.320  1.00  0.00     0.053 C 
HETATM    2  C7  UNL     1      -2.373  -0.942   0.413  1.00  0.00     0.159 C 
HETATM    3  O3  UNL     1      -3.511  -0.173   0.434  1.00  0.00    -0.376 OA
HETATM    4  C11 UNL     1      -3.261   1.093  -0.015  1.00  0.00     0.136 C 
HETATM    5  C12 UNL     1      -3.646   2.069   1.058  1.00  0.00     0.064 C 
HETATM    6  C13 UNL     1      -3.390   3.455   0.448  1.00  0.00     0.123 C 
HETATM    7  C14 UNL     1      -1.900   3.605   0.428  1.00  0.00     0.064 C 
HETATM    8  C15 UNL     1      -1.119   2.434  -0.015  1.00  0.00     0.132 C 
HETATM    9  C16 UNL     1      -1.809   1.203  -0.423  1.00  0.00     0.018 C 
HETATM   10  C17 UNL     1      -1.785   1.047  -1.921  1.00  0.00     0.021 C 
ENDROOT
BRANCH   1  11
HETATM   11  C5  UNL     1       0.063  -0.469  -0.009  1.00  0.00    -0.020 C 
HETATM   12  C4  UNL     1       0.913  -0.034  -0.869  1.00  0.00     0.006 C 
BRANCH  12  13
HETATM   13  C3  UNL     1       2.249  -0.668  -1.102  1.00  0.00     0.175 C 
HETATM   14  C2  UNL     1       3.354   0.279  -0.776  1.00  0.00    -0.018 C 
HETATM   15  C1  UNL     1       3.222   1.587  -0.705  1.00  0.00     0.020 C 
HETATM   16  C19 UNL     1       4.519  -0.597  -0.579  1.00  0.00     0.130 C 
HETATM   17  C18 UNL     1       3.857  -1.938  -0.313  1.00  0.00     0.214 C 
HETATM   18  O6  UNL     1       2.498  -1.690  -0.196  1.00  0.00    -0.374 OA
BRANCH  16  19
HETATM   19  O7  UNL     1       5.274  -0.698  -1.747  1.00  0.00    -0.380 OA
ATOM     20  H7  UNL     1       6.026  -1.264  -1.620  1.00  0.00     0.211 HD
ENDBRANCH  16  19
BRANCH  16  21
HETATM   21  C20 UNL     1       5.418  -0.183   0.544  1.00  0.00     0.155 C 
HETATM   22  C21 UNL     1       6.475  -1.236   0.799  1.00  0.00     0.042 C 
BRANCH  21  23
HETATM   23  O8  UNL     1       6.042   1.018   0.358  1.00  0.00    -0.393 OA
ATOM     24  H8  UNL     1       6.613   1.281   1.071  1.00  0.00     0.210 HD
ENDBRANCH  21  23
ENDBRANCH  16  21
ENDBRANCH  12  13
ENDBRANCH   1  11
BRANCH   2  25
HETATM   25  C8  UNL     1      -2.425  -2.027  -0.593  1.00  0.00     0.149 C 
BRANCH  25  26
HETATM   26  O1  UNL     1      -1.232  -2.782  -0.582  1.00  0.00    -0.393 OA
ATOM     27  H1  UNL     1      -1.265  -3.478  -1.228  1.00  0.00     0.210 HD
ENDBRANCH  25  26
BRANCH  25  28
HETATM   28  C9  UNL     1      -3.521  -3.041  -0.318  1.00  0.00     0.060 C 
BRANCH  28  29
HETATM   29  C10 UNL     1      -3.394  -3.739   0.995  1.00  0.00     0.166 C 
BRANCH  29  30
HETATM   30  O2  UNL     1      -4.436  -4.675   1.182  1.00  0.00    -0.401 OA
ATOM     31  H2  UNL     1      -4.355  -5.119   2.018  1.00  0.00     0.209 HD
ENDBRANCH  29  30
ENDBRANCH  28  29
ENDBRANCH  25  28
ENDBRANCH   2  25
BRANCH   8  32
HETATM   32  O5  UNL     1      -0.130   2.206   0.980  1.00  0.00    -0.395 OA
ATOM     33  H5  UNL     1       0.373   1.452   0.695  1.00  0.00     0.210 HD
ENDBRANCH   8  32
BRANCH   6  34
HETATM   34  O4  UNL     1      -3.943   4.373   1.341  1.00  0.00    -0.395 OA
ATOM     35  H4  UNL     1      -3.785   5.230   0.964  1.00  0.00     0.210 HD
ENDBRANCH   6  34
TORSDOF 12
