REMARK  4 active torsions:
REMARK  status: ('A' for Active; 'I' for Inactive)
REMARK    1  A    between atoms: O1_2  and  N1_3 
REMARK    2  A    between atoms: N1_3  and  O2_4 
REMARK    3  A    between atoms: N1_3  and  N2_6 
REMARK    4  A    between atoms: N2_6  and  C2_8 
ROOT
HETATM    1  N2  UNL     1      -0.670  -0.064   0.747  1.00  0.00    -0.268 N 
ATOM      2  H2  UNL     1      -0.447   0.630   1.461  1.00  0.00     0.186 HD
ENDROOT
BRANCH   1   3
HETATM    3  N1  UNL     1       0.257  -0.634  -0.132  1.00  0.00     0.035 NA
BRANCH   3   4
HETATM    4  O1  UNL     1       1.530  -0.459   0.287  1.00  0.00    -0.266 OA
HETATM    5  C1  UNL     1       2.120   0.685  -0.173  1.00  0.00     0.234 C 
ENDBRANCH   3   4
BRANCH   3   6
HETATM    6  O2  UNL     1       0.036  -1.986  -0.085  1.00  0.00    -0.271 OA
ATOM      7  H2  UNL     1      -0.859  -2.109  -0.380  1.00  0.00     0.241 HD
ENDBRANCH   3   6
ENDBRANCH   1   3
BRANCH   1   8
HETATM    8  C2  UNL     1      -1.965  -0.590   0.503  1.00  0.00     0.190 C 
HETATM    9  N3  UNL     1      -2.846   0.054  -0.172  1.00  0.00    -0.394 N 
ATOM     10  H32 UNL     1      -2.591   0.972  -0.538  1.00  0.00     0.156 HD
ATOM     11  H31 UNL     1      -3.777  -0.324  -0.347  1.00  0.00     0.156 HD
ENDBRANCH   1   8
TORSDOF 4
