REMARK  5 active torsions:
REMARK  status: ('A' for Active; 'I' for Inactive)
REMARK    1  A    between atoms: C2_2  and  O2_4 
REMARK    2  A    between atoms: O2_4  and  C3_5 
REMARK    3  A    between atoms: C7_9  and  O3_10 
REMARK    4  A    between atoms: C11_15  and  O4_16 
REMARK    5  A    between atoms: C14_20  and  O5_21 
ROOT
HETATM    1  C3  UNL     1       2.780   0.539  -0.259  1.00  0.00     0.139 C 
HETATM    2  C4  UNL     1       3.492  -0.352   0.773  1.00  0.00     0.033 C 
HETATM    3  C5  UNL     1       3.939  -1.535  -0.095  1.00  0.00     0.006 C 
HETATM    4  C6  UNL     1       2.709  -2.358  -0.335  1.00  0.00     0.039 C 
HETATM    5  C7  UNL     1       1.477  -1.600  -0.658  1.00  0.00     0.070 C 
HETATM    6  C8  UNL     1       1.561  -0.146  -0.787  1.00  0.00     0.050 C 
HETATM    7  C9  UNL     1       0.361   0.486  -0.058  1.00  0.00     0.018 C 
HETATM    8  C10 UNL     1      -0.866  -0.154  -0.633  1.00  0.00     0.032 C 
HETATM    9  C11 UNL     1      -0.981  -1.532  -0.062  1.00  0.00     0.068 C 
HETATM   10  C12 UNL     1      -1.850  -1.682   1.118  1.00  0.00     0.042 C 
HETATM   11  C13 UNL     1      -3.029  -0.800   1.232  1.00  0.00     0.048 C 
HETATM   12  C14 UNL     1      -2.656   0.599   0.901  1.00  0.00     0.131 C 
HETATM   13  C15 UNL     1      -3.782   1.569   0.820  1.00  0.00     0.274 C 
HETATM   14  F1  UNL     1      -3.852   2.253   2.019  1.00  0.00    -0.203 F 
HETATM   15  F2  UNL     1      -5.008   1.003   0.597  1.00  0.00    -0.203 F 
HETATM   16  C16 UNL     1      -3.385   2.560  -0.259  1.00  0.00     0.083 C 
HETATM   17  C17 UNL     1      -2.023   2.078  -0.783  1.00  0.00     0.019 C 
HETATM   18  C18 UNL     1      -2.115   0.614  -0.510  1.00  0.00    -0.000 C 
HETATM   19  C19 UNL     1      -3.128   0.059  -1.501  1.00  0.00     0.019 C 
HETATM   20  C20 UNL     1       0.409  -2.025   0.359  1.00  0.00     0.051 C 
HETATM   21  C21 UNL     1       0.377  -3.543   0.329  1.00  0.00     0.016 C 
ENDROOT
BRANCH   1  22
HETATM   22  O2  UNL     1       2.551   1.798   0.276  1.00  0.00    -0.316 OA
BRANCH  22  23
HETATM   23  C2  UNL     1       3.205   2.894  -0.260  1.00  0.00     0.255 C 
HETATM   24  C1  UNL     1       3.018   4.274   0.251  1.00  0.00     0.126 C 
HETATM   25  O1  UNL     1       3.996   2.725  -1.224  1.00  0.00    -0.266 OA
ENDBRANCH  22  23
ENDBRANCH   1  22
BRANCH   5  26
HETATM   26  O3  UNL     1       0.997  -2.112  -1.892  1.00  0.00    -0.389 OA
ATOM     27  H3  UNL     1       0.207  -1.626  -2.099  1.00  0.00     0.210 HD
ENDBRANCH   5  26
BRANCH   9  28
HETATM   28  O4  UNL     1      -1.409  -2.438  -1.045  1.00  0.00    -0.389 OA
ATOM     29  H4  UNL     1      -1.482  -3.313  -0.682  1.00  0.00     0.210 HD
ENDBRANCH   9  28
BRANCH  12  30
HETATM   30  O5  UNL     1      -1.712   1.050   1.776  1.00  0.00    -0.383 OA
ATOM     31  H5  UNL     1      -1.473   1.945   1.564  1.00  0.00     0.210 HD
ENDBRANCH  12  30
TORSDOF 5
