REMARK  11 active torsions:
REMARK  status: ('A' for Active; 'I' for Inactive)
REMARK    1  A    between atoms: C2_3  and  O1_4 
REMARK    2  A    between atoms: C3_6  and  N2_7 
REMARK    3  A    between atoms: N2_7  and  C4_8 
REMARK    4  A    between atoms: C4_8  and  O2_9 
REMARK    5  A    between atoms: C4_8  and  C5_11 
REMARK    6  A    between atoms: C5_11  and  O3_12 
REMARK    7  A    between atoms: O3_12  and  C6_13 
REMARK    8  A    between atoms: C6_13  and  C7_14 
REMARK       I    between atoms: C7_14  and  N3_16 
REMARK    9  A    between atoms: N3_16  and  N4_18 
REMARK   10  A    between atoms: C9_20  and  N5_21 
REMARK   11  A    between atoms: C10_25  and  N6_26 
ROOT
HETATM    1  O3  UNL     1       0.903  -1.454  -0.346  1.00  0.00    -0.373 OA
ENDROOT
BRANCH   1   2
HETATM    2  C5  UNL     1      -0.258  -1.108  -0.790  1.00  0.00     0.268 C 
BRANCH   2   3
HETATM    3  C4  UNL     1      -1.362  -0.801   0.130  1.00  0.00     0.216 C 
BRANCH   3   4
HETATM    4  N2  UNL     1      -2.488  -0.124  -0.072  1.00  0.00    -0.360 NA
BRANCH   4   5
HETATM    5  C3  UNL     1      -3.648   0.572  -0.280  1.00  0.00     0.237 A 
HETATM    6  C2  UNL     1      -4.656   0.707   0.738  1.00  0.00     0.206 A 
HETATM    7  N1  UNL     1      -5.653   1.443   0.295  1.00  0.00    -0.280 N 
HETATM    8  C1  UNL     1      -6.882   1.811   1.050  1.00  0.00     0.163 C 
HETATM    9  C11 UNL     1      -5.375   1.806  -0.958  1.00  0.00     0.330 A 
HETATM   10  N7  UNL     1      -4.161   1.273  -1.281  1.00  0.00    -0.279 N 
HETATM   11  O7  UNL     1      -6.101   2.514  -1.708  1.00  0.00    -0.246 OA
ATOM     12  H7  UNL     1      -3.704   1.399  -2.184  1.00  0.00     0.173 HD
BRANCH   6  13
HETATM   13  O1  UNL     1      -4.510   0.114   1.972  1.00  0.00    -0.342 OA
ATOM     14  H1  UNL     1      -3.790  -0.417   2.292  1.00  0.00     0.219 HD
ENDBRANCH   6  13
ENDBRANCH   4   5
ENDBRANCH   3   4
BRANCH   3  15
HETATM   15  O2  UNL     1      -1.158  -1.285   1.324  1.00  0.00    -0.337 OA
ATOM     16  H2  UNL     1      -0.353  -1.769   1.468  1.00  0.00     0.220 HD
ENDBRANCH   3  15
ENDBRANCH   2   3
ENDBRANCH   1   2
BRANCH   1  17
HETATM   17  C6  UNL     1       1.294  -2.463   0.428  1.00  0.00     0.272 C 
BRANCH  17  18
HETATM   18  C7  UNL     1       2.839  -2.248   0.580  1.00  0.00     0.260 C 
HETATM   19  O4  UNL     1       3.421  -3.163   1.131  1.00  0.00    -0.269 OA
HETATM   20  N3  UNL     1       3.307  -1.071   0.074  1.00  0.00    -0.260 N 
ATOM     21  H3  UNL     1       2.579  -0.470  -0.312  1.00  0.00     0.190 HD
BRANCH  20  22
HETATM   22  N4  UNL     1       4.608  -0.524  -0.018  1.00  0.00    -0.240 N 
HETATM   23  C8  UNL     1       4.736   0.810  -0.143  1.00  0.00     0.162 A 
HETATM   24  C9  UNL     1       5.958   1.348  -0.299  1.00  0.00     0.164 A 
HETATM   25  S1  UNL     1       6.968  -0.001  -0.271  1.00  0.00    -0.027 SA
HETATM   26  C10 UNL     1       5.721  -1.238  -0.060  1.00  0.00     0.165 A 
BRANCH  24  27
HETATM   27  N5  UNL     1       6.270   2.761  -0.446  1.00  0.00    -0.107 N 
HETATM   28  O5  UNL     1       7.477   3.003  -0.583  1.00  0.00    -0.531 OA
HETATM   29  O6  UNL     1       5.304   3.712  -0.432  1.00  0.00    -0.531 OA
ENDBRANCH  24  27
BRANCH  26  30
HETATM   30  N6  UNL     1       6.042  -2.472  -0.049  1.00  0.00    -0.378 N 
ATOM     31  H62 UNL     1       5.323  -3.185   0.073  1.00  0.00     0.158 HD
ATOM     32  H61 UNL     1       6.900  -3.022  -0.081  1.00  0.00     0.158 HD
ENDBRANCH  26  30
ENDBRANCH  20  22
ENDBRANCH  17  18
ENDBRANCH   1  17
TORSDOF 11
