REMARK  5 active torsions:
REMARK  status: ('A' for Active; 'I' for Inactive)
REMARK    1  A    between atoms: C2_2  and  N1_3 
REMARK    2  A    between atoms: C2_2  and  C10_19 
REMARK       I    between atoms: N1_3  and  C3_5 
REMARK    3  A    between atoms: C3_5  and  C4_7 
REMARK    4  A    between atoms: C10_19  and  N6_20 
REMARK    5  A    between atoms: C10_19  and  C11_24 
ROOT
HETATM    1  C4  UNL     1       2.224  -0.233   0.925  1.00  0.00     0.124 A 
HETATM    2  C5  UNL     1       2.890  -1.296   1.550  1.00  0.00     0.137 A 
HETATM    3  N2  UNL     1       2.094  -2.320   2.117  1.00  0.00    -0.081 NA
HETATM    4  N3  UNL     1       4.228  -1.379   1.628  1.00  0.00    -0.331 N 
ATOM      5  H3  UNL     1       4.657  -2.178   2.095  1.00  0.00     0.168 HD
HETATM    6  C6  UNL     1       5.009  -0.422   1.099  1.00  0.00     0.142 A 
HETATM    7  N4  UNL     1       6.424  -0.516   1.186  1.00  0.00    -0.081 NA
HETATM    8  C7  UNL     1       4.451   0.648   0.473  1.00  0.00     0.136 A 
HETATM    9  C8  UNL     1       5.274   1.680  -0.098  1.00  0.00     0.107 C 
HETATM   10  N5  UNL     1       5.940   2.526  -0.548  1.00  0.00    -0.191 NA
HETATM   11  C9  UNL     1       3.057   0.722   0.397  1.00  0.00     0.215 A 
HETATM   12  O2  UNL     1       2.578   1.712  -0.180  1.00  0.00    -0.285 OA
ENDROOT
BRANCH   1  13
HETATM   13  C3  UNL     1       0.793  -0.215   0.881  1.00  0.00     0.259 C 
HETATM   14  N1  UNL     1      -0.072   0.734   0.317  1.00  0.00    -0.350 N 
ATOM     15  H1  UNL     1       0.328   1.552  -0.142  1.00  0.00     0.163 HD
HETATM   16  O1  UNL     1       0.186  -1.210   1.436  1.00  0.00    -0.267 OA
BRANCH  14  17
HETATM   17  C2  UNL     1      -1.533   0.591   0.364  1.00  0.00     0.117 C 
HETATM   18  C1  UNL     1      -2.086   1.762   1.102  1.00  0.00     0.034 C 
BRANCH  17  19
HETATM   19  C10 UNL     1      -2.077   0.481  -1.033  1.00  0.00     0.257 C 
BRANCH  19  20
HETATM   20  N6  UNL     1      -1.526  -0.661  -1.732  1.00  0.00    -0.068 N 
ATOM     21  H63 UNL     1      -0.506  -0.642  -1.730  1.00  0.00     0.275 HD
ATOM     22  H62 UNL     1      -1.670  -1.524  -1.207  1.00  0.00     0.275 HD
ATOM     23  H61 UNL     1      -1.895  -0.736  -2.680  1.00  0.00     0.275 HD
ENDBRANCH  19  20
BRANCH  19  24
HETATM   24  C11 UNL     1      -3.550   0.283  -0.995  1.00  0.00     0.065 A 
HETATM   25  C12 UNL     1      -4.209  -0.118  -2.134  1.00  0.00     0.035 A 
HETATM   26  C13 UNL     1      -5.573  -0.301  -2.095  1.00  0.00     0.086 A 
HETATM   27  C14 UNL     1      -6.253  -0.081  -0.924  1.00  0.00     0.304 A 
HETATM   28  O3  UNL     1      -7.504  -0.240  -0.855  1.00  0.00    -0.258 OA
HETATM   29  O4  UNL     1      -5.548   0.298   0.108  1.00  0.00    -0.195 OA
HETATM   30  N7  UNL     1      -4.274   0.479   0.110  1.00  0.00    -0.259 N 
ATOM     31  H7  UNL     1      -3.810   0.777   0.968  1.00  0.00     0.194 HD
ENDBRANCH  19  24
ENDBRANCH  17  19
ENDBRANCH  14  17
ENDBRANCH   1  13
TORSDOF 5
