REMARK  4 active torsions:
REMARK  status: ('A' for Active; 'I' for Inactive)
REMARK    1  A    between atoms: N1_1  and  C1_5 
REMARK    2  A    between atoms: C1_5  and  C2_6 
REMARK    3  A    between atoms: C1_5  and  C3_8 
REMARK       I    between atoms: C3_8  and  N2_10 
REMARK    4  A    between atoms: N2_10  and  C4_12 
ROOT
HETATM    1  C4  UNL     1       0.986  -0.528   0.097  1.00  0.00     0.693 A 
HETATM    2  N3  UNL     1       1.157   0.551  -0.688  1.00  0.00    -0.141 N 
ATOM      3  H3  UNL     1       0.398   0.844  -1.303  1.00  0.00     0.189 HD
HETATM    4  C5  UNL     1       2.312   1.258  -0.682  1.00  0.00     0.342 A 
HETATM    5  O3  UNL     1       2.484   2.275  -1.416  1.00  0.00    -0.246 OA
HETATM    6  N4  UNL     1       3.283   0.841   0.141  1.00  0.00    -0.260 N 
ATOM      7  H4  UNL     1       4.158   1.365   0.157  1.00  0.00     0.175 HD
HETATM    8  C6  UNL     1       3.169  -0.231   0.949  1.00  0.00     0.342 A 
HETATM    9  O4  UNL     1       4.117  -0.580   1.705  1.00  0.00    -0.246 OA
HETATM   10  N5  UNL     1       2.002  -0.897   0.903  1.00  0.00    -0.141 N 
ATOM     11  H5  UNL     1       1.880  -1.714   1.502  1.00  0.00     0.189 HD
ENDROOT
BRANCH   1  12
HETATM   12  N2  UNL     1      -0.099  -1.226   0.117  1.00  0.00    -0.157 N 
HETATM   13  C3  UNL     1      -1.227  -0.953  -0.667  1.00  0.00     0.273 C 
HETATM   14  O2  UNL     1      -1.154  -1.083  -1.918  1.00  0.00    -0.270 OA
ATOM     15  H2  UNL     1      -0.138  -2.029   0.745  1.00  0.00     0.187 HD
BRANCH  13  16
HETATM   16  C1  UNL     1      -2.534  -0.512  -0.117  1.00  0.00     0.336 C 
BRANCH  16  17
HETATM   17  N1  UNL     1      -2.532  -0.390   1.309  1.00  0.00    -0.060 N 
ATOM     18  H13 UNL     1      -1.950   0.394   1.604  1.00  0.00     0.275 HD
ATOM     19  H12 UNL     1      -3.438  -0.064   1.645  1.00  0.00     0.275 HD
ATOM     20  H11 UNL     1      -2.255  -1.246   1.789  1.00  0.00     0.275 HD
ENDBRANCH  16  17
BRANCH  16  21
HETATM   21  C2  UNL     1      -2.935   0.730  -0.813  1.00  0.00     0.273 C 
HETATM   22  O1  UNL     1      -2.970   0.734  -2.020  1.00  0.00    -0.304 OA
ENDBRANCH  16  21
ENDBRANCH  13  16
ENDBRANCH   1  12
TORSDOF 4
