REMARK  7 active torsions:
REMARK  status: ('A' for Active; 'I' for Inactive)
REMARK    1  A    between atoms: C2_2  and  C3_3 
REMARK    2  A    between atoms: C3_3  and  N1_4 
REMARK       I    between atoms: N1_4  and  C4_6 
REMARK    3  A    between atoms: C4_6  and  C5_8 
REMARK    4  A    between atoms: C5_8  and  C6_9 
REMARK    5  A    between atoms: C6_9  and  N2_10 
REMARK    6  A    between atoms: C16_21  and  O2_22 
REMARK    7  A    between atoms: C22_29  and  O3_30 
ROOT
HETATM    1  N2  UNL     1      -2.702  -1.876  -1.378  1.00  0.00    -0.375 N 
ATOM      2  H2  UNL     1      -2.330  -2.568  -0.728  1.00  0.00     0.164 HD
HETATM    3  C7  UNL     1      -1.871  -1.070  -1.854  1.00  0.00    -0.005 C 
HETATM    4  C8  UNL     1      -2.032   0.055  -2.809  1.00  0.00     0.053 C 
HETATM    5  C9  UNL     1      -0.906   1.046  -2.474  1.00  0.00     0.012 C 
HETATM    6  C10 UNL     1      -0.287   0.452  -1.274  1.00  0.00     0.004 C 
HETATM    7  C11 UNL     1       1.042   0.916  -0.855  1.00  0.00     0.002 C 
HETATM    8  C12 UNL     1       2.045   1.070  -1.956  1.00  0.00     0.033 C 
HETATM    9  C13 UNL     1       3.225   1.733  -1.337  1.00  0.00    -0.023 C 
HETATM   10  C14 UNL     1       3.584   1.465  -0.123  1.00  0.00    -0.072 C 
HETATM   11  C15 UNL     1       4.770   2.150   0.456  1.00  0.00     0.066 C 
HETATM   12  C16 UNL     1       5.762   1.044   0.752  1.00  0.00     0.122 C 
HETATM   13  C17 UNL     1       5.195  -0.152   1.417  1.00  0.00     0.033 C 
HETATM   14  C18 UNL     1       3.880  -0.660   0.873  1.00  0.00     0.016 C 
HETATM   15  C19 UNL     1       2.895   0.488   0.738  1.00  0.00    -0.014 C 
HETATM   16  C20 UNL     1       2.830   1.161   2.128  1.00  0.00     0.020 C 
HETATM   17  C21 UNL     1       1.532   0.118   0.324  1.00  0.00     0.031 C 
HETATM   18  C22 UNL     1       1.285  -1.366   0.228  1.00  0.00     0.124 C 
HETATM   19  C23 UNL     1      -0.038  -1.756  -0.323  1.00  0.00     0.047 C 
HETATM   20  C24 UNL     1      -0.374  -1.027  -1.556  1.00  0.00     0.001 C 
HETATM   21  C25 UNL     1       0.307  -1.484  -2.787  1.00  0.00     0.022 C 
ENDROOT
BRANCH   1  22
HETATM   22  C6  UNL     1      -4.086  -1.947  -1.627  1.00  0.00     0.070 C 
BRANCH  22  23
HETATM   23  C5  UNL     1      -4.918  -0.955  -0.876  1.00  0.00     0.147 C 
BRANCH  23  24
HETATM   24  C4  UNL     1      -4.773  -1.079   0.586  1.00  0.00     0.222 C 
HETATM   25  N1  UNL     1      -5.510  -0.273   1.468  1.00  0.00    -0.357 N 
ATOM     26  H1  UNL     1      -6.166   0.413   1.094  1.00  0.00     0.162 HD
HETATM   27  O1  UNL     1      -3.967  -1.928   1.042  1.00  0.00    -0.273 OA
BRANCH  25  28
HETATM   28  C3  UNL     1      -5.349  -0.404   2.922  1.00  0.00     0.149 C 
BRANCH  28  29
HETATM   29  C2  UNL     1      -6.234   0.537   3.615  1.00  0.00    -0.018 C 
HETATM   30  C1  UNL     1      -5.787   1.483   4.431  1.00  0.00     0.008 C 
ENDBRANCH  28  29
ENDBRANCH  25  28
ENDBRANCH  23  24
ENDBRANCH  22  23
ENDBRANCH   1  22
BRANCH  18  31
HETATM   31  O3  UNL     1       1.219  -1.825   1.580  1.00  0.00    -0.395 OA
ATOM     32  H3  UNL     1       1.063  -2.760   1.520  1.00  0.00     0.210 HD
ENDBRANCH  18  31
BRANCH  12  33
HETATM   33  O2  UNL     1       6.746   1.577   1.578  1.00  0.00    -0.395 OA
ATOM     34  H2  UNL     1       7.368   0.883   1.764  1.00  0.00     0.210 HD
ENDBRANCH  12  33
TORSDOF 7
