REMARK  8 active torsions:
REMARK  status: ('A' for Active; 'I' for Inactive)
REMARK    1  A    between atoms: N1_5  and  C5_7 
REMARK    2  A    between atoms: C5_7  and  C6_8 
REMARK    3  A    between atoms: C6_8  and  C7_9 
REMARK    4  A    between atoms: N2_15  and  C13_16 
REMARK    5  A    between atoms: C20_25  and  N4_26 
REMARK    6  A    between atoms: N4_26  and  C21_28 
REMARK    7  A    between atoms: C21_28  and  C22_29 
REMARK    8  A    between atoms: C22_29  and  C23_30 
ROOT
HETATM    1  C1  UNL     1       0.127   3.856   0.394  1.00  0.00     0.069 C 
HETATM    2  C2  UNL     1       1.005   2.646   0.229  1.00  0.00     0.026 A 
HETATM    3  C3  UNL     1       0.454   1.390   0.404  1.00  0.00     0.073 A 
HETATM    4  C4  UNL     1       1.272   0.293   0.249  1.00  0.00     0.119 A 
HETATM    5  N1  UNL     1       0.911  -0.888   0.370  1.00  0.00    -0.365 N 
ATOM      6  H1  UNL     1       1.688  -1.529   0.211  1.00  0.00     0.162 HD
HETATM    7  N3  UNL     1       2.588   0.522  -0.073  1.00  0.00    -0.177 N 
ATOM      8  H3  UNL     1       3.200  -0.285  -0.191  1.00  0.00     0.185 HD
HETATM    9  C20 UNL     1       3.114   1.739  -0.241  1.00  0.00     0.679 A 
HETATM   10  N6  UNL     1       2.304   2.800  -0.085  1.00  0.00    -0.196 N 
ATOM     11  H6  UNL     1       2.681   3.740  -0.207  1.00  0.00     0.184 HD
ENDROOT
BRANCH   5  12
HETATM   12  C5  UNL     1      -0.272  -1.587   0.665  1.00  0.00     0.052 C 
HETATM   13  C11 UNL     1      -0.637  -1.190   2.114  1.00  0.00     0.077 C 
HETATM   14  C12 UNL     1      -2.129  -1.184   2.120  1.00  0.00     0.061 C 
HETATM   15  N2  UNL     1      -2.578  -1.064   0.808  1.00  0.00    -0.386 N 
HETATM   16  C19 UNL     1      -1.490  -1.217  -0.104  1.00  0.00     0.153 C 
BRANCH  12  17
HETATM   17  C6  UNL     1      -0.085  -3.076   0.754  1.00  0.00     0.041 C 
BRANCH  17  18
HETATM   18  C7  UNL     1       0.431  -3.810  -0.397  1.00  0.00    -0.049 C 
HETATM   19  C8  UNL     1       1.807  -3.352  -0.858  1.00  0.00     0.014 C 
HETATM   20  C9  UNL     1       0.702  -5.251   0.133  1.00  0.00     0.014 C 
HETATM   21  C10 UNL     1      -0.415  -4.008  -1.591  1.00  0.00     0.014 C 
ENDBRANCH  17  18
ENDBRANCH  12  17
BRANCH  15  22
HETATM   22  C13 UNL     1      -3.698  -0.358   0.433  1.00  0.00     0.083 C 
HETATM   23  C14 UNL     1      -4.936  -1.020   1.068  1.00  0.00     0.025 C 
HETATM   24  C15 UNL     1      -6.075  -0.746   0.111  1.00  0.00     0.002 C 
HETATM   25  C16 UNL     1      -5.918   0.679  -0.379  1.00  0.00     0.000 C 
HETATM   26  C17 UNL     1      -5.179   1.559   0.597  1.00  0.00     0.002 C 
HETATM   27  C18 UNL     1      -3.768   1.086   0.867  1.00  0.00     0.025 C 
ENDBRANCH  15  22
ENDBRANCH   5  12
BRANCH   9  28
HETATM   28  N4  UNL     1       4.372   1.889  -0.552  1.00  0.00    -0.226 N 
ATOM     29  H4  UNL     1       4.958   1.062  -0.666  1.00  0.00     0.177 HD
BRANCH  28  30
HETATM   30  C21 UNL     1       4.953   3.188  -0.738  1.00  0.00     0.147 C 
BRANCH  30  31
HETATM   31  C22 UNL     1       6.297   3.097  -1.444  1.00  0.00     0.119 C 
BRANCH  31  32
HETATM   32  C23 UNL     1       6.876   4.443  -1.633  1.00  0.00     0.232 C 
HETATM   33  N5  UNL     1       8.124   4.599  -2.268  1.00  0.00    -0.062 NA
HETATM   34  O1  UNL     1       6.252   5.445  -1.227  1.00  0.00    -0.277 OA
ENDBRANCH  31  32
ENDBRANCH  30  31
ENDBRANCH  28  30
ENDBRANCH   9  28
TORSDOF 8
