REMARK  8 active torsions:
REMARK  status: ('A' for Active; 'I' for Inactive)
REMARK    1  A    between atoms: N1_1  and  C1_5 
REMARK    2  A    between atoms: C1_5  and  C2_6 
REMARK    3  A    between atoms: C2_6  and  C3_7 
REMARK    4  A    between atoms: C2_6  and  N3_18 
REMARK    5  A    between atoms: C3_7  and  C4_8 
REMARK    6  A    between atoms: C7_11  and  N2_12 
REMARK       I    between atoms: N4_21  and  C12_22 
REMARK    7  A    between atoms: C12_22  and  C13_24 
REMARK    8  A    between atoms: C15_28  and  C16_29 
ROOT
HETATM    1  N3  UNL     1       1.734   0.247   1.015  1.00  0.00    -0.364 N 
HETATM    2  C10 UNL     1       1.455   1.602   0.745  1.00  0.00     0.083 C 
HETATM    3  C11 UNL     1       0.563   1.805  -0.415  1.00  0.00     0.171 C 
HETATM    4  N4  UNL     1      -0.593   0.915  -0.426  1.00  0.00    -0.339 N 
HETATM    5  C12 UNL     1      -1.896   1.451  -0.626  1.00  0.00     0.255 C 
HETATM    6  O1  UNL     1      -1.939   2.736  -0.658  1.00  0.00    -0.267 OA
HETATM    7  C23 UNL     1      -0.336  -0.473  -0.157  1.00  0.00     0.171 C 
HETATM    8  C24 UNL     1       0.719  -0.691   0.908  1.00  0.00     0.083 C 
ENDROOT
BRANCH   1   9
HETATM    9  C2  UNL     1       3.062  -0.134   1.268  1.00  0.00     0.114 C 
BRANCH   9  10
HETATM   10  C1  UNL     1       3.199  -1.290   2.193  1.00  0.00     0.255 C 
BRANCH  10  11
HETATM   11  N1  UNL     1       2.437  -1.026   3.399  1.00  0.00    -0.077 N 
ATOM     12  H13 UNL     1       2.700  -0.144   3.839  1.00  0.00     0.274 HD
ATOM     13  H12 UNL     1       1.462  -0.802   3.200  1.00  0.00     0.274 HD
ATOM     14  H11 UNL     1       2.531  -1.819   4.034  1.00  0.00     0.274 HD
ENDBRANCH  10  11
ENDBRANCH   9  10
BRANCH   9  15
HETATM   15  C3  UNL     1       3.826  -0.337  -0.007  1.00  0.00     0.032 C 
BRANCH  15  16
HETATM   16  C4  UNL     1       5.320  -0.510   0.189  1.00  0.00    -0.012 C 
HETATM   17  C5  UNL     1       5.881  -0.704  -1.201  1.00  0.00     0.007 C 
HETATM   18  C6  UNL     1       7.360  -0.635  -1.309  1.00  0.00     0.033 C 
HETATM   19  C7  UNL     1       7.999   0.461  -0.503  1.00  0.00     0.183 C 
HETATM   20  C8  UNL     1       7.424   0.524   0.896  1.00  0.00     0.033 C 
HETATM   21  C9  UNL     1       5.941   0.743   0.757  1.00  0.00     0.007 C 
BRANCH  19  22
HETATM   22  N2  UNL     1       9.418   0.169  -0.397  1.00  0.00    -0.075 N 
ATOM     23  H23 UNL     1       9.603  -0.760  -0.018  1.00  0.00     0.274 HD
ATOM     24  H22 UNL     1       9.863   0.036  -1.305  1.00  0.00     0.274 HD
ATOM     25  H21 UNL     1       9.852   0.913   0.150  1.00  0.00     0.274 HD
ENDBRANCH  19  22
ENDBRANCH  15  16
ENDBRANCH   9  15
ENDBRANCH   1   9
BRANCH   5  26
HETATM   26  C13 UNL     1      -3.120   0.699  -0.789  1.00  0.00     0.049 A 
HETATM   27  C14 UNL     1      -3.403  -0.604  -1.073  1.00  0.00     0.105 A 
HETATM   28  N5  UNL     1      -4.727  -0.815  -1.049  1.00  0.00    -0.368 N 
HETATM   29  C15 UNL     1      -5.377   0.324  -0.750  1.00  0.00     0.014 A 
ATOM     30  H5  UNL     1      -5.177  -1.712  -1.232  1.00  0.00     0.165 HD
HETATM   31  C22 UNL     1      -4.396   1.272  -0.587  1.00  0.00     0.043 A 
BRANCH  29  32
HETATM   32  C16 UNL     1      -6.848   0.494  -0.600  1.00  0.00     0.035 C 
HETATM   33  C17 UNL     1      -7.616   0.300  -1.878  1.00  0.00     0.011 C 
HETATM   34  C18 UNL     1      -9.062   0.691  -1.544  1.00  0.00     0.001 C 
HETATM   35  C19 UNL     1      -9.622  -0.394  -0.670  1.00  0.00     0.000 C 
HETATM   36  C20 UNL     1      -8.599  -1.151   0.110  1.00  0.00     0.001 C 
HETATM   37  C21 UNL     1      -7.387  -0.380   0.511  1.00  0.00     0.011 C 
ENDBRANCH  29  32
ENDBRANCH   5  26
TORSDOF 8
