REMARK  6 active torsions:
REMARK  status: ('A' for Active; 'I' for Inactive)
REMARK       I    between atoms: C1_2  and  N3_7 
REMARK    1  A    between atoms: N2_3  and  O1_5 
REMARK    2  A    between atoms: N3_7  and  C2_9 
REMARK    3  A    between atoms: C3_10  and  C4_11 
REMARK    4  A    between atoms: N4_17  and  N5_18 
REMARK    5  A    between atoms: N6_20  and  C6_22 
REMARK    6  A    between atoms: N7_24  and  N8_25 
ROOT
HETATM    1  C2  UNL     1      -1.724  -0.542  -0.280  1.00  0.00     0.178 A 
HETATM    2  C3  UNL     1      -2.027  -1.590   0.540  1.00  0.00     0.203 A 
HETATM    3  O4  UNL     1      -1.088  -2.534   0.267  1.00  0.00    -0.249 OA
HETATM    4  C5  UNL     1      -0.273  -2.121  -0.637  1.00  0.00     0.394 A 
HETATM    5  O5  UNL     1       0.722  -2.737  -1.135  1.00  0.00    -0.236 OA
HETATM    6  N4  UNL     1      -0.599  -0.892  -1.030  1.00  0.00    -0.165 N 
ENDROOT
BRANCH   6   7
HETATM    7  N5  UNL     1      -0.016  -0.076  -1.965  1.00  0.00    -0.229 N 
HETATM    8  N6  UNL     1       1.075   0.485  -1.996  1.00  0.00    -0.279 N 
ATOM      9  H6  UNL     1       1.248   1.041  -2.833  1.00  0.00     0.189 HD
ATOM     10  H5  UNL     1      -0.596   0.097  -2.786  1.00  0.00     0.209 HD
BRANCH   8  11
HETATM   11  C6  UNL     1       2.123   0.482  -1.060  1.00  0.00     0.135 A 
HETATM   12  C7  UNL     1       3.290  -0.186  -1.351  1.00  0.00     0.157 A 
HETATM   13  N7  UNL     1       4.331  -0.236  -0.522  1.00  0.00    -0.221 N 
HETATM   14  C8  UNL     1       4.226   0.403   0.658  1.00  0.00     0.347 A 
HETATM   15  O6  UNL     1       5.221   0.355   1.449  1.00  0.00    -0.245 OA
HETATM   16  N9  UNL     1       3.102   1.067   0.978  1.00  0.00    -0.272 N 
HETATM   17  C9  UNL     1       2.037   1.126   0.148  1.00  0.00     0.279 A 
ATOM     18  H9  UNL     1       3.051   1.543   1.879  1.00  0.00     0.174 HD
HETATM   19  O7  UNL     1       1.001   1.751   0.467  1.00  0.00    -0.265 OA
BRANCH  13  20
HETATM   20  N8  UNL     1       5.507  -0.912  -0.821  1.00  0.00    -0.335 N 
ATOM     21  H82 UNL     1       5.587  -1.396  -1.715  1.00  0.00     0.177 HD
ATOM     22  H81 UNL     1       6.304  -0.950  -0.186  1.00  0.00     0.177 HD
ENDBRANCH  13  20
ENDBRANCH   8  11
ENDBRANCH   6   7
BRANCH   1  23
HETATM   23  N3  UNL     1      -2.350   0.705  -0.455  1.00  0.00    -0.311 N 
HETATM   24  C1  UNL     1      -3.471   1.325   0.075  1.00  0.00     0.213 C 
HETATM   25  N1  UNL     1      -4.796   1.205  -0.459  1.00  0.00    -0.061 NA
HETATM   26  N2  UNL     1      -3.333   2.132   1.094  1.00  0.00    -0.241 N 
ATOM     27  H2  UNL     1      -4.146   2.629   1.458  1.00  0.00     0.197 HD
ATOM     28  H3  UNL     1      -1.864   1.293  -1.132  1.00  0.00     0.170 HD
BRANCH  26  29
HETATM   29  O1  UNL     1      -2.116   2.317   1.675  1.00  0.00    -0.287 OA
ATOM     30  H1  UNL     1      -2.016   2.904   2.416  1.00  0.00     0.244 HD
ENDBRANCH  26  29
ENDBRANCH   1  23
BRANCH   2  31
HETATM   31  C4  UNL     1      -3.057  -1.823   1.528  1.00  0.00     0.238 C 
HETATM   32  O2  UNL     1      -3.038  -2.980   2.136  1.00  0.00    -0.642 OA
HETATM   33  O3  UNL     1      -4.031  -1.001   1.904  1.00  0.00    -0.642 OA
ENDBRANCH   2  31
TORSDOF 6
