REMARK  11 active torsions:
REMARK  status: ('A' for Active; 'I' for Inactive)
REMARK    1  A    between atoms: N1_1  and  N2_4 
REMARK    2  A    between atoms: N2_4  and  N3_5 
REMARK    3  A    between atoms: N3_5  and  S1_7 
REMARK    4  A    between atoms: S1_7  and  C1_10 
REMARK    5  A    between atoms: C1_10  and  C2_11 
REMARK    6  A    between atoms: C2_11  and  N4_12 
REMARK       I    between atoms: N4_12  and  C3_14 
REMARK    7  A    between atoms: C3_14  and  C4_16 
REMARK    8  A    between atoms: C4_16  and  C5_17 
REMARK    9  A    between atoms: C5_17  and  C6_18 
REMARK   10  A    between atoms: C19_33  and  O4_34 
REMARK   11  A    between atoms: C19_33  and  C20_36 
ROOT
HETATM    1  C6  UNL     1      -0.627  -0.292  -0.656  1.00  0.00     0.040 C 
HETATM    2  C7  UNL     1      -0.966   1.018  -1.374  1.00  0.00     0.005 C 
HETATM    3 CL1  UNL     1      -0.100   1.407  -2.797  1.00  0.00    -0.092 Cl
HETATM    4  C8  UNL     1      -2.439   1.175  -1.345  1.00  0.00     0.079 C 
HETATM    5  C9  UNL     1      -2.722   0.746   0.080  1.00  0.00     0.041 C 
HETATM    6  C10 UNL     1      -2.707   2.033   0.924  1.00  0.00     0.032 C 
HETATM    7  C11 UNL     1      -3.707   3.042   0.460  1.00  0.00     0.004 C 
HETATM    8  C12 UNL     1      -4.955   2.438  -0.101  1.00  0.00     0.020 C 
HETATM    9  C13 UNL     1      -5.087   1.041   0.499  1.00  0.00     0.123 C 
HETATM   10  N5  UNL     1      -3.995   0.201   0.184  1.00  0.00    -0.383 N 
HETATM   11  C14 UNL     1      -4.218  -1.179   0.202  1.00  0.00     0.064 C 
HETATM   12  C15 UNL     1      -2.948  -1.994   0.233  1.00  0.00     0.028 C 
HETATM   13  C16 UNL     1      -2.027  -1.293   1.206  1.00  0.00     0.018 C 
HETATM   14  C17 UNL     1      -1.546  -0.059   0.562  1.00  0.00     0.032 C 
HETATM   15  C18 UNL     1      -2.410  -2.029  -1.149  1.00  0.00     0.058 C 
HETATM   16  C19 UNL     1      -0.978  -1.552  -1.291  1.00  0.00     0.146 C 
ENDROOT
BRANCH   1  17
HETATM   17  C5  UNL     1       0.799  -0.083  -0.307  1.00  0.00     0.028 C 
BRANCH  17  18
HETATM   18  C4  UNL     1       1.625  -1.035   0.387  1.00  0.00     0.104 C 
BRANCH  18  19
HETATM   19  C3  UNL     1       2.989  -0.392   0.587  1.00  0.00     0.217 C 
HETATM   20  N4  UNL     1       3.978  -1.139   1.251  1.00  0.00    -0.360 N 
ATOM     21  H4  UNL     1       3.732  -2.077   1.568  1.00  0.00     0.162 HD
HETATM   22  O3  UNL     1       3.257   0.759   0.189  1.00  0.00    -0.274 OA
BRANCH  20  23
HETATM   23  C2  UNL     1       5.312  -0.671   1.513  1.00  0.00     0.139 C 
BRANCH  23  24
HETATM   24  C1  UNL     1       6.094  -0.335   0.258  1.00  0.00     0.185 C 
BRANCH  24  25
HETATM   25  S1  UNL     1       7.740   0.234   0.702  1.00  0.00     0.256 S 
HETATM   26  O1  UNL     1       7.645   1.463   1.552  1.00  0.00    -0.203 OA
HETATM   27  O2  UNL     1       8.463  -0.857   1.438  1.00  0.00    -0.203 OA
BRANCH  25  28
HETATM   28  N3  UNL     1       8.651   0.621  -0.691  1.00  0.00    -0.140 N 
ATOM     29  H3  UNL     1       8.855  -0.137  -1.343  1.00  0.00     0.217 HD
BRANCH  28  30
HETATM   30  N2  UNL     1       9.075   1.723  -0.968  1.00  0.00    -0.234 NA
BRANCH  30  31
HETATM   31  N1  UNL     1       9.155   2.927  -1.279  1.00  0.00    -0.260 N 
ATOM     32  H12 UNL     1       8.146   3.063  -1.336  1.00  0.00     0.193 HD
ATOM     33  H11 UNL     1       9.512   3.854  -1.512  1.00  0.00     0.193 HD
ENDBRANCH  30  31
ENDBRANCH  28  30
ENDBRANCH  25  28
ENDBRANCH  24  25
ENDBRANCH  23  24
ENDBRANCH  20  23
ENDBRANCH  18  19
ENDBRANCH  17  18
ENDBRANCH   1  17
BRANCH  16  34
HETATM   34  O4  UNL     1      -0.272  -2.568  -0.560  1.00  0.00    -0.380 OA
ATOM     35  H4  UNL     1      -0.501  -3.391  -0.975  1.00  0.00     0.211 HD
ENDBRANCH  16  34
BRANCH  16  36
HETATM   36  C20 UNL     1      -0.612  -1.798  -2.692  1.00  0.00     0.254 C 
HETATM   37  O5  UNL     1      -1.124  -1.258  -3.666  1.00  0.00    -0.276 OA
HETATM   38 CL2  UNL     1       0.665  -2.951  -3.143  1.00  0.00    -0.041 Cl
ENDBRANCH  16  36
TORSDOF 11
