REMARK  18 active torsions:
REMARK  status: ('A' for Active; 'I' for Inactive)
REMARK    1  A    between atoms: O1_2  and  C2_3 
REMARK    2  A    between atoms: C4_5  and  O2_6 
REMARK    3  A    between atoms: O2_6  and  C5_7 
REMARK    4  A    between atoms: C5_7  and  C6_9 
REMARK    5  A    between atoms: C7_10  and  C8_11 
REMARK    6  A    between atoms: C8_11  and  S1_12 
REMARK    7  A    between atoms: S1_12  and  C9_13 
REMARK    8  A    between atoms: C12_24  and  N5_25 
REMARK    9  A    between atoms: N5_25  and  C13_28 
REMARK   10  A    between atoms: C13_28  and  O4_29 
REMARK   11  A    between atoms: C13_28  and  C14_31 
REMARK   12  A    between atoms: C14_31  and  C15_33 
REMARK   13  A    between atoms: C15_33  and  O6_34 
REMARK   14  A    between atoms: C18_39  and  O8_41 
REMARK   15  A    between atoms: C20_43  and  C21_44 
REMARK   16  A    between atoms: C22_47  and  O11_48 
REMARK   17  A    between atoms: C23_50  and  O12_51 
REMARK   18  A    between atoms: C24_53  and  O13_54 
ROOT
HETATM    1  C6  UNL     1       0.080   1.025   0.330  1.00  0.00     0.045 C 
HETATM    2  C7  UNL     1       0.189   2.355   0.500  1.00  0.00    -0.047 C 
HETATM    3  C10 UNL     1      -0.968   3.299   0.481  1.00  0.00     0.110 C 
HETATM    4  S2  UNL     1      -2.588   2.574   0.491  1.00  0.00    -0.156 SA
HETATM    5  C11 UNL     1      -2.363   0.927  -0.252  1.00  0.00     0.112 C 
HETATM    6  C12 UNL     1      -3.653   0.169  -0.085  1.00  0.00     0.273 C 
HETATM    7  C16 UNL     1      -3.840  -0.396   1.263  1.00  0.00     0.161 C 
HETATM    8  O7  UNL     1      -4.870  -0.267   1.864  1.00  0.00    -0.296 OA
HETATM    9  C17 UNL     1      -2.681  -1.128   1.821  1.00  0.00     0.119 C 
HETATM   10  C18 UNL     1      -1.464  -0.284   1.745  1.00  0.00     0.084 C 
HETATM   11  C19 UNL     1      -1.622   0.798   2.794  1.00  0.00     0.048 C 
HETATM   12  C20 UNL     1      -1.180   0.238   0.351  1.00  0.00     0.127 C 
ENDROOT
BRANCH   1  13
HETATM   13  C5  UNL     1       1.344   0.289   0.242  1.00  0.00     0.296 C 
HETATM   14  O3  UNL     1       2.495   0.818   0.342  1.00  0.00    -0.259 OA
BRANCH  13  15
HETATM   15  O2  UNL     1       1.488  -1.092   0.027  1.00  0.00    -0.272 OA
BRANCH  15  16
HETATM   16  C4  UNL     1       2.762  -1.646  -0.054  1.00  0.00     0.118 A 
HETATM   17  C3  UNL     1       3.714  -1.090  -0.881  1.00  0.00     0.080 A 
HETATM   18  C2  UNL     1       4.986  -1.643  -0.947  1.00  0.00     0.107 A 
HETATM   19  C24 UNL     1       5.301  -2.748  -0.190  1.00  0.00     0.138 A 
HETATM   20  C23 UNL     1       4.361  -3.310   0.633  1.00  0.00     0.138 A 
HETATM   21  C22 UNL     1       3.083  -2.738   0.687  1.00  0.00     0.136 A 
BRANCH  18  22
HETATM   22  O1  UNL     1       5.955  -1.086  -1.781  1.00  0.00    -0.353 OA
HETATM   23  C1  UNL     1       5.721   0.042  -2.598  1.00  0.00     0.210 C 
ENDBRANCH  18  22
BRANCH  19  24
HETATM   24  O13 UNL     1       6.583  -3.292  -0.259  1.00  0.00    -0.351 OA
HETATM   25  C25 UNL     1       7.536  -2.749   0.674  1.00  0.00     0.210 C 
ENDBRANCH  19  24
BRANCH  20  26
HETATM   26  O12 UNL     1       4.695  -4.443   1.401  1.00  0.00    -0.356 OA
ATOM     27  H12 UNL     1       5.561  -4.831   1.364  1.00  0.00     0.218 HD
ENDBRANCH  20  26
BRANCH  21  28
HETATM   28  O11 UNL     1       2.221  -3.396   1.547  1.00  0.00    -0.356 OA
ATOM     29  H11 UNL     1       2.446  -4.160   2.065  1.00  0.00     0.218 HD
ENDBRANCH  21  28
ENDBRANCH  15  16
ENDBRANCH  13  15
ENDBRANCH   1  13
BRANCH   2  30
HETATM   30  C8  UNL     1       1.487   3.047   0.624  1.00  0.00     0.118 C 
BRANCH  30  31
HETATM   31  S1  UNL     1       1.858   4.211  -0.657  1.00  0.00    -0.087 SA
BRANCH  31  32
HETATM   32  C9  UNL     1       1.202   5.823  -0.487  1.00  0.00     0.173 A 
HETATM   33  N1  UNL     1       0.091   6.401  -0.895  1.00  0.00    -0.261 N 
HETATM   34  N2  UNL     1       0.083   7.659  -0.487  1.00  0.00    -0.005 NA
ATOM     35  H1  UNL     1      -0.645   5.951  -1.439  1.00  0.00     0.186 HD
HETATM   36  N3  UNL     1       1.199   7.889   0.187  1.00  0.00    -0.224 N 
HETATM   37  N4  UNL     1       1.899   6.790   0.205  1.00  0.00    -0.266 N 
ATOM     38  H3  UNL     1       1.465   8.774   0.618  1.00  0.00     0.205 HD
ATOM     39  H4  UNL     1       2.807   6.667   0.654  1.00  0.00     0.190 HD
ENDBRANCH  31  32
ENDBRANCH  30  31
ENDBRANCH   2  30
BRANCH  12  40
HETATM   40  C21 UNL     1      -0.975  -0.937  -0.526  1.00  0.00     0.191 C 
HETATM   41  O9  UNL     1      -0.850  -0.657  -1.769  1.00  0.00    -0.647 OA
HETATM   42  O10 UNL     1      -0.905  -2.249  -0.165  1.00  0.00    -0.647 OA
ENDBRANCH  12  40
BRANCH  10  43
HETATM   43  O8  UNL     1      -0.381  -1.031   2.174  1.00  0.00    -0.388 OA
ATOM     44  H8  UNL     1       0.399  -0.490   2.125  1.00  0.00     0.210 HD
ENDBRANCH  10  43
BRANCH   6  45
HETATM   45  N5  UNL     1      -3.864  -0.812  -1.091  1.00  0.00    -0.030 N 
ATOM     46  H52 UNL     1      -3.149  -0.752  -1.816  1.00  0.00     0.281 HD
ATOM     47  H51 UNL     1      -3.663  -1.747  -0.737  1.00  0.00     0.281 HD
BRANCH  45  48
HETATM   48  C13 UNL     1      -5.201  -0.749  -1.670  1.00  0.00     0.392 C 
BRANCH  48  49
HETATM   49  O4  UNL     1      -6.061  -0.095  -0.762  1.00  0.00    -0.364 OA
ATOM     50  H4  UNL     1      -6.932  -0.054  -1.139  1.00  0.00     0.212 HD
ENDBRANCH  48  49
BRANCH  48  51
HETATM   51  C14 UNL     1      -5.689  -2.155  -1.783  1.00  0.00     0.205 C 
HETATM   52  O5  UNL     1      -5.063  -2.875  -2.551  1.00  0.00    -0.291 OA
BRANCH  51  53
HETATM   53  C15 UNL     1      -6.848  -2.601  -1.008  1.00  0.00     0.247 C 
BRANCH  53  54
HETATM   54  O6  UNL     1      -7.278  -3.884  -1.369  1.00  0.00    -0.393 OA
ATOM     55  H6  UNL     1      -8.030  -4.173  -0.866  1.00  0.00     0.209 HD
ENDBRANCH  53  54
ENDBRANCH  51  53
ENDBRANCH  48  51
ENDBRANCH  45  48
ENDBRANCH   6  45
TORSDOF 18
