REMARK  3 active torsions:
REMARK  status: ('A' for Active; 'I' for Inactive)
REMARK    1  A    between atoms: N2_3  and  C2_5 
REMARK    2  A    between atoms: C2_5  and  C4_13 
REMARK    3  A    between atoms: N3_6  and  N4_8 
REMARK       I    between atoms: N4_8  and  C3_10 
ROOT
HETATM    1  N1  UNL     1      -1.229  -3.213  -1.145  1.00  0.00    -0.172 NA
HETATM    2  C1  UNL     1      -1.093  -2.414  -0.303  1.00  0.00     0.183 C 
HETATM    3  N2  UNL     1      -0.932  -1.471   0.720  1.00  0.00    -0.274 N 
ATOM      4  H2  UNL     1      -0.717  -1.767   1.672  1.00  0.00     0.180 HD
ENDROOT
BRANCH   3   5
HETATM    5  C2  UNL     1      -1.073  -0.106   0.405  1.00  0.00     0.195 C 
HETATM    6  N3  UNL     1      -0.060   0.610   0.125  1.00  0.00    -0.277 N 
ATOM      7  H3  UNL     1      -0.173   1.598  -0.102  1.00  0.00     0.189 HD
BRANCH   6   8
HETATM    8  N4  UNL     1       1.206   0.028   0.132  1.00  0.00    -0.252 N 
HETATM    9  C3  UNL     1       2.288   0.664  -0.535  1.00  0.00     0.347 C 
HETATM   10  N5  UNL     1       3.588   0.114  -0.556  1.00  0.00    -0.038 NA
HETATM   11  O1  UNL     1       2.111   1.760  -1.138  1.00  0.00    -0.249 OA
ATOM     12  H4  UNL     1       1.357  -0.857   0.617  1.00  0.00     0.191 HD
ENDBRANCH   6   8
BRANCH   5  13
HETATM   13  C4  UNL     1      -2.389   0.489   0.400  1.00  0.00     0.300 C 
HETATM   14  N6  UNL     1      -2.549   1.868   0.084  1.00  0.00    -0.054 NA
HETATM   15  O2  UNL     1      -3.442  -0.160   0.669  1.00  0.00    -0.268 OA
ENDBRANCH   5  13
ENDBRANCH   3   5
TORSDOF 3
