REMARK  3 active torsions:
REMARK  status: ('A' for Active; 'I' for Inactive)
REMARK    1  A    between atoms: N1_1  and  N2_4 
REMARK       I    between atoms: C1_6  and  N4_8 
REMARK    2  A    between atoms: N4_8  and  C2_10 
REMARK    3  A    between atoms: N6_13  and  O1_14 
ROOT
HETATM    1  C2  UNL     1       0.611  -0.287  -0.274  1.00  0.00     0.718 A 
HETATM    2  N5  UNL     1       0.957   0.086   0.961  1.00  0.00    -0.087 N 
ATOM      3  H5  UNL     1       0.323   0.263   1.740  1.00  0.00     0.210 HD
HETATM    4  N6  UNL     1       2.273   0.182   0.983  1.00  0.00    -0.065 N 
HETATM    5  N7  UNL     1       2.771  -0.120  -0.200  1.00  0.00    -0.186 N 
ATOM      6  H7  UNL     1       3.756  -0.128  -0.464  1.00  0.00     0.213 HD
HETATM    7  N8  UNL     1       1.743  -0.409  -0.973  1.00  0.00    -0.113 N 
ATOM      8  H8  UNL     1       1.803  -0.683  -1.954  1.00  0.00     0.207 HD
ENDROOT
BRANCH   1   9
HETATM    9  N4  UNL     1      -0.562  -0.510  -0.779  1.00  0.00    -0.159 N 
HETATM   10  C1  UNL     1      -1.753  -0.373  -0.012  1.00  0.00     0.221 C 
HETATM   11  N2  UNL     1      -2.379   0.724   0.163  1.00  0.00    -0.280 N 
HETATM   12  N3  UNL     1      -2.257  -1.561   0.587  1.00  0.00    -0.061 NA
ATOM     13  H2  UNL     1      -3.230   0.755   0.724  1.00  0.00     0.189 HD
ATOM     14  H4  UNL     1      -0.634  -0.792  -1.756  1.00  0.00     0.187 HD
BRANCH  11  15
HETATM   15  N1  UNL     1      -1.872   1.885  -0.432  1.00  0.00    -0.343 N 
ATOM     16  H12 UNL     1      -1.020   1.838  -0.990  1.00  0.00     0.176 HD
ATOM     17  H11 UNL     1      -2.373   2.763  -0.292  1.00  0.00     0.176 HD
ENDBRANCH  11  15
ENDBRANCH   1   9
BRANCH   4  18
HETATM   18  O1  UNL     1       3.073   0.542   2.063  1.00  0.00    -0.252 OA
ATOM     19  H1  UNL     1       4.020   0.611   2.079  1.00  0.00     0.248 HD
ENDBRANCH   4  18
TORSDOF 3
