REMARK  2 active torsions:
REMARK  status: ('A' for Active; 'I' for Inactive)
REMARK    1  A    between atoms: O1_2  and  N1_3 
REMARK    2  A    between atoms: C6_14  and  N4_15 
ROOT
HETATM    1  N1  UNL     1       2.029   0.906  -0.118  1.00  0.00    -0.260 N 
ATOM      2  H1  UNL     1       2.706   1.655  -0.260  1.00  0.00     0.194 HD
HETATM    3  C2  UNL     1       0.776   1.225  -0.095  1.00  0.00     0.152 A 
HETATM    4  C3  UNL     1       0.232   2.573  -0.255  1.00  0.00     0.277 A 
HETATM    5  O2  UNL     1       0.929   3.611  -0.438  1.00  0.00    -0.266 OA
HETATM    6  N2  UNL     1      -1.171   2.430  -0.159  1.00  0.00    -0.315 N 
ATOM      7  H2  UNL     1      -1.831   3.205  -0.232  1.00  0.00     0.169 HD
HETATM    8  C4  UNL     1      -1.551   1.079   0.051  1.00  0.00     0.134 A 
HETATM    9  C5  UNL     1      -0.386   0.344   0.091  1.00  0.00     0.115 A 
HETATM   10  N3  UNL     1      -0.478  -0.992   0.283  1.00  0.00    -0.187 N 
ATOM     11  H3  UNL     1       0.384  -1.537   0.313  1.00  0.00     0.184 HD
HETATM   12  C6  UNL     1      -1.643  -1.637   0.436  1.00  0.00     0.679 A 
HETATM   13  N5  UNL     1      -2.774  -0.918   0.396  1.00  0.00    -0.154 N 
ATOM     14  H5  UNL     1      -3.667  -1.397   0.511  1.00  0.00     0.187 HD
HETATM   15  C7  UNL     1      -2.769   0.424   0.208  1.00  0.00     0.288 A 
HETATM   16  O3  UNL     1      -3.808   1.113   0.167  1.00  0.00    -0.265 OA
ENDROOT
BRANCH   1  17
HETATM   17  O1  UNL     1       2.505  -0.353   0.033  1.00  0.00    -0.285 OA
HETATM   18  C1  UNL     1       3.704  -0.819  -0.517  1.00  0.00     0.237 C 
ENDBRANCH   1  17
BRANCH  12  19
HETATM   19  N4  UNL     1      -1.675  -2.914   0.617  1.00  0.00    -0.234 N 
ATOM     20  H42 UNL     1      -0.815  -3.461   0.647  1.00  0.00     0.174 HD
ATOM     21  H41 UNL     1      -2.562  -3.405   0.733  1.00  0.00     0.174 HD
ENDBRANCH  12  19
TORSDOF 2
