REMARK  2 active torsions:
REMARK  status: ('A' for Active; 'I' for Inactive)
REMARK    1  A    between atoms: O1_2  and  N1_3 
REMARK    2  A    between atoms: C5_9  and  N3_10 
ROOT
HETATM    1  N1  UNL     1       1.356  -0.257  -0.477  1.00  0.00    -0.150 N 
HETATM    2  C2  UNL     1       1.379   1.053  -0.213  1.00  0.00     0.355 A 
HETATM    3  O2  UNL     1       2.410   1.773  -0.278  1.00  0.00    -0.244 OA
HETATM    4  N2  UNL     1       0.143   1.479   0.129  1.00  0.00    -0.295 N 
HETATM    5  C3  UNL     1      -0.156   2.849   0.471  1.00  0.00     0.161 C 
HETATM    6  C4  UNL     1      -0.715   0.453   0.095  1.00  0.00     0.130 A 
HETATM    7  C5  UNL     1      -2.067   0.309   0.345  1.00  0.00     0.145 A 
HETATM    8  N4  UNL     1      -2.582  -0.953   0.192  1.00  0.00    -0.175 N 
ATOM      9  H4  UNL     1      -3.577  -1.091   0.368  1.00  0.00     0.186 HD
HETATM   10  C6  UNL     1      -1.858  -2.008  -0.173  1.00  0.00     0.679 A 
HETATM   11  N5  UNL     1      -2.408  -3.186  -0.301  1.00  0.00    -0.234 N 
ATOM     12  H51 UNL     1      -1.853  -3.995  -0.581  1.00  0.00     0.174 HD
ATOM     13  H52 UNL     1      -3.403  -3.327  -0.125  1.00  0.00     0.174 HD
HETATM   14  N6  UNL     1      -0.550  -1.822  -0.405  1.00  0.00    -0.172 N 
ATOM     15  H6  UNL     1       0.005  -2.630  -0.686  1.00  0.00     0.186 HD
HETATM   16  C7  UNL     1       0.074  -0.638  -0.291  1.00  0.00     0.184 A 
ENDROOT
BRANCH   7  17
HETATM   17  N3  UNL     1      -2.801   1.269   0.692  1.00  0.00    -0.383 N 
ATOM     18  H32 UNL     1      -2.418   2.207   0.806  1.00  0.00     0.157 HD
ATOM     19  H31 UNL     1      -3.799   1.163   0.876  1.00  0.00     0.157 HD
ENDBRANCH   7  17
BRANCH   1  20
HETATM   20  O1  UNL     1       2.369  -1.102  -0.859  1.00  0.00    -0.273 OA
HETATM   21  C1  UNL     1       3.678  -1.053  -0.379  1.00  0.00     0.238 C 
ENDBRANCH   1  20
TORSDOF 2
