REMARK  3 active torsions:
REMARK  status: ('A' for Active; 'I' for Inactive)
REMARK    1  A    between atoms: O1_2  and  N1_3 
REMARK    2  A    between atoms: N1_3  and  C2_5 
REMARK    3  A    between atoms: C5_13  and  N4_14 
ROOT
HETATM    1  C2  UNL     1      -1.129   0.505   1.142  1.00  0.00     0.251 A 
HETATM    2  N2  UNL     1      -0.807   0.633  -0.158  1.00  0.00    -0.312 N 
ATOM      3  H2  UNL     1      -1.454   0.919  -0.893  1.00  0.00     0.170 HD
HETATM    4  C3  UNL     1       0.487   0.331  -0.351  1.00  0.00     0.157 A 
HETATM    5  C4  UNL     1       1.321   0.297  -1.467  1.00  0.00     0.290 A 
HETATM    6  O2  UNL     1       0.841   0.604  -2.587  1.00  0.00    -0.265 OA
HETATM    7  N3  UNL     1       2.603  -0.063  -1.289  1.00  0.00    -0.154 N 
ATOM      8  H3  UNL     1       3.234  -0.096  -2.090  1.00  0.00     0.187 HD
HETATM    9  C5  UNL     1       3.064  -0.381  -0.064  1.00  0.00     0.680 A 
HETATM   10  N5  UNL     1       2.247  -0.348   1.026  1.00  0.00    -0.168 N 
ATOM     11  H5  UNL     1       2.617  -0.593   1.944  1.00  0.00     0.186 HD
HETATM   12  C6  UNL     1       0.966   0.003   0.901  1.00  0.00     0.198 A 
HETATM   13  O3  UNL     1      -0.045   0.125   1.753  1.00  0.00    -0.258 OA
ENDROOT
BRANCH   1  14
HETATM   14  N1  UNL     1      -2.270   0.706   1.714  1.00  0.00    -0.230 N 
ATOM     15  H1  UNL     1      -2.341   0.560   2.721  1.00  0.00     0.198 HD
BRANCH  14  16
HETATM   16  O1  UNL     1      -3.376   1.101   1.041  1.00  0.00    -0.282 OA
HETATM   17  C1  UNL     1      -4.174   0.315   0.214  1.00  0.00     0.237 C 
ENDBRANCH  14  16
ENDBRANCH   1  14
BRANCH   9  18
HETATM   18  N4  UNL     1       4.306  -0.726   0.084  1.00  0.00    -0.234 N 
ATOM     19  H42 UNL     1       4.918  -0.751  -0.732  1.00  0.00     0.174 HD
ATOM     20  H41 UNL     1       4.655  -0.967   1.012  1.00  0.00     0.174 HD
ENDBRANCH   9  18
TORSDOF 3
