REMARK  3 active torsions:
REMARK  status: ('A' for Active; 'I' for Inactive)
REMARK    1  A    between atoms: C2_7  and  N3_8 
REMARK    2  A    between atoms: N3_8  and  N4_10 
REMARK    3  A    between atoms: C3_12  and  C4_13 
ROOT
HETATM    1  N3  UNL     1      -0.549  -0.944   1.222  1.00  0.00    -0.131 N 
ATOM      2  H3  UNL     1      -0.444  -0.699   2.207  1.00  0.00     0.205 HD
ENDROOT
BRANCH   1   3
HETATM    3  C2  UNL     1      -1.332  -0.236   0.471  1.00  0.00     0.715 A 
HETATM    4  N2  UNL     1      -2.054   0.839   0.873  1.00  0.00    -0.127 N 
HETATM    5  N1  UNL     1      -2.744   1.318  -0.168  1.00  0.00    -0.237 N 
ATOM      6  H2  UNL     1      -2.069   1.221   1.818  1.00  0.00     0.206 HD
HETATM    7  C1  UNL     1      -2.474   0.559  -1.246  1.00  0.00     0.353 A 
ATOM      8  H1  UNL     1      -3.370   2.123  -0.148  1.00  0.00     0.192 HD
HETATM    9  O1  UNL     1      -2.923   0.680  -2.420  1.00  0.00    -0.245 OA
HETATM   10  N9  UNL     1      -1.617  -0.375  -0.837  1.00  0.00    -0.137 N 
ATOM     11  H9  UNL     1      -1.227  -1.102  -1.437  1.00  0.00     0.189 HD
ENDBRANCH   1   3
BRANCH   1  12
HETATM   12  N4  UNL     1       0.143  -2.019   0.718  1.00  0.00    -0.294 N 
HETATM   13  C3  UNL     1       1.381  -2.030   0.381  1.00  0.00     0.158 C 
ATOM     14  H4  UNL     1      -0.376  -2.889   0.601  1.00  0.00     0.186 HD
BRANCH  13  15
HETATM   15  C4  UNL     1       2.173  -0.817   0.528  1.00  0.00     0.148 A 
HETATM   16  N5  UNL     1       3.487  -0.672   0.217  1.00  0.00    -0.269 N 
HETATM   17  N6  UNL     1       3.884   0.563   0.476  1.00  0.00    -0.007 NA
ATOM     18  H5  UNL     1       4.082  -1.409  -0.162  1.00  0.00     0.185 HD
HETATM   19  N7  UNL     1       2.839   1.221   0.952  1.00  0.00    -0.007 NA
HETATM   20  N8  UNL     1       1.799   0.389   0.985  1.00  0.00    -0.269 N 
ATOM     21  H8  UNL     1       0.862   0.631   1.308  1.00  0.00     0.185 HD
ENDBRANCH  13  15
ENDBRANCH   1  12
TORSDOF 3
