REMARK  8 active torsions:
REMARK  status: ('A' for Active; 'I' for Inactive)
REMARK       I    between atoms: C1_2  and  N2_4 
REMARK    1  A    between atoms: N2_4  and  C2_6 
REMARK    2  A    between atoms: C2_6  and  C3_7 
REMARK    3  A    between atoms: C2_6  and  C9_20 
REMARK       I    between atoms: C3_7  and  N3_9 
REMARK    4  A    between atoms: N3_9  and  C4_11 
REMARK    5  A    between atoms: C4_11  and  C5_12 
REMARK    6  A    between atoms: N4_16  and  N5_17 
REMARK    7  A    between atoms: C9_20  and  N6_21 
REMARK    8  A    between atoms: C9_20  and  O3_25 
ROOT
HETATM    1  C2  UNL     1      -1.959  -0.043  -0.100  1.00  0.00     0.233 C 
ENDROOT
BRANCH   1   2
HETATM    2  N2  UNL     1      -3.129   0.827  -0.275  1.00  0.00    -0.328 N 
HETATM    3  C1  UNL     1      -4.069   1.066   0.754  1.00  0.00     0.329 C 
HETATM    4  N1  UNL     1      -5.192   1.906   0.573  1.00  0.00    -0.040 NA
HETATM    5  O1  UNL     1      -3.889   0.506   1.864  1.00  0.00    -0.251 OA
ATOM      6  H2  UNL     1      -3.270   1.279  -1.179  1.00  0.00     0.164 HD
ENDBRANCH   1   2
BRANCH   1   7
HETATM    7  C3  UNL     1      -0.710   0.702  -0.293  1.00  0.00     0.245 C 
HETATM    8  O2  UNL     1      -0.838   1.932  -0.622  1.00  0.00    -0.271 OA
HETATM    9  N3  UNL     1       0.601   0.211  -0.156  1.00  0.00    -0.353 N 
ATOM     10  H3  UNL     1       0.745  -0.764   0.107  1.00  0.00     0.162 HD
BRANCH   9  11
HETATM   11  C4  UNL     1       1.730   1.049  -0.377  1.00  0.00     0.181 C 
BRANCH  11  12
HETATM   12  C5  UNL     1       3.007   0.311  -0.174  1.00  0.00     0.050 A 
HETATM   13  C6  UNL     1       3.700  -0.378  -1.145  1.00  0.00     0.030 A 
HETATM   14  C7  UNL     1       4.827  -0.927  -0.573  1.00  0.00     0.021 A 
HETATM   15  C8  UNL     1       4.828  -0.577   0.747  1.00  0.00     0.116 A 
HETATM   16  N4  UNL     1       3.732   0.162   0.960  1.00  0.00    -0.277 N 
BRANCH  16  17
HETATM   17  N5  UNL     1       3.360   0.718   2.182  1.00  0.00    -0.339 N 
ATOM     18  H52 UNL     1       2.525   1.281   2.344  1.00  0.00     0.177 HD
ATOM     19  H51 UNL     1       3.906   0.606   3.036  1.00  0.00     0.177 HD
ENDBRANCH  16  17
ENDBRANCH  11  12
ENDBRANCH   9  11
ENDBRANCH   1   7
BRANCH   1  20
HETATM   20  C9  UNL     1      -2.108  -1.233  -1.028  1.00  0.00     0.348 C 
BRANCH  20  21
HETATM   21  N6  UNL     1      -1.073  -2.225  -0.863  1.00  0.00    -0.051 N 
ATOM     22  H63 UNL     1      -0.150  -1.803  -0.962  1.00  0.00     0.277 HD
ATOM     23  H62 UNL     1      -1.017  -2.530   0.109  1.00  0.00     0.277 HD
ATOM     24  H61 UNL     1      -1.173  -3.025  -1.487  1.00  0.00     0.277 HD
ENDBRANCH  20  21
BRANCH  20  25
HETATM   25  O3  UNL     1      -3.310  -1.891  -0.662  1.00  0.00    -0.368 OA
ATOM     26  H3  UNL     1      -3.403  -2.637  -1.243  1.00  0.00     0.212 HD
ENDBRANCH  20  25
ENDBRANCH   1  20
TORSDOF 8
