REMARK  4 active torsions:
REMARK  status: ('A' for Active; 'I' for Inactive)
REMARK       I    between atoms: N1_2  and  C2_4 
REMARK    1  A    between atoms: C2_4  and  C3_6 
REMARK    2  A    between atoms: C5_8  and  N2_9 
REMARK    3  A    between atoms: N2_9  and  C6_11 
REMARK    4  A    between atoms: C8_16  and  N4_17 
REMARK       I    between atoms: N4_17  and  C9_19 
ROOT
HETATM    1  C3  UNL     1      -1.847   0.553   0.346  1.00  0.00     0.104 A 
HETATM    2  C4  UNL     1      -1.358   1.825   0.565  1.00  0.00     0.067 A 
HETATM    3  C5  UNL     1       0.011   2.109   0.466  1.00  0.00     0.068 A 
HETATM    4  C7  UNL     1       0.843   1.056   0.140  1.00  0.00     0.120 A 
HETATM    5  N3  UNL     1       2.186   1.009  -0.028  1.00  0.00    -0.185 N 
ATOM      6  H3  UNL     1       2.848   1.780   0.062  1.00  0.00     0.184 HD
HETATM    7  C8  UNL     1       2.466  -0.287  -0.343  1.00  0.00     0.688 A 
HETATM    8  N6  UNL     1       1.373  -1.036  -0.377  1.00  0.00    -0.174 N 
ATOM      9  H6  UNL     1       1.319  -2.033  -0.587  1.00  0.00     0.186 HD
HETATM   10  C10 UNL     1       0.355  -0.219  -0.080  1.00  0.00     0.151 A 
HETATM   11  N7  UNL     1      -0.967  -0.430   0.029  1.00  0.00    -0.336 N 
ATOM     12  H7  UNL     1      -1.325  -1.371  -0.134  1.00  0.00     0.168 HD
ENDROOT
BRANCH   1  13
HETATM   13  C2  UNL     1      -3.273   0.267   0.451  1.00  0.00     0.267 C 
HETATM   14  N1  UNL     1      -3.789  -1.024   0.232  1.00  0.00    -0.360 N 
HETATM   15  C1  UNL     1      -5.234  -1.301   0.341  1.00  0.00     0.149 C 
ATOM     16  H1  UNL     1      -3.151  -1.783  -0.007  1.00  0.00     0.162 HD
HETATM   17  O1  UNL     1      -4.058   1.202   0.747  1.00  0.00    -0.266 OA
ENDBRANCH   1  13
BRANCH   3  18
HETATM   18  N2  UNL     1       0.397   3.302   0.680  1.00  0.00    -0.332 N 
ATOM     19  H2  UNL     1      -0.371   3.934   0.908  1.00  0.00     0.168 HD
BRANCH  18  20
HETATM   20  C6  UNL     1       1.613   3.922   0.672  1.00  0.00     0.353 C 
HETATM   21  O2  UNL     1       1.968   4.786  -0.193  1.00  0.00    -0.283 OA
ENDBRANCH  18  20
ENDBRANCH   3  18
BRANCH   7  22
HETATM   22  N4  UNL     1       3.688  -0.701  -0.576  1.00  0.00    -0.143 N 
HETATM   23  C9  UNL     1       3.918  -2.064  -0.899  1.00  0.00     0.346 C 
HETATM   24  N5  UNL     1       4.875  -2.782  -0.142  1.00  0.00    -0.039 NA
HETATM   25  O3  UNL     1       3.301  -2.660  -1.836  1.00  0.00    -0.250 OA
ATOM     26  H4  UNL     1       4.469  -0.047  -0.525  1.00  0.00     0.188 HD
ENDBRANCH   7  22
TORSDOF 4
