REMARK  3 active torsions:
REMARK  status: ('A' for Active; 'I' for Inactive)
REMARK    1  A    between atoms: N1_1  and  N2_4 
REMARK       I    between atoms: N2_4  and  C1_6 
REMARK    2  A    between atoms: N4_8  and  N5_10 
REMARK    3  A    between atoms: C2_12  and  C3_13 
ROOT
HETATM    1  N2  UNL     1      -2.382   0.490  -0.645  1.00  0.00    -0.279 N 
ATOM      2  H2  UNL     1      -2.324   0.242  -1.633  1.00  0.00     0.189 HD
HETATM    3  C1  UNL     1      -2.492  -0.544   0.320  1.00  0.00     0.221 C 
HETATM    4  N3  UNL     1      -3.766  -1.037   0.731  1.00  0.00    -0.061 NA
HETATM    5  N4  UNL     1      -1.433  -1.056   0.845  1.00  0.00    -0.273 N 
ATOM      6  H4  UNL     1      -1.517  -1.798   1.540  1.00  0.00     0.189 HD
ENDROOT
BRANCH   5   7
HETATM    7  N5  UNL     1      -0.184  -0.602   0.469  1.00  0.00    -0.307 N 
HETATM    8  C2  UNL     1       0.922  -1.081   0.927  1.00  0.00     0.144 C 
ATOM      9  H5  UNL     1      -0.134   0.157  -0.211  1.00  0.00     0.186 HD
BRANCH   8  10
HETATM   10  C3  UNL     1       2.192  -0.533   0.468  1.00  0.00     0.091 A 
HETATM   11  C4  UNL     1       2.335   0.503  -0.457  1.00  0.00     0.040 A 
HETATM   12  C5  UNL     1       3.689   0.707  -0.605  1.00  0.00     0.027 A 
HETATM   13  C6  UNL     1       4.316  -0.194   0.219  1.00  0.00     0.142 A 
HETATM   14  O1  UNL     1       3.398  -0.902   0.831  1.00  0.00    -0.321 OA
ENDBRANCH   8  10
ENDBRANCH   5   7
BRANCH   1  15
HETATM   15  N1  UNL     1      -2.351   1.820  -0.287  1.00  0.00    -0.343 N 
ATOM     16  H12 UNL     1      -2.410   2.051   0.705  1.00  0.00     0.176 HD
ATOM     17  H11 UNL     1      -2.272   2.563  -0.981  1.00  0.00     0.176 HD
ENDBRANCH   1  15
TORSDOF 3
