REMARK  8 active torsions:
REMARK  status: ('A' for Active; 'I' for Inactive)
REMARK    1  A    between atoms: N1_2  and  C2_4 
REMARK    2  A    between atoms: C2_4  and  C13_24 
REMARK    3  A    between atoms: C3_5  and  O1_6 
REMARK    4  A    between atoms: C3_5  and  N2_8 
REMARK    5  A    between atoms: N2_8  and  C4_10 
REMARK    6  A    between atoms: C4_10  and  C6_12 
REMARK    7  A    between atoms: C9_15  and  N3_16 
REMARK    8  A    between atoms: N3_16  and  S1_18 
ROOT
HETATM    1  C4  UNL     1       0.175  -0.919  -0.297  1.00  0.00     0.113 C 
HETATM    2  C5  UNL     1       0.190  -0.366  -1.791  1.00  0.00     0.037 C 
ENDROOT
BRANCH   1   3
HETATM    3  N2  UNL     1      -1.041  -0.394   0.277  1.00  0.00    -0.361 N 
ATOM      4  H2  UNL     1      -1.018   0.032   1.203  1.00  0.00     0.162 HD
BRANCH   3   5
HETATM    5  C3  UNL     1      -2.245  -0.462  -0.418  1.00  0.00     0.159 C 
HETATM    6  C2  UNL     1      -3.576  -0.020  -0.091  1.00  0.00     0.059 C 
BRANCH   6   7
HETATM    7  N1  UNL     1      -3.947   1.296   0.172  1.00  0.00    -0.394 N 
HETATM    8  C1  UNL     1      -3.851   2.281  -0.841  1.00  0.00     0.146 C 
ATOM      9  H1  UNL     1      -4.289   1.552   1.098  1.00  0.00     0.159 HD
ENDBRANCH   6   7
BRANCH   6  10
HETATM   10  C13 UNL     1      -4.534  -1.083   0.279  1.00  0.00     0.031 C 
HETATM   11  C14 UNL     1      -4.978  -1.167   1.726  1.00  0.00     0.016 C 
HETATM   12  C15 UNL     1      -5.700  -1.177  -0.700  1.00  0.00     0.016 C 
ENDBRANCH   6  10
BRANCH   5  13
HETATM   13  O1  UNL     1      -2.174  -1.011  -1.605  1.00  0.00    -0.345 OA
ATOM     14  H1  UNL     1      -1.296  -1.303  -1.821  1.00  0.00     0.219 HD
ENDBRANCH   5  13
ENDBRANCH   3   5
ENDBRANCH   1   3
BRANCH   1  15
HETATM   15  C6  UNL     1       1.453  -0.446   0.251  1.00  0.00    -0.036 A 
HETATM   16  C7  UNL     1       2.534  -1.245   0.490  1.00  0.00     0.011 A 
HETATM   17  C8  UNL     1       3.777  -0.692   0.791  1.00  0.00     0.031 A 
HETATM   18  C9  UNL     1       3.992   0.636   0.867  1.00  0.00     0.042 A 
HETATM   19  C11 UNL     1       2.879   1.448   0.630  1.00  0.00     0.031 A 
HETATM   20  C12 UNL     1       1.638   0.971   0.329  1.00  0.00     0.011 A 
BRANCH  18  21
HETATM   21  N3  UNL     1       5.221   1.250   1.138  1.00  0.00    -0.285 N 
ATOM     22  H3  UNL     1       5.248   1.863   1.953  1.00  0.00     0.178 HD
BRANCH  21  23
HETATM   23  S1  UNL     1       6.670   1.093   0.269  1.00  0.00     0.227 S 
HETATM   24  C10 UNL     1       7.355  -0.516   0.204  1.00  0.00     0.186 C 
HETATM   25  O2  UNL     1       7.733   2.059   0.783  1.00  0.00    -0.206 OA
HETATM   26  O3  UNL     1       6.447   1.523  -1.177  1.00  0.00    -0.206 OA
ENDBRANCH  21  23
ENDBRANCH  18  21
ENDBRANCH   1  15
TORSDOF 8
