REMARK  3 active torsions:
REMARK  status: ('A' for Active; 'I' for Inactive)
REMARK    1  A    between atoms: C1_2  and  C2_4 
REMARK    2  A    between atoms: C5_7  and  C6_8 
REMARK    3  A    between atoms: N3_11  and  N4_12 
ROOT
HETATM    1  C6  UNL     1      -0.856  -0.290   0.727  1.00  0.00     0.109 A 
HETATM    2  C7  UNL     1      -1.346  -0.041  -0.548  1.00  0.00     0.161 A 
HETATM    3  N2  UNL     1      -0.430   0.328  -1.558  1.00  0.00    -0.079 NA
HETATM    4  N3  UNL     1      -2.675  -0.161  -0.775  1.00  0.00    -0.197 N 
HETATM    5  C8  UNL     1      -3.544  -0.515   0.194  1.00  0.00     0.349 A 
HETATM    6  O2  UNL     1      -4.782  -0.619  -0.047  1.00  0.00    -0.244 OA
HETATM    7  N5  UNL     1      -3.083  -0.758   1.431  1.00  0.00    -0.273 N 
ATOM      8  H5  UNL     1      -3.731  -1.026   2.171  1.00  0.00     0.173 HD
HETATM    9  C9  UNL     1      -1.748  -0.648   1.702  1.00  0.00     0.265 A 
HETATM   10  O3  UNL     1      -1.327  -0.877   2.859  1.00  0.00    -0.267 OA
ENDROOT
BRANCH   1  11
HETATM   11  C5  UNL     1       0.590  -0.148   0.928  1.00  0.00     0.095 A 
HETATM   12  C4  UNL     1       1.311  -0.337   2.081  1.00  0.00     0.041 A 
HETATM   13  C3  UNL     1       2.661  -0.094   1.819  1.00  0.00     0.045 A 
HETATM   14  C2  UNL     1       2.693   0.238   0.487  1.00  0.00     0.141 A 
HETATM   15  O4  UNL     1       1.472   0.193   0.014  1.00  0.00    -0.304 OA
BRANCH  14  16
HETATM   16  C1  UNL     1       3.897   0.592  -0.302  1.00  0.00     0.288 C 
HETATM   17  N1  UNL     1       3.783   0.912  -1.663  1.00  0.00    -0.055 NA
HETATM   18  O1  UNL     1       4.982   0.582   0.321  1.00  0.00    -0.269 OA
ENDBRANCH  14  16
ENDBRANCH   1  11
BRANCH   4  19
HETATM   19  N4  UNL     1      -3.126   0.099  -2.077  1.00  0.00    -0.333 N 
ATOM     20  H42 UNL     1      -2.469   0.367  -2.810  1.00  0.00     0.177 HD
ATOM     21  H41 UNL     1      -4.127   0.009  -2.248  1.00  0.00     0.177 HD
ENDBRANCH   4  19
TORSDOF 3
