REMARK  3 active torsions:
REMARK  status: ('A' for Active; 'I' for Inactive)
REMARK    1  A    between atoms: C1_2  and  O1_3 
REMARK    2  A    between atoms: C1_2  and  N2_5 
REMARK    3  A    between atoms: C5_13  and  C6_14 
ROOT
HETATM    1  N2  UNL     1      -2.315  -0.344   0.197  1.00  0.00    -0.269 N 
HETATM    2  C2  UNL     1      -2.974  -1.556   0.086  1.00  0.00     0.193 A 
HETATM    3  N3  UNL     1      -2.108  -2.537  -0.147  1.00  0.00    -0.336 N 
ATOM      4  H3  UNL     1      -2.337  -3.524  -0.269  1.00  0.00     0.168 HD
HETATM    5  C3  UNL     1      -0.875  -1.998  -0.194  1.00  0.00     0.138 A 
HETATM    6  N4  UNL     1       0.344  -2.538  -0.399  1.00  0.00    -0.349 N 
ATOM      7  H4  UNL     1       0.428  -3.542  -0.557  1.00  0.00     0.167 HD
HETATM    8  C4  UNL     1       1.457  -1.770  -0.399  1.00  0.00     0.109 A 
HETATM    9  C5  UNL     1       1.349  -0.430  -0.191  1.00  0.00     0.079 A 
HETATM   10  C7  UNL     1       0.114   0.185   0.026  1.00  0.00     0.218 A 
HETATM   11  O2  UNL     1       0.051   1.417   0.214  1.00  0.00    -0.285 OA
HETATM   12  C8  UNL     1      -1.009  -0.612   0.024  1.00  0.00     0.138 A 
ENDROOT
BRANCH   9  13
HETATM   13  C6  UNL     1       2.550   0.392  -0.193  1.00  0.00     0.152 A 
HETATM   14  N5  UNL     1       3.819   0.004  -0.380  1.00  0.00    -0.268 N 
HETATM   15  N6  UNL     1       4.583   1.079  -0.300  1.00  0.00    -0.227 N 
ATOM     16  H5  UNL     1       4.138  -0.949  -0.553  1.00  0.00     0.190 HD
HETATM   17  N7  UNL     1       3.837   2.131  -0.069  1.00  0.00    -0.227 N 
ATOM     18  H6  UNL     1       5.598   1.088  -0.402  1.00  0.00     0.210 HD
HETATM   19  N8  UNL     1       2.592   1.729  -0.001  1.00  0.00    -0.268 N 
ATOM     20  H7  UNL     1       4.166   3.090   0.039  1.00  0.00     0.210 HD
ATOM     21  H8  UNL     1       1.785   2.328   0.169  1.00  0.00     0.190 HD
ENDBRANCH   9  13
BRANCH   1  22
HETATM   22  C1  UNL     1      -2.980   0.870   0.444  1.00  0.00     0.237 C 
HETATM   23  N1  UNL     1      -2.498   2.171   0.586  1.00  0.00    -0.056 NA
BRANCH  22  24
HETATM   24  O1  UNL     1      -4.276   0.810   0.568  1.00  0.00    -0.334 OA
ATOM     25  H1  UNL     1      -4.604  -0.076   0.471  1.00  0.00     0.220 HD
ENDBRANCH  22  24
ENDBRANCH   1  22
TORSDOF 3
