REMARK  6 active torsions:
REMARK  status: ('A' for Active; 'I' for Inactive)
REMARK    1  A    between atoms: C2_2  and  C3_3 
REMARK    2  A    between atoms: C3_3  and  N2_7 
REMARK    3  A    between atoms: N2_7  and  C4_9 
REMARK    4  A    between atoms: C7_12  and  C8_13 
REMARK    5  A    between atoms: C8_13  and  N4_17 
REMARK    6  A    between atoms: N4_17  and  O1_19 
ROOT
HETATM    1  C4  UNL     1      -1.348  -0.843  -0.250  1.00  0.00     0.033 A 
HETATM    2  C5  UNL     1      -1.104   0.498  -0.172  1.00  0.00     0.030 A 
HETATM    3  C6  UNL     1       0.212   0.939  -0.032  1.00  0.00     0.017 A 
HETATM    4  C7  UNL     1       1.296   0.097   0.034  1.00  0.00     0.009 A 
HETATM    5  C10 UNL     1       1.017  -1.271  -0.048  1.00  0.00     0.017 A 
HETATM    6  C11 UNL     1      -0.275  -1.713  -0.186  1.00  0.00     0.030 A 
ENDROOT
BRANCH   1   7
HETATM    7  N2  UNL     1      -2.657  -1.351  -0.392  1.00  0.00    -0.343 N 
ATOM      8  H2  UNL     1      -2.815  -2.357  -0.448  1.00  0.00     0.167 HD
BRANCH   7   9
HETATM    9  C3  UNL     1      -3.763  -0.440  -0.457  1.00  0.00     0.098 C 
HETATM   10  N1  UNL     1      -4.040   0.057  -1.587  1.00  0.00    -0.386 N 
ATOM     11  H12 UNL     1      -4.826   0.705  -1.633  1.00  0.00     0.157 HD
ATOM     12  H11 UNL     1      -3.514  -0.163  -2.433  1.00  0.00     0.157 HD
BRANCH   9  13
HETATM   13  C2  UNL     1      -4.505  -0.129   0.736  1.00  0.00     0.038 C 
HETATM   14  C1  UNL     1      -5.524   0.697   0.731  1.00  0.00     0.015 C 
ENDBRANCH   9  13
ENDBRANCH   7   9
ENDBRANCH   1   7
BRANCH   4  15
HETATM   15  C8  UNL     1       2.665   0.567   0.181  1.00  0.00     0.129 C 
HETATM   16  N3  UNL     1       2.934   1.810   0.256  1.00  0.00    -0.383 N 
ATOM     17  H32 UNL     1       2.156   2.468   0.211  1.00  0.00     0.157 HD
ATOM     18  H31 UNL     1       3.894   2.140   0.359  1.00  0.00     0.157 HD
BRANCH  15  19
HETATM   19  N4  UNL     1       3.759  -0.357   0.244  1.00  0.00    -0.251 N 
ATOM     20  H4  UNL     1       3.701  -1.224  -0.289  1.00  0.00     0.196 HD
BRANCH  19  21
HETATM   21  O1  UNL     1       4.864  -0.121   0.984  1.00  0.00    -0.284 OA
HETATM   22  C9  UNL     1       5.915   0.372   0.190  1.00  0.00     0.237 C 
ENDBRANCH  19  21
ENDBRANCH  15  19
ENDBRANCH   4  15
TORSDOF 6
