REMARK  4 active torsions:
REMARK  status: ('A' for Active; 'I' for Inactive)
REMARK    1  A    between atoms: N1_2  and  N2_3 
REMARK    2  A    between atoms: N2_3  and  C2_5 
REMARK    3  A    between atoms: C2_5  and  C4_7 
REMARK       I    between atoms: C4_7  and  N3_9 
REMARK    4  A    between atoms: N3_9  and  C5_11 
ROOT
HETATM    1  C4  UNL     1       0.770  -0.122   0.085  1.00  0.00     0.245 C 
HETATM    2  O1  UNL     1       1.046   0.849  -0.647  1.00  0.00    -0.271 OA
HETATM    3  N3  UNL     1      -0.514  -0.470   0.527  1.00  0.00    -0.324 N 
ATOM      4  H3  UNL     1      -0.564  -1.296   1.123  1.00  0.00     0.169 HD
ENDROOT
BRANCH   3   5
HETATM    5  C5  UNL     1      -1.748   0.163   0.263  1.00  0.00     0.059 A 
HETATM    6  C6  UNL     1      -1.868   1.282  -0.516  1.00  0.00     0.031 A 
HETATM    7  C7  UNL     1      -3.096   1.906  -0.775  1.00  0.00     0.002 A 
HETATM    8  C8  UNL     1      -4.207   1.332  -0.199  1.00  0.00     0.002 A 
HETATM    9  C9  UNL     1      -4.101   0.205   0.587  1.00  0.00     0.029 A 
HETATM   10  C10 UNL     1      -2.899  -0.399   0.836  1.00  0.00     0.073 A 
HETATM   11  N4  UNL     1      -2.801  -1.579   1.661  1.00  0.00    -0.100 NA
ENDBRANCH   3   5
BRANCH   1  12
HETATM   12  C2  UNL     1       1.970  -0.951   0.495  1.00  0.00     0.183 C 
HETATM   13  C3  UNL     1       1.722  -2.341  -0.094  1.00  0.00     0.043 C 
BRANCH  12  14
HETATM   14  N2  UNL     1       3.174  -0.423  -0.045  1.00  0.00    -0.327 N 
ATOM     15  H2  UNL     1       3.720  -0.931  -0.741  1.00  0.00     0.176 HD
BRANCH  14  16
HETATM   16  N1  UNL     1       3.563   0.817   0.426  1.00  0.00    -0.150 NA
HETATM   17  C1  UNL     1       4.038   1.631  -0.673  1.00  0.00     0.158 C 
ENDBRANCH  14  16
ENDBRANCH  12  14
ENDBRANCH   1  12
TORSDOF 4
