REMARK  5 active torsions:
REMARK  status: ('A' for Active; 'I' for Inactive)
REMARK    1  A    between atoms: C2_2  and  C3_3 
REMARK    2  A    between atoms: N1_8  and  C8_9 
REMARK    3  A    between atoms: C8_9  and  O2_14 
REMARK    4  A    between atoms: N2_10  and  O1_12 
REMARK    5  A    between atoms: O2_14  and  C9_15 
ROOT
HETATM    1  C3  UNL     1      -2.331  -0.232   0.300  1.00  0.00    -0.080 C 
HETATM    2  C4  UNL     1      -1.620  -1.186  -0.283  1.00  0.00     0.006 C 
HETATM    3  C5  UNL     1      -0.218  -1.443   0.151  1.00  0.00     0.047 C 
HETATM    4  C6  UNL     1       0.404  -2.398  -0.791  1.00  0.00     0.043 C 
HETATM    5  C7  UNL     1      -0.300  -2.123   1.522  1.00  0.00     0.043 C 
HETATM    6  N1  UNL     1       0.444  -0.187   0.308  1.00  0.00    -0.329 N 
HETATM    7  C11 UNL     1      -0.261   0.889   0.982  1.00  0.00     0.089 C 
HETATM    8  C12 UNL     1      -0.226   2.114   0.091  1.00  0.00     0.033 C 
HETATM    9  C13 UNL     1      -1.651   0.534   1.380  1.00  0.00     0.059 C 
ENDROOT
BRANCH   6  10
HETATM   10  C8  UNL     1       1.758   0.107  -0.146  1.00  0.00     0.250 C 
HETATM   11  N2  UNL     1       1.977   0.293  -1.403  1.00  0.00    -0.232 N 
ATOM     12  H2  UNL     1       2.931   0.503  -1.696  1.00  0.00     0.198 HD
BRANCH  11  13
HETATM   13  O1  UNL     1       1.015   0.227  -2.362  1.00  0.00    -0.287 OA
ATOM     14  H1  UNL     1       1.176   0.364  -3.288  1.00  0.00     0.244 HD
ENDBRANCH  11  13
BRANCH  10  15
HETATM   15  O2  UNL     1       2.856   0.211   0.697  1.00  0.00    -0.245 OA
BRANCH  15  16
HETATM   16  C9  UNL     1       4.138   0.498   0.248  1.00  0.00     0.262 C 
HETATM   17  C10 UNL     1       5.310   0.608   1.158  1.00  0.00     0.126 C 
HETATM   18  O3  UNL     1       4.263   0.666  -1.003  1.00  0.00    -0.265 OA
ENDBRANCH  15  16
ENDBRANCH  10  15
ENDBRANCH   6  10
BRANCH   1  19
HETATM   19  C2  UNL     1      -3.726   0.037  -0.120  1.00  0.00     0.029 C 
HETATM   20  C1  UNL     1      -3.918   1.451  -0.627  1.00  0.00     0.010 C 
ENDBRANCH   1  19
TORSDOF 5
