REMARK  1 active torsions:
REMARK  status: ('A' for Active; 'I' for Inactive)
REMARK       I    between atoms: N1_1  and  C1_5 
REMARK       I    between atoms: C1_5  and  N2_6 
REMARK       I    between atoms: C1_5  and  N3_10 
REMARK    1  A    between atoms: N3_10  and  C2_12 
ROOT
HETATM    1  N1  UNL     1      -2.203   0.157   1.424  1.00  0.00    -0.033 N 
ATOM      2  H11 UNL     1      -1.334   0.332   1.928  1.00  0.00     0.278 HD
ATOM      3  H12 UNL     1      -2.563  -0.777   1.621  1.00  0.00     0.278 HD
ATOM      4  H13 UNL     1      -2.970   0.710   1.807  1.00  0.00     0.278 HD
HETATM    5  C1  UNL     1      -2.059   0.375  -0.001  1.00  0.00     0.482 C 
HETATM    6  N2  UNL     1      -3.297   0.126  -0.719  1.00  0.00    -0.033 N 
ATOM      7  H21 UNL     1      -3.196   0.279  -1.722  1.00  0.00     0.278 HD
ATOM      8  H22 UNL     1      -4.064   0.679  -0.336  1.00  0.00     0.278 HD
ATOM      9  H23 UNL     1      -3.657  -0.808  -0.522  1.00  0.00     0.278 HD
HETATM   10  N3  UNL     1      -1.058  -0.502  -0.581  1.00  0.00    -0.321 N 
ATOM     11  H3  UNL     1      -1.316  -1.298  -1.165  1.00  0.00     0.165 HD
ENDROOT
BRANCH  10  12
HETATM   12  C2  UNL     1       0.181  -0.222  -0.319  1.00  0.00     0.156 A 
HETATM   13  N4  UNL     1       1.199  -0.961  -0.799  1.00  0.00    -0.288 N 
HETATM   14  C3  UNL     1       2.491  -0.747  -0.582  1.00  0.00     0.329 A 
ATOM     15  H4  UNL     1       0.955  -1.760  -1.384  1.00  0.00     0.172 HD
HETATM   16  O1  UNL     1       3.300  -1.573  -1.136  1.00  0.00    -0.247 OA
HETATM   17  N5  UNL     1       3.044   0.221   0.141  1.00  0.00    -0.269 N 
HETATM   18  C4  UNL     1       2.392   1.185   0.801  1.00  0.00     0.295 A 
ATOM     19  H5  UNL     1       4.062   0.230   0.198  1.00  0.00     0.174 HD
HETATM   20  O2  UNL     1       3.014   2.054   1.456  1.00  0.00    -0.259 OA
HETATM   21  S1  UNL     1       0.683   1.091   0.649  1.00  0.00     0.007 SA
ENDBRANCH  10  12
TORSDOF 1
