REMARK  6 active torsions:
REMARK  status: ('A' for Active; 'I' for Inactive)
REMARK    1  A    between atoms: C3_6  and  N3_7 
REMARK    2  A    between atoms: N3_7  and  C4_9 
REMARK    3  A    between atoms: C4_9  and  O1_10 
REMARK    4  A    between atoms: C4_9  and  C5_12 
REMARK    5  A    between atoms: C5_12  and  N4_13 
REMARK    6  A    between atoms: C8_23  and  N8_24 
ROOT
HETATM    1  N1  UNL     1      -4.206   3.785  -0.807  1.00  0.00    -0.188 NA
HETATM    2  C1  UNL     1      -3.719   2.760  -0.584  1.00  0.00     0.138 C 
HETATM    3  C2  UNL     1      -3.103   1.498  -0.291  1.00  0.00     0.217 A 
HETATM    4  N2  UNL     1      -1.801   1.306  -0.501  1.00  0.00    -0.166 N 
ATOM      5  H2  UNL     1      -1.226   2.060  -0.876  1.00  0.00     0.186 HD
HETATM    6  C3  UNL     1      -1.246   0.106  -0.215  1.00  0.00     0.696 A 
HETATM    7  N7  UNL     1      -2.022  -0.874   0.277  1.00  0.00    -0.022 N 
ATOM      8  H7  UNL     1      -1.599  -1.777   0.491  1.00  0.00     0.203 HD
HETATM    9  C8  UNL     1      -3.317  -0.708   0.494  1.00  0.00     0.692 A 
HETATM   10  N9  UNL     1      -3.852   0.499   0.202  1.00  0.00    -0.166 N 
ATOM     11  H9  UNL     1      -4.848   0.654   0.360  1.00  0.00     0.186 HD
ENDROOT
BRANCH   6  12
HETATM   12  N3  UNL     1       0.013  -0.012  -0.440  1.00  0.00    -0.197 N 
ATOM     13  H3  UNL     1       0.523   0.787  -0.815  1.00  0.00     0.180 HD
BRANCH  12  14
HETATM   14  C4  UNL     1       0.738  -1.251  -0.177  1.00  0.00     0.254 C 
BRANCH  14  15
HETATM   15  O1  UNL     1       0.911  -1.500   1.162  1.00  0.00    -0.374 OA
ATOM     16  H1  UNL     1       1.383  -2.307   1.333  1.00  0.00     0.212 HD
ENDBRANCH  14  15
BRANCH  14  17
HETATM   17  C5  UNL     1       2.065  -1.121  -0.914  1.00  0.00     0.208 C 
BRANCH  17  18
HETATM   18  N4  UNL     1       2.826   0.002  -0.454  1.00  0.00    -0.237 N 
HETATM   19  N5  UNL     1       3.701  -0.046   0.537  1.00  0.00    -0.290 N 
HETATM   20  C6  UNL     1       4.247   1.164   0.727  1.00  0.00     0.201 A 
ATOM     21  H5  UNL     1       3.927  -0.881   1.077  1.00  0.00     0.188 HD
HETATM   22  N6  UNL     1       3.672   1.958  -0.186  1.00  0.00    -0.302 N 
HETATM   23  C7  UNL     1       2.795   1.254  -0.920  1.00  0.00     0.342 A 
ATOM     24  H6  UNL     1       3.871   2.951  -0.306  1.00  0.00     0.171 HD
HETATM   25  O2  UNL     1       2.081   1.717  -1.876  1.00  0.00    -0.245 OA
ENDBRANCH  17  18
ENDBRANCH  14  17
ENDBRANCH  12  14
ENDBRANCH   6  12
BRANCH   9  26
HETATM   26  N8  UNL     1      -4.108  -1.606   0.962  1.00  0.00    -0.234 N 
ATOM     27  H82 UNL     1      -3.704  -2.516   1.182  1.00  0.00     0.174 HD
ATOM     28  H81 UNL     1      -5.106  -1.478   1.129  1.00  0.00     0.174 HD
ENDBRANCH   9  26
TORSDOF 6
