REMARK  9 active torsions:
REMARK  status: ('A' for Active; 'I' for Inactive)
REMARK    1  A    between atoms: C1_4  and  C2_5 
REMARK    2  A    between atoms: C1_4  and  N6_20 
REMARK    3  A    between atoms: C2_5  and  C3_6 
REMARK    4  A    between atoms: C3_6  and  N2_7 
REMARK    5  A    between atoms: C5_12  and  N4_13 
REMARK    6  A    between atoms: N6_20  and  N7_22 
REMARK    7  A    between atoms: N7_22  and  N8_23 
REMARK    8  A    between atoms: N8_23  and  C7_25 
REMARK    9  A    between atoms: C10_28  and  N9_29 
ROOT
HETATM    1  N1  UNL     1       0.197  -0.275   2.677  1.00  0.00    -0.388 N 
ATOM      2  H11 UNL     1       1.201  -0.423   2.780  1.00  0.00     0.157 HD
ATOM      3  H12 UNL     1      -0.396  -0.451   3.488  1.00  0.00     0.157 HD
HETATM    4  C1  UNL     1      -0.267   0.122   1.539  1.00  0.00     0.089 C 
ENDROOT
BRANCH   4   5
HETATM    5  C2  UNL     1      -1.733   0.338   1.389  1.00  0.00     0.097 C 
BRANCH   5   6
HETATM    6  C3  UNL     1      -2.203  -0.605   0.285  1.00  0.00     0.146 C 
BRANCH   6   7
HETATM    7  N2  UNL     1      -3.618  -0.490   0.043  1.00  0.00    -0.250 N 
HETATM    8  C4  UNL     1      -4.077   0.387  -0.859  1.00  0.00     0.344 A 
HETATM    9  O1  UNL     1      -3.266   1.103  -1.487  1.00  0.00    -0.246 OA
HETATM   10  N3  UNL     1      -5.379   0.497  -1.086  1.00  0.00    -0.141 N 
HETATM   11  C5  UNL     1      -6.242  -0.280  -0.403  1.00  0.00     0.683 A 
ATOM     12  H3  UNL     1      -5.725   1.166  -1.774  1.00  0.00     0.189 HD
HETATM   13  N5  UNL     1      -5.793  -1.162   0.504  1.00  0.00    -0.141 N 
HETATM   14  C6  UNL     1      -4.465  -1.271   0.732  1.00  0.00     0.344 A 
ATOM     15  H5  UNL     1      -6.451  -1.747   1.019  1.00  0.00     0.189 HD
HETATM   16  O2  UNL     1      -4.019  -2.076   1.562  1.00  0.00    -0.246 OA
BRANCH  11  17
HETATM   17  N4  UNL     1      -7.505  -0.169  -0.627  1.00  0.00    -0.234 N 
ATOM     18  H42 UNL     1      -7.846   0.501  -1.316  1.00  0.00     0.174 HD
ATOM     19  H41 UNL     1      -8.158  -0.757  -0.110  1.00  0.00     0.174 HD
ENDBRANCH  11  17
ENDBRANCH   6   7
ENDBRANCH   5   6
ENDBRANCH   4   5
BRANCH   4  20
HETATM   20  N6  UNL     1       0.557   0.366   0.413  1.00  0.00    -0.273 N 
ATOM     21  H6  UNL     1       0.837   1.325   0.205  1.00  0.00     0.185 HD
BRANCH  20  22
HETATM   22  N7  UNL     1       1.001  -0.667  -0.425  1.00  0.00    -0.021 NA
BRANCH  22  23
HETATM   23  N8  UNL     1       1.940  -0.166  -1.320  1.00  0.00    -0.284 N 
ATOM     24  H8  UNL     1       1.672   0.020  -2.286  1.00  0.00     0.184 HD
BRANCH  23  25
HETATM   25  C7  UNL     1       3.279   0.090  -0.892  1.00  0.00     0.046 A 
HETATM   26  C8  UNL     1       3.696  -0.143   0.399  1.00  0.00     0.033 A 
HETATM   27  C9  UNL     1       4.994   0.111   0.794  1.00  0.00     0.038 A 
HETATM   28  C10 UNL     1       5.932   0.609  -0.093  1.00  0.00     0.103 A 
HETATM   29  C11 UNL     1       5.505   0.839  -1.383  1.00  0.00     0.038 A 
HETATM   30  C12 UNL     1       4.204   0.587  -1.786  1.00  0.00     0.033 A 
BRANCH  28  31
HETATM   31  N9  UNL     1       7.264   0.866   0.325  1.00  0.00    -0.116 N 
HETATM   32  O3  UNL     1       8.090   1.314  -0.487  1.00  0.00    -0.532 OA
HETATM   33  O4  UNL     1       7.681   0.636   1.610  1.00  0.00    -0.532 OA
ENDBRANCH  28  31
ENDBRANCH  23  25
ENDBRANCH  22  23
ENDBRANCH  20  22
ENDBRANCH   4  20
TORSDOF 9
