REMARK  10 active torsions:
REMARK  status: ('A' for Active; 'I' for Inactive)
REMARK    1  A    between atoms: N1_1  and  C1_5 
REMARK    2  A    between atoms: C1_5  and  C2_6 
REMARK    3  A    between atoms: C2_6  and  C3_7 
REMARK    4  A    between atoms: C3_7  and  C4_8 
REMARK    5  A    between atoms: C4_8  and  C5_9 
REMARK    6  A    between atoms: C5_9  and  C6_10 
REMARK    7  A    between atoms: C6_10  and  N2_11 
REMARK    8  A    between atoms: N2_11  and  C7_14 
REMARK    9  A    between atoms: C12_26  and  O1_27 
REMARK   10  A    between atoms: C15_34  and  O2_35 
ROOT
HETATM    1  C7  UNL     1      -0.394   0.075   0.001  1.00  0.00     0.318 C 
HETATM    2  N3  UNL     1      -0.905   1.406   0.116  1.00  0.00    -0.344 N 
ATOM      3  H3  UNL     1      -0.230   2.139  -0.103  1.00  0.00     0.163 HD
HETATM    4  C8  UNL     1      -2.213   1.889   0.489  1.00  0.00     0.147 A 
HETATM    5  N4  UNL     1      -2.188   3.062   1.105  1.00  0.00    -0.348 N 
ATOM      6  H4  UNL     1      -1.307   3.546   1.279  1.00  0.00     0.167 HD
HETATM    7  C9  UNL     1      -3.372   3.601   1.498  1.00  0.00     0.107 A 
HETATM    8  C10 UNL     1      -4.536   2.908   1.239  1.00  0.00     0.107 A 
HETATM    9  N5  UNL     1      -4.562   1.718   0.614  1.00  0.00    -0.348 N 
ATOM     10  H5  UNL     1      -5.441   1.232   0.438  1.00  0.00     0.167 HD
HETATM   11  C11 UNL     1      -3.389   1.194   0.231  1.00  0.00     0.152 A 
HETATM   12  N6  UNL     1      -3.604  -0.062  -0.415  1.00  0.00    -0.305 N 
HETATM   13  C12 UNL     1      -4.879  -0.668  -0.755  1.00  0.00     0.249 C 
HETATM   14  C13 UNL     1      -4.422  -1.784  -1.695  1.00  0.00     0.288 C 
HETATM   15  N7  UNL     1      -3.198  -2.189  -1.030  1.00  0.00    -0.047 N 
ATOM     16  H71 UNL     1      -2.658  -2.901  -1.522  1.00  0.00     0.279 HD
ATOM     17  H72 UNL     1      -3.333  -2.735  -0.179  1.00  0.00     0.279 HD
HETATM   18  C14 UNL     1      -2.519  -0.942  -0.843  1.00  0.00     0.322 C 
HETATM   19  C15 UNL     1      -1.469  -0.975   0.213  1.00  0.00     0.218 C 
ENDROOT
BRANCH   1  20
HETATM   20  N2  UNL     1       0.636  -0.127   0.985  1.00  0.00    -0.052 N 
ATOM     21  H22 UNL     1       0.972  -1.090   0.972  1.00  0.00     0.279 HD
ATOM     22  H21 UNL     1       0.252  -0.101   1.929  1.00  0.00     0.279 HD
BRANCH  20  23
HETATM   23  C6  UNL     1       1.729   0.808   0.842  1.00  0.00     0.235 C 
BRANCH  23  24
HETATM   24  C5  UNL     1       2.819   0.543   1.865  1.00  0.00     0.027 C 
BRANCH  24  25
HETATM   25  C4  UNL     1       3.389  -0.846   1.717  1.00  0.00     0.002 C 
BRANCH  25  26
HETATM   26  C3  UNL     1       4.002  -1.094   0.365  1.00  0.00     0.002 C 
BRANCH  26  27
HETATM   27  C2  UNL     1       5.124  -0.142   0.089  1.00  0.00     0.027 C 
BRANCH  27  28
HETATM   28  C1  UNL     1       5.685  -0.457  -1.281  1.00  0.00     0.229 C 
BRANCH  28  29
HETATM   29  N1  UNL     1       6.181  -1.808  -1.342  1.00  0.00    -0.079 N 
ATOM     30  H13 UNL     1       6.863  -1.991  -0.606  1.00  0.00     0.274 HD
ATOM     31  H12 UNL     1       5.468  -2.482  -1.065  1.00  0.00     0.274 HD
ATOM     32  H11 UNL     1       6.559  -2.020  -2.265  1.00  0.00     0.274 HD
ENDBRANCH  28  29
ENDBRANCH  27  28
ENDBRANCH  26  27
ENDBRANCH  25  26
ENDBRANCH  24  25
ENDBRANCH  23  24
ENDBRANCH  20  23
ENDBRANCH   1  20
BRANCH  19  33
HETATM   33  O2  UNL     1      -1.988  -0.862   1.503  1.00  0.00    -0.388 OA
ATOM     34  H2  UNL     1      -2.661  -1.519   1.636  1.00  0.00     0.210 HD
ENDBRANCH  19  33
BRANCH  13  35
HETATM   35  O1  UNL     1      -5.674   0.255  -1.423  1.00  0.00    -0.375 OA
ATOM     36  H1  UNL     1      -6.508  -0.141  -1.645  1.00  0.00     0.212 HD
ENDBRANCH  13  35
TORSDOF 10
