REMARK  10 active torsions:
REMARK  status: ('A' for Active; 'I' for Inactive)
REMARK    1  A    between atoms: C2_2  and  O1_3 
REMARK    2  A    between atoms: O1_3  and  C3_4 
REMARK    3  A    between atoms: C3_4  and  O2_5 
REMARK    4  A    between atoms: C3_4  and  C4_7 
REMARK    5  A    between atoms: C4_7  and  S1_8 
REMARK    6  A    between atoms: C9_14  and  C10_15 
REMARK    7  A    between atoms: C9_14  and  N2_18 
REMARK    8  A    between atoms: C10_15  and  O3_16 
REMARK    9  A    between atoms: N2_18  and  N3_20 
REMARK   10  A    between atoms: N3_20  and  N4_21 
ROOT
HETATM    1  S1  UNL     1      -0.699  -2.260  -1.762  1.00  0.00    -0.007 SA
HETATM    2  C5  UNL     1      -0.519  -3.761  -0.854  1.00  0.00     0.136 C 
HETATM    3  N1  UNL     1      -0.406  -4.767  -0.265  1.00  0.00    -0.184 NA
ENDROOT
BRANCH   1   4
HETATM    4  C4  UNL     1      -0.071  -0.901  -0.707  1.00  0.00     0.175 C 
HETATM    5  C6  UNL     1      -0.411   0.436  -1.271  1.00  0.00     0.065 C 
HETATM    6  C7  UNL     1      -1.048   1.146  -0.095  1.00  0.00     0.045 C 
HETATM    7  C8  UNL     1      -2.134   2.065  -0.590  1.00  0.00     0.015 C 
HETATM    8  C9  UNL     1      -1.555   0.004   0.721  1.00  0.00     0.186 C 
HETATM    9  O4  UNL     1      -0.701  -1.042   0.519  1.00  0.00    -0.328 OA
BRANCH   4  10
HETATM   10  C3  UNL     1       1.420  -1.151  -0.571  1.00  0.00     0.302 C 
BRANCH  10  11
HETATM   11  O1  UNL     1       2.031  -0.273   0.309  1.00  0.00    -0.358 OA
BRANCH  11  12
HETATM   12  C2  UNL     1       3.084   0.392  -0.301  1.00  0.00     0.166 C 
HETATM   13  C1  UNL     1       3.748   1.356   0.670  1.00  0.00     0.033 C 
ENDBRANCH  11  12
ENDBRANCH  10  11
BRANCH  10  14
HETATM   14  O2  UNL     1       1.559  -2.483  -0.130  1.00  0.00    -0.367 OA
ATOM     15  H2  UNL     1       1.140  -3.085  -0.734  1.00  0.00     0.212 HD
ENDBRANCH  10  14
ENDBRANCH   4  10
BRANCH   8  16
HETATM   16  C10 UNL     1      -2.996  -0.339   0.406  1.00  0.00     0.227 C 
BRANCH  16  17
HETATM   17  O3  UNL     1      -3.449  -1.414   1.137  1.00  0.00    -0.396 OA
ATOM     18  H3  UNL     1      -4.353  -1.629   0.939  1.00  0.00     0.209 HD
ENDBRANCH  16  17
ENDBRANCH   8  16
BRANCH   8  19
HETATM   19  N2  UNL     1      -1.508   0.327   2.151  1.00  0.00    -0.214 N 
ATOM     20  H2  UNL     1      -2.152  -0.135   2.792  1.00  0.00     0.200 HD
BRANCH  19  21
HETATM   21  N3  UNL     1      -0.703   1.147   2.587  1.00  0.00    -0.246 NA
BRANCH  21  22
HETATM   22  N4  UNL     1      -0.196   2.160   3.061  1.00  0.00    -0.261 N 
ATOM     23  H42 UNL     1      -1.081   2.661   3.145  1.00  0.00     0.193 HD
ATOM     24  H41 UNL     1       0.472   2.841   3.423  1.00  0.00     0.193 HD
ENDBRANCH  21  22
ENDBRANCH  19  21
ENDBRANCH   8  19
ENDBRANCH   1   4
TORSDOF 10
