REMARK  5 active torsions:
REMARK  status: ('A' for Active; 'I' for Inactive)
REMARK    1  A    between atoms: S1_2  and  C2_3 
REMARK    2  A    between atoms: C3_8  and  S2_9 
REMARK    3  A    between atoms: S2_9  and  C4_10 
REMARK    4  A    between atoms: C4_10  and  C5_11 
REMARK       I    between atoms: C5_11  and  N3_13 
REMARK    5  A    between atoms: N3_13  and  C6_15 
ROOT
HETATM    1  C4  UNL     1      -0.010   0.712   2.551  1.00  0.00     0.184 C 
ENDROOT
BRANCH   1   2
HETATM    2  S2  UNL     1       0.856  -0.852   2.832  1.00  0.00    -0.094 SA
BRANCH   2   3
HETATM    3  C3  UNL     1       2.450  -0.811   1.993  1.00  0.00     0.129 A 
HETATM    4  N2  UNL     1       3.613  -0.389   2.496  1.00  0.00    -0.287 N 
HETATM    5  N1  UNL     1       4.651  -0.415   1.781  1.00  0.00    -0.287 N 
ATOM      6  H2  UNL     1       3.661  -0.047   3.456  1.00  0.00     0.188 HD
HETATM    7  C2  UNL     1       4.582  -0.864   0.532  1.00  0.00     0.128 A 
ATOM      8  H1  UNL     1       5.541  -0.092   2.160  1.00  0.00     0.188 HD
HETATM    9  S3  UNL     1       2.923  -1.260   0.413  1.00  0.00    -0.038 SA
BRANCH   7  10
HETATM   10  S1  UNL     1       5.948  -0.975  -0.618  1.00  0.00    -0.108 SA
HETATM   11  C1  UNL     1       6.143   0.555  -1.572  1.00  0.00     0.097 C 
ENDBRANCH   7  10
ENDBRANCH   2   3
ENDBRANCH   1   2
BRANCH   1  12
HETATM   12  C5  UNL     1      -0.433   0.776   1.132  1.00  0.00     0.228 C 
HETATM   13  O1  UNL     1       0.424   1.066   0.271  1.00  0.00    -0.273 OA
HETATM   14  N3  UNL     1      -1.774   0.508   0.843  1.00  0.00    -0.333 N 
ATOM     15  H3  UNL     1      -2.396   0.271   1.616  1.00  0.00     0.164 HD
BRANCH  14  16
HETATM   16  C6  UNL     1      -2.329   0.549  -0.495  1.00  0.00     0.286 C 
HETATM   17  C7  UNL     1      -2.674  -0.862  -0.903  1.00  0.00     0.056 C 
HETATM   18  C8  UNL     1      -3.876  -0.670  -1.797  1.00  0.00     0.031 C 
HETATM   19  C9  UNL     1      -4.610   0.416  -0.990  1.00  0.00     0.235 C 
HETATM   20  N4  UNL     1      -3.553   1.291  -0.548  1.00  0.00    -0.054 N 
ATOM     21  H42 UNL     1      -3.770   1.747   0.338  1.00  0.00     0.279 HD
ATOM     22  H41 UNL     1      -3.475   2.129  -1.124  1.00  0.00     0.279 HD
ENDBRANCH  14  16
ENDBRANCH   1  12
TORSDOF 5
