REMARK  6 active torsions:
REMARK  status: ('A' for Active; 'I' for Inactive)
REMARK    1  A    between atoms: O1_2  and  N1_3 
REMARK    2  A    between atoms: C2_5  and  C3_6 
REMARK    3  A    between atoms: C2_5  and  C15_32 
REMARK    4  A    between atoms: C4_9  and  C5_10 
REMARK    5  A    between atoms: N3_12  and  N4_14 
REMARK       I    between atoms: N4_14  and  C7_16 
REMARK    6  A    between atoms: C8_21  and  N7_22 
ROOT
HETATM    1  C3  UNL     1       1.867  -0.355   0.247  1.00  0.00     0.128 A 
HETATM    2  N2  UNL     1       0.908   0.564   0.458  1.00  0.00    -0.345 N 
ATOM      3  H2  UNL     1       1.191   1.497   0.759  1.00  0.00     0.166 HD
HETATM    4  C4  UNL     1      -0.430   0.314   0.290  1.00  0.00     0.101 A 
HETATM    5  C8  UNL     1      -0.798  -0.939  -0.113  1.00  0.00     0.135 A 
HETATM    6  N8  UNL     1       0.205  -1.861  -0.322  1.00  0.00    -0.306 N 
ATOM      7  H8  UNL     1      -0.063  -2.798  -0.623  1.00  0.00     0.170 HD
HETATM    8  C14 UNL     1       1.504  -1.606  -0.156  1.00  0.00     0.276 A 
HETATM    9  O2  UNL     1       2.350  -2.539  -0.380  1.00  0.00    -0.266 OA
ENDROOT
BRANCH   4  10
HETATM   10  C5  UNL     1      -1.385   1.375   0.536  1.00  0.00     0.052 C 
HETATM   11  C6  UNL     1      -0.915   2.737   0.983  1.00  0.00     0.072 C 
HETATM   12  N3  UNL     1      -2.622   1.219   0.394  1.00  0.00    -0.301 N 
ATOM     13  H3  UNL     1      -2.966   0.307   0.093  1.00  0.00     0.186 HD
BRANCH  12  14
HETATM   14  N4  UNL     1      -3.534   2.219   0.625  1.00  0.00    -0.274 N 
HETATM   15  C7  UNL     1      -3.716   3.255  -0.318  1.00  0.00     0.200 C 
HETATM   16  N5  UNL     1      -3.802   2.924  -1.575  1.00  0.00    -0.372 N 
HETATM   17  N6  UNL     1      -3.798   4.594   0.111  1.00  0.00    -0.062 NA
ATOM     18  H52 UNL     1      -3.743   1.954  -1.886  1.00  0.00     0.158 HD
ATOM     19  H51 UNL     1      -3.933   3.672  -2.256  1.00  0.00     0.158 HD
ATOM     20  H4  UNL     1      -4.084   2.214   1.484  1.00  0.00     0.189 HD
ENDBRANCH  12  14
ENDBRANCH   4  10
BRANCH   5  21
HETATM   21  N7  UNL     1      -2.132  -1.360  -0.324  1.00  0.00    -0.365 N 
HETATM   22  C9  UNL     1      -2.815  -1.172  -1.574  1.00  0.00     0.124 C 
HETATM   23  C10 UNL     1      -2.868  -2.500  -2.282  1.00  0.00     0.020 C 
HETATM   24  C11 UNL     1      -3.021  -3.597  -1.270  1.00  0.00     0.003 C 
HETATM   25  C12 UNL     1      -3.697  -3.184   0.007  1.00  0.00     0.020 C 
HETATM   26  C13 UNL     1      -2.880  -2.067   0.698  1.00  0.00     0.124 C 
ENDBRANCH   5  21
BRANCH   1  27
HETATM   27  C2  UNL     1       3.287   0.004   0.460  1.00  0.00     0.086 C 
HETATM   28  N1  UNL     1       3.518   1.225   0.832  1.00  0.00    -0.267 N 
ATOM     29  H1  UNL     1       2.709   1.835   0.948  1.00  0.00     0.194 HD
BRANCH  28  30
HETATM   30  O1  UNL     1       4.718   1.756   1.077  1.00  0.00    -0.285 OA
HETATM   31  C1  UNL     1       5.162   3.039   0.676  1.00  0.00     0.237 C 
ENDBRANCH  28  30
BRANCH  27  32
HETATM   32  C15 UNL     1       4.363  -0.925   0.260  1.00  0.00     0.165 C 
HETATM   33  C16 UNL     1       5.780  -0.502   0.573  1.00  0.00     0.159 C 
HETATM   34  N9  UNL     1       5.944  -1.985   0.680  1.00  0.00    -0.146 NA
HETATM   35  N10 UNL     1       4.648  -1.921   1.296  1.00  0.00    -0.136 NA
ENDBRANCH  27  32
ENDBRANCH   1  27
TORSDOF 6
