REMARK  12 active torsions:
REMARK  status: ('A' for Active; 'I' for Inactive)
REMARK    1  A    between atoms: C5_5  and  C6_6 
REMARK    2  A    between atoms: C5_5  and  N2_12 
REMARK    3  A    between atoms: C6_6  and  O1_7 
REMARK    4  A    between atoms: C6_6  and  N1_9 
REMARK    5  A    between atoms: N2_12  and  C9_13 
REMARK    6  A    between atoms: N2_12  and  C14_18 
REMARK    7  A    between atoms: C10_14  and  C11_15 
REMARK    8  A    between atoms: C23_27  and  O2_28 
REMARK    9  A    between atoms: C24_30  and  O3_31 
REMARK   10  A    between atoms: C25_33  and  O4_34 
REMARK   11  A    between atoms: C26_36  and  O5_37 
REMARK   12  A    between atoms: C27_39  and  O6_40 
ROOT
HETATM    1  C1  UNL     1       0.800   1.622  -3.179  1.00  0.00     0.016 C 
HETATM    2  C2  UNL     1       0.482   2.156  -2.007  1.00  0.00    -0.066 C 
HETATM    3  C3  UNL     1      -0.930   2.048  -1.533  1.00  0.00     0.038 C 
HETATM    4  C4  UNL     1      -1.474   0.687  -1.662  1.00  0.00     0.044 C 
HETATM    5  C5  UNL     1      -1.723  -0.167  -0.438  1.00  0.00     0.097 C 
HETATM    6  C18 UNL     1      -0.380  -0.751  -0.116  1.00  0.00     0.040 C 
HETATM    7  C19 UNL     1      -0.251  -2.045   0.562  1.00  0.00     0.003 C 
HETATM    8  C20 UNL     1       0.706  -3.045  -0.121  1.00  0.00     0.000 C 
HETATM    9  C21 UNL     1       2.008  -2.323  -0.306  1.00  0.00     0.002 C 
HETATM   10  C22 UNL     1       3.181  -2.963   0.407  1.00  0.00     0.034 C 
HETATM   11  C23 UNL     1       3.901  -2.004   1.303  1.00  0.00     0.149 C 
HETATM   12  C24 UNL     1       5.166  -1.432   0.779  1.00  0.00     0.178 C 
HETATM   13  C25 UNL     1       5.124  -0.829  -0.580  1.00  0.00     0.180 C 
HETATM   14  C26 UNL     1       5.618   0.605  -0.637  1.00  0.00     0.180 C 
HETATM   15  C27 UNL     1       4.498   1.598  -0.415  1.00  0.00     0.175 C 
HETATM   16  C29 UNL     1       3.351   1.443  -1.348  1.00  0.00     0.202 C 
HETATM   17  O7  UNL     1       2.772   2.633  -1.777  1.00  0.00    -0.384 OA
HETATM   18  C30 UNL     1       1.528   2.850  -1.207  1.00  0.00     0.201 C 
ENDROOT
BRANCH   5  19
HETATM   19  C6  UNL     1      -2.457  -1.365  -0.923  1.00  0.00     0.142 C 
BRANCH  19  20
HETATM   20  O1  UNL     1      -3.323  -1.928  -0.127  1.00  0.00    -0.348 OA
ATOM     21  H1  UNL     1      -3.792  -2.694  -0.437  1.00  0.00     0.219 HD
ENDBRANCH  19  20
BRANCH  19  22
HETATM   22  N1  UNL     1      -2.459  -2.099  -2.106  1.00  0.00    -0.372 N 
HETATM   23  C7  UNL     1      -3.391  -3.268  -2.200  1.00  0.00     0.150 C 
HETATM   24  C8  UNL     1      -1.700  -1.951  -3.312  1.00  0.00     0.150 C 
ENDBRANCH  19  22
ENDBRANCH   5  19
BRANCH   5  25
HETATM   25  N2  UNL     1      -2.385   0.565   0.626  1.00  0.00    -0.365 N 
BRANCH  25  26
HETATM   26  C9  UNL     1      -3.598   0.975   0.121  1.00  0.00     0.084 C 
HETATM   27  C10 UNL     1      -4.836   1.480   0.603  1.00  0.00    -0.006 C 
BRANCH  27  28
HETATM   28  C11 UNL     1      -5.776   0.668   1.474  1.00  0.00     0.001 C 
HETATM   29  C12 UNL     1      -6.995   1.575   1.830  1.00  0.00     0.013 C 
HETATM   30  C13 UNL     1      -6.441  -0.465   0.715  1.00  0.00     0.013 C 
ENDBRANCH  27  28
ENDBRANCH  25  26
BRANCH  25  31
HETATM   31  C14 UNL     1      -1.903   0.728   1.885  1.00  0.00     0.022 C 
HETATM   32  C15 UNL     1      -0.525   1.271   2.161  1.00  0.00     0.037 C 
HETATM   33  C16 UNL     1      -2.123  -0.372   2.854  1.00  0.00     0.037 C 
HETATM   34  C17 UNL     1      -2.705   1.943   2.527  1.00  0.00     0.037 C 
ENDBRANCH  25  31
ENDBRANCH   5  25
BRANCH  11  35
HETATM   35  O2  UNL     1       4.209  -2.695   2.490  1.00  0.00    -0.393 OA
ATOM     36  H2  UNL     1       4.666  -2.086   3.059  1.00  0.00     0.210 HD
ENDBRANCH  11  35
BRANCH  15  37
HETATM   37  O6  UNL     1       4.969   2.885  -0.463  1.00  0.00    -0.386 OA
HETATM   38  C28 UNL     1       4.876   3.541   0.769  1.00  0.00     0.202 C 
ENDBRANCH  15  37
BRANCH  12  39
HETATM   39  O3  UNL     1       5.568  -0.400   1.663  1.00  0.00    -0.390 OA
ATOM     40  H3  UNL     1       6.378  -0.034   1.328  1.00  0.00     0.210 HD
ENDBRANCH  12  39
BRANCH  14  41
HETATM   41  O5  UNL     1       6.259   0.793  -1.844  1.00  0.00    -0.390 OA
ATOM     42  H5  UNL     1       6.568   1.691  -1.880  1.00  0.00     0.210 HD
ENDBRANCH  14  41
BRANCH  13  43
HETATM   43  O4  UNL     1       6.015  -1.578  -1.387  1.00  0.00    -0.390 OA
ATOM     44  H4  UNL     1       5.988  -1.193  -2.255  1.00  0.00     0.210 HD
ENDBRANCH  13  43
TORSDOF 12
