REMARK  4 active torsions:
REMARK  status: ('A' for Active; 'I' for Inactive)
REMARK    1  A    between atoms: N1_1  and  C1_4 
REMARK    2  A    between atoms: C2_7  and  C3_8 
REMARK       I    between atoms: C3_8  and  N3_10 
REMARK       I    between atoms: N3_10  and  C4_12 
REMARK       I    between atoms: C4_12  and  N4_13 
REMARK       I    between atoms: C4_12  and  N5_17 
REMARK    3  A    between atoms: C6_22  and  C7_23 
REMARK       I    between atoms: C7_23  and  N6_25 
REMARK    4  A    between atoms: N6_25  and  N7_27 
ROOT
HETATM    1  C1  UNL     1      -1.668  -0.799   2.318  1.00  0.00     0.677 A 
HETATM    2  N2  UNL     1      -0.340  -0.601   2.252  1.00  0.00    -0.186 N 
ATOM      3  H2  UNL     1       0.222  -0.833   3.071  1.00  0.00     0.184 HD
HETATM    4  C2  UNL     1       0.290  -0.114   1.168  1.00  0.00     0.119 A 
HETATM    5  C5  UNL     1      -0.531   0.191   0.077  1.00  0.00     0.071 A 
HETATM    6  C6  UNL     1      -1.895   0.010   0.090  1.00  0.00     0.120 A 
HETATM    7  N8  UNL     1      -2.433  -0.489   1.230  1.00  0.00    -0.186 N 
ATOM      8  H8  UNL     1      -3.441  -0.638   1.277  1.00  0.00     0.184 HD
ENDROOT
BRANCH   4   9
HETATM    9  C3  UNL     1       1.715   0.133   1.108  1.00  0.00     0.271 C 
HETATM   10  O1  UNL     1       2.331   0.381   2.163  1.00  0.00    -0.266 OA
HETATM   11  N3  UNL     1       2.379   0.082  -0.147  1.00  0.00    -0.306 N 
HETATM   12  C4  UNL     1       3.801   0.323  -0.245  1.00  0.00     0.483 C 
ATOM     13  H3  UNL     1       1.845  -0.128  -0.990  1.00  0.00     0.166 HD
HETATM   14  N4  UNL     1       4.539  -0.950  -0.240  1.00  0.00    -0.033 N 
HETATM   15  N5  UNL     1       4.066   1.117  -1.413  1.00  0.00    -0.033 N 
ATOM     16  H43 UNL     1       4.306  -1.521   0.572  1.00  0.00     0.278 HD
ATOM     17  H42 UNL     1       4.210  -1.583  -0.969  1.00  0.00     0.278 HD
ATOM     18  H41 UNL     1       5.542  -0.780  -0.309  1.00  0.00     0.278 HD
ATOM     19  H53 UNL     1       3.685   0.698  -2.261  1.00  0.00     0.278 HD
ATOM     20  H52 UNL     1       3.525   1.982  -1.424  1.00  0.00     0.278 HD
ATOM     21  H51 UNL     1       5.069   1.287  -1.482  1.00  0.00     0.278 HD
ENDBRANCH   4   9
BRANCH   1  22
HETATM   22  N1  UNL     1      -2.215  -1.285   3.394  1.00  0.00    -0.234 N 
ATOM     23  H12 UNL     1      -1.644  -1.517   4.207  1.00  0.00     0.174 HD
ATOM     24  H11 UNL     1      -3.223  -1.435   3.444  1.00  0.00     0.174 HD
ENDBRANCH   1  22
BRANCH   6  25
HETATM   25  C7  UNL     1      -2.705   0.397  -1.059  1.00  0.00     0.291 C 
HETATM   26  O2  UNL     1      -2.152   1.042  -2.008  1.00  0.00    -0.264 OA
HETATM   27  N6  UNL     1      -4.075   0.095  -1.174  1.00  0.00    -0.204 N 
ATOM     28  H6  UNL     1      -4.538  -0.431  -0.433  1.00  0.00     0.196 HD
BRANCH  27  29
HETATM   29  N7  UNL     1      -4.805   0.504  -2.283  1.00  0.00    -0.036 N 
HETATM   30  O3  UNL     1      -4.406   0.320  -3.435  1.00  0.00    -0.516 OA
HETATM   31  O4  UNL     1      -6.010   1.137  -2.084  1.00  0.00    -0.516 OA
ENDBRANCH  27  29
ENDBRANCH   6  25
TORSDOF 4
