REMARK  7 active torsions:
REMARK  status: ('A' for Active; 'I' for Inactive)
REMARK    1  A    between atoms: C3_3  and  N1_4 
REMARK    2  A    between atoms: N1_4  and  C5_6 
REMARK    3  A    between atoms: C5_6  and  C6_7 
REMARK    4  A    between atoms: C7_8  and  C8_9 
REMARK    5  A    between atoms: C8_9  and  N2_10 
REMARK    6  A    between atoms: C12_14  and  C13_15 
REMARK    7  A    between atoms: C13_15  and  N3_16 
ROOT
HETATM    1  C1  UNL     1       5.442   3.078   0.188  1.00  0.00     0.013 C 
HETATM    2  C2  UNL     1       5.051   1.978   0.486  1.00  0.00    -0.087 C 
HETATM    3  C3  UNL     1       4.560   0.634   0.865  1.00  0.00     0.365 C 
ENDROOT
BRANCH   3   4
HETATM    4  N1  UNL     1       4.544  -0.186  -0.299  1.00  0.00     0.105 N 
HETATM    5  C4  UNL     1       5.806  -0.536  -0.850  1.00  0.00     0.312 C 
BRANCH   4   6
HETATM    6  C5  UNL     1       3.698  -1.340  -0.233  1.00  0.00     0.366 C 
BRANCH   6   7
HETATM    7  C6  UNL     1       2.307  -0.847  -0.215  1.00  0.00    -0.075 C 
HETATM    8  C7  UNL     1       1.171  -0.424  -0.220  1.00  0.00    -0.077 C 
BRANCH   8   9
HETATM    9  C8  UNL     1      -0.176   0.107  -0.242  1.00  0.00     0.330 C 
BRANCH   9  10
HETATM   10  N2  UNL     1      -1.194  -0.868   0.090  1.00  0.00    -0.060 N 
HETATM   11  C9  UNL     1      -0.779  -1.800   1.100  1.00  0.00     0.273 C 
HETATM   12  C10 UNL     1      -1.673  -1.601  -1.036  1.00  0.00     0.239 C 
HETATM   13  C11 UNL     1      -3.163  -1.290  -1.151  1.00  0.00     0.039 C 
HETATM   14  C12 UNL     1      -3.138   0.158  -0.602  1.00  0.00     0.051 C 
HETATM   15  C15 UNL     1      -2.308  -0.089   0.635  1.00  0.00     0.247 C 
BRANCH  14  16
HETATM   16  C13 UNL     1      -4.517   0.622  -0.296  1.00  0.00     0.061 C 
BRANCH  16  17
HETATM   17  N3  UNL     1      -4.606   1.937   0.197  1.00  0.00    -0.406 N 
HETATM   18  C14 UNL     1      -4.111   2.230   1.489  1.00  0.00     0.145 C 
ATOM     19  H3  UNL     1      -5.024   2.673  -0.373  1.00  0.00     0.158 HD
ENDBRANCH  16  17
ENDBRANCH  14  16
ENDBRANCH   9  10
ENDBRANCH   8   9
ENDBRANCH   6   7
ENDBRANCH   4   6
ENDBRANCH   3   4
TORSDOF 7
