REMARK  6 active torsions:
REMARK  status: ('A' for Active; 'I' for Inactive)
REMARK    1  A    between atoms: C2_2  and  N1_3 
REMARK    2  A    between atoms: N1_3  and  C5_6 
REMARK    3  A    between atoms: N2_9  and  C9_11 
REMARK    4  A    between atoms: C9_11  and  C10_12 
REMARK    5  A    between atoms: C10_12  and  N3_13 
REMARK    6  A    between atoms: N3_13  and  O1_15 
ROOT
HETATM    1  C5  UNL     1       1.543   0.018  -0.042  1.00  0.00     0.192 C 
HETATM    2  C6  UNL     1       0.839  -0.834   0.954  1.00  0.00     0.061 C 
HETATM    3  C7  UNL     1      -0.585  -0.481   1.117  1.00  0.00     0.239 C 
HETATM    4  N2  UNL     1      -1.340  -0.099  -0.044  1.00  0.00    -0.070 N 
HETATM    5  C8  UNL     1      -2.062  -1.230  -0.577  1.00  0.00     0.272 C 
HETATM    6  C12 UNL     1      -0.556   0.452  -1.131  1.00  0.00     0.239 C 
HETATM    7  C13 UNL     1       0.750  -0.234  -1.333  1.00  0.00     0.061 C 
ENDROOT
BRANCH   4   8
HETATM    8  C9  UNL     1      -2.224   0.951   0.370  1.00  0.00     0.253 C 
BRANCH   8   9
HETATM    9  C10 UNL     1      -3.489   0.589   1.037  1.00  0.00     0.148 C 
BRANCH   9  10
HETATM   10  N3  UNL     1      -4.462  -0.134   0.291  1.00  0.00    -0.202 NA
HETATM   11  C11 UNL     1      -5.079   0.679  -0.745  1.00  0.00     0.143 C 
BRANCH  10  12
HETATM   12  O1  UNL     1      -5.439  -0.575   1.104  1.00  0.00    -0.314 OA
ATOM     13  H1  UNL     1      -6.088  -1.058   0.606  1.00  0.00     0.237 HD
ENDBRANCH  10  12
ENDBRANCH   9  10
ENDBRANCH   8   9
ENDBRANCH   4   8
BRANCH   1  14
HETATM   14  N1  UNL     1       2.909  -0.204  -0.254  1.00  0.00    -0.071 N 
HETATM   15  C3  UNL     1       3.457   0.959  -0.978  1.00  0.00     0.272 C 
HETATM   16  C4  UNL     1       3.193  -1.348  -1.132  1.00  0.00     0.272 C 
BRANCH  14  17
HETATM   17  C2  UNL     1       3.738  -0.357   0.899  1.00  0.00     0.232 C 
HETATM   18  C1  UNL     1       4.333   0.975   1.372  1.00  0.00     0.035 C 
ENDBRANCH  14  17
ENDBRANCH   1  14
TORSDOF 6
