REMARK  5 active torsions:
REMARK  status: ('A' for Active; 'I' for Inactive)
REMARK    1  A    between atoms: C2_2  and  O1_4 
REMARK    2  A    between atoms: O1_4  and  C4_5 
REMARK    3  A    between atoms: C12_14  and  O3_15 
REMARK    4  A    between atoms: O3_15  and  C13_16 
REMARK    5  A    between atoms: C13_16  and  C14_18 
ROOT
HETATM    1  C4  UNL     1      -2.859  -0.699   0.007  1.00  0.00     0.060 C 
HETATM    2  C5  UNL     1      -3.330  -1.565   1.187  1.00  0.00     0.046 C 
HETATM    3  C6  UNL     1      -2.220  -1.644  -0.962  1.00  0.00     0.038 C 
HETATM    4  C7  UNL     1      -0.775  -1.960  -0.581  1.00  0.00     0.010 C 
HETATM    5  C8  UNL     1      -0.064  -0.646  -0.669  1.00  0.00     0.021 C 
HETATM    6  C9  UNL     1      -0.587   0.391   0.257  1.00  0.00     0.129 C 
HETATM    7  C10 UNL     1      -2.041   0.414   0.483  1.00  0.00     0.070 C 
HETATM    8  O2  UNL     1      -0.091   1.624  -0.239  1.00  0.00    -0.383 OA
HETATM    9  C11 UNL     1       1.280   1.715  -0.036  1.00  0.00     0.201 C 
HETATM   10  C12 UNL     1       2.051   0.589  -0.663  1.00  0.00     0.160 C 
HETATM   11  C17 UNL     1       1.425  -0.760  -0.461  1.00  0.00     0.020 C 
HETATM   12  C18 UNL     1       1.749  -1.267   0.926  1.00  0.00     0.013 C 
ENDROOT
BRANCH  10  13
HETATM   13  O3  UNL     1       3.348   0.577  -0.095  1.00  0.00    -0.313 OA
BRANCH  13  14
HETATM   14  C13 UNL     1       4.502   0.715  -0.815  1.00  0.00     0.262 C 
HETATM   15  O4  UNL     1       4.424   0.863  -2.062  1.00  0.00    -0.265 OA
BRANCH  14  16
HETATM   16  C14 UNL     1       5.845   0.699  -0.190  1.00  0.00     0.077 C 
HETATM   17  C15 UNL     1       6.097  -0.616   0.530  1.00  0.00     0.020 C 
HETATM   18  C16 UNL     1       6.012   1.825   0.811  1.00  0.00     0.020 C 
ENDBRANCH  14  16
ENDBRANCH  13  14
ENDBRANCH  10  13
BRANCH   1  19
HETATM   19  O1  UNL     1      -4.055  -0.260  -0.606  1.00  0.00    -0.376 OA
BRANCH  19  20
HETATM   20  C2  UNL     1      -4.845   0.470   0.244  1.00  0.00     0.114 C 
HETATM   21  C1  UNL     1      -5.051   1.848  -0.333  1.00  0.00     0.039 C 
HETATM   22  C3  UNL     1      -6.222  -0.185   0.310  1.00  0.00     0.039 C 
ENDBRANCH  19  20
ENDBRANCH   1  19
TORSDOF 5
