REMARK  4 active torsions:
REMARK  status: ('A' for Active; 'I' for Inactive)
REMARK    1  A    between atoms: C3_5  and  S1_6 
REMARK    2  A    between atoms: S1_6  and  C4_7 
REMARK    3  A    between atoms: C4_7  and  C5_8 
REMARK       I    between atoms: C5_8  and  N2_10 
REMARK    4  A    between atoms: C10_16  and  C11_17 
ROOT
HETATM    1  C1  UNL     1      -1.545  -1.965   1.484  1.00  0.00     0.071 C 
HETATM    2  C2  UNL     1      -1.247  -0.859   0.501  1.00  0.00     0.038 A 
HETATM    3  N1  UNL     1      -0.087  -0.192   0.368  1.00  0.00    -0.333 N 
ATOM      4  H1  UNL     1       0.755  -0.342   0.924  1.00  0.00     0.168 HD
HETATM    5  C3  UNL     1      -0.227   0.705  -0.621  1.00  0.00     0.188 A 
HETATM    6  O2  UNL     1      -1.433   0.586  -1.074  1.00  0.00    -0.290 OA
HETATM    7  C10 UNL     1      -2.107  -0.343  -0.440  1.00  0.00     0.082 A 
ENDROOT
BRANCH   5   8
HETATM    8  S1  UNL     1       1.038   1.863  -1.209  1.00  0.00    -0.077 SA
BRANCH   8   9
HETATM    9  C4  UNL     1       2.564   1.656  -0.267  1.00  0.00     0.185 C 
BRANCH   9  10
HETATM   10  C5  UNL     1       3.184   0.322  -0.518  1.00  0.00     0.229 C 
HETATM   11  O1  UNL     1       2.613  -0.459  -1.306  1.00  0.00    -0.273 OA
HETATM   12  N2  UNL     1       4.388  -0.067   0.109  1.00  0.00    -0.351 N 
HETATM   13  C6  UNL     1       5.038  -1.352  -0.096  1.00  0.00     0.126 C 
HETATM   14  C9  UNL     1       5.203   0.684   1.049  1.00  0.00     0.126 C 
HETATM   15  C7  UNL     1       6.506  -1.107   0.129  1.00  0.00     0.021 C 
HETATM   16  C8  UNL     1       6.615   0.219   0.808  1.00  0.00     0.021 C 
ENDBRANCH   9  10
ENDBRANCH   8   9
ENDBRANCH   5   8
BRANCH   7  17
HETATM   17  C11 UNL     1      -3.518  -0.713  -0.731  1.00  0.00     0.045 C 
HETATM   18  C12 UNL     1      -3.997  -0.039  -1.982  1.00  0.00     0.011 C 
HETATM   19  C13 UNL     1      -5.162   0.870  -1.831  1.00  0.00     0.001 C 
HETATM   20  C14 UNL     1      -4.929   1.671  -0.561  1.00  0.00     0.000 C 
HETATM   21  C15 UNL     1      -5.199   0.691   0.560  1.00  0.00     0.001 C 
HETATM   22  C16 UNL     1      -4.397  -0.564   0.448  1.00  0.00     0.011 C 
ENDBRANCH   7  17
TORSDOF 4
