REMARK  4 active torsions:
REMARK  status: ('A' for Active; 'I' for Inactive)
REMARK    1  A    between atoms: C2_5  and  N3_6 
REMARK    2  A    between atoms: C3_11  and  C4_12 
REMARK       I    between atoms: C4_12  and  N5_14 
REMARK    3  A    between atoms: N5_14  and  N6_16 
REMARK    4  A    between atoms: C5_19  and  C6_20 
ROOT
HETATM    1  C1  UNL     1      -3.046   0.097   0.877  1.00  0.00     0.179 C 
HETATM    2  N1  UNL     1      -1.723   0.570   0.535  1.00  0.00    -0.275 N 
HETATM    3  N2  UNL     1      -1.450   1.874   0.566  1.00  0.00    -0.130 N 
ATOM      4  H2  UNL     1      -2.194   2.526   0.814  1.00  0.00     0.206 HD
HETATM    5  C2  UNL     1      -0.241   2.357   0.285  1.00  0.00     0.691 A 
HETATM    6  N4  UNL     1       0.772   1.543  -0.048  1.00  0.00    -0.183 N 
ATOM      7  H4  UNL     1       1.695   1.921  -0.261  1.00  0.00     0.184 HD
HETATM    8  C3  UNL     1       0.540   0.189  -0.096  1.00  0.00     0.151 A 
HETATM    9  C5  UNL     1      -0.710  -0.281   0.199  1.00  0.00     0.148 A 
ENDROOT
BRANCH   8  10
HETATM   10  C4  UNL     1       1.650  -0.641  -0.477  1.00  0.00     0.289 C 
HETATM   11  O1  UNL     1       1.582  -1.798  -0.975  1.00  0.00    -0.264 OA
HETATM   12  N5  UNL     1       3.004  -0.153  -0.291  1.00  0.00    -0.271 N 
ATOM     13  H5  UNL     1       3.150   0.773   0.110  1.00  0.00     0.189 HD
BRANCH  12  14
HETATM   14  N6  UNL     1       4.116  -0.928  -0.651  1.00  0.00    -0.342 N 
ATOM     15  H62 UNL     1       3.952  -1.852  -1.051  1.00  0.00     0.176 HD
ATOM     16  H61 UNL     1       5.068  -0.585  -0.520  1.00  0.00     0.176 HD
ENDBRANCH  12  14
ENDBRANCH   8  10
BRANCH   9  17
HETATM   17  C6  UNL     1      -1.016  -1.690   0.155  1.00  0.00     0.285 C 
HETATM   18  N7  UNL     1      -2.256  -2.164  -0.401  1.00  0.00    -0.056 NA
HETATM   19  O2  UNL     1      -0.259  -2.629   0.576  1.00  0.00    -0.269 OA
ENDBRANCH   9  17
BRANCH   5  20
HETATM   20  N3  UNL     1       0.013   3.626   0.320  1.00  0.00    -0.233 N 
ATOM     21  H32 UNL     1      -0.757   4.245   0.573  1.00  0.00     0.174 HD
ATOM     22  H31 UNL     1       0.939   3.996   0.105  1.00  0.00     0.174 HD
ENDBRANCH   5  20
TORSDOF 4
