REMARK  3 active torsions:
REMARK  status: ('A' for Active; 'I' for Inactive)
REMARK    1  A    between atoms: N1_1  and  N2_4 
REMARK    2  A    between atoms: N2_4  and  N3_5 
REMARK    3  A    between atoms: C4_9  and  N4_10 
ROOT
HETATM    1  N3  UNL     1      -2.518   0.166  -0.293  1.00  0.00    -0.119 NA
HETATM    2  C1  UNL     1      -1.603   0.688   0.708  1.00  0.00     0.178 C 
HETATM    3  C2  UNL     1      -0.353  -0.070   0.318  1.00  0.00     0.135 A 
HETATM    4  C3  UNL     1       0.337   0.586  -0.851  1.00  0.00     0.118 A 
HETATM    5  C4  UNL     1       1.400   0.628   0.188  1.00  0.00     0.083 A 
HETATM    6  N7  UNL     1       0.775   0.062   1.166  1.00  0.00    -0.360 N 
ATOM      7  H7  UNL     1       0.997  -0.184   2.131  1.00  0.00     0.162 HD
HETATM    8  C6  UNL     1      -0.888  -1.411   0.071  1.00  0.00     0.263 C 
HETATM    9  O1  UNL     1      -0.254  -2.480   0.138  1.00  0.00    -0.269 OA
HETATM   10  N8  UNL     1      -2.258  -1.231  -0.256  1.00  0.00    -0.271 N 
ATOM     11  H8  UNL     1      -2.935  -1.973  -0.433  1.00  0.00     0.185 HD
ENDROOT
BRANCH   1  12
HETATM   12  N2  UNL     1      -3.833   0.463  -0.049  1.00  0.00    -0.035 NA
BRANCH  12  13
HETATM   13  N1  UNL     1      -4.434  -0.367   0.899  1.00  0.00    -0.332 N 
ATOM     14  H12 UNL     1      -3.926  -1.122   1.360  1.00  0.00     0.173 HD
ATOM     15  H11 UNL     1      -5.413  -0.146   1.081  1.00  0.00     0.173 HD
ENDBRANCH  12  13
ENDBRANCH   1  12
BRANCH   5  16
HETATM   16  N4  UNL     1       2.721   1.151   0.103  1.00  0.00    -0.323 N 
HETATM   17  C5  UNL     1       3.765   0.399   0.050  1.00  0.00     0.202 C 
HETATM   18  N5  UNL     1       5.028   1.059  -0.033  1.00  0.00    -0.066 NA
HETATM   19  N6  UNL     1       3.658  -1.008   0.074  1.00  0.00    -0.066 NA
ATOM     20  H4  UNL     1       2.846   2.163   0.083  1.00  0.00     0.169 HD
ENDBRANCH   5  16
TORSDOF 3
