REMARK  4 active torsions:
REMARK  status: ('A' for Active; 'I' for Inactive)
REMARK    1  A    between atoms: C2_2  and  N1_3 
REMARK    2  A    between atoms: C2_2  and  C3_7 
REMARK       I    between atoms: C3_7  and  N2_9 
REMARK    3  A    between atoms: N3_11  and  N4_13 
REMARK    4  A    between atoms: N6_21  and  N7_22 
ROOT
HETATM    1  C3  UNL     1       0.924   0.275  -0.900  1.00  0.00     0.274 C 
HETATM    2  O1  UNL     1       1.226   1.409  -1.373  1.00  0.00    -0.269 OA
HETATM    3  N2  UNL     1      -0.267   0.125  -0.149  1.00  0.00    -0.175 N 
HETATM    4  C4  UNL     1      -1.184   1.143   0.133  1.00  0.00     0.231 C 
HETATM    5  N3  UNL     1      -0.879   2.407   0.301  1.00  0.00    -0.276 N 
ATOM      6  H3  UNL     1       0.097   2.694   0.225  1.00  0.00     0.189 HD
HETATM    7  N5  UNL     1      -2.517   0.667   0.222  1.00  0.00    -0.237 N 
ATOM      8  H5  UNL     1      -3.372   1.217   0.305  1.00  0.00     0.183 HD
HETATM    9  S1  UNL     1      -2.368  -1.048   0.159  1.00  0.00     0.341 S 
HETATM   10  O2  UNL     1      -2.748  -1.607  -1.162  1.00  0.00    -0.185 OA
HETATM   11  O3  UNL     1      -3.098  -1.643   1.302  1.00  0.00    -0.185 OA
HETATM   12  N6  UNL     1      -0.634  -1.117   0.398  1.00  0.00     0.001 NA
ENDROOT
BRANCH   1  13
HETATM   13  C2  UNL     1       1.868  -0.829  -1.180  1.00  0.00     0.272 C 
HETATM   14  C1  UNL     1       2.434  -1.399   0.095  1.00  0.00     0.050 C 
BRANCH  13  15
HETATM   15  N1  UNL     1       2.983  -0.379  -1.991  1.00  0.00    -0.067 N 
ATOM     16  H13 UNL     1       3.593   0.275  -1.500  1.00  0.00     0.275 HD
ATOM     17  H12 UNL     1       3.675  -1.110  -2.156  1.00  0.00     0.275 HD
ATOM     18  H11 UNL     1       2.600   0.007  -2.854  1.00  0.00     0.275 HD
ENDBRANCH  13  15
ENDBRANCH   1  13
BRANCH  12  19
HETATM   19  N7  UNL     1      -0.419  -1.089   1.804  1.00  0.00    -0.330 NA
ATOM     20  H72 UNL     1       0.591  -1.129   1.943  1.00  0.00     0.173 HD
ATOM     21  H71 UNL     1      -0.685  -1.990   2.201  1.00  0.00     0.173 HD
ENDBRANCH  12  19
BRANCH   5  22
HETATM   22  N4  UNL     1      -1.842   3.367   0.579  1.00  0.00    -0.342 N 
ATOM     23  H42 UNL     1      -2.813   3.063   0.652  1.00  0.00     0.176 HD
ATOM     24  H41 UNL     1      -1.605   4.350   0.710  1.00  0.00     0.176 HD
ENDBRANCH   5  22
TORSDOF 4
