REMARK  7 active torsions:
REMARK  status: ('A' for Active; 'I' for Inactive)
REMARK    1  A    between atoms: C2_3  and  C3_4 
REMARK    2  A    between atoms: C2_3  and  C15_19 
REMARK    3  A    between atoms: C3_4  and  C4_5 
REMARK       I    between atoms: C4_5  and  N2_7 
REMARK    4  A    between atoms: N2_7  and  C5_9 
REMARK       I    between atoms: C15_19  and  N3_21 
REMARK    5  A    between atoms: C19_25  and  C20_26 
REMARK       I    between atoms: C20_26  and  N4_28 
REMARK    6  A    between atoms: N4_28  and  C21_30 
REMARK    7  A    between atoms: C21_30  and  C22_31 
ROOT
HETATM    1  N1  UNL     1       2.450  -5.056   0.019  1.00  0.00    -0.196 NA
HETATM    2  C1  UNL     1       2.046  -3.966  -0.099  1.00  0.00     0.074 C 
HETATM    3  C2  UNL     1       1.519  -2.606  -0.260  1.00  0.00     0.193 C 
ENDROOT
BRANCH   3   4
HETATM    4  C3  UNL     1       0.063  -2.593   0.132  1.00  0.00     0.131 C 
BRANCH   4   5
HETATM    5  C4  UNL     1      -0.558  -1.275   0.004  1.00  0.00     0.219 C 
HETATM    6  O1  UNL     1       0.135  -0.318  -0.423  1.00  0.00    -0.274 OA
HETATM    7  N2  UNL     1      -1.911  -0.984   0.331  1.00  0.00    -0.356 N 
ATOM      8  H2  UNL     1      -2.498  -1.742   0.679  1.00  0.00     0.162 HD
BRANCH   7   9
HETATM    9  C5  UNL     1      -2.493   0.321   0.196  1.00  0.00     0.088 C 
HETATM   10  C6  UNL     1      -2.908   0.917   1.516  1.00  0.00     0.030 C 
HETATM   11  C7  UNL     1      -4.328   1.349   1.557  1.00  0.00    -0.008 C 
HETATM   12  C8  UNL     1      -5.232   0.149   1.738  1.00  0.00     0.010 C 
HETATM   13  C11 UNL     1      -4.800   2.131   0.385  1.00  0.00    -0.010 C 
HETATM   14  C9  UNL     1      -5.827   0.040   0.325  1.00  0.00    -0.013 C 
HETATM   15  C10 UNL     1      -6.166   1.497   0.081  1.00  0.00     0.009 C 
HETATM   16  C14 UNL     1      -4.753  -0.501  -0.543  1.00  0.00     0.011 C 
HETATM   17  C13 UNL     1      -3.606   0.400  -0.826  1.00  0.00     0.009 C 
HETATM   18  C12 UNL     1      -3.991   1.869  -0.893  1.00  0.00     0.011 C 
ENDBRANCH   7   9
ENDBRANCH   4   5
ENDBRANCH   3   4
BRANCH   3  19
HETATM   19  C15 UNL     1       2.347  -1.701   0.554  1.00  0.00     0.238 C 
HETATM   20  O2  UNL     1       1.942  -1.187   1.638  1.00  0.00    -0.272 OA
HETATM   21  N3  UNL     1       3.660  -1.374   0.132  1.00  0.00    -0.338 N 
HETATM   22  C16 UNL     1       4.359  -1.815  -1.079  1.00  0.00     0.127 C 
HETATM   23  C19 UNL     1       4.611  -0.527   0.806  1.00  0.00     0.179 C 
HETATM   24  C17 UNL     1       5.760  -2.138  -0.541  1.00  0.00     0.022 C 
HETATM   25  C18 UNL     1       5.961  -1.049   0.479  1.00  0.00     0.037 C 
BRANCH  23  26
HETATM   26  C20 UNL     1       4.460   0.920   0.417  1.00  0.00     0.240 C 
HETATM   27  O3  UNL     1       5.241   1.720   0.956  1.00  0.00    -0.271 OA
HETATM   28  N4  UNL     1       3.487   1.307  -0.502  1.00  0.00    -0.357 N 
ATOM     29  H4  UNL     1       2.902   0.549  -0.855  1.00  0.00     0.162 HD
BRANCH  28  30
HETATM   30  C21 UNL     1       3.182   2.595  -1.025  1.00  0.00     0.158 C 
BRANCH  30  31
HETATM   31  C22 UNL     1       4.205   3.262  -1.868  1.00  0.00     0.196 C 
HETATM   32 CL1  UNL     1       3.530   4.851  -2.413  1.00  0.00    -0.106 Cl
HETATM   33 CL2  UNL     1       5.739   3.630  -1.109  1.00  0.00    -0.106 Cl
ENDBRANCH  30  31
ENDBRANCH  28  30
ENDBRANCH  23  26
ENDBRANCH   3  19
TORSDOF 7
