REMARK  10 active torsions:
REMARK  status: ('A' for Active; 'I' for Inactive)
REMARK    1  A    between atoms: C2_5  and  S1_6 
REMARK    2  A    between atoms: S1_6  and  C3_7 
REMARK    3  A    between atoms: C3_7  and  O1_8 
REMARK    4  A    between atoms: C3_7  and  C4_10 
REMARK    5  A    between atoms: C3_7  and  C5_13 
REMARK    6  A    between atoms: C5_13  and  C6_15 
REMARK    7  A    between atoms: C6_15  and  N3_16 
REMARK    8  A    between atoms: C9_23  and  N6_24 
REMARK    9  A    between atoms: C12_32  and  N9_33 
REMARK   10  A    between atoms: C13_36  and  N10_37 
ROOT
HETATM    1  C3  UNL     1       0.440  -0.794  -0.911  1.00  0.00     0.265 C 
ENDROOT
BRANCH   1   2
HETATM    2  S1  UNL     1       1.295   0.791  -0.642  1.00  0.00    -0.035 SA
BRANCH   2   3
HETATM    3  C2  UNL     1       3.053   0.631  -0.720  1.00  0.00     0.164 A 
HETATM    4  N2  UNL     1       3.821   0.358   0.352  1.00  0.00    -0.276 N 
HETATM    5  N1  UNL     1       5.137   0.237   0.306  1.00  0.00    -0.276 N 
ATOM      6  H2  UNL     1       3.360   0.237   1.254  1.00  0.00     0.189 HD
HETATM    7  C1  UNL     1       5.875  -0.062   1.540  1.00  0.00     0.179 C 
HETATM    8  C13 UNL     1       5.801   0.386  -0.854  1.00  0.00     0.160 A 
HETATM    9  C12 UNL     1       5.051   0.666  -1.974  1.00  0.00     0.146 A 
HETATM   10  N8  UNL     1       3.713   0.784  -1.902  1.00  0.00    -0.319 N 
ATOM     11  H8  UNL     1       3.183   0.992  -2.748  1.00  0.00     0.169 HD
BRANCH   8  12
HETATM   12  N10 UNL     1       7.085   0.275  -0.942  1.00  0.00    -0.381 N 
ATOM     13 2H10 UNL     1       7.641   0.068  -0.112  1.00  0.00     0.157 HD
ATOM     14 1H10 UNL     1       7.589   0.388  -1.822  1.00  0.00     0.157 HD
ENDBRANCH   8  12
BRANCH   9  15
HETATM   15  N9  UNL     1       5.709   0.809  -3.097  1.00  0.00    -0.382 N 
ATOM     16  H92 UNL     1       5.153   1.016  -3.927  1.00  0.00     0.157 HD
ATOM     17  H91 UNL     1       6.724   0.720  -3.152  1.00  0.00     0.157 HD
ENDBRANCH   9  15
ENDBRANCH   2   3
ENDBRANCH   1   2
BRANCH   1  18
HETATM   18  O1  UNL     1       0.650  -1.236  -2.228  1.00  0.00    -0.364 OA
ATOM     19  H1  UNL     1       0.204  -2.063  -2.368  1.00  0.00     0.212 HD
ENDBRANCH   1  18
BRANCH   1  20
HETATM   20  C4  UNL     1       0.975  -1.829   0.003  1.00  0.00     0.229 C 
HETATM   21  O2  UNL     1       0.992  -1.728   1.247  1.00  0.00    -0.645 OA
HETATM   22  O3  UNL     1       1.510  -3.024  -0.508  1.00  0.00    -0.645 OA
ENDBRANCH   1  20
BRANCH   1  23
HETATM   23  C5  UNL     1      -1.007  -0.546  -0.670  1.00  0.00     0.202 C 
HETATM   24  O4  UNL     1      -1.807  -0.793  -1.561  1.00  0.00    -0.291 OA
BRANCH  23  25
HETATM   25  C6  UNL     1      -1.420  -0.005   0.648  1.00  0.00     0.234 C 
BRANCH  25  26
HETATM   26  N3  UNL     1      -2.875   0.202   0.660  1.00  0.00    -0.265 N 
HETATM   27  C7  UNL     1      -3.729   1.182   0.356  1.00  0.00     0.156 A 
HETATM   28  N4  UNL     1      -4.005   2.420  -0.078  1.00  0.00    -0.335 N 
HETATM   29  C10 UNL     1      -4.807   0.386   0.709  1.00  0.00     0.140 A 
HETATM   30  C8  UNL     1      -5.272   2.866  -0.164  1.00  0.00     0.183 A 
ATOM     31  H4  UNL     1      -3.239   3.037  -0.349  1.00  0.00     0.168 HD
HETATM   32  N5  UNL     1      -6.320   2.087   0.181  1.00  0.00    -0.337 N 
HETATM   33  C9  UNL     1      -6.104   0.840   0.621  1.00  0.00     0.132 A 
ATOM     34  H5  UNL     1      -7.272   2.446   0.107  1.00  0.00     0.168 HD
HETATM   35  N7  UNL     1      -3.886  -0.555   0.995  1.00  0.00    -0.285 N 
HETATM   36  C11 UNL     1      -4.063  -1.921   1.502  1.00  0.00     0.178 C 
BRANCH  33  37
HETATM   37  N6  UNL     1      -7.096   0.094   0.951  1.00  0.00    -0.383 N 
ATOM     38  H62 UNL     1      -8.057   0.430   0.886  1.00  0.00     0.157 HD
ATOM     39  H61 UNL     1      -6.932  -0.855   1.286  1.00  0.00     0.157 HD
ENDBRANCH  33  37
ENDBRANCH  25  26
ENDBRANCH  23  25
ENDBRANCH   1  23
TORSDOF 10
