REMARK  1 active torsions:
REMARK  status: ('A' for Active; 'I' for Inactive)
REMARK    1  A    between atoms: N3_25  and  C21_26 
ROOT
HETATM    1  C1  UNL     1      -0.075  -0.642   3.280  1.00  0.00     0.043 C 
HETATM    2  C2  UNL     1       0.908  -0.847   2.461  1.00  0.00     0.026 C 
HETATM    3  C3  UNL     1       1.725  -2.069   2.269  1.00  0.00     0.040 C 
HETATM    4  C4  UNL     1       2.645  -1.879   1.371  1.00  0.00    -0.001 C 
HETATM    5  C5  UNL     1       3.763  -2.274   0.529  1.00  0.00     0.001 A 
HETATM    6  C6  UNL     1       4.503  -3.417   0.502  1.00  0.00     0.014 A 
HETATM    7  C7  UNL     1       5.479  -3.560  -0.460  1.00  0.00     0.001 A 
HETATM    8  C8  UNL     1       5.666  -2.518  -1.368  1.00  0.00     0.002 A 
HETATM    9  C9  UNL     1       4.917  -1.349  -1.347  1.00  0.00     0.030 A 
HETATM   10  C10 UNL     1       3.958  -1.229  -0.389  1.00  0.00     0.048 A 
HETATM   11  N1  UNL     1       3.035  -0.177  -0.082  1.00  0.00    -0.319 N 
HETATM   12  C11 UNL     1       2.247   0.936  -0.463  1.00  0.00     0.064 C 
HETATM   13  C12 UNL     1       2.357   1.492  -1.662  1.00  0.00     0.043 C 
HETATM   14  C13 UNL     1       1.356   1.279   0.691  1.00  0.00     0.242 C 
HETATM   15  C14 UNL     1       1.950   2.422   1.449  1.00  0.00     0.279 C 
HETATM   16  O1  UNL     1       2.706   2.232   2.421  1.00  0.00    -0.268 OA
HETATM   17  N2  UNL     1       1.657   3.740   1.070  1.00  0.00    -0.321 N 
ATOM     18  H2  UNL     1       2.243   4.505   1.404  1.00  0.00     0.169 HD
HETATM   19  C15 UNL     1       0.541   4.018   0.218  1.00  0.00     0.062 A 
HETATM   20  C16 UNL     1       0.290   5.311  -0.156  1.00  0.00     0.032 A 
HETATM   21  C17 UNL     1      -0.772   5.538  -0.990  1.00  0.00     0.002 A 
HETATM   22  C18 UNL     1      -1.578   4.528  -1.454  1.00  0.00     0.002 A 
HETATM   23  C19 UNL     1      -1.291   3.230  -1.052  1.00  0.00     0.032 A 
HETATM   24  C20 UNL     1      -0.224   2.923  -0.200  1.00  0.00     0.065 A 
HETATM   25  N3  UNL     1       0.058   1.581   0.189  1.00  0.00    -0.304 N 
HETATM   26  N4  UNL     1       1.456   0.106   1.526  1.00  0.00    -0.315 N 
HETATM   27  C33 UNL     1       2.775  -0.356   1.313  1.00  0.00     0.230 C 
ENDROOT
BRANCH  25  28
HETATM   28  C21 UNL     1      -0.984   0.609   0.041  1.00  0.00     0.041 A 
HETATM   29  C22 UNL     1      -0.779  -0.634  -0.518  1.00  0.00     0.031 A 
HETATM   30  C23 UNL     1      -1.787  -1.560  -0.617  1.00  0.00     0.017 A 
HETATM   31  C24 UNL     1      -3.053  -1.259  -0.148  1.00  0.00     0.011 A 
HETATM   32  C25 UNL     1      -3.301  -0.030   0.417  1.00  0.00     0.089 A 
HETATM   33  C32 UNL     1      -4.240  -1.988  -0.118  1.00  0.00     0.011 A 
HETATM   34  C26 UNL     1      -2.257   0.877   0.498  1.00  0.00     0.067 A 
HETATM   35  O2  UNL     1      -4.562  -0.014   0.768  1.00  0.00    -0.309 OA
HETATM   36  C27 UNL     1      -5.150  -1.143   0.473  1.00  0.00     0.087 A 
HETATM   37  C28 UNL     1      -6.452  -1.615   0.638  1.00  0.00     0.038 A 
HETATM   38  C29 UNL     1      -6.803  -2.884   0.221  1.00  0.00     0.003 A 
HETATM   39  C30 UNL     1      -5.889  -3.737  -0.374  1.00  0.00     0.001 A 
HETATM   40  C31 UNL     1      -4.589  -3.237  -0.528  1.00  0.00     0.015 A 
ENDBRANCH  25  28
TORSDOF 1
