REMARK  2 active torsions:
REMARK  status: ('A' for Active; 'I' for Inactive)
REMARK    1  A    between atoms: C1_2  and  C2_4 
REMARK       I    between atoms: C2_4  and  N2_6 
REMARK    2  A    between atoms: N2_6  and  N3_8 
REMARK       I    between atoms: N3_8  and  C3_10 
REMARK       I    between atoms: C3_10  and  N4_12 
ROOT
HETATM    1  N3  UNL     1       0.020  -1.172   0.936  1.00  0.00    -0.248 N 
ATOM      2  H3  UNL     1       0.315  -1.262   1.908  1.00  0.00     0.192 HD
HETATM    3  C3  UNL     1       0.998  -0.923  -0.031  1.00  0.00     0.341 C 
HETATM    4  O3  UNL     1       0.716  -0.815  -1.234  1.00  0.00    -0.245 OA
HETATM    5  N4  UNL     1       2.347  -0.788   0.371  1.00  0.00    -0.284 N 
ATOM      6  H4  UNL     1       2.795  -1.552   0.877  1.00  0.00     0.172 HD
HETATM    7  C4  UNL     1       3.027   0.285   0.111  1.00  0.00     0.204 C 
HETATM    8  N5  UNL     1       4.363   0.346   0.544  1.00  0.00    -0.066 NA
HETATM    9  N6  UNL     1       2.410   1.340  -0.599  1.00  0.00    -0.066 NA
ENDROOT
BRANCH   1  10
HETATM   10  N2  UNL     1      -1.349  -1.305   0.642  1.00  0.00    -0.258 N 
HETATM   11  C2  UNL     1      -2.147  -0.166   0.362  1.00  0.00     0.325 C 
HETATM   12  O2  UNL     1      -1.602   0.955   0.384  1.00  0.00    -0.261 OA
ATOM     13  H2  UNL     1      -1.774  -2.232   0.630  1.00  0.00     0.190 HD
BRANCH  11  14
HETATM   14  C1  UNL     1      -3.550  -0.329   0.063  1.00  0.00     0.324 C 
HETATM   15  N1  UNL     1      -4.380   0.824  -0.219  1.00  0.00    -0.053 NA
HETATM   16  O1  UNL     1      -4.125  -1.444   0.029  1.00  0.00    -0.266 OA
ENDBRANCH  11  14
ENDBRANCH   1  10
TORSDOF 2
