REMARK  8 active torsions:
REMARK  status: ('A' for Active; 'I' for Inactive)
REMARK    1  A    between atoms: C2_2  and  C3_3 
REMARK    2  A    between atoms: C3_3  and  C4_4 
REMARK    3  A    between atoms: C4_4  and  N1_5 
REMARK       I    between atoms: N1_5  and  C5_7 
REMARK    4  A    between atoms: C5_7  and  C6_9 
REMARK    5  A    between atoms: C7_10  and  C8_11 
REMARK    6  A    between atoms: C9_12  and  O2_13 
REMARK    7  A    between atoms: C11_16  and  O3_17 
REMARK    8  A    between atoms: C12_19  and  O4_20 
ROOT
HETATM    1  C8  UNL     1       0.439  -0.128  -0.509  1.00  0.00    -0.016 C 
HETATM    2  C9  UNL     1       0.926   0.832  -1.487  1.00  0.00     0.053 C 
HETATM    3  C10 UNL     1      -0.032   1.447  -2.461  1.00  0.00     0.099 C 
HETATM    4  C11 UNL     1      -1.448   1.140  -2.223  1.00  0.00     0.159 C 
HETATM    5  C12 UNL     1      -1.811   0.857  -0.747  1.00  0.00     0.097 C 
HETATM    6  C13 UNL     1      -3.215   1.075  -0.664  1.00  0.00     0.049 C 
HETATM    7  C14 UNL     1      -4.262   0.085  -0.172  1.00  0.00     0.028 C 
HETATM    8  C15 UNL     1      -5.155   0.595   0.925  1.00  0.00    -0.012 C 
HETATM    9  C16 UNL     1      -5.880   1.850   0.469  1.00  0.00     0.010 C 
HETATM   10  C17 UNL     1      -4.601   0.821   2.260  1.00  0.00     0.005 C 
HETATM   11  C18 UNL     1      -3.421  -0.123   2.629  1.00  0.00     0.009 C 
HETATM   12  C19 UNL     1      -2.705  -0.281   1.374  1.00  0.00     0.031 C 
HETATM   13  C20 UNL     1      -3.480  -1.001   0.353  1.00  0.00     0.082 C 
HETATM   14  O5  UNL     1      -4.040  -2.027   1.195  1.00  0.00    -0.309 OA
HETATM   15  C21 UNL     1      -2.928  -2.716   1.725  1.00  0.00     0.260 C 
HETATM   16  O6  UNL     1      -3.135  -3.753   2.419  1.00  0.00    -0.265 OA
HETATM   17  C22 UNL     1      -1.503  -2.229   1.476  1.00  0.00     0.122 C 
HETATM   18  C23 UNL     1      -1.354  -0.819   1.145  1.00  0.00    -0.014 C 
HETATM   19  C24 UNL     1      -0.468  -0.104   2.178  1.00  0.00     0.017 C 
HETATM   20  C25 UNL     1      -1.048  -0.347  -0.284  1.00  0.00     0.031 C 
HETATM   21  C26 UNL     1      -1.482  -1.494  -1.151  1.00  0.00     0.025 C 
HETATM   22  C27 UNL     1      -2.899  -1.779  -0.756  1.00  0.00     0.019 C 
HETATM   23  C28 UNL     1      -3.759  -1.782  -2.015  1.00  0.00     0.013 C 
ENDROOT
BRANCH   1  24
HETATM   24  C7  UNL     1       1.314  -1.314  -0.330  1.00  0.00     0.016 C 
HETATM   25  C6  UNL     1       2.673  -1.267   0.143  1.00  0.00     0.074 C 
BRANCH  25  26
HETATM   26  C5  UNL     1       3.855  -0.750  -0.466  1.00  0.00     0.241 C 
HETATM   27  N1  UNL     1       5.044  -0.449   0.325  1.00  0.00    -0.358 N 
ATOM     28  H1  UNL     1       5.055  -0.604   1.333  1.00  0.00     0.162 HD
HETATM   29  O1  UNL     1       3.966  -0.521  -1.696  1.00  0.00    -0.269 OA
BRANCH  27  30
HETATM   30  C4  UNL     1       6.188   0.066  -0.347  1.00  0.00     0.123 C 
BRANCH  30  31
HETATM   31  C3  UNL     1       7.289   0.254   0.687  1.00  0.00     0.019 C 
BRANCH  31  32
HETATM   32  C2  UNL     1       8.537   0.795   0.035  1.00  0.00    -0.003 C 
HETATM   33  C1  UNL     1       9.643   0.958   1.048  1.00  0.00     0.005 C 
ENDBRANCH  31  32
ENDBRANCH  30  31
ENDBRANCH  27  30
ENDBRANCH  25  26
ENDBRANCH   1  24
BRANCH   2  34
HETATM   34  O2  UNL     1       1.812   1.822  -0.952  1.00  0.00    -0.364 OA
ATOM     35  H2  UNL     1       2.130   2.449  -1.591  1.00  0.00     0.217 HD
ENDBRANCH   2  34
BRANCH   5  36
HETATM   36  O4  UNL     1      -1.130   2.026  -0.252  1.00  0.00    -0.386 OA
ATOM     37  H4  UNL     1      -1.353   1.852   0.655  1.00  0.00     0.210 HD
ENDBRANCH   5  36
BRANCH   4  38
HETATM   38  O3  UNL     1      -2.102   2.413  -2.429  1.00  0.00    -0.392 OA
ATOM     39  H3  UNL     1      -3.018   2.214  -2.275  1.00  0.00     0.210 HD
ENDBRANCH   4  38
TORSDOF 8
