REMARK  5 active torsions:
REMARK  status: ('A' for Active; 'I' for Inactive)
REMARK    1  A    between atoms: C4_4  and  O1_5 
REMARK    2  A    between atoms: O1_5  and  C5_6 
REMARK    3  A    between atoms: C5_6  and  C6_7 
REMARK    4  A    between atoms: C5_6  and  C18_19 
REMARK    5  A    between atoms: C10_11  and  C11_12 
ROOT
HETATM    1  C5  UNL     1      -1.077   0.137  -0.090  1.00  0.00     0.196 C 
ENDROOT
BRANCH   1   2
HETATM    2  O1  UNL     1      -1.079  -1.076   0.624  1.00  0.00    -0.337 OA
BRANCH   2   3
HETATM    3  C4  UNL     1      -1.146  -2.345   0.197  1.00  0.00     0.070 A 
HETATM    4  C3  UNL     1      -1.233  -2.699  -1.124  1.00  0.00     0.037 A 
HETATM    5  C2  UNL     1      -1.300  -4.047  -1.508  1.00  0.00     0.003 A 
HETATM    6  C1  UNL     1      -1.280  -5.043  -0.561  1.00  0.00     0.000 A 
HETATM    7  C29 UNL     1      -1.192  -4.692   0.781  1.00  0.00     0.003 A 
HETATM    8  C28 UNL     1      -1.129  -3.371   1.118  1.00  0.00     0.037 A 
ENDBRANCH   2   3
ENDBRANCH   1   2
BRANCH   1   9
HETATM    9  C6  UNL     1       0.269   0.748   0.145  1.00  0.00    -0.024 A 
HETATM   10  C7  UNL     1       0.455   2.039   0.577  1.00  0.00     0.010 A 
HETATM   11  C8  UNL     1       1.719   2.567   0.772  1.00  0.00     0.002 A 
HETATM   12  C9  UNL     1       2.847   1.796   0.536  1.00  0.00     0.012 A 
HETATM   13  C10 UNL     1       2.698   0.496   0.102  1.00  0.00    -0.025 A 
HETATM   14  C17 UNL     1       1.436   0.014  -0.078  1.00  0.00     0.022 A 
BRANCH  13  15
HETATM   15  C11 UNL     1       3.885  -0.345  -0.157  1.00  0.00    -0.026 A 
HETATM   16  C12 UNL     1       3.778  -1.711   0.054  1.00  0.00     0.012 A 
HETATM   17  C13 UNL     1       4.875  -2.515  -0.183  1.00  0.00     0.001 A 
HETATM   18  C14 UNL     1       6.067  -1.965  -0.624  1.00  0.00     0.000 A 
HETATM   19  C15 UNL     1       6.179  -0.604  -0.835  1.00  0.00     0.001 A 
HETATM   20  C16 UNL     1       5.076   0.187  -0.595  1.00  0.00     0.012 A 
ENDBRANCH  13  15
ENDBRANCH   1   9
BRANCH   1  21
HETATM   21  C18 UNL     1      -2.112   1.002   0.398  1.00  0.00    -0.013 A 
HETATM   22  C19 UNL     1      -2.571   0.836   1.687  1.00  0.00     0.011 A 
HETATM   23  C20 UNL     1      -3.558   1.633   2.237  1.00  0.00     0.002 A 
HETATM   24  C21 UNL     1      -4.123   2.640   1.489  1.00  0.00     0.012 A 
HETATM   25  C22 UNL     1      -3.676   2.834   0.169  1.00  0.00    -0.025 A 
HETATM   26  C23 UNL     1      -4.232   3.833  -0.601  1.00  0.00     0.012 A 
HETATM   27  C27 UNL     1      -2.698   2.029  -0.346  1.00  0.00    -0.017 A 
HETATM   28  C24 UNL     1      -3.791   4.010  -1.893  1.00  0.00     0.001 A 
HETATM   29  C25 UNL     1      -2.796   3.185  -2.405  1.00  0.00     0.001 A 
HETATM   30  C26 UNL     1      -2.259   2.196  -1.614  1.00  0.00     0.013 A 
ENDBRANCH   1  21
TORSDOF 5
