REMARK  5 active torsions:
REMARK  status: ('A' for Active; 'I' for Inactive)
REMARK    1  A    between atoms: C4_4  and  C5_5 
REMARK    2  A    between atoms: C5_5  and  O1_6 
REMARK    3  A    between atoms: O1_6  and  C6_7 
REMARK    4  A    between atoms: C10_11  and  C11_12 
REMARK    5  A    between atoms: C20_21  and  C21_22 
ROOT
HETATM    1  C11 UNL     1      -1.304  -0.694  -1.247  1.00  0.00    -0.014 A 
HETATM    2  C12 UNL     1      -1.021  -1.935  -1.767  1.00  0.00     0.014 A 
HETATM    3  C13 UNL     1      -1.875  -2.969  -1.508  1.00  0.00     0.013 A 
HETATM    4  C14 UNL     1      -3.015  -2.783  -0.731  1.00  0.00    -0.025 A 
HETATM    5  C15 UNL     1      -3.848  -3.850  -0.479  1.00  0.00     0.012 A 
HETATM    6  C16 UNL     1      -4.965  -3.671   0.296  1.00  0.00     0.001 A 
HETATM    7  C17 UNL     1      -5.270  -2.432   0.830  1.00  0.00     0.001 A 
HETATM    8  C18 UNL     1      -4.448  -1.349   0.588  1.00  0.00     0.013 A 
HETATM    9  C19 UNL     1      -3.332  -1.542  -0.190  1.00  0.00    -0.014 A 
HETATM   10  C20 UNL     1      -2.443  -0.495  -0.470  1.00  0.00    -0.004 A 
ENDROOT
BRANCH   1  11
HETATM   11  C10 UNL     1      -0.370   0.387  -1.503  1.00  0.00    -0.022 A 
HETATM   12  C9  UNL     1      -0.737   1.475  -2.238  1.00  0.00     0.012 A 
HETATM   13  C8  UNL     1       0.230   2.456  -2.426  1.00  0.00     0.004 A 
HETATM   14  C7  UNL     1       1.507   2.360  -1.907  1.00  0.00     0.037 A 
HETATM   15  C6  UNL     1       1.874   1.264  -1.169  1.00  0.00     0.070 A 
HETATM   16  C27 UNL     1       0.921   0.287  -0.977  1.00  0.00     0.049 A 
BRANCH  15  17
HETATM   17  O1  UNL     1       3.164   1.102  -0.611  1.00  0.00    -0.347 OA
BRANCH  17  18
HETATM   18  C5  UNL     1       3.424  -0.092   0.135  1.00  0.00     0.214 C 
BRANCH  18  19
HETATM   19  C4  UNL     1       4.819  -0.068   0.613  1.00  0.00    -0.034 A 
HETATM   20  C3  UNL     1       5.426  -1.248   1.057  1.00  0.00     0.009 A 
HETATM   21  C2  UNL     1       6.729  -1.274   1.512  1.00  0.00     0.001 A 
HETATM   22  C1  UNL     1       7.487  -0.132   1.545  1.00  0.00     0.000 A 
HETATM   23  C29 UNL     1       6.890   1.048   1.104  1.00  0.00     0.001 A 
HETATM   24  C28 UNL     1       5.583   1.077   0.648  1.00  0.00     0.009 A 
ENDBRANCH  18  19
ENDBRANCH  17  18
ENDBRANCH  15  17
ENDBRANCH   1  11
BRANCH  10  25
HETATM   25  C21 UNL     1      -2.746   0.808   0.085  1.00  0.00    -0.024 A 
HETATM   26  C22 UNL     1      -1.989   1.423   1.090  1.00  0.00     0.012 A 
HETATM   27  C23 UNL     1      -2.319   2.675   1.557  1.00  0.00     0.001 A 
HETATM   28  C24 UNL     1      -3.397   3.361   1.056  1.00  0.00     0.000 A 
HETATM   29  C25 UNL     1      -4.156   2.785   0.073  1.00  0.00     0.001 A 
HETATM   30  C26 UNL     1      -3.804   1.530  -0.378  1.00  0.00     0.012 A 
ENDBRANCH  10  25
TORSDOF 5
