REMARK  3 active torsions:
REMARK  status: ('A' for Active; 'I' for Inactive)
REMARK    1  A    between atoms: S1_2  and  C2_3 
REMARK    2  A    between atoms: C5_6  and  C6_7 
REMARK    3  A    between atoms: C6_7  and  N1_8 
ROOT
HETATM    1  C2  UNL     1       2.114  -0.529  -0.147  1.00  0.00     0.024 A 
HETATM    2  C3  UNL     1       1.543  -0.951   1.032  1.00  0.00     0.021 A 
HETATM    3  C4  UNL     1       0.289  -0.497   1.432  1.00  0.00     0.010 A 
HETATM    4  C5  UNL     1      -0.426   0.396   0.655  1.00  0.00    -0.036 A 
HETATM    5  C9  UNL     1       0.175   0.801  -0.523  1.00  0.00     0.036 A 
HETATM    6  C10 UNL     1       1.404   0.362  -0.925  1.00  0.00     0.063 A 
HETATM    7  N4  UNL     1       1.976   0.817  -2.156  1.00  0.00    -0.101 NA
ENDROOT
BRANCH   4   8
HETATM    8  C6  UNL     1      -1.736   0.847   1.110  1.00  0.00     0.188 C 
BRANCH   8   9
HETATM    9  N1  UNL     1      -2.835   0.044   0.673  1.00  0.00    -0.283 N 
HETATM   10  C7  UNL     1      -3.497   0.273  -0.477  1.00  0.00     0.201 A 
HETATM   11  N2  UNL     1      -4.461  -0.659  -0.578  1.00  0.00    -0.346 N 
HETATM   12  C8  UNL     1      -4.413  -1.473   0.495  1.00  0.00     0.198 A 
ATOM     13  H2  UNL     1      -5.126  -0.738  -1.348  1.00  0.00     0.167 HD
HETATM   14  N3  UNL     1      -3.393  -1.009   1.249  1.00  0.00    -0.293 N 
ATOM     15  H3  UNL     1      -3.095  -1.413   2.137  1.00  0.00     0.188 HD
ENDBRANCH   8   9
ENDBRANCH   4   8
BRANCH   1  16
HETATM   16  S1  UNL     1       3.709  -1.070  -0.714  1.00  0.00    -0.133 SA
HETATM   17  C1  UNL     1       4.985   0.049  -0.085  1.00  0.00     0.095 C 
ENDBRANCH   1  16
TORSDOF 3
