REMARK  13 active torsions:
REMARK  status: ('A' for Active; 'I' for Inactive)
REMARK    1  A    between atoms: C2_2  and  O1_3 
REMARK    2  A    between atoms: O1_3  and  C3_4 
REMARK       I    between atoms: C3_4  and  N1_6 
REMARK    3  A    between atoms: N2_9  and  C6_10 
REMARK    4  A    between atoms: C6_10  and  O3_11 
REMARK    5  A    between atoms: C6_10  and  C7_13 
REMARK    6  A    between atoms: C7_13  and  C8_15 
REMARK    7  A    between atoms: C8_15  and  N3_16 
REMARK       I    between atoms: N3_16  and  C9_18 
REMARK    8  A    between atoms: C9_18  and  C10_20 
REMARK    9  A    between atoms: C10_20  and  N4_21 
REMARK       I    between atoms: N4_21  and  C11_23 
REMARK   10  A    between atoms: C11_23  and  C12_25 
REMARK   11  A    between atoms: C12_25  and  N5_28 
REMARK   12  A    between atoms: N6_34  and  C17_35 
REMARK   13  A    between atoms: C17_35  and  C18_36 
ROOT
HETATM    1  C10 UNL     1      -0.827  -0.657   0.303  1.00  0.00     0.119 C 
HETATM    2  C15 UNL     1      -1.432   0.356   1.274  1.00  0.00     0.085 C 
HETATM    3  C16 UNL     1      -2.284   1.330   0.494  1.00  0.00     0.062 C 
HETATM    4  N6  UNL     1      -3.378   0.708  -0.102  1.00  0.00    -0.384 N 
HETATM    5  C28 UNL     1      -3.203  -0.646  -0.485  1.00  0.00     0.126 C 
HETATM    6  C29 UNL     1      -1.723  -0.796  -0.868  1.00  0.00     0.061 C 
ENDROOT
BRANCH   1   7
HETATM    7  C9  UNL     1       0.535  -0.152  -0.003  1.00  0.00     0.246 C 
HETATM    8  N3  UNL     1       0.846   0.812  -0.968  1.00  0.00    -0.352 N 
ATOM      9  H3  UNL     1       0.078   1.193  -1.521  1.00  0.00     0.162 HD
HETATM   10  O5  UNL     1       1.489  -0.656   0.686  1.00  0.00    -0.271 OA
BRANCH   8  11
HETATM   11  C8  UNL     1       2.165   1.302  -1.235  1.00  0.00     0.206 C 
BRANCH  11  12
HETATM   12  C7  UNL     1       3.153   0.288  -1.676  1.00  0.00     0.203 C 
HETATM   13  O4  UNL     1       2.865  -0.891  -1.783  1.00  0.00    -0.291 OA
BRANCH  12  14
HETATM   14  C6  UNL     1       4.522   0.795  -1.980  1.00  0.00     0.429 C 
BRANCH  14  15
HETATM   15  N2  UNL     1       5.518   0.306  -1.092  1.00  0.00     0.127 N 
HETATM   16  C5  UNL     1       5.680  -1.130  -1.184  1.00  0.00     0.296 C 
HETATM   17  C4  UNL     1       7.044  -1.492  -0.563  1.00  0.00     0.158 C 
HETATM   18  N1  UNL     1       7.538  -0.361   0.189  1.00  0.00    -0.325 N 
HETATM   19  C3  UNL     1       8.914  -0.051   0.134  1.00  0.00     0.362 C 
HETATM   20  C31 UNL     1       6.677   0.470   0.994  1.00  0.00     0.158 C 
HETATM   21  O2  UNL     1       9.701  -0.742  -0.553  1.00  0.00    -0.238 OA
HETATM   22  C30 UNL     1       5.349   0.616   0.291  1.00  0.00     0.296 C 
BRANCH  19  23
HETATM   23  O1  UNL     1       9.465   1.024   0.832  1.00  0.00    -0.304 OA
BRANCH  23  24
HETATM   24  C2  UNL     1      10.847   1.352   0.786  1.00  0.00     0.176 C 
HETATM   25  C1  UNL     1      11.173   1.646  -0.671  1.00  0.00     0.034 C 
ENDBRANCH  23  24
ENDBRANCH  19  23
ENDBRANCH  14  15
BRANCH  14  26
HETATM   26  O3  UNL     1       4.550   2.196  -2.009  1.00  0.00    -0.362 OA
ATOM     27  H3  UNL     1       3.884   2.523  -2.603  1.00  0.00     0.212 HD
ENDBRANCH  14  26
ENDBRANCH  12  14
ENDBRANCH  11  12
ENDBRANCH   8  11
ENDBRANCH   1   7
BRANCH   1  28
HETATM   28  N4  UNL     1      -0.681  -1.896   1.057  1.00  0.00    -0.341 N 
HETATM   29  C11 UNL     1      -0.037  -3.038   0.546  1.00  0.00     0.254 C 
HETATM   30  O6  UNL     1       0.432  -2.967  -0.627  1.00  0.00    -0.271 OA
ATOM     31  H4  UNL     1      -1.064  -1.937   2.001  1.00  0.00     0.163 HD
BRANCH  29  32
HETATM   32  C12 UNL     1       0.101  -4.275   1.315  1.00  0.00     0.196 C 
HETATM   33  C13 UNL     1       0.885  -4.131   2.591  1.00  0.00     0.056 C 
HETATM   34  C14 UNL     1      -1.284  -4.851   1.629  1.00  0.00     0.056 C 
BRANCH  32  35
HETATM   35  N5  UNL     1       0.775  -5.281   0.500  1.00  0.00    -0.062 N 
ATOM     36  H53 UNL     1       0.305  -5.432  -0.393  1.00  0.00     0.275 HD
ATOM     37  H52 UNL     1       1.670  -4.949   0.139  1.00  0.00     0.275 HD
ATOM     38  H51 UNL     1       0.871  -6.143   1.036  1.00  0.00     0.275 HD
ENDBRANCH  32  35
ENDBRANCH  29  32
ENDBRANCH   1  28
BRANCH   4  39
HETATM   39  C17 UNL     1      -4.660   1.246  -0.113  1.00  0.00     0.034 C 
HETATM   40  C21 UNL     1      -5.192   1.485   1.298  1.00  0.00     0.032 C 
HETATM   41  C22 UNL     1      -6.644   1.853   1.290  1.00  0.00     0.011 C 
HETATM   42  C23 UNL     1      -7.508   0.870   0.579  1.00  0.00    -0.048 C 
HETATM   43  C24 UNL     1      -8.926   1.417   0.607  1.00  0.00     0.015 C 
HETATM   44  C25 UNL     1      -7.553  -0.488   1.238  1.00  0.00     0.015 C 
HETATM   45  C26 UNL     1      -7.022   0.711  -0.818  1.00  0.00     0.011 C 
HETATM   46  C27 UNL     1      -5.582   0.273  -0.845  1.00  0.00     0.032 C 
BRANCH  39  47
HETATM   47  C18 UNL     1      -4.739   2.526  -0.890  1.00  0.00     0.005 C 
HETATM   48  C19 UNL     1      -3.913   3.665  -0.428  1.00  0.00     0.012 C 
HETATM   49  C20 UNL     1      -4.308   2.250  -2.341  1.00  0.00     0.012 C 
ENDBRANCH  39  47
ENDBRANCH   4  39
TORSDOF 13
