REMARK  8 active torsions:
REMARK  status: ('A' for Active; 'I' for Inactive)
REMARK    1  A    between atoms: C3_4  and  O1_5 
REMARK    2  A    between atoms: O1_5  and  C4_6 
REMARK    3  A    between atoms: C4_6  and  C5_7 
REMARK    4  A    between atoms: C5_7  and  N2_8 
REMARK    5  A    between atoms: C7_10  and  O2_11 
REMARK    6  A    between atoms: C11_18  and  N4_21 
REMARK    7  A    between atoms: N5_26  and  C16_27 
REMARK    8  A    between atoms: C19_30  and  N6_31 
ROOT
HETATM    1  C1  UNL     1      -3.459  -2.581  -1.000  1.00  0.00     0.152 C 
HETATM    2  N1  UNL     1      -3.283  -1.212  -0.569  1.00  0.00    -0.351 N 
HETATM    3  C2  UNL     1      -3.805  -0.887   0.744  1.00  0.00     0.163 C 
HETATM    4  C3  UNL     1      -4.725   0.308   0.534  1.00  0.00     0.211 C 
HETATM    5  C9  UNL     1      -3.951   1.566   0.258  1.00  0.00     0.274 C 
HETATM    6  F1  UNL     1      -4.231   2.440   1.332  1.00  0.00    -0.203 F 
HETATM    7  F2  UNL     1      -4.383   2.251  -0.859  1.00  0.00    -0.203 F 
HETATM    8  C10 UNL     1      -2.479   1.441   0.211  1.00  0.00     0.139 C 
HETATM    9  C11 UNL     1      -1.918   0.902  -1.118  1.00  0.00     0.208 C 
HETATM   10  C12 UNL     1      -2.167   1.946  -2.152  1.00  0.00     0.101 C 
HETATM   11  N3  UNL     1      -2.338   2.761  -2.974  1.00  0.00    -0.194 NA
HETATM   12  C27 UNL     1      -2.632  -0.342  -1.477  1.00  0.00     0.263 C 
HETATM   13  O3  UNL     1      -2.663  -0.654  -2.720  1.00  0.00    -0.269 OA
ENDROOT
BRANCH   9  14
HETATM   14  N4  UNL     1      -0.556   0.681  -0.924  1.00  0.00    -0.346 N 
HETATM   15  C13 UNL     1       0.314  -0.181  -1.023  1.00  0.00     0.118 A 
HETATM   16  C14 UNL     1       0.334  -1.496  -1.424  1.00  0.00     0.068 A 
HETATM   17  N7  UNL     1       1.631   0.110  -0.712  1.00  0.00    -0.283 N 
HETATM   18  C15 UNL     1       1.627  -1.975  -1.356  1.00  0.00     0.114 A 
HETATM   19  N5  UNL     1       2.375  -0.952  -0.915  1.00  0.00    -0.297 N 
ATOM     20  H7  UNL     1       1.971   1.011  -0.377  1.00  0.00     0.188 HD
ATOM     21  H4  UNL     1      -0.130   1.540  -0.576  1.00  0.00     0.163 HD
BRANCH  19  22
HETATM   22  C16 UNL     1       3.805  -0.999  -0.701  1.00  0.00     0.107 C 
HETATM   23  C17 UNL     1       4.442   0.044  -1.609  1.00  0.00     0.029 C 
HETATM   24  C18 UNL     1       5.926  -0.000  -1.286  1.00  0.00     0.027 C 
HETATM   25  C19 UNL     1       6.068   0.696   0.054  1.00  0.00     0.079 C 
HETATM   26  C25 UNL     1       5.112   0.223   1.092  1.00  0.00     0.027 C 
HETATM   27  C26 UNL     1       4.232  -0.916   0.720  1.00  0.00     0.029 C 
BRANCH  25  28
HETATM   28  N6  UNL     1       7.443   0.697   0.420  1.00  0.00    -0.408 N 
HETATM   29  C20 UNL     1       8.054  -0.576   0.617  1.00  0.00     0.117 C 
HETATM   30  C21 UNL     1       9.550  -0.311   0.832  1.00  0.00     0.019 C 
HETATM   31  C22 UNL     1       9.930   1.030   0.212  1.00  0.00     0.003 C 
HETATM   32  C23 UNL     1       9.229   2.180   0.929  1.00  0.00     0.019 C 
HETATM   33  C24 UNL     1       7.847   1.680   1.372  1.00  0.00     0.117 C 
ENDBRANCH  25  28
ENDBRANCH  19  22
ENDBRANCH   9  14
BRANCH   4  34
HETATM   34  O1  UNL     1      -5.654   0.458   1.532  1.00  0.00    -0.376 OA
BRANCH  34  35
HETATM   35  C4  UNL     1      -6.961   0.248   1.213  1.00  0.00     0.198 C 
BRANCH  35  36
HETATM   36  C5  UNL     1      -7.541   1.124   0.157  1.00  0.00     0.298 C 
BRANCH  36  37
HETATM   37  N2  UNL     1      -8.914   0.885  -0.142  1.00  0.00     0.095 N 
HETATM   38  C6  UNL     1      -9.876   1.216   0.881  1.00  0.00     0.305 A 
HETATM   39  C7  UNL     1     -10.395  -0.211   0.777  1.00  0.00     0.174 A 
HETATM   40  C8  UNL     1      -9.377  -0.439  -0.350  1.00  0.00     0.305 A 
BRANCH  39  41
HETATM   41  O2  UNL     1     -11.699  -0.283   0.318  1.00  0.00    -0.392 OA
ATOM     42  H2  UNL     1     -12.023  -1.174   0.253  1.00  0.00     0.210 HD
ENDBRANCH  39  41
ENDBRANCH  36  37
ENDBRANCH  35  36
ENDBRANCH  34  35
ENDBRANCH   4  34
TORSDOF 8
