REMARK  4 active torsions:
REMARK  status: ('A' for Active; 'I' for Inactive)
REMARK    1  A    between atoms: C3_3  and  C4_4 
REMARK    2  A    between atoms: C4_4  and  N1_5 
REMARK    3  A    between atoms: N1_5  and  C5_8 
REMARK    4  A    between atoms: C5_8  and  C6_9 
ROOT
HETATM    1  C6  UNL     1       0.857   0.369   0.056  1.00  0.00     0.174 C 
HETATM    2  C7  UNL     1       1.248  -0.829   0.854  1.00  0.00     0.205 C 
HETATM    3  O1  UNL     1       2.525  -1.177   0.433  1.00  0.00    -0.352 OA
HETATM    4  C8  UNL     1       2.983   0.010  -0.129  1.00  0.00     0.164 C 
HETATM    5  C9  UNL     1       4.184  -0.238  -1.028  1.00  0.00     0.068 C 
HETATM    6  C10 UNL     1       5.286  -0.413  -0.001  1.00  0.00     0.006 C 
HETATM    7  C11 UNL     1       4.934   0.497   1.149  1.00  0.00     0.006 C 
HETATM    8  C12 UNL     1       3.508   0.938   0.947  1.00  0.00     0.068 C 
HETATM    9  O2  UNL     1       1.931   0.576  -0.806  1.00  0.00    -0.346 OA
ENDROOT
BRANCH   1  10
HETATM   10  C5  UNL     1      -0.364   0.113  -0.794  1.00  0.00     0.266 C 
BRANCH  10  11
HETATM   11  N1  UNL     1      -1.549  -0.117  -0.003  1.00  0.00    -0.072 N 
ATOM     12  H12 UNL     1      -1.720   0.645   0.653  1.00  0.00     0.277 HD
ATOM     13  H11 UNL     1      -1.414  -0.870   0.671  1.00  0.00     0.277 HD
BRANCH  11  14
HETATM   14  C4  UNL     1      -2.675  -0.355  -0.844  1.00  0.00     0.237 C 
BRANCH  14  15
HETATM   15  C3  UNL     1      -3.953  -0.605  -0.124  1.00  0.00     0.011 C 
HETATM   16  C2  UNL     1      -4.436   0.495   0.772  1.00  0.00     0.006 C 
HETATM   17  C1  UNL     1      -5.774   0.552   0.037  1.00  0.00     0.001 C 
HETATM   18  C13 UNL     1      -5.146  -0.308  -1.037  1.00  0.00     0.006 C 
ENDBRANCH  14  15
ENDBRANCH  11  14
ENDBRANCH  10  11
ENDBRANCH   1  10
TORSDOF 4
