REMARK  4 active torsions:
REMARK  status: ('A' for Active; 'I' for Inactive)
REMARK    1  A    between atoms: C6_10  and  N3_11 
REMARK       I    between atoms: N3_11  and  C7_13 
REMARK    2  A    between atoms: C7_13  and  C8_15 
REMARK    3  A    between atoms: C8_15  and  C9_16 
REMARK    4  A    between atoms: C8_15  and  N4_18 
ROOT
HETATM    1  C1  UNL     1       6.168  -0.347  -2.784  1.00  0.00     0.018 C 
HETATM    2  C2  UNL     1       5.955  -0.211  -1.610  1.00  0.00    -0.072 C 
HETATM    3  C3  UNL     1       5.706  -0.074  -0.205  1.00  0.00     0.086 A 
HETATM    4  C4  UNL     1       6.688  -0.047   0.758  1.00  0.00     0.044 A 
HETATM    5  C5  UNL     1       8.172  -0.152   0.531  1.00  0.00     0.071 C 
HETATM    6  N1  UNL     1       6.053   0.092   1.934  1.00  0.00    -0.302 N 
ATOM      7  H1  UNL     1       6.506   0.145   2.846  1.00  0.00     0.186 HD
HETATM    8  N2  UNL     1       4.733   0.150   1.721  1.00  0.00    -0.284 N 
ATOM      9  H2  UNL     1       4.032   0.254   2.455  1.00  0.00     0.188 HD
HETATM   10  C6  UNL     1       4.457   0.053   0.418  1.00  0.00     0.143 A 
ENDROOT
BRANCH  10  11
HETATM   11  N3  UNL     1       3.374   0.057  -0.249  1.00  0.00    -0.309 N 
HETATM   12  C7  UNL     1       2.063   0.176   0.245  1.00  0.00     0.257 C 
HETATM   13  O1  UNL     1       1.874   0.691   1.367  1.00  0.00    -0.271 OA
ATOM     14  H3  UNL     1       3.467  -0.037  -1.260  1.00  0.00     0.170 HD
BRANCH  12  15
HETATM   15  C8  UNL     1       0.902  -0.294  -0.534  1.00  0.00     0.314 C 
BRANCH  15  16
HETATM   16  C9  UNL     1       0.999  -1.766  -0.848  1.00  0.00     0.041 C 
HETATM   17  C10 UNL     1       2.254  -2.081  -1.674  1.00  0.00     0.007 C 
ENDBRANCH  15  16
BRANCH  15  18
HETATM   18  N4  UNL     1      -0.357   0.095   0.065  1.00  0.00     0.105 N 
HETATM   19  C11 UNL     1      -1.495  -0.531  -0.479  1.00  0.00     0.292 C 
HETATM   20  C12 UNL     1      -1.820  -1.796   0.285  1.00  0.00     0.144 C 
HETATM   21  N5  UNL     1      -3.052  -1.716   1.016  1.00  0.00    -0.419 N 
HETATM   22  C13 UNL     1      -4.228  -1.965   0.264  1.00  0.00     0.115 C 
ATOM     23  H5  UNL     1      -3.080  -1.495   2.011  1.00  0.00     0.153 HD
HETATM   24  C14 UNL     1      -5.398  -1.331   1.032  1.00  0.00     0.046 C 
HETATM   25  C15 UNL     1      -5.784  -0.002   0.419  1.00  0.00     0.234 C 
HETATM   26  N6  UNL     1      -4.917   1.080   0.835  1.00  0.00    -0.073 N 
HETATM   27  C16 UNL     1      -4.835   2.075  -0.223  1.00  0.00     0.259 C 
ATOM     28  H62 UNL     1      -5.209   1.487   1.724  1.00  0.00     0.277 HD
ATOM     29  H61 UNL     1      -3.997   0.747   1.122  1.00  0.00     0.277 HD
HETATM   30  C17 UNL     1      -3.718   3.041  -0.041  1.00  0.00     0.259 C 
HETATM   31  N7  UNL     1      -2.573   2.527   0.666  1.00  0.00    -0.072 N 
HETATM   32  C18 UNL     1      -1.525   2.279  -0.315  1.00  0.00     0.262 C 
ATOM     33  H72 UNL     1      -2.269   3.136   1.426  1.00  0.00     0.277 HD
ATOM     34  H71 UNL     1      -2.791   1.706   1.231  1.00  0.00     0.277 HD
HETATM   35  C19 UNL     1      -0.376   1.506   0.197  1.00  0.00     0.301 C 
ENDBRANCH  15  18
ENDBRANCH  12  15
ENDBRANCH  10  11
TORSDOF 4
