REMARK  6 active torsions:
REMARK  status: ('A' for Active; 'I' for Inactive)
REMARK    1  A    between atoms: C2_2  and  N1_3 
REMARK    2  A    between atoms: N1_3  and  C3_4 
REMARK    3  A    between atoms: N1_3  and  S1_13 
REMARK    4  A    between atoms: C3_4  and  C4_5 
REMARK       I    between atoms: C4_5  and  N2_7 
REMARK    5  A    between atoms: N2_7  and  C5_9 
REMARK    6  A    between atoms: S1_13  and  C9_16 
ROOT
HETATM    1  S1  UNL     1      -1.377   0.560  -0.374  1.00  0.00     0.246 S 
HETATM    2  O2  UNL     1      -1.567   1.506  -1.546  1.00  0.00    -0.206 OA
HETATM    3  O3  UNL     1      -0.730   1.370   0.745  1.00  0.00    -0.206 OA
ENDROOT
BRANCH   1   4
HETATM    4  N1  UNL     1      -0.287  -0.646  -0.884  1.00  0.00    -0.198 NA
BRANCH   4   5
HETATM    5  C2  UNL     1      -0.715  -1.452  -1.986  1.00  0.00     0.103 C 
HETATM    6  C1  UNL     1      -0.347  -0.939  -3.330  1.00  0.00     0.021 C 
ENDBRANCH   4   5
BRANCH   4   7
HETATM    7  C3  UNL     1       0.986   0.002  -1.132  1.00  0.00     0.210 C 
BRANCH   7   8
HETATM    8  C4  UNL     1       1.897   0.045   0.009  1.00  0.00     0.232 C 
HETATM    9  O1  UNL     1       1.587  -0.447   1.109  1.00  0.00    -0.272 OA
HETATM   10  N2  UNL     1       3.159   0.655  -0.124  1.00  0.00    -0.352 N 
ATOM     11  H2  UNL     1       3.407   1.056  -1.028  1.00  0.00     0.163 HD
BRANCH  10  12
HETATM   12  C5  UNL     1       4.124   0.744   0.952  1.00  0.00     0.022 C 
HETATM   13  C6  UNL     1       5.384   1.446   0.527  1.00  0.00     0.037 C 
HETATM   14  C7  UNL     1       3.566   1.350   2.194  1.00  0.00     0.037 C 
HETATM   15  C8  UNL     1       4.519  -0.701   1.285  1.00  0.00     0.037 C 
ENDBRANCH  10  12
ENDBRANCH   7   8
ENDBRANCH   4   7
ENDBRANCH   1   4
BRANCH   1  16
HETATM   16  C9  UNL     1      -2.908   0.020   0.181  1.00  0.00     0.103 A 
HETATM   17  C10 UNL     1      -3.024  -0.434   1.490  1.00  0.00    -0.032 A 
HETATM   18  C11 UNL     1      -1.886  -0.508   2.439  1.00  0.00     0.050 C 
HETATM   19  C12 UNL     1      -4.265  -0.841   1.929  1.00  0.00     0.082 A 
HETATM   20  C13 UNL     1      -5.375  -0.809   1.110  1.00  0.00     0.246 A 
HETATM   21  O4  UNL     1      -6.478  -1.198   1.580  1.00  0.00    -0.268 OA
HETATM   22  N3  UNL     1      -5.217  -0.367  -0.135  1.00  0.00    -0.326 N 
HETATM   23  C14 UNL     1      -4.020   0.054  -0.642  1.00  0.00     0.032 A 
ATOM     24  H3  UNL     1      -6.034  -0.341  -0.745  1.00  0.00     0.169 HD
HETATM   25  C15 UNL     1      -4.008   0.547  -2.040  1.00  0.00     0.070 C 
ENDBRANCH   1  16
TORSDOF 6
