REMARK  10 active torsions:
REMARK  status: ('A' for Active; 'I' for Inactive)
REMARK    1  A    between atoms: C3_3  and  O1_4 
REMARK    2  A    between atoms: C4_6  and  O2_7 
REMARK    3  A    between atoms: C10_14  and  C11_15 
REMARK    4  A    between atoms: C11_15  and  O3_16 
REMARK    5  A    between atoms: C11_15  and  C12_18 
REMARK    6  A    between atoms: C12_18  and  N1_19 
REMARK    7  A    between atoms: N1_19  and  C13_22 
REMARK    8  A    between atoms: C13_22  and  C14_23 
REMARK    9  A    between atoms: C21_30  and  O4_31 
REMARK   10  A    between atoms: C23_34  and  O5_35 
ROOT
HETATM    1  C1  UNL     1      -0.742   3.839  -0.480  1.00  0.00     0.052 C 
HETATM    2  C2  UNL     1      -1.955   3.007  -0.220  1.00  0.00    -0.015 A 
HETATM    3  C3  UNL     1      -3.177   3.572  -0.013  1.00  0.00     0.106 A 
HETATM    4  C4  UNL     1      -4.263   2.736   0.170  1.00  0.00     0.106 A 
HETATM    5  C5  UNL     1      -4.152   1.324   0.149  1.00  0.00    -0.014 A 
HETATM    6  C6  UNL     1      -5.288   0.512   0.570  1.00  0.00     0.052 C 
HETATM    7  C7  UNL     1      -2.901   0.817  -0.074  1.00  0.00    -0.003 A 
HETATM    8  C8  UNL     1      -2.701  -0.531  -0.135  1.00  0.00     0.012 A 
HETATM    9  C9  UNL     1      -1.381  -1.045  -0.347  1.00  0.00    -0.033 A 
HETATM   10  C10 UNL     1      -0.277  -0.247  -0.510  1.00  0.00    -0.020 A 
HETATM   11  C18 UNL     1      -0.515   1.101  -0.461  1.00  0.00     0.023 A 
HETATM   12  C19 UNL     1      -1.772   1.638  -0.256  1.00  0.00    -0.015 A 
HETATM   13  C20 UNL     1      -1.329  -2.511  -0.202  1.00  0.00     0.072 C 
HETATM   14  C21 UNL     1      -2.304  -3.044   0.856  1.00  0.00     0.128 C 
HETATM   15  C22 UNL     1      -3.727  -2.744   0.622  1.00  0.00     0.097 C 
HETATM   16  C23 UNL     1      -3.811  -1.475  -0.201  1.00  0.00     0.057 C 
ENDROOT
BRANCH  10  17
HETATM   17  C11 UNL     1       0.999  -0.850  -0.884  1.00  0.00     0.177 C 
BRANCH  17  18
HETATM   18  O3  UNL     1       1.061  -2.183  -1.064  1.00  0.00    -0.389 OA
ATOM     19  H3  UNL     1       1.891  -2.575  -1.307  1.00  0.00     0.210 HD
ENDBRANCH  17  18
BRANCH  17  20
HETATM   20  C12 UNL     1       2.098  -0.237  -0.043  1.00  0.00     0.268 C 
BRANCH  20  21
HETATM   21  N1  UNL     1       3.431  -0.538  -0.523  1.00  0.00    -0.072 N 
ATOM     22  H12 UNL     1       3.474  -1.433  -1.010  1.00  0.00     0.277 HD
ATOM     23  H11 UNL     1       3.707   0.062  -1.300  1.00  0.00     0.277 HD
BRANCH  21  24
HETATM   24  C13 UNL     1       4.377  -0.468   0.599  1.00  0.00     0.237 C 
BRANCH  24  25
HETATM   25  C14 UNL     1       5.735  -0.718   0.010  1.00  0.00     0.011 C 
HETATM   26  C15 UNL     1       6.884  -0.722   1.023  1.00  0.00     0.006 C 
HETATM   27  C16 UNL     1       7.694  -0.004  -0.083  1.00  0.00     0.001 C 
HETATM   28  C17 UNL     1       6.371   0.616  -0.487  1.00  0.00     0.006 C 
ENDBRANCH  24  25
ENDBRANCH  21  24
ENDBRANCH  20  21
ENDBRANCH  17  20
ENDBRANCH  10  17
BRANCH  16  29
HETATM   29  O5  UNL     1      -4.793  -1.431  -1.199  1.00  0.00    -0.364 OA
ATOM     30  H5  UNL     1      -5.516  -2.046  -1.242  1.00  0.00     0.217 HD
ENDBRANCH  16  29
BRANCH  14  31
HETATM   31  O4  UNL     1      -2.105  -4.421   0.851  1.00  0.00    -0.395 OA
ATOM     32  H4  UNL     1      -2.709  -4.751   1.506  1.00  0.00     0.210 HD
ENDBRANCH  14  31
BRANCH   3  33
HETATM   33  O1  UNL     1      -3.357   4.926   0.013  1.00  0.00    -0.357 OA
ATOM     34  H1  UNL     1      -4.209   5.320   0.157  1.00  0.00     0.217 HD
ENDBRANCH   3  33
BRANCH   4  35
HETATM   35  O2  UNL     1      -5.505   3.304   0.377  1.00  0.00    -0.357 OA
ATOM     36  H2  UNL     1      -6.251   2.730   0.503  1.00  0.00     0.217 HD
ENDBRANCH   4  35
TORSDOF 10
