REMARK  10 active torsions:
REMARK  status: ('A' for Active; 'I' for Inactive)
REMARK    1  A    between atoms: C2_2  and  O1_3 
REMARK    2  A    between atoms: O1_3  and  C3_4 
REMARK    3  A    between atoms: C5_6  and  C6_7 
REMARK    4  A    between atoms: C6_7  and  O2_8 
REMARK    5  A    between atoms: C6_7  and  N1_16 
REMARK    6  A    between atoms: O2_8  and  C7_9 
REMARK    7  A    between atoms: N3_25  and  C19_26 
REMARK    8  A    between atoms: C19_26  and  C20_27 
REMARK    9  A    between atoms: C20_27  and  O4_28 
REMARK   10  A    between atoms: N4_30  and  O5_32 
ROOT
HETATM    1  C3  UNL     1      -2.772  -0.088   1.155  1.00  0.00     0.140 A 
HETATM    2  C4  UNL     1      -1.517  -0.436   0.700  1.00  0.00     0.073 A 
HETATM    3  C5  UNL     1      -1.096  -0.078  -0.581  1.00  0.00     0.087 A 
HETATM    4  N2  UNL     1      -1.993   0.614  -1.312  1.00  0.00    -0.295 N 
ATOM      5  H2  UNL     1      -1.719   0.892  -2.254  1.00  0.00     0.187 HD
HETATM    6  N3  UNL     1      -3.182   0.954  -0.906  1.00  0.00    -0.247 N 
HETATM    7  C21 UNL     1      -3.605   0.620   0.322  1.00  0.00     0.295 A 
HETATM    8  O6  UNL     1      -4.756   0.953   0.705  1.00  0.00    -0.263 OA
ENDROOT
BRANCH   3   9
HETATM    9  C6  UNL     1       0.250  -0.438  -1.100  1.00  0.00     0.412 C 
BRANCH   9  10
HETATM   10  O2  UNL     1       1.220  -0.194  -0.143  1.00  0.00    -0.347 OA
BRANCH  10  11
HETATM   11  C7  UNL     1       2.105   0.797  -0.473  1.00  0.00     0.124 C 
HETATM   12  C8  UNL     1       1.900   1.939   0.531  1.00  0.00     0.032 C 
HETATM   13  C9  UNL     1       2.818   1.708   1.734  1.00  0.00     0.007 C 
HETATM   14  C10 UNL     1       4.197   2.101   1.314  1.00  0.00    -0.019 C 
HETATM   15  C11 UNL     1       5.275   1.623   2.254  1.00  0.00     0.010 C 
HETATM   16  C12 UNL     1       4.445   1.575  -0.077  1.00  0.00     0.007 C 
HETATM   17  C13 UNL     1       3.548   0.391  -0.399  1.00  0.00     0.032 C 
ENDBRANCH  10  11
ENDBRANCH   9  10
BRANCH   9  18
HETATM   18  N1  UNL     1       0.333  -1.736  -1.682  1.00  0.00     0.131 N 
HETATM   19  C14 UNL     1      -0.591  -1.831  -2.796  1.00  0.00     0.303 C 
HETATM   20  C15 UNL     1      -0.046  -2.948  -3.697  1.00  0.00     0.198 C 
HETATM   21  O3  UNL     1       0.658  -3.871  -2.932  1.00  0.00    -0.387 OA
HETATM   22  C16 UNL     1       0.084  -4.099  -1.698  1.00  0.00     0.203 C 
HETATM   23  C17 UNL     1       0.116  -2.841  -0.817  1.00  0.00     0.246 C 
HETATM   24  C18 UNL     1       1.209  -3.041   0.204  1.00  0.00     0.045 C 
ENDBRANCH   9  18
ENDBRANCH   3   9
BRANCH   1  25
HETATM   25  O1  UNL     1      -3.167  -0.461   2.446  1.00  0.00    -0.346 OA
BRANCH  25  26
HETATM   26  C2  UNL     1      -2.316  -1.179   3.286  1.00  0.00     0.171 C 
HETATM   27  C1  UNL     1      -3.037  -1.421   4.598  1.00  0.00     0.034 C 
ENDBRANCH  25  26
ENDBRANCH   1  25
BRANCH   6  28
HETATM   28  C19 UNL     1      -4.090   1.708  -1.771  1.00  0.00     0.238 C 
BRANCH  28  29
HETATM   29  C20 UNL     1      -3.938   3.161  -1.613  1.00  0.00     0.155 C 
HETATM   30  N4  UNL     1      -4.930   3.867  -1.231  1.00  0.00    -0.250 N 
ATOM     31  H4  UNL     1      -5.805   3.376  -1.048  1.00  0.00     0.196 HD
BRANCH  29  32
HETATM   32  O4  UNL     1      -2.728   3.762  -1.875  1.00  0.00    -0.347 OA
ATOM     33  H4  UNL     1      -2.630   4.701  -1.773  1.00  0.00     0.219 HD
ENDBRANCH  29  32
BRANCH  30  34
HETATM   34  O5  UNL     1      -4.928   5.211  -1.046  1.00  0.00    -0.288 OA
ATOM     35  H5  UNL     1      -5.667   5.737  -0.762  1.00  0.00     0.244 HD
ENDBRANCH  30  34
ENDBRANCH  28  29
ENDBRANCH   6  28
TORSDOF 10
