REMARK  5 active torsions:
REMARK  status: ('A' for Active; 'I' for Inactive)
REMARK    1  A    between atoms: C2_2  and  O1_3 
REMARK    2  A    between atoms: C2_2  and  C3_5 
REMARK    3  A    between atoms: C3_5  and  N1_6 
REMARK    4  A    between atoms: N1_6  and  C4_8 
REMARK    5  A    between atoms: C10_14  and  O2_15 
ROOT
HETATM    1  C4  UNL     1       0.016   0.287  -0.215  1.00  0.00     0.029 C 
HETATM    2  C5  UNL     1      -0.762   1.456   0.338  1.00  0.00     0.035 C 
HETATM    3  C6  UNL     1      -2.228   1.148   0.304  1.00  0.00    -0.009 C 
HETATM    4  C7  UNL     1      -2.659   0.948  -1.138  1.00  0.00     0.009 C 
HETATM    5  C8  UNL     1      -1.948  -0.246  -1.711  1.00  0.00    -0.009 C 
HETATM    6  C9  UNL     1      -2.216  -1.490  -0.879  1.00  0.00     0.042 C 
HETATM    7  C10 UNL     1      -1.797  -1.240   0.519  1.00  0.00     0.061 C 
HETATM    8  C11 UNL     1      -2.595  -0.097   1.081  1.00  0.00     0.042 C 
HETATM    9  C12 UNL     1      -0.338  -0.889   0.671  1.00  0.00     0.068 C 
HETATM   10  C13 UNL     1      -0.462   0.009  -1.633  1.00  0.00     0.035 C 
ENDROOT
BRANCH   1  11
HETATM   11  N1  UNL     1       1.420   0.481  -0.336  1.00  0.00    -0.410 N 
ATOM     12  H1  UNL     1       1.876   0.452  -1.248  1.00  0.00     0.154 HD
BRANCH  11  13
HETATM   13  C3  UNL     1       2.167   0.716   0.843  1.00  0.00     0.145 C 
BRANCH  13  14
HETATM   14  C2  UNL     1       3.646   0.741   0.433  1.00  0.00     0.131 C 
HETATM   15  C1  UNL     1       4.040  -0.595  -0.162  1.00  0.00     0.041 C 
BRANCH  14  16
HETATM   16  O1  UNL     1       4.386   0.970   1.569  1.00  0.00    -0.394 OA
ATOM     17  H1  UNL     1       4.139   1.808   1.942  1.00  0.00     0.210 HD
ENDBRANCH  14  16
ENDBRANCH  13  14
ENDBRANCH  11  13
ENDBRANCH   1  11
BRANCH   7  18
HETATM   18  O2  UNL     1      -2.050  -2.415   1.252  1.00  0.00    -0.390 OA
ATOM     19  H2  UNL     1      -1.781  -2.255   2.149  1.00  0.00     0.210 HD
ENDBRANCH   7  18
TORSDOF 5
