REMARK  6 active torsions:
REMARK  status: ('A' for Active; 'I' for Inactive)
REMARK    1  A    between atoms: C2_2  and  O1_3 
REMARK    2  A    between atoms: C2_2  and  C3_5 
REMARK    3  A    between atoms: C3_5  and  O2_6 
REMARK    4  A    between atoms: C3_5  and  C4_8 
REMARK    5  A    between atoms: C4_8  and  C5_9 
REMARK    6  A    between atoms: C5_9  and  O3_10 
ROOT
HETATM    1  C4  UNL     1      -0.015   0.228  -0.232  1.00  0.00     0.019 C 
HETATM    2  C6  UNL     1      -0.677  -1.064  -0.699  1.00  0.00    -0.005 C 
HETATM    3  C7  UNL     1      -0.141  -1.686  -1.923  1.00  0.00     0.011 C 
HETATM    4  C8  UNL     1      -0.890  -2.022   0.458  1.00  0.00     0.005 C 
HETATM    5  C9  UNL     1      -1.805  -1.315   1.428  1.00  0.00     0.001 C 
HETATM    6  C10 UNL     1      -2.207   0.041   1.010  1.00  0.00     0.010 C 
HETATM    7  C11 UNL     1      -1.086   0.951   0.522  1.00  0.00    -0.035 C 
HETATM    8  C12 UNL     1      -1.846   2.002  -0.272  1.00  0.00     0.016 C 
HETATM    9  C13 UNL     1      -0.644   1.700   1.763  1.00  0.00     0.016 C 
ENDROOT
BRANCH   1  10
HETATM   10  C3  UNL     1       1.136  -0.008   0.665  1.00  0.00     0.158 C 
BRANCH  10  11
HETATM   11  C2  UNL     1       2.293  -0.828   0.232  1.00  0.00     0.143 C 
HETATM   12  C1  UNL     1       3.264  -0.148  -0.709  1.00  0.00     0.042 C 
BRANCH  11  13
HETATM   13  O1  UNL     1       3.085  -1.013   1.414  1.00  0.00    -0.393 OA
ATOM     14  H1  UNL     1       2.476  -1.440   2.005  1.00  0.00     0.210 HD
ENDBRANCH  11  13
ENDBRANCH  10  11
BRANCH  10  15
HETATM   15  O2  UNL     1       1.715   1.166   1.125  1.00  0.00    -0.392 OA
ATOM     16  H2  UNL     1       0.974   1.691   1.402  1.00  0.00     0.210 HD
ENDBRANCH  10  15
ENDBRANCH   1  10
BRANCH   1  17
HETATM   17  C5  UNL     1       0.362   0.951  -1.501  1.00  0.00     0.177 C 
BRANCH  17  18
HETATM   18  O3  UNL     1      -0.702   1.165  -2.361  1.00  0.00    -0.400 OA
ATOM     19  H3  UNL     1      -0.465   1.620  -3.160  1.00  0.00     0.209 HD
ENDBRANCH  17  18
ENDBRANCH   1  17
TORSDOF 6
