REMARK  5 active torsions:
REMARK  status: ('A' for Active; 'I' for Inactive)
REMARK    1  A    between atoms: N1_2  and  C2_5 
REMARK    2  A    between atoms: C2_5  and  C3_6 
REMARK    3  A    between atoms: C7_10  and  O1_11 
REMARK    4  A    between atoms: C9_14  and  C10_15 
REMARK    5  A    between atoms: C10_15  and  O2_16 
ROOT
HETATM    1  C3  UNL     1      -1.310  -0.551  -0.536  1.00  0.00    -0.014 C 
HETATM    2  C4  UNL     1      -1.644  -2.040  -0.581  1.00  0.00     0.017 C 
HETATM    3  C5  UNL     1      -0.923  -0.047  -1.916  1.00  0.00     0.014 C 
HETATM    4  C6  UNL     1       0.091   1.051  -1.694  1.00  0.00     0.039 C 
HETATM    5  C7  UNL     1       0.415   1.062  -0.234  1.00  0.00     0.063 C 
HETATM    6  C8  UNL     1       1.889   1.263   0.046  1.00  0.00     0.045 C 
HETATM    7  C9  UNL     1       2.757   0.194  -0.508  1.00  0.00     0.012 C 
HETATM    8  C11 UNL     1       2.056  -1.121  -0.704  1.00  0.00     0.007 C 
HETATM    9  C12 UNL     1       0.928  -1.342   0.260  1.00  0.00     0.009 C 
HETATM   10  C13 UNL     1      -0.094  -0.254   0.271  1.00  0.00     0.030 C 
ENDROOT
BRANCH   1  11
HETATM   11  C2  UNL     1      -2.542   0.168  -0.100  1.00  0.00     0.241 C 
BRANCH  11  12
HETATM   12  N1  UNL     1      -3.019  -0.227   1.193  1.00  0.00    -0.078 N 
HETATM   13  C1  UNL     1      -4.204   0.512   1.534  1.00  0.00     0.267 C 
ATOM     14  H12 UNL     1      -2.297  -0.140   1.908  1.00  0.00     0.276 HD
ATOM     15  H11 UNL     1      -3.168  -1.234   1.252  1.00  0.00     0.276 HD
ENDBRANCH  11  12
ENDBRANCH   1  11
BRANCH   5  16
HETATM   16  O1  UNL     1      -0.232   2.140   0.414  1.00  0.00    -0.389 OA
ATOM     17  H1  UNL     1      -0.026   2.147   1.341  1.00  0.00     0.210 HD
ENDBRANCH   5  16
BRANCH   7  18
HETATM   18  C10 UNL     1       3.965   0.050   0.415  1.00  0.00     0.168 C 
BRANCH  18  19
HETATM   19  O2  UNL     1       4.602   1.299   0.410  1.00  0.00    -0.400 OA
ATOM     20  H2  UNL     1       5.354   1.209   0.984  1.00  0.00     0.209 HD
ENDBRANCH  18  19
ENDBRANCH   7  18
TORSDOF 5
