REMARK  6 active torsions:
REMARK  status: ('A' for Active; 'I' for Inactive)
REMARK    1  A    between atoms: C2_2  and  O1_3 
REMARK    2  A    between atoms: C2_2  and  N1_5 
REMARK    3  A    between atoms: N1_5  and  C3_7 
REMARK    4  A    between atoms: C4_10  and  N3_11 
REMARK    5  A    between atoms: C7_16  and  N5_17 
REMARK    6  A    between atoms: N5_17  and  N6_19 
ROOT
HETATM    1  C3  UNL     1       0.758  -0.304  -0.481  1.00  0.00     0.709 A 
HETATM    2  N2  UNL     1      -0.489  -0.744  -0.787  1.00  0.00    -0.021 N 
ATOM      3  H2  UNL     1      -0.600  -1.554  -1.397  1.00  0.00     0.203 HD
HETATM    4  C4  UNL     1      -1.581  -0.129  -0.298  1.00  0.00     0.708 A 
HETATM    5  N4  UNL     1      -1.417   0.947   0.512  1.00  0.00    -0.020 N 
ATOM      6  H4  UNL     1      -2.241   1.418   0.885  1.00  0.00     0.203 HD
HETATM    7  C7  UNL     1      -0.195   1.410   0.836  1.00  0.00     0.725 A 
HETATM    8  N7  UNL     1       0.861   0.750   0.314  1.00  0.00    -0.020 N 
ATOM      9  H7  UNL     1       1.796   1.084   0.547  1.00  0.00     0.203 HD
ENDROOT
BRANCH   1  10
HETATM   10  N1  UNL     1       1.742  -0.955  -0.995  1.00  0.00    -0.199 N 
ATOM     11  H1  UNL     1       1.545  -1.755  -1.596  1.00  0.00     0.180 HD
BRANCH  10  12
HETATM   12  C2  UNL     1       3.131  -0.584  -0.744  1.00  0.00     0.230 C 
HETATM   13  C1  UNL     1       3.565  -1.038   0.625  1.00  0.00     0.063 C 
BRANCH  12  14
HETATM   14  O1  UNL     1       3.982  -1.185  -1.677  1.00  0.00    -0.377 OA
ATOM     15  H1  UNL     1       3.708  -0.899  -2.540  1.00  0.00     0.212 HD
ENDBRANCH  12  14
ENDBRANCH  10  12
ENDBRANCH   1  10
BRANCH   4  16
HETATM   16  N3  UNL     1      -2.882  -0.595  -0.623  1.00  0.00    -0.225 N 
HETATM   17  C5  UNL     1      -3.031  -1.745  -1.490  1.00  0.00     0.168 C 
HETATM   18  C6  UNL     1      -4.054   0.069  -0.095  1.00  0.00     0.168 C 
ENDBRANCH   4  16
BRANCH   7  19
HETATM   19  N5  UNL     1      -0.099   2.427   1.604  1.00  0.00    -0.138 N 
ATOM     20  H5  UNL     1      -0.970   2.841   1.937  1.00  0.00     0.205 HD
BRANCH  19  21
HETATM   21  N6  UNL     1       1.072   3.012   2.021  1.00  0.00    -0.331 N 
ATOM     22  H62 UNL     1       1.932   2.584   1.678  1.00  0.00     0.177 HD
ATOM     23  H61 UNL     1       1.149   3.824   2.634  1.00  0.00     0.177 HD
ENDBRANCH  19  21
ENDBRANCH   7  19
TORSDOF 6
