REMARK  2 active torsions:
REMARK  status: ('A' for Active; 'I' for Inactive)
REMARK    1  A    between atoms: O1_2  and  N1_3 
REMARK    2  A    between atoms: N1_3  and  C2_5 
ROOT
HETATM    1  C2  UNL     1       1.960  -0.033  -0.155  1.00  0.00     0.047 C 
HETATM    2  C3  UNL     1       1.335  -1.175  -0.845  1.00  0.00     0.060 C 
HETATM    3  C4  UNL     1       0.893  -2.279   0.085  1.00  0.00     0.006 C 
HETATM    4  C5  UNL     1      -0.153  -3.195  -0.408  1.00  0.00     0.000 C 
HETATM    5  C6  UNL     1      -1.573  -2.959   0.172  1.00  0.00     0.000 C 
HETATM    6  C7  UNL     1      -1.796  -1.573  -0.111  1.00  0.00     0.000 C 
HETATM    7  C8  UNL     1      -3.015  -0.774   0.323  1.00  0.00     0.000 C 
HETATM    8  C9  UNL     1      -2.481   0.609   0.139  1.00  0.00     0.000 C 
HETATM    9  C10 UNL     1      -3.089   1.864   0.362  1.00  0.00     0.002 C 
HETATM   10  C11 UNL     1      -1.963   2.862  -0.032  1.00  0.00     0.020 C 
HETATM   11  C12 UNL     1      -0.622   2.527   0.478  1.00  0.00     0.119 C 
HETATM   12  N2  UNL     1       0.234   1.721  -0.386  1.00  0.00    -0.397 N 
ATOM     13  H2  UNL     1       0.049   1.555  -1.375  1.00  0.00     0.158 HD
HETATM   14  C13 UNL     1       1.362   1.191   0.313  1.00  0.00     0.110 C 
ENDROOT
BRANCH   1  15
HETATM   15  N1  UNL     1       3.255  -0.172   0.055  1.00  0.00    -0.270 N 
ATOM     16  H1  UNL     1       3.711  -1.027  -0.263  1.00  0.00     0.194 HD
BRANCH  15  17
HETATM   17  O1  UNL     1       4.012   0.778   0.679  1.00  0.00    -0.285 OA
HETATM   18  C1  UNL     1       5.392   0.829   0.343  1.00  0.00     0.237 C 
ENDBRANCH  15  17
ENDBRANCH   1  15
TORSDOF 2
