REMARK  6 active torsions:
REMARK  status: ('A' for Active; 'I' for Inactive)
REMARK    1  A    between atoms: C7_9  and  C8_11 
REMARK    2  A    between atoms: C8_11  and  C9_12 
REMARK    3  A    between atoms: C12_16  and  N2_17 
REMARK       I    between atoms: N2_17  and  C13_19 
REMARK    4  A    between atoms: C16_23  and  C17_24 
REMARK    5  A    between atoms: C17_24  and  C18_25 
REMARK    6  A    between atoms: C18_25  and  O3_26 
ROOT
HETATM    1  C1  UNL     1      -2.974   1.415  -1.363  1.00  0.00     0.017 C 
HETATM    2  C2  UNL     1      -1.982   0.583  -1.096  1.00  0.00    -0.053 C 
HETATM    3  C3  UNL     1      -0.745   0.564  -1.999  1.00  0.00     0.272 C 
HETATM    4  N1  UNL     1       0.232  -0.205  -1.348  1.00  0.00    -0.053 N 
HETATM    5  C4  UNL     1       1.062  -0.762  -2.409  1.00  0.00     0.274 C 
HETATM    6  C5  UNL     1      -0.584  -1.227  -0.694  1.00  0.00     0.219 C 
HETATM    7  C6  UNL     1       0.435  -1.899   0.144  1.00  0.00     0.112 C 
HETATM    8 BR1  UNL     1      -0.213  -2.807   1.712  1.00  0.00    -0.087 Br
HETATM    9  C7  UNL     1       1.506  -0.931   0.473  1.00  0.00     0.070 C 
HETATM   10 BR2  UNL     1       1.510  -0.757   2.417  1.00  0.00    -0.081 Br
HETATM   11  C11 UNL     1       0.948   0.314  -0.238  1.00  0.00     0.234 C 
HETATM   12  C12 UNL     1       0.153   1.121   0.730  1.00  0.00     0.118 C 
HETATM   13  C15 UNL     1      -1.153   0.447   1.079  1.00  0.00     0.043 C 
HETATM   14  C16 UNL     1      -1.671  -0.421  -0.074  1.00  0.00     0.018 C 
ENDROOT
BRANCH   9  15
HETATM   15  C8  UNL     1       2.906  -1.217   0.109  1.00  0.00     0.102 C 
BRANCH  15  16
HETATM   16  C9  UNL     1       3.511  -2.438   0.688  1.00  0.00     0.124 C 
HETATM   17  C10 UNL     1       4.912  -2.792   0.341  1.00  0.00     0.091 C 
HETATM   18  O1  UNL     1       2.902  -3.157   1.434  1.00  0.00    -0.298 OA
ENDBRANCH  15  16
ENDBRANCH   9  15
BRANCH  12  19
HETATM   19  N2  UNL     1       0.024   2.521   0.390  1.00  0.00    -0.355 N 
HETATM   20  C13 UNL     1       0.528   3.484   1.342  1.00  0.00     0.213 C 
HETATM   21  C14 UNL     1       0.439   4.941   1.079  1.00  0.00     0.117 C 
HETATM   22  O2  UNL     1       1.058   3.125   2.423  1.00  0.00    -0.274 OA
ATOM     23  H2  UNL     1      -0.406   2.817  -0.487  1.00  0.00     0.162 HD
ENDBRANCH  12  19
BRANCH  14  24
HETATM   24  C17 UNL     1      -2.831  -1.210   0.365  1.00  0.00     0.042 C 
BRANCH  24  25
HETATM   25  C18 UNL     1      -3.993  -0.539   1.026  1.00  0.00     0.165 C 
BRANCH  25  26
HETATM   26  O3  UNL     1      -4.868  -1.644   1.380  1.00  0.00    -0.401 OA
ATOM     27  H3  UNL     1      -5.606  -1.218   1.800  1.00  0.00     0.209 HD
ENDBRANCH  25  26
ENDBRANCH  24  25
ENDBRANCH  14  24
TORSDOF 6
