REMARK  9 active torsions:
REMARK  status: ('A' for Active; 'I' for Inactive)
REMARK    1  A    between atoms: C2_2  and  C3_3 
REMARK    2  A    between atoms: C3_3  and  C4_4 
REMARK    3  A    between atoms: C4_4  and  C5_5 
REMARK    4  A    between atoms: C5_5  and  N1_6 
REMARK    5  A    between atoms: N2_15  and  C14_16 
REMARK    6  A    between atoms: C14_16  and  O1_17 
REMARK    7  A    between atoms: C14_16  and  N3_19 
REMARK    8  A    between atoms: N3_19  and  C16_21 
REMARK       I    between atoms: N4_24  and  C19_25 
REMARK    9  A    between atoms: C19_25  and  C20_27 
ROOT
HETATM    1  C3  UNL     1      -1.528  -0.380   0.500  1.00  0.00    -0.036 C 
HETATM    2  C12 UNL     1      -1.061  -1.335   1.620  1.00  0.00     0.029 C 
HETATM    3  C13 UNL     1       0.034  -2.231   1.144  1.00  0.00     0.127 C 
HETATM    4  N2  UNL     1       1.091  -1.400   0.468  1.00  0.00    -0.343 N 
HETATM    5  C23 UNL     1       0.593  -0.838  -0.752  1.00  0.00     0.084 C 
HETATM    6  C24 UNL     1       1.072  -1.624  -1.972  1.00  0.00     0.032 C 
HETATM    7  C25 UNL     1      -0.940  -0.976  -0.757  1.00  0.00     0.034 C 
ENDROOT
BRANCH   4   8
HETATM    8  C14 UNL     1       2.324  -1.320   1.076  1.00  0.00     0.217 C 
BRANCH   8   9
HETATM    9  O1  UNL     1       2.363  -2.045   2.207  1.00  0.00    -0.332 OA
ATOM     10  H1  UNL     1       3.214  -1.990   2.626  1.00  0.00     0.220 HD
ENDBRANCH   8   9
BRANCH   8  11
HETATM   11  N3  UNL     1       3.536  -0.707   0.854  1.00  0.00    -0.347 N 
HETATM   12  C15 UNL     1       4.642  -0.987   1.850  1.00  0.00     0.153 C 
BRANCH  11  13
HETATM   13  C16 UNL     1       3.866   0.203  -0.211  1.00  0.00     0.090 C 
HETATM   14  C17 UNL     1       4.824  -0.464  -1.159  1.00  0.00     0.045 C 
HETATM   15  C18 UNL     1       6.251  -0.264  -0.845  1.00  0.00     0.128 C 
HETATM   16  N4  UNL     1       6.548   1.129  -0.625  1.00  0.00    -0.343 N 
HETATM   17  C19 UNL     1       7.876   1.559  -0.462  1.00  0.00     0.320 C 
HETATM   18  C21 UNL     1       5.471   2.100  -0.558  1.00  0.00     0.128 C 
HETATM   19  O2  UNL     1       8.061   2.813  -0.291  1.00  0.00    -0.261 OA
HETATM   20  C22 UNL     1       4.334   1.560   0.283  1.00  0.00     0.045 C 
BRANCH  17  21
HETATM   21  C20 UNL     1       9.056   0.725  -0.468  1.00  0.00     0.270 C 
HETATM   22  O3  UNL     1       8.960  -0.510  -0.610  1.00  0.00    -0.640 OA
HETATM   23  O4  UNL     1      10.313   1.279  -0.317  1.00  0.00    -0.640 OA
ENDBRANCH  17  21
ENDBRANCH  11  13
ENDBRANCH   8  11
ENDBRANCH   4   8
BRANCH   1  24
HETATM   24  C2  UNL     1      -0.985   0.951   0.834  1.00  0.00     0.005 C 
HETATM   25  C1  UNL     1      -1.278   2.101  -0.037  1.00  0.00     0.006 C 
ENDBRANCH   1  24
BRANCH   1  26
HETATM   26  C4  UNL     1      -3.011  -0.536   0.456  1.00  0.00     0.037 C 
BRANCH  26  27
HETATM   27  C5  UNL     1      -3.778   0.283  -0.499  1.00  0.00     0.237 C 
BRANCH  27  28
HETATM   28  N1  UNL     1      -5.224  -0.042  -0.463  1.00  0.00    -0.071 N 
HETATM   29  C6  UNL     1      -5.469  -1.310  -1.107  1.00  0.00     0.272 C 
HETATM   30  C7  UNL     1      -5.854   0.985  -1.252  1.00  0.00     0.237 C 
HETATM   31  C8  UNL     1      -7.331   1.079  -1.084  1.00  0.00     0.028 C 
HETATM   32  C9  UNL     1      -7.666   1.174   0.394  1.00  0.00     0.003 C 
HETATM   33  C10 UNL     1      -7.142  -0.063   1.046  1.00  0.00     0.028 C 
HETATM   34  C11 UNL     1      -5.629  -0.094   0.903  1.00  0.00     0.237 C 
ENDBRANCH  27  28
ENDBRANCH  26  27
ENDBRANCH   1  26
TORSDOF 9
