REMARK  16 active torsions:
REMARK  status: ('A' for Active; 'I' for Inactive)
REMARK    1  A    between atoms: C2_2  and  C3_3 
REMARK    2  A    between atoms: C2_2  and  C4_6 
REMARK    3  A    between atoms: C2_2  and  O3_9 
REMARK    4  A    between atoms: C3_3  and  O1_4 
REMARK    5  A    between atoms: C4_6  and  O2_7 
REMARK    6  A    between atoms: O3_9  and  C5_10 
REMARK    7  A    between atoms: C5_10  and  N1_11 
REMARK    8  A    between atoms: C6_16  and  C7_17 
REMARK    9  A    between atoms: C7_17  and  N4_18 
REMARK   10  A    between atoms: C7_17  and  C8_21 
REMARK   11  A    between atoms: C9_24  and  N6_25 
REMARK   12  A    between atoms: C11_36  and  N10_37 
REMARK   13  A    between atoms: N10_37  and  C12_39 
REMARK   14  A    between atoms: C12_39  and  C13_40 
REMARK   15  A    between atoms: C13_40  and  N12_44 
REMARK   16  A    between atoms: C17_48  and  O5_49 
ROOT
HETATM    1  N4  UNL     1      -2.715   0.816   0.375  1.00  0.00    -0.277 NA
HETATM    2  O4  UNL     1      -3.242  -0.098   0.994  1.00  0.00    -0.218 OA
ATOM      3  H4  UNL     1      -3.654  -0.806   1.475  1.00  0.00     0.261 HD
ENDROOT
BRANCH   1   4
HETATM    4  C7  UNL     1      -2.181   1.735  -0.249  1.00  0.00     0.216 C 
BRANCH   4   5
HETATM    5  C6  UNL     1      -0.784   1.642  -0.712  1.00  0.00     0.142 A 
HETATM    6  N3  UNL     1       0.010   2.495  -1.323  1.00  0.00    -0.279 N 
HETATM    7  N2  UNL     1       1.199   2.012  -1.516  1.00  0.00    -0.236 N 
ATOM      8  H3  UNL     1      -0.277   3.430  -1.612  1.00  0.00     0.189 HD
HETATM    9  N1  UNL     1       1.222   0.766  -1.014  1.00  0.00    -0.236 N 
ATOM     10  H2  UNL     1       1.977   2.492  -1.968  1.00  0.00     0.208 HD
HETATM   11  C11 UNL     1       0.022   0.485  -0.506  1.00  0.00     0.154 A 
BRANCH   9  12
HETATM   12  C5  UNL     1       2.443  -0.045  -1.063  1.00  0.00     0.321 C 
BRANCH  12  13
HETATM   13  O3  UNL     1       3.185   0.220   0.087  1.00  0.00    -0.355 OA
BRANCH  13  14
HETATM   14  C2  UNL     1       4.363  -0.475   0.114  1.00  0.00     0.101 C 
HETATM   15  C1  UNL     1       5.257  -0.140  -1.074  1.00  0.00     0.051 C 
BRANCH  14  16
HETATM   16  C3  UNL     1       4.235  -1.963   0.192  1.00  0.00     0.204 C 
BRANCH  16  17
HETATM   17  O1  UNL     1       5.538  -2.491   0.215  1.00  0.00    -0.398 OA
ATOM     18  H1  UNL     1       5.457  -3.436   0.265  1.00  0.00     0.209 HD
ENDBRANCH  16  17
ENDBRANCH  14  16
BRANCH  14  19
HETATM   19  C4  UNL     1       5.103  -0.016   1.381  1.00  0.00     0.204 C 
BRANCH  19  20
HETATM   20  O2  UNL     1       4.318  -0.306   2.491  1.00  0.00    -0.398 OA
ATOM     21  H2  UNL     1       4.775  -0.022   3.274  1.00  0.00     0.209 HD
ENDBRANCH  19  20
ENDBRANCH  14  19
ENDBRANCH  13  14
ENDBRANCH  12  13
ENDBRANCH   9  12
BRANCH  11  22
HETATM   22  N10 UNL     1      -0.410  -0.563   0.052  1.00  0.00    -0.366 N 
ATOM     23  H10 UNL     1      -1.383  -0.509   0.354  1.00  0.00     0.161 HD
BRANCH  22  24
HETATM   24  C12 UNL     1       0.223  -1.802   0.332  1.00  0.00     0.197 C 
BRANCH  24  25
HETATM   25  C13 UNL     1      -0.620  -2.633   1.234  1.00  0.00     0.101 C 
HETATM   26  N11 UNL     1      -0.305  -2.807   2.463  1.00  0.00    -0.387 N 
ATOM     27 2H11 UNL     1       0.538  -2.369   2.835  1.00  0.00     0.157 HD
ATOM     28 1H11 UNL     1      -0.883  -3.377   3.081  1.00  0.00     0.157 HD
BRANCH  25  29
HETATM   29  N12 UNL     1      -1.790  -3.241   0.717  1.00  0.00    -0.291 N 
HETATM   30  C14 UNL     1      -2.042  -3.501  -0.599  1.00  0.00     0.101 A 
HETATM   31  C15 UNL     1      -3.254  -4.096  -0.769  1.00  0.00     0.022 A 
HETATM   32  C16 UNL     1      -3.801  -4.223   0.494  1.00  0.00     0.058 A 
HETATM   33  C17 UNL     1      -2.884  -3.694   1.364  1.00  0.00     0.147 A 
BRANCH  33  34
HETATM   34  O5  UNL     1      -3.011  -3.607   2.760  1.00  0.00    -0.346 OA
ATOM     35  H5  UNL     1      -3.781  -3.926   3.216  1.00  0.00     0.219 HD
ENDBRANCH  33  34
ENDBRANCH  25  29
ENDBRANCH  24  25
ENDBRANCH  22  24
ENDBRANCH  11  22
ENDBRANCH   4   5
BRANCH   4  36
HETATM   36  C8  UNL     1      -2.986   2.917  -0.507  1.00  0.00     0.182 A 
HETATM   37  N5  UNL     1      -4.266   2.954   0.011  1.00  0.00    -0.172 N 
HETATM   38  C9  UNL     1      -5.103   3.976  -0.170  1.00  0.00     0.692 A 
ATOM     39  H5  UNL     1      -4.588   2.158   0.561  1.00  0.00     0.186 HD
HETATM   40  N7  UNL     1      -4.643   5.004  -0.898  1.00  0.00    -0.023 N 
HETATM   41  C10 UNL     1      -3.398   4.995  -1.415  1.00  0.00     0.692 A 
ATOM     42  H7  UNL     1      -5.247   5.809  -1.064  1.00  0.00     0.203 HD
HETATM   43  N8  UNL     1      -2.968   5.994  -2.116  1.00  0.00    -0.234 N 
HETATM   44  N9  UNL     1      -2.547   3.935  -1.221  1.00  0.00    -0.172 N 
ATOM     45  H82 UNL     1      -3.600   6.781  -2.260  1.00  0.00     0.174 HD
ATOM     46  H81 UNL     1      -2.026   5.987  -2.507  1.00  0.00     0.174 HD
ATOM     47  H9  UNL     1      -1.607   3.935  -1.616  1.00  0.00     0.186 HD
BRANCH  38  48
HETATM   48  N6  UNL     1      -6.300   4.001   0.320  1.00  0.00    -0.234 N 
ATOM     49  H62 UNL     1      -6.650   3.219   0.874  1.00  0.00     0.174 HD
ATOM     50  H61 UNL     1      -6.940   4.783   0.182  1.00  0.00     0.174 HD
ENDBRANCH  38  48
ENDBRANCH   4  36
ENDBRANCH   1   4
TORSDOF 16
