REMARK  14 active torsions:
REMARK  status: ('A' for Active; 'I' for Inactive)
REMARK    1  A    between atoms: C2_2  and  C3_3 
REMARK    2  A    between atoms: C2_2  and  C22_27 
REMARK    3  A    between atoms: C3_3  and  C4_4 
REMARK    4  A    between atoms: C3_3  and  C11_15 
REMARK    5  A    between atoms: C5_5  and  C6_6 
REMARK    6  A    between atoms: C6_6  and  C7_7 
REMARK    7  A    between atoms: C7_7  and  C8_8 
REMARK    8  A    between atoms: C8_8  and  N1_11 
REMARK    9  A    between atoms: N2_18  and  C14_19 
REMARK   10  A    between atoms: C14_19  and  C15_20 
REMARK   11  A    between atoms: C22_27  and  C23_28 
REMARK   12  A    between atoms: C22_27  and  N3_30 
REMARK   13  A    between atoms: N3_30  and  O1_31 
REMARK   14  A    between atoms: N3_30  and  C24_33 
ROOT
HETATM    1  C3  UNL     1       0.279   1.205  -0.165  1.00  0.00    -0.068 C 
ENDROOT
BRANCH   1   2
HETATM    2  C2  UNL     1       0.842   2.529  -0.025  1.00  0.00     0.037 C 
HETATM    3  C1  UNL     1       1.751   2.784  -1.250  1.00  0.00     0.017 C 
BRANCH   2   4
HETATM    4  C22 UNL     1       1.520   3.083   1.132  1.00  0.00     0.135 C 
BRANCH   4   5
HETATM    5  C23 UNL     1       0.909   2.978   2.488  1.00  0.00     0.114 C 
HETATM    6  S1  UNL     1       2.113   3.831   3.607  1.00  0.00    -0.095 SA
ENDBRANCH   4   5
BRANCH   4   7
HETATM    7  N3  UNL     1       1.553   4.561   0.911  1.00  0.00    -0.230 N 
BRANCH   7   8
HETATM    8  O1  UNL     1       2.678   5.259   0.817  1.00  0.00    -0.285 OA
ATOM      9  H1  UNL     1       2.699   6.198   0.677  1.00  0.00     0.245 HD
ENDBRANCH   7   8
BRANCH   7  10
HETATM   10  C24 UNL     1       0.285   5.194   0.803  1.00  0.00     0.377 C 
HETATM   11  O2  UNL     1       0.211   6.461   0.598  1.00  0.00    -0.281 OA
ENDBRANCH   7  10
ENDBRANCH   4   7
ENDBRANCH   2   4
ENDBRANCH   1   2
BRANCH   1  12
HETATM   12  C4  UNL     1       1.143   0.025  -0.251  1.00  0.00    -0.001 C 
HETATM   13  C5  UNL     1       2.406  -0.113   0.101  1.00  0.00    -0.026 C 
BRANCH  13  14
HETATM   14  C6  UNL     1       3.171  -1.410  -0.049  1.00  0.00     0.029 C 
BRANCH  14  15
HETATM   15  C7  UNL     1       4.331  -1.165  -0.956  1.00  0.00     0.041 C 
BRANCH  15  16
HETATM   16  C8  UNL     1       5.186  -2.380  -1.181  1.00  0.00     0.117 C 
HETATM   17  C9  UNL     1       5.776  -2.906   0.109  1.00  0.00     0.045 C 
HETATM   18  C10 UNL     1       4.478  -3.490  -1.914  1.00  0.00     0.045 C 
BRANCH  16  19
HETATM   19  N1  UNL     1       6.301  -1.967  -2.026  1.00  0.00    -0.071 N 
ATOM     20  H13 UNL     1       6.003  -1.521  -2.893  1.00  0.00     0.275 HD
ATOM     21  H12 UNL     1       6.821  -1.176  -1.645  1.00  0.00     0.275 HD
ATOM     22  H11 UNL     1       6.881  -2.792  -2.179  1.00  0.00     0.275 HD
ENDBRANCH  16  19
ENDBRANCH  15  16
ENDBRANCH  14  15
ENDBRANCH  13  14
ENDBRANCH   1  12
BRANCH   1  23
HETATM   23  C11 UNL     1      -0.899   0.856   0.713  1.00  0.00     0.045 C 
HETATM   24  C12 UNL     1      -2.091   1.743   0.555  1.00  0.00     0.041 C 
HETATM   25  C13 UNL     1      -3.312   0.835   0.567  1.00  0.00     0.273 C 
HETATM   26  N2  UNL     1      -2.832  -0.459   0.304  1.00  0.00     0.090 N 
HETATM   27  C21 UNL     1      -1.427  -0.464   0.133  1.00  0.00     0.281 C 
BRANCH  26  28
HETATM   28  C14 UNL     1      -3.555  -1.212  -0.630  1.00  0.00     0.285 C 
BRANCH  28  29
HETATM   29  C15 UNL     1      -4.916  -1.706  -0.242  1.00  0.00     0.000 C 
HETATM   30  C16 UNL     1      -5.908  -0.631   0.103  1.00  0.00     0.021 C 
HETATM   31  C17 UNL     1      -5.519  -2.496  -1.341  1.00  0.00    -0.020 C 
HETATM   32  C18 UNL     1      -6.192  -3.501  -0.838  1.00  0.00    -0.030 C 
HETATM   33  C19 UNL     1      -6.118  -3.506   0.664  1.00  0.00     0.028 C 
HETATM   34  C20 UNL     1      -4.865  -2.669   0.913  1.00  0.00     0.018 C 
ENDBRANCH  28  29
ENDBRANCH  26  28
ENDBRANCH   1  23
TORSDOF 14
