REMARK  6 active torsions:
REMARK  status: ('A' for Active; 'I' for Inactive)
REMARK    1  A    between atoms: C2_2  and  O1_3 
REMARK    2  A    between atoms: O1_3  and  C3_4 
REMARK    3  A    between atoms: C3_4  and  C4_5 
REMARK    4  A    between atoms: C3_4  and  C22_27 
REMARK    5  A    between atoms: C4_5  and  C5_6 
REMARK    6  A    between atoms: C22_27  and  O6_30 
ROOT
HETATM    1  C5  UNL     1       1.217  -0.860  -0.819  1.00  0.00    -0.006 C 
HETATM    2  C6  UNL     1      -0.061  -1.744  -0.761  1.00  0.00     0.017 C 
HETATM    3  C7  UNL     1      -0.785  -0.570  -1.253  1.00  0.00    -0.011 C 
HETATM    4  C8  UNL     1      -0.745  -0.554  -2.787  1.00  0.00     0.018 C 
HETATM    5  C9  UNL     1       0.318   0.296  -0.709  1.00  0.00     0.000 C 
HETATM    6  C10 UNL     1       0.093   1.055   0.501  1.00  0.00     0.006 C 
HETATM    7  C11 UNL     1      -0.469   0.507   1.739  1.00  0.00     0.005 C 
HETATM    8  C12 UNL     1      -1.867   0.957   2.097  1.00  0.00    -0.012 C 
HETATM    9  C13 UNL     1      -2.062   0.697   3.599  1.00  0.00     0.010 C 
HETATM   10  C14 UNL     1      -3.012   0.353   1.375  1.00  0.00     0.022 C 
HETATM   11  C15 UNL     1      -3.695   1.469   0.628  1.00  0.00     0.013 C 
HETATM   12  C16 UNL     1      -4.608   1.145  -0.461  1.00  0.00     0.069 C 
HETATM   13  C17 UNL     1      -4.309   0.281  -1.576  1.00  0.00     0.172 C 
HETATM   14  C18 UNL     1      -4.820   0.850  -2.911  1.00  0.00     0.080 C 
HETATM   15  O2  UNL     1      -5.089  -0.938  -1.411  1.00  0.00    -0.260 OA
HETATM   16  C19 UNL     1      -4.798  -1.810  -0.370  1.00  0.00     0.409 C 
HETATM   17  O3  UNL     1      -5.667  -2.679  -0.069  1.00  0.00    -0.229 OA
HETATM   18  O4  UNL     1      -3.614  -1.811   0.381  1.00  0.00    -0.290 OA
HETATM   19  C20 UNL     1      -2.604  -0.798   0.466  1.00  0.00     0.168 C 
HETATM   20  C21 UNL     1      -2.154  -0.198  -0.800  1.00  0.00     0.163 C 
HETATM   21  O5  UNL     1      -3.079  -0.220  -1.831  1.00  0.00    -0.346 OA
ENDROOT
BRANCH   1  22
HETATM   22  C4  UNL     1       2.240  -1.192   0.169  1.00  0.00     0.040 C 
BRANCH  22  23
HETATM   23  C3  UNL     1       3.493  -0.357   0.170  1.00  0.00     0.155 C 
BRANCH  23  24
HETATM   24  O1  UNL     1       4.367  -0.822   1.185  1.00  0.00    -0.383 OA
BRANCH  24  25
HETATM   25  C2  UNL     1       4.621   0.101   2.151  1.00  0.00     0.163 C 
HETATM   26  C1  UNL     1       3.395   0.511   2.897  1.00  0.00     0.033 C 
ENDBRANCH  24  25
ENDBRANCH  23  24
BRANCH  23  27
HETATM   27  C22 UNL     1       4.249  -0.335  -1.122  1.00  0.00     0.076 C 
HETATM   28  C23 UNL     1       5.538   0.470  -0.949  1.00  0.00     0.048 C 
HETATM   29  C24 UNL     1       4.715  -1.759  -1.467  1.00  0.00     0.048 C 
BRANCH  27  30
HETATM   30  O6  UNL     1       3.597   0.137  -2.217  1.00  0.00    -0.388 OA
ATOM     31  H6  UNL     1       4.077   0.151  -3.037  1.00  0.00     0.210 HD
ENDBRANCH  27  30
ENDBRANCH  23  27
ENDBRANCH  22  23
ENDBRANCH   1  22
TORSDOF 6
