REMARK  5 active torsions:
REMARK  status: ('A' for Active; 'I' for Inactive)
REMARK    1  A    between atoms: N1_2  and  C2_4 
REMARK    2  A    between atoms: C9_14  and  C10_15 
REMARK    3  A    between atoms: C12_17  and  O1_18 
REMARK    4  A    between atoms: C14_20  and  O2_21 
REMARK    5  A    between atoms: C16_23  and  O3_24 
ROOT
HETATM    1  C2  UNL     1      -1.390   1.249   0.608  1.00  0.00     0.059 A 
HETATM    2  C3  UNL     1      -2.608   1.836   0.754  1.00  0.00     0.093 A 
HETATM    3  C4  UNL     1      -2.693   3.185   1.233  1.00  0.00     0.103 C 
HETATM    4  N2  UNL     1      -2.791   4.270   1.616  1.00  0.00    -0.191 NA
HETATM    5  C5  UNL     1      -3.816   1.207   0.465  1.00  0.00     0.028 A 
HETATM    6  C6  UNL     1      -5.117   1.916   0.651  1.00  0.00     0.070 C 
HETATM    7  N3  UNL     1      -3.750  -0.055   0.016  1.00  0.00    -0.361 N 
ATOM      8  H3  UNL     1      -4.616  -0.546  -0.205  1.00  0.00     0.165 HD
HETATM    9  C7  UNL     1      -2.581  -0.694  -0.152  1.00  0.00     0.029 A 
HETATM   10  C8  UNL     1      -1.393  -0.077   0.133  1.00  0.00     0.005 A 
HETATM   11  C9  UNL     1      -0.337  -1.067  -0.142  1.00  0.00     0.094 C 
HETATM   12  C19 UNL     1      -0.908  -1.844  -1.289  1.00  0.00     0.161 C 
HETATM   13  C20 UNL     1      -1.196  -1.084  -2.481  1.00  0.00     0.086 C 
HETATM   14  N4  UNL     1      -1.446  -0.489  -3.443  1.00  0.00    -0.195 NA
HETATM   15  C21 UNL     1      -0.350  -3.151  -1.498  1.00  0.00     0.086 C 
HETATM   16  N5  UNL     1       0.115  -4.187  -1.671  1.00  0.00    -0.195 NA
HETATM   17  C22 UNL     1      -2.323  -2.097  -0.670  1.00  0.00     0.030 C 
HETATM   18  C23 UNL     1      -2.283  -3.116   0.406  1.00  0.00     0.024 C 
HETATM   19  C24 UNL     1      -3.336  -2.366  -1.730  1.00  0.00     0.024 C 
ENDROOT
BRANCH   1  20
HETATM   20  N1  UNL     1      -0.254   1.720   0.835  1.00  0.00    -0.392 N 
HETATM   21  C1  UNL     1       0.217   2.959   1.302  1.00  0.00     0.146 C 
ATOM     22  H1  UNL     1       0.497   1.059   0.637  1.00  0.00     0.159 HD
ENDBRANCH   1  20
BRANCH  11  23
HETATM   23  C10 UNL     1       1.021  -0.660  -0.138  1.00  0.00    -0.041 A 
HETATM   24  C11 UNL     1       1.769  -0.768   1.022  1.00  0.00     0.047 A 
HETATM   25  C12 UNL     1       3.091  -0.395   1.118  1.00  0.00     0.104 A 
HETATM   26  C14 UNL     1       3.727   0.116   0.013  1.00  0.00     0.135 A 
HETATM   27  C16 UNL     1       3.018   0.241  -1.165  1.00  0.00     0.104 A 
HETATM   28  C18 UNL     1       1.672  -0.151  -1.219  1.00  0.00     0.047 A 
BRANCH  25  29
HETATM   29  O1  UNL     1       3.805  -0.523   2.311  1.00  0.00    -0.353 OA
HETATM   30  C13 UNL     1       3.260  -1.028   3.492  1.00  0.00     0.210 C 
ENDBRANCH  25  29
BRANCH  26  31
HETATM   31  O2  UNL     1       5.066   0.489   0.125  1.00  0.00    -0.351 OA
HETATM   32  C15 UNL     1       5.465   1.791   0.502  1.00  0.00     0.210 C 
ENDBRANCH  26  31
BRANCH  27  33
HETATM   33  O3  UNL     1       3.663   0.755  -2.272  1.00  0.00    -0.353 OA
HETATM   34  C17 UNL     1       3.036   0.925  -3.521  1.00  0.00     0.210 C 
ENDBRANCH  27  33
ENDBRANCH  11  23
TORSDOF 5
