REMARK  7 active torsions:
REMARK  status: ('A' for Active; 'I' for Inactive)
REMARK    1  A    between atoms: C6_6  and  C7_7 
REMARK    2  A    between atoms: C6_6  and  S1_17 
REMARK    3  A    between atoms: C7_7  and  O2_12 
REMARK    4  A    between atoms: N1_8  and  O1_10 
REMARK    5  A    between atoms: O2_12  and  C8_13 
REMARK    6  A    between atoms: C8_13  and  C9_14 
REMARK    7  A    between atoms: S1_17  and  C12_20 
ROOT
HETATM    1  C1  UNL     1      -3.003  -2.790  -0.559  1.00  0.00     0.015 C 
HETATM    2  C2  UNL     1      -1.491  -2.583  -0.383  1.00  0.00    -0.046 C 
HETATM    3  C3  UNL     1      -0.782  -3.758  -1.026  1.00  0.00     0.015 C 
HETATM    4  C4  UNL     1      -1.205  -2.563   1.076  1.00  0.00     0.011 C 
HETATM    5  C5  UNL     1      -0.777  -1.165   1.380  1.00  0.00     0.035 C 
HETATM    6  C6  UNL     1      -0.958  -0.304   0.136  1.00  0.00     0.135 C 
HETATM    7  C21 UNL     1      -1.070  -1.272  -0.986  1.00  0.00     0.043 C 
ENDROOT
BRANCH   6   8
HETATM    8  C7  UNL     1      -2.251   0.455   0.354  1.00  0.00     0.162 C 
HETATM    9  N1  UNL     1      -2.900   1.067  -0.529  1.00  0.00    -0.249 N 
ATOM     10  H1  UNL     1      -3.757   1.530  -0.226  1.00  0.00     0.196 HD
BRANCH   9  11
HETATM   11  O1  UNL     1      -2.589   1.177  -1.824  1.00  0.00    -0.288 OA
ATOM     12  H1  UNL     1      -3.080   1.640  -2.492  1.00  0.00     0.244 HD
ENDBRANCH   9  11
BRANCH   8  13
HETATM   13  O2  UNL     1      -2.791   0.500   1.640  1.00  0.00    -0.336 OA
BRANCH  13  14
HETATM   14  C8  UNL     1      -3.552   1.571   2.063  1.00  0.00     0.181 C 
BRANCH  14  15
HETATM   15  C9  UNL     1      -4.804   1.869   1.316  1.00  0.00     0.010 A 
HETATM   16  C10 UNL     1      -5.576   3.093   1.911  1.00  0.00     0.007 A 
HETATM   17  C11 UNL     1      -5.029   3.124   0.555  1.00  0.00     0.007 A 
ENDBRANCH  14  15
ENDBRANCH  13  14
ENDBRANCH   8  13
ENDBRANCH   6   8
BRANCH   6  18
HETATM   18  S1  UNL     1       0.338   0.858   0.035  1.00  0.00     0.195 S 
HETATM   19  O3  UNL     1       0.067   1.840  -1.108  1.00  0.00    -0.221 OA
HETATM   20  O4  UNL     1       0.262   1.759   1.277  1.00  0.00    -0.221 OA
BRANCH  18  21
HETATM   21  C12 UNL     1       1.941   0.252  -0.087  1.00  0.00     0.099 A 
HETATM   22  C13 UNL     1       2.290  -1.066  -0.173  1.00  0.00     0.029 A 
HETATM   23  C14 UNL     1       3.642  -1.439  -0.281  1.00  0.00     0.039 A 
HETATM   24  C15 UNL     1       4.663  -0.518  -0.306  1.00  0.00     0.078 A 
HETATM   25  C16 UNL     1       4.313   0.807  -0.221  1.00  0.00     0.015 A 
HETATM   26  O5  UNL     1       5.999  -0.905  -0.414  1.00  0.00    -0.350 OA
HETATM   27  C17 UNL     1       2.992   1.181  -0.115  1.00  0.00     0.146 A 
HETATM   28  C18 UNL     1       5.365   1.858  -0.243  1.00  0.00     0.046 C 
HETATM   29  F1  UNL     1       2.646   2.489  -0.030  1.00  0.00    -0.204 F 
HETATM   30  C19 UNL     1       6.687   1.351  -0.698  1.00  0.00     0.031 C 
HETATM   31  C20 UNL     1       7.038   0.002  -0.110  1.00  0.00     0.176 C 
ENDBRANCH  18  21
ENDBRANCH   6  18
TORSDOF 7
