REMARK  4 active torsions:
REMARK  status: ('A' for Active; 'I' for Inactive)
REMARK    1  A    between atoms: N1_1  and  C1_5 
REMARK    2  A    between atoms: C2_9  and  C3_10 
REMARK    3  A    between atoms: C3_10  and  N3_11 
REMARK    4  A    between atoms: N3_11  and  C4_14 
ROOT
HETATM    1  C1  UNL     1      -2.682  -0.409  -0.309  1.00  0.00     0.412 A 
HETATM    2  N2  UNL     1      -2.018   0.682  -0.960  1.00  0.00    -0.035 N 
ATOM      3  H21 UNL     1      -2.302   1.597  -1.310  1.00  0.00     0.280 HD
ATOM      4  H22 UNL     1      -1.617   0.838  -1.885  1.00  0.00     0.280 HD
HETATM    5  C2  UNL     1      -1.491   0.138   0.385  1.00  0.00     0.271 A 
ENDROOT
BRANCH   5   6
HETATM    6  C3  UNL     1      -0.142  -0.456   0.162  1.00  0.00     0.269 C 
BRANCH   6   7
HETATM    7  N3  UNL     1       0.901   0.171   0.937  1.00  0.00    -0.069 N 
ATOM      8  H32 UNL     1       0.918   1.185   0.824  1.00  0.00     0.277 HD
ATOM      9  H31 UNL     1       0.714   0.146   1.939  1.00  0.00     0.277 HD
BRANCH   7  10
HETATM   10  C4  UNL     1       2.154  -0.446   0.592  1.00  0.00     0.186 A 
HETATM   11  C5  UNL     1       3.403   0.320   0.485  1.00  0.00     0.035 A 
HETATM   12  C6  UNL     1       2.743  -0.209  -0.773  1.00  0.00     0.035 A 
ENDBRANCH   7  10
ENDBRANCH   6   7
ENDBRANCH   5   6
BRANCH   1  13
HETATM   13  N1  UNL     1      -4.017  -0.070   0.161  1.00  0.00    -0.048 N 
ATOM     14  H13 UNL     1      -3.991   0.751   0.765  1.00  0.00     0.276 HD
ATOM     15  H12 UNL     1      -4.587   0.299  -0.600  1.00  0.00     0.276 HD
ATOM     16  H11 UNL     1      -4.489  -0.846   0.624  1.00  0.00     0.276 HD
ENDBRANCH   1  13
TORSDOF 4
