REMARK  5 active torsions:
REMARK  status: ('A' for Active; 'I' for Inactive)
REMARK    1  A    between atoms: N1_1  and  C1_5 
REMARK    2  A    between atoms: C1_5  and  C2_6 
REMARK    3  A    between atoms: C2_6  and  C3_7 
REMARK    4  A    between atoms: C3_7  and  N2_8 
REMARK    5  A    between atoms: N2_8  and  C4_10 
ROOT
HETATM    1  N2  UNL     1       0.646   0.392   0.621  1.00  0.00    -0.225 N 
ATOM      2  H2  UNL     1       0.353   1.361   0.745  1.00  0.00     0.177 HD
ENDROOT
BRANCH   1   3
HETATM    3  C3  UNL     1      -0.213  -0.610   1.152  1.00  0.00     0.140 C 
BRANCH   3   4
HETATM    4  C2  UNL     1      -1.547  -0.695   0.470  1.00  0.00     0.047 C 
BRANCH   4   5
HETATM    5  C1  UNL     1      -2.306   0.612   0.580  1.00  0.00     0.231 C 
BRANCH   5   6
HETATM    6  N1  UNL     1      -3.588   0.502  -0.086  1.00  0.00    -0.079 N 
ATOM      7  H13 UNL     1      -3.490   0.198  -1.055  1.00  0.00     0.274 HD
ATOM      8  H12 UNL     1      -4.133  -0.286   0.264  1.00  0.00     0.274 HD
ATOM      9  H11 UNL     1      -4.099   1.382  -0.012  1.00  0.00     0.274 HD
ENDBRANCH   5   6
ENDBRANCH   4   5
ENDBRANCH   3   4
ENDBRANCH   1   3
BRANCH   1  10
HETATM   10  C4  UNL     1       1.752   0.199   0.002  1.00  0.00     0.693 A 
HETATM   11  N3  UNL     1       2.509   1.209  -0.471  1.00  0.00    -0.185 N 
HETATM   12  C5  UNL     1       3.601   0.675  -1.066  1.00  0.00     0.215 A 
ATOM     13  H3  UNL     1       2.296   2.203  -0.394  1.00  0.00     0.185 HD
HETATM   14  N4  UNL     1       3.513  -0.665  -0.957  1.00  0.00    -0.281 N 
HETATM   15  N5  UNL     1       2.391  -0.928  -0.310  1.00  0.00    -0.131 N 
ATOM     16  H4  UNL     1       4.185  -1.347  -1.308  1.00  0.00     0.188 HD
ATOM     17  H5  UNL     1       2.060  -1.865  -0.081  1.00  0.00     0.205 HD
ENDBRANCH   1  10
TORSDOF 5
