REMARK  3 active torsions:
REMARK  status: ('A' for Active; 'I' for Inactive)
REMARK    1  A    between atoms: N1_2  and  N2_3 
REMARK    2  A    between atoms: N2_3  and  C2_4 
REMARK    3  A    between atoms: N3_7  and  O1_8 
ROOT
HETATM    1  C2  UNL     1      -0.083   0.518   0.784  1.00  0.00     0.246 A 
HETATM    2  C3  UNL     1       0.522   1.797   1.084  1.00  0.00     0.038 A 
HETATM    3  C4  UNL     1       1.607   1.492   0.423  1.00  0.00     0.119 A 
HETATM    4  N3  UNL     1       1.114   0.239   0.082  1.00  0.00    -0.245 N 
ENDROOT
BRANCH   1   5
HETATM    5  N2  UNL     1      -1.276   0.672  -0.033  1.00  0.00    -0.117 NA
BRANCH   5   6
HETATM    6  N1  UNL     1      -1.854  -0.536  -0.321  1.00  0.00    -0.151 NA
HETATM    7  C1  UNL     1      -3.184  -0.703   0.198  1.00  0.00     0.154 C 
ENDBRANCH   5   6
ENDBRANCH   1   5
BRANCH   4   8
HETATM    8  O1  UNL     1       1.588  -0.811  -0.630  1.00  0.00    -0.282 OA
HETATM    9  C5  UNL     1       2.847  -1.209  -0.186  1.00  0.00     0.238 C 
ENDBRANCH   4   8
TORSDOF 3
