REMARK  8 active torsions:
REMARK  status: ('A' for Active; 'I' for Inactive)
REMARK    1  A    between atoms: N1_1  and  N2_4 
REMARK       I    between atoms: N2_4  and  C1_6 
REMARK    2  A    between atoms: C1_6  and  C2_8 
REMARK    3  A    between atoms: C2_8  and  N3_9 
REMARK    4  A    between atoms: N3_9  and  C3_11 
REMARK    5  A    between atoms: C3_11  and  O2_12 
REMARK    6  A    between atoms: C7_21  and  S1_22 
REMARK    7  A    between atoms: C8_26  and  O7_27 
REMARK    8  A    between atoms: N5_29  and  O8_30 
ROOT
HETATM    1  C3  UNL     1       1.010   0.084  -0.194  1.00  0.00     0.340 C 
HETATM    2  O3  UNL     1       0.304   0.630  -1.317  1.00  0.00    -0.321 OA
HETATM    3  C4  UNL     1      -0.741  -0.267  -1.491  1.00  0.00     0.207 C 
HETATM    4  C5  UNL     1      -1.214  -0.426  -0.076  1.00  0.00     0.120 C 
HETATM    5  C6  UNL     1      -2.204  -1.538   0.085  1.00  0.00     0.266 C 
HETATM    6  N4  UNL     1      -3.522  -0.974  -0.059  1.00  0.00    -0.050 N 
ATOM      7  H41 UNL     1      -4.121  -1.150   0.748  1.00  0.00     0.279 HD
ATOM      8  H42 UNL     1      -4.089  -1.460  -0.754  1.00  0.00     0.279 HD
HETATM    9  C7  UNL     1      -3.364   0.413  -0.342  1.00  0.00     0.358 C 
HETATM   10  C8  UNL     1      -2.056   0.770   0.318  1.00  0.00     0.195 C 
HETATM   11  N5  UNL     1      -0.004  -0.525   0.649  1.00  0.00    -0.104 NA
ENDROOT
BRANCH   1  12
HETATM   12  N3  UNL     1       1.920  -0.843  -0.748  1.00  0.00    -0.325 N 
ATOM     13  H3  UNL     1       1.766  -1.206  -1.689  1.00  0.00     0.165 HD
BRANCH  12  14
HETATM   14  C2  UNL     1       3.037  -1.268  -0.007  1.00  0.00     0.165 C 
BRANCH  14  15
HETATM   15  C1  UNL     1       4.114  -0.244   0.060  1.00  0.00     0.274 C 
HETATM   16  N2  UNL     1       5.308  -0.488   0.810  1.00  0.00    -0.272 N 
ATOM     17  H2  UNL     1       5.438  -1.365   1.313  1.00  0.00     0.189 HD
HETATM   18  O1  UNL     1       4.029   0.867  -0.528  1.00  0.00    -0.265 OA
BRANCH  16  19
HETATM   19  N1  UNL     1       6.284   0.497   0.836  1.00  0.00    -0.342 N 
ATOM     20  H12 UNL     1       6.139   1.369   0.327  1.00  0.00     0.176 HD
ATOM     21  H11 UNL     1       7.135   0.323   1.371  1.00  0.00     0.176 HD
ENDBRANCH  16  19
ENDBRANCH  14  15
ENDBRANCH  12  14
ENDBRANCH   1  12
BRANCH   1  22
HETATM   22  O2  UNL     1       1.507   1.188   0.445  1.00  0.00    -0.334 OA
ATOM     23  H2  UNL     1       0.895   1.812   0.818  1.00  0.00     0.216 HD
ENDBRANCH   1  22
BRANCH  11  24
HETATM   24  O8  UNL     1       0.298  -1.741   1.094  1.00  0.00    -0.306 OA
ATOM     25  H8  UNL     1      -0.365  -2.139   1.645  1.00  0.00     0.237 HD
ENDBRANCH  11  24
BRANCH  10  26
HETATM   26  O7  UNL     1      -1.530   1.972  -0.099  1.00  0.00    -0.390 OA
ATOM     27  H7  UNL     1      -2.058   2.722   0.148  1.00  0.00     0.210 HD
ENDBRANCH  10  26
BRANCH   9  28
HETATM   28  S1  UNL     1      -4.675   1.410   0.327  1.00  0.00     0.136 S 
HETATM   29  O4  UNL     1      -4.912   1.106   1.753  1.00  0.00    -0.593 OA
HETATM   30  O5  UNL     1      -5.917   1.094  -0.499  1.00  0.00    -0.593 OA
HETATM   31  O6  UNL     1      -4.312   3.018   0.018  1.00  0.00    -0.593 OA
ENDBRANCH   9  28
TORSDOF 8
