REMARK  3 active torsions:
REMARK  status: ('A' for Active; 'I' for Inactive)
REMARK    1  A    between atoms: N1_4  and  N2_6 
REMARK       I    between atoms: N2_6  and  C4_8 
REMARK    2  A    between atoms: N4_10  and  N5_12 
REMARK    3  A    between atoms: C5_14  and  C6_15 
ROOT
HETATM    1  C1  UNL     1       5.796   1.366   0.047  1.00  0.00     0.018 C 
HETATM    2  C2  UNL     1       5.300   0.275   0.247  1.00  0.00    -0.071 C 
HETATM    3  C3  UNL     1       4.731  -1.021   0.499  1.00  0.00     0.170 C 
HETATM    4  N1  UNL     1       3.512  -1.286   0.210  1.00  0.00    -0.301 N 
ATOM      5  H1  UNL     1       3.157  -2.221   0.410  1.00  0.00     0.186 HD
ENDROOT
BRANCH   4   6
HETATM    6  N2  UNL     1       2.646  -0.355  -0.366  1.00  0.00    -0.272 N 
HETATM    7  C4  UNL     1       1.742   0.432   0.378  1.00  0.00     0.222 C 
HETATM    8  N3  UNL     1       2.196   1.431   1.262  1.00  0.00    -0.061 NA
HETATM    9  N4  UNL     1       0.483   0.241   0.252  1.00  0.00    -0.273 N 
ATOM     10  H4  UNL     1      -0.154   0.821   0.798  1.00  0.00     0.189 HD
ATOM     11  H2  UNL     1       2.668  -0.237  -1.379  1.00  0.00     0.189 HD
BRANCH   9  12
HETATM   12  N5  UNL     1      -0.038  -0.685  -0.564  1.00  0.00    -0.309 N 
HETATM   13  C5  UNL     1      -1.150  -1.075  -0.871  1.00  0.00     0.118 C 
ATOM     14  H5  UNL     1       0.690  -1.200  -1.060  1.00  0.00     0.186 HD
BRANCH  13  15
HETATM   15  C6  UNL     1      -2.435  -0.599  -0.387  1.00  0.00    -0.019 A 
HETATM   16  C7  UNL     1      -3.617  -1.194  -0.877  1.00  0.00     0.013 A 
HETATM   17  C8  UNL     1      -4.846  -0.792  -0.463  1.00  0.00     0.001 A 
HETATM   18  C9  UNL     1      -4.953   0.220   0.457  1.00  0.00     0.000 A 
HETATM   19  C10 UNL     1      -3.813   0.811   0.944  1.00  0.00     0.001 A 
HETATM   20  C11 UNL     1      -2.550   0.416   0.535  1.00  0.00     0.013 A 
ENDBRANCH  13  15
ENDBRANCH   9  12
ENDBRANCH   4   6
TORSDOF 3
