REMARK  14 active torsions:
REMARK  status: ('A' for Active; 'I' for Inactive)
REMARK    1  A    between atoms: C2_2  and  C4_4 
REMARK    2  A    between atoms: C4_4  and  C5_5 
REMARK    3  A    between atoms: C7_8  and  C8_9 
REMARK    4  A    between atoms: C10_11  and  O2_12 
REMARK    5  A    between atoms: C11_14  and  C12_15 
REMARK    6  A    between atoms: C12_15  and  C13_16 
REMARK    7  A    between atoms: C19_24  and  C20_25 
REMARK    8  A    between atoms: C20_25  and  C21_27 
REMARK    9  A    between atoms: C21_27  and  C22_28 
REMARK   10  A    between atoms: C23_30  and  C24_31 
REMARK   11  A    between atoms: C27_35  and  O8_36 
REMARK   12  A    between atoms: C30_40  and  C31_41 
REMARK   13  A    between atoms: C31_41  and  C32_42 
REMARK   14  A    between atoms: C32_42  and  O9_43 
ROOT
HETATM    1  C5  UNL     1      -1.859  -0.413   0.073  1.00  0.00     0.089 C 
HETATM    2  C6  UNL     1      -2.538   0.592   0.935  1.00  0.00     0.142 C 
HETATM    3  O1  UNL     1      -3.293   0.269   1.795  1.00  0.00    -0.297 OA
HETATM    4  C7  UNL     1      -2.288   2.044   0.738  1.00  0.00     0.085 C 
HETATM    5  C10 UNL     1      -0.990   2.585   1.216  1.00  0.00     0.140 C 
HETATM    6  C11 UNL     1      -0.179   3.342   0.173  1.00  0.00     0.085 C 
HETATM    7  C15 UNL     1       1.280   2.966   0.285  1.00  0.00     0.144 C 
HETATM    8  O3  UNL     1       2.150   3.830   0.146  1.00  0.00    -0.297 OA
HETATM    9  C16 UNL     1       1.769   1.602   0.560  1.00  0.00     0.122 C 
HETATM   10  C17 UNL     1       2.561   1.626   1.873  1.00  0.00     0.026 C 
HETATM   11  C18 UNL     1       2.586   0.966  -0.463  1.00  0.00     0.151 C 
HETATM   12  O4  UNL     1       2.812   1.417  -1.529  1.00  0.00    -0.296 OA
HETATM   13  C19 UNL     1       3.186  -0.384  -0.114  1.00  0.00     0.155 C 
HETATM   14  C23 UNL     1       2.191  -1.467  -0.416  1.00  0.00     0.152 C 
HETATM   15  O7  UNL     1       1.241  -1.551   0.545  1.00  0.00    -0.323 OA
HETATM   16  C27 UNL     1       0.686  -2.038   1.578  1.00  0.00     0.184 C 
HETATM   17  C28 UNL     1      -0.797  -1.992   1.802  1.00  0.00    -0.001 C 
HETATM   18  C29 UNL     1      -1.088  -1.286   3.108  1.00  0.00     0.054 C 
HETATM   19  C30 UNL     1      -1.677  -1.762   0.659  1.00  0.00    -0.056 C 
ENDROOT
BRANCH  13  20
HETATM   20  C20 UNL     1       4.526  -0.507  -0.660  1.00  0.00     0.147 C 
HETATM   21  O5  UNL     1       4.834   0.222  -1.625  1.00  0.00    -0.297 OA
BRANCH  20  22
HETATM   22  C21 UNL     1       5.586  -1.424  -0.179  1.00  0.00     0.148 C 
BRANCH  22  23
HETATM   23  C22 UNL     1       6.595  -0.527   0.514  1.00  0.00     0.238 C 
HETATM   24  O6  UNL     1       7.416   0.117  -0.096  1.00  0.00    -0.306 OA
ENDBRANCH  22  23
ENDBRANCH  20  22
ENDBRANCH  13  20
BRANCH  14  25
HETATM   25  C24 UNL     1       2.651  -2.693  -1.108  1.00  0.00     0.008 C 
HETATM   26  C25 UNL     1       3.164  -2.500  -2.510  1.00  0.00     0.012 C 
HETATM   27  C26 UNL     1       1.635  -3.815  -1.107  1.00  0.00     0.012 C 
ENDBRANCH  14  25
BRANCH  16  28
HETATM   28  O8  UNL     1       1.252  -2.638   2.604  1.00  0.00    -0.341 OA
ATOM     29  H8  UNL     1       0.837  -3.002   3.377  1.00  0.00     0.220 HD
ENDBRANCH  16  28
BRANCH   6  30
HETATM   30  C12 UNL     1      -0.570   3.077  -1.236  1.00  0.00     0.014 C 
BRANCH  30  31
HETATM   31  C13 UNL     1       0.239   3.888  -2.210  1.00  0.00    -0.004 C 
HETATM   32  C14 UNL     1       0.054   5.376  -2.118  1.00  0.00     0.005 C 
ENDBRANCH  30  31
ENDBRANCH   6  30
BRANCH   5  33
HETATM   33  O2  UNL     1      -1.207   3.558   2.243  1.00  0.00    -0.394 OA
ATOM     34  H2  UNL     1      -0.377   3.904   2.549  1.00  0.00     0.210 HD
ENDBRANCH   5  33
BRANCH  19  35
HETATM   35  C31 UNL     1      -2.991  -2.491   0.792  1.00  0.00     0.061 C 
BRANCH  35  36
HETATM   36  C32 UNL     1      -2.872  -3.893   1.348  1.00  0.00     0.168 C 
BRANCH  36  37
HETATM   37  O9  UNL     1      -2.043  -4.716   0.609  1.00  0.00    -0.401 OA
ATOM     38  H9  UNL     1      -1.968  -5.596   0.958  1.00  0.00     0.209 HD
ENDBRANCH  36  37
ENDBRANCH  35  36
ENDBRANCH  19  35
BRANCH   4  39
HETATM   39  C8  UNL     1      -3.403   2.866   1.421  1.00  0.00     0.010 C 
HETATM   40  C9  UNL     1      -3.501   2.644   2.885  1.00  0.00     0.006 C 
ENDBRANCH   4  39
BRANCH   1  41
HETATM   41  C4  UNL     1      -2.820  -0.477  -1.111  1.00  0.00     0.049 C 
BRANCH  41  42
HETATM   42  C2  UNL     1      -2.542  -1.295  -2.265  1.00  0.00    -0.092 C 
HETATM   43  C1  UNL     1      -1.570  -1.850  -2.709  1.00  0.00     0.014 C 
HETATM   44  C3  UNL     1      -3.856  -1.635  -3.059  1.00  0.00     0.042 C 
ENDBRANCH  41  42
ENDBRANCH   1  41
TORSDOF 14
