REMARK  4 active torsions:
REMARK  status: ('A' for Active; 'I' for Inactive)
REMARK    1  A    between atoms: O1_1  and  N1_3 
REMARK    2  A    between atoms: C5_9  and  C6_10 
REMARK    3  A    between atoms: C7_15  and  C8_16 
REMARK    4  A    between atoms: C8_16  and  C9_17 
ROOT
HETATM    1  C6  UNL     1       0.014  -0.522   1.020  1.00  0.00     0.101 A 
HETATM    2  N2  UNL     1       0.626  -0.382   2.194  1.00  0.00    -0.287 N 
ATOM      3  H2  UNL     1       0.209   0.026   3.030  1.00  0.00     0.188 HD
HETATM    4  N3  UNL     1       1.850  -0.851   2.109  1.00  0.00    -0.287 N 
ATOM      5  H3  UNL     1       2.540  -0.871   2.860  1.00  0.00     0.188 HD
HETATM    6  C7  UNL     1       2.027  -1.296   0.867  1.00  0.00     0.103 A 
HETATM    7  N6  UNL     1       0.897  -1.096   0.186  1.00  0.00    -0.333 N 
ATOM      8  H6  UNL     1       0.733  -1.336  -0.792  1.00  0.00     0.168 HD
ENDROOT
BRANCH   1   9
HETATM    9  C5  UNL     1      -1.382  -0.099   0.754  1.00  0.00     0.060 C 
HETATM   10  C4  UNL     1      -2.184  -1.270   0.205  1.00  0.00     0.013 C 
HETATM   11  C3  UNL     1      -3.636  -0.948   0.143  1.00  0.00     0.006 C 
HETATM   12  C2  UNL     1      -3.963   0.491  -0.046  1.00  0.00     0.054 C 
HETATM   13  C1  UNL     1      -2.869   1.346  -0.463  1.00  0.00     0.010 C 
HETATM   14  N1  UNL     1      -3.099   2.503  -0.965  1.00  0.00    -0.277 N 
HETATM   15  C11 UNL     1      -1.419   0.960  -0.346  1.00  0.00     0.067 C 
ATOM     16  H1  UNL     1      -2.332   3.107  -1.260  1.00  0.00     0.193 HD
BRANCH  14  17
HETATM   17  O1  UNL     1      -4.400   2.908  -1.096  1.00  0.00    -0.290 OA
ATOM     18  H1  UNL     1      -4.570   3.765  -1.468  1.00  0.00     0.244 HD
ENDBRANCH  14  17
ENDBRANCH   1   9
BRANCH   6  19
HETATM   19  C8  UNL     1       3.274  -1.905   0.349  1.00  0.00     0.144 C 
BRANCH  19  20
HETATM   20  C9  UNL     1       4.094  -0.762  -0.197  1.00  0.00     0.076 A 
HETATM   21  N4  UNL     1       4.986  -0.019   0.440  1.00  0.00    -0.296 N 
HETATM   22  N5  UNL     1       5.595   0.912  -0.168  1.00  0.00    -0.284 N 
ATOM     23  H4  UNL     1       5.184  -0.197   1.425  1.00  0.00     0.187 HD
HETATM   24  C10 UNL     1       5.318   1.126  -1.459  1.00  0.00     0.159 A 
ATOM     25  H5  UNL     1       6.283   1.487   0.318  1.00  0.00     0.188 HD
HETATM   26  S1  UNL     1       5.973   2.268  -2.459  1.00  0.00    -0.051 SA
HETATM   27  S2  UNL     1       4.137  -0.078  -1.761  1.00  0.00    -0.044 SA
ENDBRANCH  19  20
ENDBRANCH   6  19
TORSDOF 4
