REMARK  7 active torsions:
REMARK  status: ('A' for Active; 'I' for Inactive)
REMARK    1  A    between atoms: C4_4  and  C5_5 
REMARK    2  A    between atoms: C6_6  and  C7_7 
REMARK    3  A    between atoms: C7_7  and  N1_8 
REMARK    4  A    between atoms: C9_12  and  N3_13 
REMARK    5  A    between atoms: N3_13  and  C10_15 
REMARK    6  A    between atoms: C10_15  and  C11_16 
REMARK    7  A    between atoms: C11_16  and  N4_17 
ROOT
HETATM    1  N1  UNL     1       0.469   0.990  -1.347  1.00  0.00    -0.343 N 
HETATM    2  C8  UNL     1      -0.372   1.273  -0.312  1.00  0.00     0.184 A 
HETATM    3  N2  UNL     1      -1.402   0.455  -0.035  1.00  0.00    -0.339 N 
ATOM      4  H2  UNL     1      -2.017   0.687   0.745  1.00  0.00     0.168 HD
HETATM    5  C9  UNL     1      -1.653  -0.658  -0.747  1.00  0.00     0.103 A 
HETATM    6  C14 UNL     1      -0.799  -0.938  -1.792  1.00  0.00     0.073 A 
HETATM    7  C15 UNL     1       0.281  -0.104  -2.103  1.00  0.00     0.012 A 
HETATM    8  C16 UNL     1       1.176  -0.428  -3.232  1.00  0.00     0.068 C 
ENDROOT
BRANCH   1   9
HETATM    9  C7  UNL     1       1.582   1.869  -1.644  1.00  0.00     0.157 C 
BRANCH   9  10
HETATM   10  C6  UNL     1       2.801   1.481  -0.892  1.00  0.00    -0.006 C 
HETATM   11  C5  UNL     1       2.840   0.464  -0.062  1.00  0.00     0.012 C 
BRANCH  11  12
HETATM   12  C4  UNL     1       4.061   0.134   0.644  1.00  0.00    -0.001 A 
HETATM   13  C3  UNL     1       5.293   0.785   0.567  1.00  0.00     0.038 A 
HETATM   14  C2  UNL     1       6.209   0.171   1.391  1.00  0.00     0.007 A 
HETATM   15  C1  UNL     1       7.637   0.584   1.576  1.00  0.00     0.068 C 
HETATM   16  N5  UNL     1       5.560  -0.851   1.977  1.00  0.00    -0.353 N 
HETATM   17  C17 UNL     1       4.284  -0.893   1.549  1.00  0.00     0.090 A 
ATOM     18  H5  UNL     1       5.974  -1.499   2.647  1.00  0.00     0.166 HD
HETATM   19 BR1  UNL     1       2.937  -2.159   2.079  1.00  0.00    -0.030 Br
ENDBRANCH  11  12
ENDBRANCH   9  10
ENDBRANCH   1   9
BRANCH   5  20
HETATM   20  N3  UNL     1      -2.628  -1.461  -0.509  1.00  0.00    -0.374 N 
ATOM     21  H3  UNL     1      -2.727  -2.278  -1.112  1.00  0.00     0.161 HD
BRANCH  20  22
HETATM   22  C10 UNL     1      -3.586  -1.291   0.543  1.00  0.00     0.151 C 
BRANCH  22  23
HETATM   23  C11 UNL     1      -4.689  -0.367   0.078  1.00  0.00     0.290 C 
BRANCH  23  24
HETATM   24  N4  UNL     1      -5.636  -0.227   1.186  1.00  0.00     0.081 N 
HETATM   25  C12 UNL     1      -6.684   0.666   0.709  1.00  0.00     0.309 C 
HETATM   26  C13 UNL     1      -6.194  -1.509   1.551  1.00  0.00     0.309 C 
ENDBRANCH  23  24
ENDBRANCH  22  23
ENDBRANCH  20  22
ENDBRANCH   5  20
TORSDOF 7
