REMARK  10 active torsions:
REMARK  status: ('A' for Active; 'I' for Inactive)
REMARK    1  A    between atoms: C2_2  and  C3_3 
REMARK    2  A    between atoms: C2_2  and  C4_8 
REMARK       I    between atoms: C3_3  and  N1_4 
REMARK    3  A    between atoms: C4_8  and  C5_9 
REMARK    4  A    between atoms: C4_8  and  C16_24 
REMARK    5  A    between atoms: C6_10  and  C7_11 
REMARK    6  A    between atoms: C7_11  and  N2_12 
REMARK    7  A    between atoms: N2_12  and  C9_14 
REMARK    8  A    between atoms: C10_15  and  C11_16 
REMARK    9  A    between atoms: C16_24  and  N5_25 
REMARK   10  A    between atoms: C16_24  and  N6_29 
ROOT
HETATM    1  C4  UNL     1      -1.094  -1.409   0.194  1.00  0.00     0.161 C 
ENDROOT
BRANCH   1   2
HETATM    2  C2  UNL     1      -0.130  -2.503  -0.265  1.00  0.00     0.019 C 
HETATM    3  C1  UNL     1       0.298  -3.368   0.487  1.00  0.00     0.026 C 
BRANCH   2   4
HETATM    4  C3  UNL     1       0.372  -2.531  -1.660  1.00  0.00     0.245 C 
HETATM    5  N1  UNL     1       0.096  -1.688  -2.716  1.00  0.00    -0.366 N 
ATOM      6  H12 UNL     1      -0.555  -0.931  -2.507  1.00  0.00     0.159 HD
ATOM      7  H11 UNL     1       0.441  -1.707  -3.676  1.00  0.00     0.159 HD
HETATM    8  O1  UNL     1       1.193  -3.486  -1.923  1.00  0.00    -0.268 OA
ENDBRANCH   2   4
ENDBRANCH   1   2
BRANCH   1   9
HETATM    9  C5  UNL     1      -0.352  -0.160   0.026  1.00  0.00    -0.092 C 
HETATM   10  C6  UNL     1       0.259   0.899  -0.081  1.00  0.00    -0.091 C 
BRANCH  10  11
HETATM   11  C7  UNL     1       0.955   2.194  -0.206  1.00  0.00     0.188 C 
BRANCH  11  12
HETATM   12  N2  UNL     1       2.032   2.344   0.734  1.00  0.00    -0.286 NA
HETATM   13  C8  UNL     1       1.895   1.522   1.895  1.00  0.00     0.116 C 
BRANCH  12  14
HETATM   14  C9  UNL     1       3.320   2.196   0.113  1.00  0.00     0.062 C 
HETATM   15  C10 UNL     1       3.939   1.057   0.233  1.00  0.00     0.043 C 
BRANCH  15  16
HETATM   16  C11 UNL     1       5.219   0.650  -0.282  1.00  0.00     0.058 A 
HETATM   17  C12 UNL     1       6.171   1.430  -0.880  1.00  0.00     0.033 A 
HETATM   18  C13 UNL     1       6.231   2.903  -1.068  1.00  0.00     0.070 C 
HETATM   19  N3  UNL     1       7.164   0.597  -1.269  1.00  0.00    -0.354 N 
HETATM   20  C14 UNL     1       6.869  -0.665  -0.935  1.00  0.00     0.183 A 
ATOM     21  H3  UNL     1       8.016   0.889  -1.748  1.00  0.00     0.166 HD
HETATM   22  N4  UNL     1       5.683  -0.645  -0.329  1.00  0.00    -0.346 N 
HETATM   23  C15 UNL     1       4.978  -1.795   0.210  1.00  0.00     0.157 C 
ENDBRANCH  15  16
ENDBRANCH  12  14
ENDBRANCH  11  12
ENDBRANCH  10  11
ENDBRANCH   1   9
BRANCH   1  24
HETATM   24  C16 UNL     1      -2.417  -1.436  -0.425  1.00  0.00     0.404 C 
BRANCH  24  25
HETATM   25  N5  UNL     1      -2.600  -1.239  -1.803  1.00  0.00    -0.048 N 
ATOM     26  H53 UNL     1      -2.159  -0.353  -2.051  1.00  0.00     0.276 HD
ATOM     27  H52 UNL     1      -2.014  -1.914  -2.294  1.00  0.00     0.276 HD
ATOM     28  H51 UNL     1      -3.524  -1.258  -2.235  1.00  0.00     0.276 HD
ENDBRANCH  24  25
BRANCH  24  29
HETATM   29  N6  UNL     1      -3.533  -0.936   0.348  1.00  0.00    -0.041 N 
HETATM   30  C17 UNL     1      -4.020  -1.962   1.302  1.00  0.00     0.275 C 
HETATM   31  C18 UNL     1      -3.371   0.288   1.030  1.00  0.00     0.239 C 
HETATM   32  C19 UNL     1      -3.493   1.529   0.214  1.00  0.00     0.028 C 
HETATM   33  C20 UNL     1      -4.875   1.890  -0.212  1.00  0.00     0.002 C 
HETATM   34  C21 UNL     1      -5.945   1.072   0.451  1.00  0.00     0.002 C 
HETATM   35  C22 UNL     1      -5.916  -0.375   0.113  1.00  0.00     0.028 C 
HETATM   36  C23 UNL     1      -4.648  -0.805  -0.590  1.00  0.00     0.239 C 
ENDBRANCH  24  29
ENDBRANCH   1  24
TORSDOF 10
