REMARK  12 active torsions:
REMARK  status: ('A' for Active; 'I' for Inactive)
REMARK    1  A    between atoms: C5_6  and  C6_7 
REMARK    2  A    between atoms: C6_7  and  C7_8 
REMARK       I    between atoms: C7_8  and  N2_10 
REMARK    3  A    between atoms: N2_10  and  C8_12 
REMARK    4  A    between atoms: C8_12  and  C9_13 
REMARK    5  A    between atoms: C10_14  and  C11_15 
REMARK    6  A    between atoms: C11_15  and  N3_16 
REMARK    7  A    between atoms: N3_16  and  C12_17 
REMARK    8  A    between atoms: C12_17  and  C13_18 
REMARK    9  A    between atoms: C13_18  and  N4_19 
REMARK   10  A    between atoms: C16_22  and  O2_23 
REMARK   11  A    between atoms: C17_25  and  C18_26 
REMARK   12  A    between atoms: C18_26  and  O3_27 
ROOT
HETATM    1  N3  UNL     1       1.884   0.769  -0.798  1.00  0.00    -0.052 N 
HETATM    2  C20 UNL     1       1.561   2.082  -1.320  1.00  0.00     0.266 A 
HETATM    3  C21 UNL     1       1.850   0.910  -2.232  1.00  0.00     0.266 A 
ENDROOT
BRANCH   1   4
HETATM    4  C11 UNL     1       0.759   0.061  -0.229  1.00  0.00     0.331 C 
BRANCH   4   5
HETATM    5  C10 UNL     1      -0.242   0.978   0.318  1.00  0.00    -0.077 C 
HETATM    6  C9  UNL     1      -1.077   1.729   0.792  1.00  0.00    -0.085 C 
BRANCH   6   7
HETATM    7  C8  UNL     1      -2.069   2.648   1.365  1.00  0.00     0.217 C 
BRANCH   7   8
HETATM    8  N2  UNL     1      -3.161   1.956   1.981  1.00  0.00    -0.351 N 
HETATM    9  C7  UNL     1      -3.974   1.091   1.240  1.00  0.00     0.218 C 
HETATM   10  O1  UNL     1      -3.747   0.918   0.025  1.00  0.00    -0.274 OA
ATOM     11  H2  UNL     1      -3.349   2.096   2.974  1.00  0.00     0.163 HD
BRANCH   9  12
HETATM   12  C6  UNL     1      -5.098   0.383   1.889  1.00  0.00     0.109 C 
BRANCH  12  13
HETATM   13  C5  UNL     1      -5.840  -0.451   0.869  1.00  0.00     0.022 C 
HETATM   14  C4  UNL     1      -6.984  -1.170   1.590  1.00  0.00     0.034 C 
HETATM   15  C3  UNL     1      -8.097  -1.191   0.593  1.00  0.00     0.237 C 
HETATM   16  N1  UNL     1      -7.611  -0.572  -0.604  1.00  0.00    -0.074 N 
HETATM   17  C1  UNL     1      -6.941  -1.480  -1.498  1.00  0.00     0.272 C 
HETATM   18  C2  UNL     1      -8.723   0.090  -1.251  1.00  0.00     0.272 C 
HETATM   19  C22 UNL     1      -6.625   0.377  -0.120  1.00  0.00     0.241 C 
ENDBRANCH  12  13
ENDBRANCH   9  12
ENDBRANCH   7   8
ENDBRANCH   6   7
ENDBRANCH   4   5
ENDBRANCH   1   4
BRANCH   1  20
HETATM   20  C12 UNL     1       3.131   0.568  -0.118  1.00  0.00     0.266 C 
BRANCH  20  21
HETATM   21  C13 UNL     1       3.975  -0.520  -0.732  1.00  0.00     0.265 C 
BRANCH  21  22
HETATM   22  N4  UNL     1       5.207  -0.650   0.016  1.00  0.00    -0.066 N 
HETATM   23  C14 UNL     1       5.005  -1.292   1.298  1.00  0.00     0.272 C 
HETATM   24  C15 UNL     1       5.778   0.684   0.156  1.00  0.00     0.269 C 
HETATM   25  C16 UNL     1       7.270   0.467   0.315  1.00  0.00     0.152 C 
HETATM   26  C17 UNL     1       7.525  -0.792  -0.489  1.00  0.00     0.066 C 
HETATM   27  C19 UNL     1       6.195  -1.435  -0.702  1.00  0.00     0.246 C 
BRANCH  25  28
HETATM   28  O2  UNL     1       7.906   1.564  -0.264  1.00  0.00    -0.393 OA
ATOM     29  H2  UNL     1       8.841   1.428  -0.164  1.00  0.00     0.210 HD
ENDBRANCH  25  28
BRANCH  26  30
HETATM   30  C18 UNL     1       8.489  -1.640   0.294  1.00  0.00     0.173 C 
BRANCH  30  31
HETATM   31  O3  UNL     1       8.764  -2.817  -0.397  1.00  0.00    -0.400 OA
ATOM     32  H3  UNL     1       9.373  -3.353   0.098  1.00  0.00     0.209 HD
ENDBRANCH  30  31
ENDBRANCH  26  30
ENDBRANCH  21  22
ENDBRANCH  20  21
ENDBRANCH   1  20
TORSDOF 12
