REMARK  8 active torsions:
REMARK  status: ('A' for Active; 'I' for Inactive)
REMARK    1  A    between atoms: N2_8  and  C6_9 
REMARK    2  A    between atoms: C6_9  and  C7_10 
REMARK    3  A    between atoms: C7_10  and  C8_11 
REMARK    4  A    between atoms: C8_11  and  C9_12 
REMARK    5  A    between atoms: C9_12  and  N3_13 
REMARK    6  A    between atoms: C13_17  and  C14_18 
REMARK    7  A    between atoms: N4_19  and  N5_21 
REMARK    8  A    between atoms: N5_21  and  C15_23 
ROOT
HETATM    1  N3  UNL     1      -0.592   0.636   0.580  1.00  0.00    -0.366 N 
HETATM    2  C10 UNL     1      -0.345   1.865   0.101  1.00  0.00     0.090 A 
HETATM    3  C11 UNL     1       0.960   2.314  -0.069  1.00  0.00     0.018 A 
HETATM    4  C12 UNL     1       2.036   1.504   0.252  1.00  0.00     0.015 A 
HETATM    5  C13 UNL     1       1.781   0.244   0.744  1.00  0.00    -0.004 A 
HETATM    6  C20 UNL     1       0.444  -0.137   0.887  1.00  0.00     0.103 A 
ENDROOT
BRANCH   5   7
HETATM    7  C14 UNL     1       2.831  -0.667   1.101  1.00  0.00     0.120 C 
HETATM    8  N4  UNL     1       4.070  -0.567   1.055  1.00  0.00    -0.297 N 
ATOM      9  H4  UNL     1       4.574  -1.392   1.381  1.00  0.00     0.186 HD
BRANCH   8  10
HETATM   10  N5  UNL     1       4.859   0.444   0.648  1.00  0.00    -0.132 N 
ATOM     11  H5  UNL     1       4.479   1.388   0.715  1.00  0.00     0.205 HD
BRANCH  10  12
HETATM   12  C15 UNL     1       6.065   0.321   0.176  1.00  0.00     0.699 A 
HETATM   13  N6  UNL     1       6.576  -0.915   0.082  1.00  0.00    -0.200 N 
HETATM   14  C16 UNL     1       7.812  -1.108  -0.396  1.00  0.00     0.118 A 
ATOM     15  H6  UNL     1       6.018  -1.716   0.377  1.00  0.00     0.183 HD
HETATM   16  C17 UNL     1       8.565  -0.029  -0.795  1.00  0.00     0.022 A 
HETATM   17  C18 UNL     1       9.953  -0.194  -1.335  1.00  0.00     0.056 C 
HETATM   18  C19 UNL     1       8.041   1.253  -0.699  1.00  0.00     0.266 A 
HETATM   19  O1  UNL     1       8.731   2.240  -1.064  1.00  0.00    -0.267 OA
HETATM   20  N7  UNL     1       6.787   1.387  -0.208  1.00  0.00    -0.154 N 
ATOM     21  H7  UNL     1       6.381   2.319  -0.128  1.00  0.00     0.187 HD
ENDBRANCH  10  12
ENDBRANCH   8  10
ENDBRANCH   5   7
BRANCH   1  22
HETATM   22  C9  UNL     1      -1.961   0.207   0.746  1.00  0.00     0.128 C 
BRANCH  22  23
HETATM   23  C8  UNL     1      -2.395  -0.448  -0.540  1.00  0.00     0.022 C 
BRANCH  23  24
HETATM   24  C7  UNL     1      -3.817  -0.964  -0.501  1.00  0.00     0.022 C 
BRANCH  24  25
HETATM   25  C6  UNL     1      -4.756   0.176  -0.240  1.00  0.00     0.130 C 
BRANCH  25  26
HETATM   26  N2  UNL     1      -6.146  -0.192  -0.190  1.00  0.00    -0.344 N 
HETATM   27  C2  UNL     1      -6.905  -0.577  -1.323  1.00  0.00     0.097 A 
HETATM   28  C1  UNL     1      -6.399  -0.553  -2.537  1.00  0.00     0.064 C 
HETATM   29  N1  UNL     1      -8.253  -0.967  -1.119  1.00  0.00    -0.353 N 
HETATM   30  C3  UNL     1      -8.844  -0.979   0.167  1.00  0.00     0.091 A 
ATOM     31  H1  UNL     1      -8.814  -1.247  -1.924  1.00  0.00     0.166 HD
HETATM   32  C4  UNL     1      -8.100  -0.612   1.193  1.00  0.00     0.034 A 
HETATM   33  C5  UNL     1      -6.718  -0.211   0.991  1.00  0.00     0.094 A 
ENDBRANCH  25  26
ENDBRANCH  24  25
ENDBRANCH  23  24
ENDBRANCH  22  23
ENDBRANCH   1  22
TORSDOF 8
