REMARK  4 active torsions:
REMARK  status: ('A' for Active; 'I' for Inactive)
REMARK    1  A    between atoms: C2_2  and  N1_3 
REMARK    2  A    between atoms: C3_4  and  C4_5 
REMARK    3  A    between atoms: N3_9  and  O2_10 
REMARK    4  A    between atoms: C7_15  and  N5_16 
ROOT
HETATM    1  C4  UNL     1       0.980  -0.024   0.221  1.00  0.00     0.115 A 
HETATM    2  N2  UNL     1       1.673   0.139   1.397  1.00  0.00    -0.235 N 
ATOM      3  H2  UNL     1       1.257   0.713   2.130  1.00  0.00     0.197 HD
HETATM    4  O1  UNL     1       2.826  -0.400   1.619  1.00  0.00    -0.127 OA
HETATM    5  N3  UNL     1       3.430  -1.147   0.740  1.00  0.00    -0.089 N 
HETATM    6  C5  UNL     1       2.844  -1.372  -0.442  1.00  0.00     0.198 A 
HETATM    7  C6  UNL     1       3.441  -2.176  -1.470  1.00  0.00     0.125 C 
HETATM    8  N4  UNL     1       3.948  -2.838  -2.302  1.00  0.00    -0.190 NA
HETATM    9  C7  UNL     1       1.599  -0.807  -0.716  1.00  0.00     0.100 A 
ENDROOT
BRANCH   5  10
HETATM   10  O2  UNL     1       4.655  -1.719   0.977  1.00  0.00    -0.260 OA
ATOM     11  H2  UNL     1       5.096  -2.264   0.336  1.00  0.00     0.247 HD
ENDBRANCH   5  10
BRANCH   9  12
HETATM   12  N5  UNL     1       1.067  -1.010  -1.873  1.00  0.00    -0.395 N 
ATOM     13  H52 UNL     1       0.156  -0.597  -2.073  1.00  0.00     0.156 HD
ATOM     14  H51 UNL     1       1.528  -1.593  -2.571  1.00  0.00     0.156 HD
ENDBRANCH   9  12
BRANCH   1  15
HETATM   15  C3  UNL     1      -0.285   0.654   0.025  1.00  0.00     0.105 A 
HETATM   16  N1  UNL     1      -1.534   0.205  -0.074  1.00  0.00    -0.180 N 
HETATM   17  C10 UNL     1      -2.397   1.266  -0.191  1.00  0.00     0.678 A 
HETATM   18  N6  UNL     1      -1.659   2.380  -0.163  1.00  0.00    -0.194 N 
HETATM   19  N7  UNL     1      -3.700   1.223  -0.298  1.00  0.00    -0.234 N 
HETATM   20  C8  UNL     1      -0.380   2.033  -0.033  1.00  0.00     0.052 A 
ATOM     21  H6  UNL     1      -2.015   3.334  -0.230  1.00  0.00     0.184 HD
HETATM   22  C9  UNL     1       0.764   2.988   0.032  1.00  0.00     0.071 C 
ATOM     23  H72 UNL     1      -4.263   0.373  -0.319  1.00  0.00     0.174 HD
ATOM     24  H71 UNL     1      -4.341   2.011  -0.385  1.00  0.00     0.174 HD
BRANCH  16  25
HETATM   25  C2  UNL     1      -1.990  -1.152  -0.031  1.00  0.00     0.143 C 
HETATM   26  C1  UNL     1      -2.331  -1.588   1.400  1.00  0.00     0.027 C 
ENDBRANCH  16  25
ENDBRANCH   1  15
TORSDOF 4
