REMARK  1 active torsions:
REMARK  status: ('A' for Active; 'I' for Inactive)
REMARK    1  A    between atoms: N2_4  and  N3_6 
REMARK       I    between atoms: N3_6  and  C1_8 
REMARK       I    between atoms: C1_8  and  N4_10 
ROOT
HETATM    1  N3  UNL     1      -2.687  -0.474   0.205  1.00  0.00    -0.237 N 
ATOM      2  H3  UNL     1      -2.651  -1.374   0.684  1.00  0.00     0.193 HD
HETATM    3  C1  UNL     1      -1.616  -0.031  -0.611  1.00  0.00     0.341 C 
HETATM    4  O1  UNL     1      -1.669   1.073  -1.193  1.00  0.00    -0.245 OA
HETATM    5  N4  UNL     1      -0.488  -0.902  -0.731  1.00  0.00    -0.289 N 
ATOM      6  H4  UNL     1      -0.650  -1.892  -0.914  1.00  0.00     0.172 HD
HETATM    7  C2  UNL     1       0.723  -0.483  -0.617  1.00  0.00     0.175 C 
HETATM    8  N5  UNL     1       1.158   0.848  -0.365  1.00  0.00    -0.356 N 
ATOM      9  H5  UNL     1       0.644   1.712  -0.539  1.00  0.00     0.162 HD
HETATM   10  C3  UNL     1       2.502   0.711   0.198  1.00  0.00     0.248 C 
HETATM   11  N6  UNL     1       3.014  -0.444  -0.536  1.00  0.00    -0.338 N 
ATOM     12  H6  UNL     1       3.973  -0.593  -0.849  1.00  0.00     0.164 HD
HETATM   13  C4  UNL     1       1.905  -1.324  -0.729  1.00  0.00     0.286 C 
HETATM   14  O2  UNL     1       1.964  -2.563  -0.949  1.00  0.00    -0.264 OA
ENDROOT
BRANCH   1  15
HETATM   15  N2  UNL     1      -3.795   0.371   0.328  1.00  0.00    -0.245 N 
HETATM   16  N1  UNL     1      -4.340   0.766  -0.745  1.00  0.00    -0.331 N 
ATOM     17  H12 UNL     1      -3.975   0.472  -1.651  1.00  0.00     0.178 HD
ATOM     18  H11 UNL     1      -5.148   1.382  -0.655  1.00  0.00     0.178 HD
ATOM     19  H2  UNL     1      -4.148   0.656   1.241  1.00  0.00     0.208 HD
ENDBRANCH   1  15
TORSDOF 1
