REMARK  4 active torsions:
REMARK  status: ('A' for Active; 'I' for Inactive)
REMARK       I    between atoms: C2_5  and  N4_7 
REMARK    1  A    between atoms: N4_7  and  C3_9 
REMARK    2  A    between atoms: C3_9  and  C4_10 
REMARK    3  A    between atoms: C3_9  and  N8_16 
REMARK    4  A    between atoms: C4_10  and  N5_11 
REMARK       I    between atoms: N8_16  and  C6_18 
REMARK       I    between atoms: C6_18  and  N9_20 
ROOT
HETATM    1  N1  UNL     1       3.604   4.351  -1.363  1.00  0.00    -0.172 NA
HETATM    2  C1  UNL     1       3.063   3.593  -0.674  1.00  0.00     0.184 C 
HETATM    3  N2  UNL     1       2.412   2.672   0.185  1.00  0.00    -0.267 N 
ATOM      4  H2  UNL     1       1.412   2.500   0.079  1.00  0.00     0.180 HD
HETATM    5  C2  UNL     1       3.066   2.060   1.085  1.00  0.00     0.199 C 
HETATM    6  N3  UNL     1       4.460   2.281   1.253  1.00  0.00    -0.063 NA
HETATM    7  N4  UNL     1       2.397   1.144   1.936  1.00  0.00    -0.341 N 
ATOM      8  H4  UNL     1       2.312   1.373   2.926  1.00  0.00     0.164 HD
ENDROOT
BRANCH   7   9
HETATM    9  C3  UNL     1       1.823  -0.113   1.461  1.00  0.00     0.206 C 
BRANCH   9  10
HETATM   10  C4  UNL     1       2.927  -0.951   0.856  1.00  0.00     0.168 C 
BRANCH  10  11
HETATM   11  N5  UNL     1       3.586  -0.335  -0.248  1.00  0.00    -0.363 N 
HETATM   12  C5  UNL     1       4.288  -1.029  -1.051  1.00  0.00     0.197 C 
HETATM   13  N6  UNL     1       4.927  -0.361  -2.143  1.00  0.00    -0.067 NA
HETATM   14  N7  UNL     1       4.492  -2.432  -0.950  1.00  0.00    -0.067 NA
ATOM     15  H5  UNL     1       3.494   0.670  -0.395  1.00  0.00     0.161 HD
ENDBRANCH  10  11
ENDBRANCH   9  10
BRANCH   9  16
HETATM   16  N8  UNL     1       0.737   0.109   0.546  1.00  0.00    -0.320 N 
HETATM   17  C6  UNL     1      -0.552  -0.382   0.831  1.00  0.00     0.320 C 
HETATM   18  O1  UNL     1      -0.698  -1.025   1.933  1.00  0.00    -0.247 OA
HETATM   19  N9  UNL     1      -1.691  -0.227   0.011  1.00  0.00    -0.329 N 
HETATM   20  C7  UNL     1      -1.586   0.477  -1.242  1.00  0.00     0.128 C 
HETATM   21  C14 UNL     1      -2.949  -0.755   0.407  1.00  0.00     0.093 C 
HETATM   22  C8  UNL     1      -2.431  -0.137  -2.350  1.00  0.00     0.020 C 
HETATM   23  C9  UNL     1      -3.776  -0.623  -1.867  1.00  0.00     0.008 C 
HETATM   24  C10 UNL     1      -3.998  -0.089  -0.498  1.00  0.00     0.009 C 
HETATM   25  C11 UNL     1      -5.251  -0.595   0.167  1.00  0.00     0.007 C 
HETATM   26  C12 UNL     1      -4.935  -0.377   1.631  1.00  0.00     0.002 C 
HETATM   27  C13 UNL     1      -3.432  -0.333   1.748  1.00  0.00     0.026 C 
ATOM     28  H8  UNL     1       0.901   0.627  -0.317  1.00  0.00     0.166 HD
ENDBRANCH   9  16
ENDBRANCH   7   9
TORSDOF 4
