REMARK  5 active torsions:
REMARK  status: ('A' for Active; 'I' for Inactive)
REMARK    1  A    between atoms: O1_2  and  N1_3 
REMARK    2  A    between atoms: N1_3  and  C2_5 
REMARK    3  A    between atoms: C4_18  and  N7_19 
REMARK    4  A    between atoms: N7_19  and  C5_21 
REMARK    5  A    between atoms: C9_29  and  N10_30 
ROOT
HETATM    1  C2  UNL     1       2.784  -0.080  -0.270  1.00  0.00     0.173 C 
HETATM    2  N2  UNL     1       4.088   0.199  -0.461  1.00  0.00    -0.314 N 
ATOM      3  H2  UNL     1       4.535  -0.511  -1.041  1.00  0.00     0.170 HD
HETATM    4  C3  UNL     1       4.968   1.158  -0.098  1.00  0.00     0.193 C 
HETATM    5  S1  UNL     1       6.519   0.740  -0.393  1.00  0.00    -0.039 SA
HETATM    6  N3  UNL     1       4.800   2.365   0.448  1.00  0.00    -0.260 N 
ATOM      7  H3  UNL     1       5.610   2.971   0.316  1.00  0.00     0.191 HD
HETATM    8  N4  UNL     1       3.813   2.965   1.130  1.00  0.00    -0.226 N 
ATOM      9  H4  UNL     1       4.126   3.840   1.552  1.00  0.00     0.210 HD
HETATM   10  N5  UNL     1       2.540   2.721   1.400  1.00  0.00    -0.227 N 
ATOM     11  H5  UNL     1       2.107   3.448   1.970  1.00  0.00     0.210 HD
HETATM   12  N6  UNL     1       1.701   1.733   1.090  1.00  0.00    -0.267 N 
ATOM     13  H6  UNL     1       0.799   1.838   1.554  1.00  0.00     0.190 HD
HETATM   14  C4  UNL     1       1.746   0.633   0.319  1.00  0.00     0.165 C 
ENDROOT
BRANCH  14  15
HETATM   15  N7  UNL     1       0.476   0.058   0.030  1.00  0.00    -0.349 N 
ATOM     16  H7  UNL     1       0.397  -0.779  -0.547  1.00  0.00     0.163 HD
BRANCH  15  17
HETATM   17  C5  UNL     1      -0.694   0.696   0.578  1.00  0.00     0.211 C 
HETATM   18  N8  UNL     1      -0.856   2.050   0.147  1.00  0.00    -0.336 N 
HETATM   19  C6  UNL     1      -1.471   2.371  -0.942  1.00  0.00     0.229 C 
ATOM     20  H8  UNL     1      -0.468   2.795   0.726  1.00  0.00     0.164 HD
HETATM   21  N9  UNL     1      -1.588   3.757  -1.300  1.00  0.00    -0.056 NA
HETATM   22  O2  UNL     1      -1.986   1.337  -1.707  1.00  0.00    -0.317 OA
HETATM   23  C7  UNL     1      -2.576   0.245  -1.030  1.00  0.00     0.154 C 
HETATM   24  C8  UNL     1      -4.065   0.584  -0.900  1.00  0.00     0.042 C 
HETATM   25  C9  UNL     1      -1.956  -0.049   0.302  1.00  0.00     0.155 C 
BRANCH  25  26
HETATM   26  N10 UNL     1      -1.811  -1.485   0.492  1.00  0.00    -0.356 N 
HETATM   27  C10 UNL     1      -2.728  -2.184   1.083  1.00  0.00     0.197 C 
HETATM   28  N11 UNL     1      -2.532  -3.575   1.240  1.00  0.00    -0.067 NA
HETATM   29  N12 UNL     1      -3.931  -1.624   1.587  1.00  0.00    -0.067 NA
ATOM     30  H10 UNL     1      -0.969  -1.951   0.153  1.00  0.00     0.162 HD
ENDBRANCH  25  26
ENDBRANCH  15  17
ENDBRANCH  14  15
BRANCH   1  31
HETATM   31  N1  UNL     1       2.395  -1.219  -0.707  1.00  0.00    -0.248 N 
ATOM     32  H1  UNL     1       1.412  -1.460  -0.578  1.00  0.00     0.196 HD
BRANCH  31  33
HETATM   33  O1  UNL     1       3.182  -2.129  -1.326  1.00  0.00    -0.284 OA
HETATM   34  C1  UNL     1       3.886  -3.129  -0.607  1.00  0.00     0.237 C 
ENDBRANCH  31  33
ENDBRANCH   1  31
TORSDOF 5
