REMARK  3 active torsions:
REMARK  status: ('A' for Active; 'I' for Inactive)
REMARK    1  A    between atoms: N1_1  and  C1_4 
REMARK    2  A    between atoms: C3_10  and  N4_11 
REMARK    3  A    between atoms: N4_11  and  N5_13 
ROOT
HETATM    1  C1  UNL     1       2.791   0.242   1.130  1.00  0.00     0.706 A 
HETATM    2  N2  UNL     1       1.797   1.145   1.190  1.00  0.00    -0.019 N 
ATOM      3  H2  UNL     1       1.869   2.056   1.643  1.00  0.00     0.203 HD
HETATM    4  C2  UNL     1       0.687   0.682   0.569  1.00  0.00     0.737 A 
HETATM    5  N3  UNL     1      -0.549   1.211   0.366  1.00  0.00    -0.018 N 
ATOM      6  H3  UNL     1      -0.764   2.142   0.723  1.00  0.00     0.203 HD
HETATM    7  C3  UNL     1      -1.490   0.520  -0.300  1.00  0.00     0.715 A 
HETATM    8  N6  UNL     1      -1.163  -0.707  -0.753  1.00  0.00    -0.137 N 
ATOM      9  H6  UNL     1      -1.856  -1.256  -1.262  1.00  0.00     0.189 HD
HETATM   10  C4  UNL     1       0.058  -1.215  -0.545  1.00  0.00     0.375 A 
HETATM   11  O1  UNL     1       0.330  -2.356  -0.979  1.00  0.00    -0.244 OA
HETATM   12  N7  UNL     1       1.008  -0.538   0.117  1.00  0.00    -0.015 N 
HETATM   13  N8  UNL     1       2.275  -0.800   0.456  1.00  0.00    -0.106 N 
ATOM     14  H8  UNL     1       2.775  -1.662   0.236  1.00  0.00     0.207 HD
ENDROOT
BRANCH   7  15
HETATM   15  N4  UNL     1      -2.681   1.016  -0.502  1.00  0.00    -0.138 N 
ATOM     16  H4  UNL     1      -2.928   1.944  -0.158  1.00  0.00     0.205 HD
BRANCH  15  17
HETATM   17  N5  UNL     1      -3.608   0.239  -1.203  1.00  0.00    -0.331 N 
ATOM     18  H52 UNL     1      -3.346  -0.687  -1.540  1.00  0.00     0.177 HD
ATOM     19  H51 UNL     1      -4.538   0.626  -1.361  1.00  0.00     0.177 HD
ENDBRANCH  15  17
ENDBRANCH   7  15
BRANCH   1  20
HETATM   20  N1  UNL     1       3.994   0.300   1.596  1.00  0.00    -0.233 N 
ATOM     21  H12 UNL     1       4.386   1.091   2.108  1.00  0.00     0.174 HD
ATOM     22  H11 UNL     1       4.748  -0.385   1.550  1.00  0.00     0.174 HD
ENDBRANCH   1  20
TORSDOF 3
