REMARK  13 active torsions:
REMARK  status: ('A' for Active; 'I' for Inactive)
REMARK    1  A    between atoms: C2_2  and  N1_3 
REMARK    2  A    between atoms: N1_3  and  C3_6 
REMARK    3  A    between atoms: C3_6  and  C4_7 
REMARK    4  A    between atoms: C4_7  and  N2_8 
REMARK       I    between atoms: N2_8  and  C5_10 
REMARK    5  A    between atoms: C5_10  and  C6_12 
REMARK    6  A    between atoms: C6_12  and  N3_13 
REMARK       I    between atoms: N3_13  and  C7_15 
REMARK    7  A    between atoms: C7_15  and  C8_17 
REMARK    8  A    between atoms: N4_37  and  C26_38 
REMARK    9  A    between atoms: C26_38  and  O5_39 
REMARK   10  A    between atoms: C26_38  and  N5_41 
REMARK   11  A    between atoms: N5_41  and  C27_43 
REMARK   12  A    between atoms: C27_43  and  C28_44 
REMARK   13  A    between atoms: C28_44  and  O6_45 
ROOT
HETATM    1  C8  UNL     1       0.789  -0.228   0.835  1.00  0.00     0.117 C 
HETATM    2  C9  UNL     1       1.467  -1.111   1.794  1.00  0.00     0.184 C 
HETATM    3  C10 UNL     1       2.081  -0.566   3.017  1.00  0.00     0.047 C 
HETATM    4  O3  UNL     1       0.535  -2.167   2.100  1.00  0.00    -0.306 OA
HETATM    5  C11 UNL     1      -0.674  -2.457   1.597  1.00  0.00     0.295 C 
HETATM    6  O4  UNL     1      -0.875  -3.722   1.469  1.00  0.00    -0.259 OA
HETATM    7  C12 UNL     1      -1.817  -1.654   1.163  1.00  0.00     0.059 C 
HETATM    8  C13 UNL     1      -2.391  -2.192  -0.077  1.00  0.00    -0.007 C 
HETATM    9  C14 UNL     1      -1.909  -1.859  -1.416  1.00  0.00     0.028 C 
HETATM   10  C15 UNL     1      -2.928  -1.953  -2.499  1.00  0.00     0.004 C 
HETATM   11  C16 UNL     1      -3.983  -2.979  -2.370  1.00  0.00     0.000 C 
HETATM   12  C17 UNL     1      -5.390  -2.424  -2.577  1.00  0.00     0.000 C 
HETATM   13  C18 UNL     1      -6.307  -2.729  -1.444  1.00  0.00     0.000 C 
HETATM   14  C19 UNL     1      -7.131  -1.556  -0.957  1.00  0.00     0.000 C 
HETATM   15  C20 UNL     1      -6.301  -0.321  -0.838  1.00  0.00     0.000 C 
HETATM   16  C21 UNL     1      -6.374   0.362   0.519  1.00  0.00     0.000 C 
HETATM   17  C22 UNL     1      -5.241  -0.126   1.437  1.00  0.00     0.000 C 
HETATM   18  C23 UNL     1      -4.112   0.784   1.582  1.00  0.00     0.006 C 
HETATM   19  C24 UNL     1      -2.852   0.598   0.773  1.00  0.00     0.059 C 
HETATM   20  C25 UNL     1      -1.769  -0.183   1.423  1.00  0.00     0.036 C 
HETATM   21  N4  UNL     1      -0.426   0.383   1.383  1.00  0.00    -0.277 N 
ENDROOT
BRANCH   1  22
HETATM   22  C7  UNL     1       1.582   0.592  -0.080  1.00  0.00     0.267 C 
HETATM   23  N3  UNL     1       2.974   0.399  -0.262  1.00  0.00    -0.347 N 
ATOM     24  H3  UNL     1       3.425  -0.338   0.281  1.00  0.00     0.163 HD
HETATM   25  O2  UNL     1       1.090   1.537  -0.781  1.00  0.00    -0.266 OA
BRANCH  23  26
HETATM   26  C6  UNL     1       3.794   1.165  -1.154  1.00  0.00     0.225 C 
BRANCH  26  27
HETATM   27  C5  UNL     1       5.219   0.725  -1.105  1.00  0.00     0.235 C 
HETATM   28  N2  UNL     1       6.152   1.371  -1.953  1.00  0.00    -0.358 N 
ATOM     29  H2  UNL     1       5.818   2.114  -2.566  1.00  0.00     0.162 HD
HETATM   30  O1  UNL     1       5.532  -0.202  -0.315  1.00  0.00    -0.272 OA
BRANCH  28  31
HETATM   31  C4  UNL     1       7.552   1.026  -1.989  1.00  0.00     0.150 C 
BRANCH  31  32
HETATM   32  C3  UNL     1       7.828  -0.397  -2.375  1.00  0.00     0.251 C 
BRANCH  32  33
HETATM   33  N1  UNL     1       9.249  -0.693  -2.390  1.00  0.00    -0.074 N 
ATOM     34  H12 UNL     1       9.692  -0.447  -1.505  1.00  0.00     0.277 HD
ATOM     35  H11 UNL     1       9.758  -0.055  -3.002  1.00  0.00     0.277 HD
BRANCH  33  36
HETATM   36  C2  UNL     1       9.495  -2.071  -2.740  1.00  0.00     0.228 C 
HETATM   37  C1  UNL     1       9.155  -2.404  -4.153  1.00  0.00     0.034 C 
ENDBRANCH  33  36
ENDBRANCH  32  33
ENDBRANCH  31  32
ENDBRANCH  28  31
ENDBRANCH  26  27
ENDBRANCH  23  26
ENDBRANCH   1  22
BRANCH  21  38
HETATM   38  C26 UNL     1      -0.105   1.630   1.953  1.00  0.00     0.224 C 
BRANCH  38  39
HETATM   39  O5  UNL     1       1.113   2.083   1.886  1.00  0.00    -0.332 OA
ATOM     40  H5  UNL     1       1.330   2.924   2.271  1.00  0.00     0.221 HD
ENDBRANCH  38  39
BRANCH  38  41
HETATM   41  N5  UNL     1      -0.993   2.491   2.630  1.00  0.00    -0.354 N 
ATOM     42  H5  UNL     1      -1.974   2.236   2.743  1.00  0.00     0.163 HD
BRANCH  41  43
HETATM   43  C27 UNL     1      -0.489   3.755   3.168  1.00  0.00     0.149 C 
BRANCH  43  44
HETATM   44  C28 UNL     1      -1.574   4.541   3.865  1.00  0.00     0.186 C 
BRANCH  44  45
HETATM   45  O6  UNL     1      -1.153   5.729   4.392  1.00  0.00    -0.394 OA
HETATM   46  C29 UNL     1      -0.634   6.618   3.479  1.00  0.00     0.201 C 
ENDBRANCH  44  45
ENDBRANCH  43  44
ENDBRANCH  41  43
ENDBRANCH  38  41
ENDBRANCH  21  38
TORSDOF 13
