REMARK  4 active torsions:
REMARK  status: ('A' for Active; 'I' for Inactive)
REMARK    1  A    between atoms: C5_10  and  C6_11 
REMARK    2  A    between atoms: C6_11  and  C7_12 
REMARK    3  A    between atoms: C7_12  and  C8_13 
REMARK    4  A    between atoms: C8_13  and  C9_14 
ROOT
HETATM    1  C1  UNL     1      -2.676   2.737  -0.432  1.00  0.00     0.019 C 
HETATM    2  C2  UNL     1      -3.067   1.636  -0.135  1.00  0.00    -0.058 C 
HETATM    3  C3  UNL     1      -3.520   0.322   0.210  1.00  0.00     0.112 A 
HETATM    4  N1  UNL     1      -4.747  -0.166  -0.002  1.00  0.00    -0.289 N 
ATOM      5  H1  UNL     1      -5.513   0.347  -0.439  1.00  0.00     0.188 HD
HETATM    6  N2  UNL     1      -4.823  -1.423   0.442  1.00  0.00    -0.265 N 
ATOM      7  H2  UNL     1      -5.653  -2.014   0.396  1.00  0.00     0.190 HD
HETATM    8  C4  UNL     1      -3.624  -1.794   0.964  1.00  0.00     0.269 A 
HETATM    9  O1  UNL     1      -3.297  -2.894   1.478  1.00  0.00    -0.266 OA
HETATM   10  C5  UNL     1      -2.810  -0.691   0.815  1.00  0.00     0.048 A 
ENDROOT
BRANCH  10  11
HETATM   11  C6  UNL     1      -1.391  -0.620   1.245  1.00  0.00     0.047 C 
BRANCH  11  12
HETATM   12  C7  UNL     1      -0.448  -0.728   0.037  1.00  0.00     0.007 C 
BRANCH  12  13
HETATM   13  C8  UNL     1       0.956  -0.643   0.583  1.00  0.00     0.043 C 
BRANCH  13  14
HETATM   14  C9  UNL     1       2.008  -0.735  -0.495  1.00  0.00     0.277 C 
HETATM   15  N3  UNL     1       1.857   0.330  -1.426  1.00  0.00    -0.061 N 
HETATM   16  C10 UNL     1       3.079   1.039  -1.723  1.00  0.00     0.253 C 
ATOM     17  H32 UNL     1       1.423  -0.007  -2.285  1.00  0.00     0.278 HD
ATOM     18  H31 UNL     1       1.137   0.979  -1.110  1.00  0.00     0.278 HD
HETATM   19  C11 UNL     1       3.804   1.488  -0.479  1.00  0.00     0.150 C 
HETATM   20  N4  UNL     1       4.048   0.345   0.412  1.00  0.00    -0.358 N 
HETATM   21  C12 UNL     1       3.356  -0.850   0.098  1.00  0.00     0.248 C 
ATOM     22  H4  UNL     1       4.679   0.409   1.211  1.00  0.00     0.162 HD
HETATM   23  O2  UNL     1       3.894  -1.953   0.326  1.00  0.00    -0.271 OA
ENDBRANCH  13  14
ENDBRANCH  12  13
ENDBRANCH  11  12
ENDBRANCH  10  11
TORSDOF 4
