REMARK  5 active torsions:
REMARK  status: ('A' for Active; 'I' for Inactive)
REMARK    1  A    between atoms: C2_2  and  C3_3 
REMARK    2  A    between atoms: C3_3  and  N1_4 
REMARK    3  A    between atoms: N1_4  and  C4_7 
REMARK    4  A    between atoms: C4_7  and  C5_8 
REMARK    5  A    between atoms: C5_8  and  O1_9 
ROOT
HETATM    1  C1  UNL     1      -0.028  -2.324   0.844  1.00  0.00     0.042 C 
HETATM    2  C2  UNL     1      -0.730  -1.078   0.349  1.00  0.00     0.068 C 
HETATM    3  C6  UNL     1      -1.929  -1.441  -0.385  1.00  0.00     0.154 C 
HETATM    4  N2  UNL     1      -2.943  -0.478  -0.652  1.00  0.00    -0.365 N 
ATOM      5  H2  UNL     1      -3.625  -0.824  -1.327  1.00  0.00     0.162 HD
HETATM    6  C7  UNL     1      -3.248   0.827  -0.226  1.00  0.00     0.173 C 
HETATM    7  S1  UNL     1      -4.638   1.496  -0.739  1.00  0.00    -0.041 SA
HETATM    8  N3  UNL     1      -2.394   1.611   0.628  1.00  0.00    -0.310 N 
ATOM      9  H3  UNL     1      -2.525   2.622   0.601  1.00  0.00     0.170 HD
HETATM   10  C8  UNL     1      -1.369   1.114   1.521  1.00  0.00     0.174 C 
HETATM   11  S2  UNL     1      -0.819   2.175   2.633  1.00  0.00    -0.041 SA
HETATM   12  N4  UNL     1      -0.830  -0.195   1.481  1.00  0.00    -0.355 N 
ATOM     13  H4  UNL     1      -0.468  -0.557   2.363  1.00  0.00     0.162 HD
ENDROOT
BRANCH   2  14
HETATM   14  C3  UNL     1       0.269  -0.423  -0.646  1.00  0.00     0.264 C 
BRANCH  14  15
HETATM   15  N1  UNL     1       1.478  -0.095   0.052  1.00  0.00    -0.071 N 
ATOM     16  H12 UNL     1       1.277   0.303   0.970  1.00  0.00     0.277 HD
ATOM     17  H11 UNL     1       1.974  -0.937   0.344  1.00  0.00     0.277 HD
BRANCH  15  18
HETATM   18  C4  UNL     1       2.330   0.769  -0.711  1.00  0.00     0.258 C 
BRANCH  18  19
HETATM   19  C5  UNL     1       3.590   1.080   0.095  1.00  0.00     0.191 C 
BRANCH  19  20
HETATM   20  O1  UNL     1       4.343   1.933  -0.706  1.00  0.00    -0.399 OA
ATOM     21  H1  UNL     1       5.127   2.126  -0.205  1.00  0.00     0.209 HD
ENDBRANCH  19  20
ENDBRANCH  18  19
ENDBRANCH  15  18
ENDBRANCH  14  15
ENDBRANCH   2  14
TORSDOF 5
