REMARK  9 active torsions:
REMARK  status: ('A' for Active; 'I' for Inactive)
REMARK       I    between atoms: C2_2  and  N1_4 
REMARK    1  A    between atoms: N1_4  and  C3_6 
REMARK    2  A    between atoms: C3_6  and  C4_7 
REMARK       I    between atoms: C4_7  and  N2_9 
REMARK    3  A    between atoms: N2_9  and  C5_11 
REMARK    4  A    between atoms: C7_13  and  C8_14 
REMARK    5  A    between atoms: C8_14  and  N3_15 
REMARK    6  A    between atoms: C10_20  and  N4_21 
REMARK       I    between atoms: N4_21  and  C11_23 
REMARK       I    between atoms: C11_23  and  N5_25 
REMARK    7  A    between atoms: N5_25  and  C12_27 
REMARK    8  A    between atoms: C12_27  and  C13_28 
REMARK    9  A    between atoms: C14_33  and  N8_34 
ROOT
HETATM    1  C5  UNL     1      -1.751   1.276  -1.224  1.00  0.00     0.107 C 
HETATM    2  C6  UNL     1      -2.626   2.470  -1.633  1.00  0.00     0.033 C 
HETATM    3  C7  UNL     1      -2.311   3.458  -0.559  1.00  0.00     0.015 C 
HETATM    4  C9  UNL     1      -0.820   3.301  -0.365  1.00  0.00     0.033 C 
HETATM    5  C10 UNL     1      -0.432   1.976  -0.977  1.00  0.00     0.109 C 
ENDROOT
BRANCH   5   6
HETATM    6  N4  UNL     1       0.478   1.223  -0.183  1.00  0.00    -0.337 N 
HETATM    7  C11 UNL     1       1.746   0.858  -0.698  1.00  0.00     0.316 C 
HETATM    8  O3  UNL     1       2.052   1.209  -1.863  1.00  0.00    -0.247 OA
HETATM    9  N5  UNL     1       2.673   0.107   0.073  1.00  0.00    -0.336 N 
ATOM     10  H5  UNL     1       2.430  -0.181   1.021  1.00  0.00     0.164 HD
ATOM     11  H4  UNL     1       0.216   0.945   0.762  1.00  0.00     0.164 HD
BRANCH   9  12
HETATM   12  C12 UNL     1       3.961  -0.251  -0.481  1.00  0.00     0.203 C 
BRANCH  12  13
HETATM   13  C13 UNL     1       4.770  -1.038   0.504  1.00  0.00     0.132 A 
HETATM   14  N6  UNL     1       5.624  -0.544   1.417  1.00  0.00    -0.273 N 
HETATM   15  N7  UNL     1       6.138  -1.557   2.091  1.00  0.00    -0.131 N 
ATOM     16  H6  UNL     1       5.838   0.442   1.564  1.00  0.00     0.189 HD
HETATM   17  C14 UNL     1       5.639  -2.722   1.640  1.00  0.00     0.693 A 
ATOM     18  H7  UNL     1       6.817  -1.468   2.847  1.00  0.00     0.205 HD
HETATM   19  N9  UNL     1       4.795  -2.374   0.658  1.00  0.00    -0.172 N 
HETATM   20  C15 UNL     1       4.009  -3.297  -0.139  1.00  0.00     0.177 C 
BRANCH  17  21
HETATM   21  N8  UNL     1       5.940  -3.890   2.089  1.00  0.00    -0.233 N 
ATOM     22  H82 UNL     1       6.582  -4.155   2.836  1.00  0.00     0.174 HD
ATOM     23  H81 UNL     1       5.562  -4.773   1.747  1.00  0.00     0.174 HD
ENDBRANCH  17  21
ENDBRANCH  12  13
ENDBRANCH   9  12
ENDBRANCH   5   6
BRANCH   1  24
HETATM   24  N2  UNL     1      -2.259   0.608  -0.067  1.00  0.00    -0.353 N 
HETATM   25  C4  UNL     1      -2.606  -0.767  -0.109  1.00  0.00     0.235 C 
HETATM   26  O2  UNL     1      -2.467  -1.434  -1.190  1.00  0.00    -0.272 OA
ATOM     27  H2  UNL     1      -2.374   1.128   0.803  1.00  0.00     0.163 HD
BRANCH  25  28
HETATM   28  C3  UNL     1      -3.128  -1.454   1.079  1.00  0.00     0.225 C 
BRANCH  28  29
HETATM   29  N1  UNL     1      -3.444  -2.835   0.901  1.00  0.00    -0.353 N 
HETATM   30  C2  UNL     1      -4.400  -3.335  -0.004  1.00  0.00     0.213 C 
HETATM   31  C1  UNL     1      -4.651  -4.797  -0.113  1.00  0.00     0.117 C 
HETATM   32  O1  UNL     1      -5.060  -2.553  -0.741  1.00  0.00    -0.274 OA
ATOM     33  H1  UNL     1      -2.938  -3.511   1.473  1.00  0.00     0.162 HD
ENDBRANCH  28  29
ENDBRANCH  25  28
ENDBRANCH   1  24
BRANCH   3  34
HETATM   34  C8  UNL     1      -2.653   4.890  -0.990  1.00  0.00     0.234 C 
BRANCH  34  35
HETATM   35  N3  UNL     1      -2.318   5.783   0.105  1.00  0.00    -0.079 N 
ATOM     36  H33 UNL     1      -2.767   5.517   0.981  1.00  0.00     0.274 HD
ATOM     37  H32 UNL     1      -1.350   5.684   0.412  1.00  0.00     0.274 HD
ATOM     38  H31 UNL     1      -2.545   6.735  -0.182  1.00  0.00     0.274 HD
ENDBRANCH  34  35
ENDBRANCH   3  34
TORSDOF 9
