REMARK  5 active torsions:
REMARK  status: ('A' for Active; 'I' for Inactive)
REMARK    1  A    between atoms: C4_5  and  O1_6 
REMARK    2  A    between atoms: O1_6  and  C5_7 
REMARK    3  A    between atoms: C5_7  and  C6_8 
REMARK    4  A    between atoms: C6_8  and  C7_9 
REMARK    5  A    between atoms: C7_9  and  C8_10 
ROOT
HETATM    1  C5  UNL     1       0.322  -0.086  -0.028  1.00  0.00     0.134 C 
HETATM    2  C10 UNL     1       0.168  -1.054  -1.157  1.00  0.00     0.079 C 
HETATM    3  C11 UNL     1      -0.640  -2.260  -0.864  1.00  0.00     0.236 C 
HETATM    4  N3  UNL     1      -0.611  -2.766   0.463  1.00  0.00    -0.075 N 
ATOM      5  H31 UNL     1      -0.643  -3.785   0.485  1.00  0.00     0.277 HD
ATOM      6  H32 UNL     1      -1.480  -2.580   0.963  1.00  0.00     0.277 HD
HETATM    7  C12 UNL     1       0.539  -2.244   1.162  1.00  0.00     0.236 C 
HETATM    8  C13 UNL     1       0.258  -0.747   1.328  1.00  0.00     0.079 C 
ENDROOT
BRANCH   1   9
HETATM    9  O1  UNL     1      -0.524   1.015  -0.042  1.00  0.00    -0.327 OA
BRANCH   9  10
HETATM   10  C4  UNL     1      -1.896   1.056   0.053  1.00  0.00     0.071 A 
HETATM   11  C3  UNL     1      -2.596   1.167   1.238  1.00  0.00     0.040 A 
HETATM   12  C2  UNL     1      -3.991   1.205   1.296  1.00  0.00     0.045 A 
HETATM   13  C1  UNL     1      -4.724   1.130   0.131  1.00  0.00     0.116 A 
HETATM   14  F1  UNL     1      -6.077   1.164   0.158  1.00  0.00    -0.206 F 
HETATM   15  C15 UNL     1      -4.059   1.019  -1.069  1.00  0.00     0.045 A 
HETATM   16  C14 UNL     1      -2.660   0.983  -1.096  1.00  0.00     0.040 A 
ENDBRANCH   9  10
ENDBRANCH   1   9
BRANCH   1  17
HETATM   17  C6  UNL     1       1.697   0.470  -0.150  1.00  0.00    -0.060 C 
BRANCH  17  18
HETATM   18  C7  UNL     1       2.818   0.902  -0.240  1.00  0.00    -0.037 C 
BRANCH  18  19
HETATM   19  C8  UNL     1       4.179   1.405  -0.331  1.00  0.00     0.144 A 
HETATM   20  N1  UNL     1       4.641   2.411  -1.064  1.00  0.00    -0.286 N 
HETATM   21  N2  UNL     1       5.865   2.714  -1.021  1.00  0.00    -0.304 N 
ATOM     22  H1  UNL     1       4.006   2.939  -1.662  1.00  0.00     0.188 HD
HETATM   23  C9  UNL     1       6.692   2.024  -0.240  1.00  0.00     0.159 A 
ATOM     24  H2  UNL     1       6.220   3.487  -1.584  1.00  0.00     0.186 HD
HETATM   25  S1  UNL     1       5.607   0.888   0.451  1.00  0.00    -0.055 SA
ENDBRANCH  18  19
ENDBRANCH  17  18
ENDBRANCH   1  17
TORSDOF 5
