REMARK  1 active torsions:
REMARK  status: ('A' for Active; 'I' for Inactive)
REMARK    1  A    between atoms: N1_1  and  C1_5 
ROOT
HETATM    1  C1  UNL     1       1.109   0.052  -0.185  1.00  0.00     0.183 C 
HETATM    2  C2  UNL     1       0.252   1.275   0.005  1.00  0.00     0.033 C 
HETATM    3  C3  UNL     1      -1.157   1.049  -0.406  1.00  0.00     0.002 C 
HETATM    4  C4  UNL     1      -1.752  -0.242   0.019  1.00  0.00     0.000 C 
HETATM    5  C5  UNL     1      -0.820  -1.397   0.069  1.00  0.00     0.002 C 
HETATM    6  C6  UNL     1       0.507  -1.040   0.693  1.00  0.00     0.033 C 
ENDROOT
BRANCH   1   7
HETATM    7  N1  UNL     1       2.476   0.295   0.152  1.00  0.00    -0.075 N 
ATOM      8  H13 UNL     1       2.848   1.091  -0.366  1.00  0.00     0.274 HD
ATOM      9  H12 UNL     1       2.563   0.663   1.099  1.00  0.00     0.274 HD
ATOM     10  H11 UNL     1       3.057  -0.534   0.023  1.00  0.00     0.274 HD
ENDBRANCH   1   7
TORSDOF 1
