REMARK  2 active torsions:
REMARK  status: ('A' for Active; 'I' for Inactive)
REMARK    1  A    between atoms: C2_2  and  O1_4 
REMARK    2  A    between atoms: O1_4  and  N1_5 
ROOT
HETATM    1  N1  UNL     1       3.418   0.769   0.169  1.00  0.00    -0.275 N 
ATOM      2  H1  UNL     1       3.420   1.774  -0.004  1.00  0.00     0.193 HD
HETATM    3  C4  UNL     1       2.283   0.149   0.090  1.00  0.00     0.010 C 
HETATM    4  C5  UNL     1       2.289  -1.312   0.341  1.00  0.00     0.054 C 
HETATM    5  C6  UNL     1       1.016  -1.820   0.949  1.00  0.00     0.006 C 
HETATM    6  C7  UNL     1       0.158  -2.375  -0.192  1.00  0.00     0.000 C 
HETATM    7  C8  UNL     1      -1.104  -3.022   0.336  1.00  0.00     0.000 C 
HETATM    8  C9  UNL     1      -2.271  -2.168  -0.155  1.00  0.00     0.000 C 
HETATM    9  C10 UNL     1      -3.585  -2.625   0.374  1.00  0.00     0.000 C 
HETATM   10  C11 UNL     1      -4.563  -1.497   0.593  1.00  0.00     0.000 C 
HETATM   11  C12 UNL     1      -4.582  -0.502  -0.521  1.00  0.00     0.001 C 
HETATM   12  C13 UNL     1      -4.869   0.919  -0.018  1.00  0.00     0.017 C 
HETATM   13  C14 UNL     1      -3.560   1.622   0.084  1.00  0.00     0.171 C 
HETATM   14  S1  UNL     1      -3.645   3.360   0.054  1.00  0.00     0.265 S 
HETATM   15  O2  UNL     1      -3.893   3.863   1.450  1.00  0.00    -0.199 OA
HETATM   16  O3  UNL     1      -4.658   3.906  -0.889  1.00  0.00    -0.199 OA
HETATM   17  O4  UNL     1      -2.128   3.951  -0.407  1.00  0.00    -0.276 OA
HETATM   18  C15 UNL     1      -1.098   3.341   0.273  1.00  0.00     0.190 C 
HETATM   19  C16 UNL     1       0.070   3.103  -0.683  1.00  0.00     0.028 C 
HETATM   20  C17 UNL     1       1.196   2.376  -0.001  1.00  0.00     0.008 C 
HETATM   21  C18 UNL     1       1.062   0.889  -0.237  1.00  0.00     0.054 C 
ENDROOT
BRANCH   1  22
HETATM   22  O1  UNL     1       4.601   0.181   0.464  1.00  0.00    -0.276 OA
BRANCH  22  23
HETATM   23  C2  UNL     1       5.570  -0.201  -0.474  1.00  0.00     0.144 C 
HETATM   24  C1  UNL     1       6.834   0.619  -0.194  1.00  0.00     0.042 C 
HETATM   25  C3  UNL     1       5.961  -1.646  -0.393  1.00  0.00     0.042 C 
ENDBRANCH  22  23
ENDBRANCH   1  22
TORSDOF 2
