REMARK  3 active torsions:
REMARK  status: ('A' for Active; 'I' for Inactive)
REMARK    1  A    between atoms: N1_1  and  C1_4 
REMARK    2  A    between atoms: C2_9  and  N4_10 
REMARK    3  A    between atoms: N5_13  and  C5_14 
ROOT
HETATM    1  N4  UNL     1       2.226   0.412  -0.469  1.00  0.00    -0.357 N 
HETATM    2  C3  UNL     1       1.466   1.537   0.021  1.00  0.00     0.155 C 
HETATM    3  C4  UNL     1       0.065   1.146   0.470  1.00  0.00     0.292 C 
HETATM    4  N5  UNL     1      -0.535   0.407  -0.622  1.00  0.00     0.096 N 
HETATM    5  C11 UNL     1       0.221  -0.829  -0.753  1.00  0.00     0.292 C 
HETATM    6  C12 UNL     1       1.529  -0.458  -1.428  1.00  0.00     0.155 C 
ENDROOT
BRANCH   1   7
HETATM    7  C2  UNL     1       3.566   0.121  -0.084  1.00  0.00     0.165 A 
HETATM    8  N3  UNL     1       4.646   0.543  -0.719  1.00  0.00    -0.278 N 
HETATM    9  N2  UNL     1       5.803   0.235  -0.300  1.00  0.00    -0.278 N 
ATOM     10  H3  UNL     1       4.548   1.121  -1.553  1.00  0.00     0.189 HD
HETATM   11  C1  UNL     1       5.914  -0.523   0.793  1.00  0.00     0.160 A 
ATOM     12  H2  UNL     1       6.635   0.561  -0.791  1.00  0.00     0.189 HD
HETATM   13  S1  UNL     1       4.260  -0.773   1.193  1.00  0.00    -0.016 SA
BRANCH  11  14
HETATM   14  N1  UNL     1       7.011  -0.945   1.376  1.00  0.00    -0.379 N 
ATOM     15  H12 UNL     1       7.992  -0.797   1.139  1.00  0.00     0.158 HD
ATOM     16  H11 UNL     1       7.096  -1.524   2.211  1.00  0.00     0.158 HD
ENDBRANCH  11  14
ENDBRANCH   1   7
BRANCH   4  17
HETATM   17  C5  UNL     1      -1.914   0.046  -0.366  1.00  0.00     0.223 C 
HETATM   18  C6  UNL     1      -2.070  -0.875   0.815  1.00  0.00     0.036 C 
HETATM   19  C7  UNL     1      -3.530  -1.231   0.912  1.00  0.00     0.002 C 
HETATM   20  C8  UNL     1      -4.334  -0.733  -0.276  1.00  0.00     0.000 C 
HETATM   21  C9  UNL     1      -4.232   0.775  -0.433  1.00  0.00     0.002 C 
HETATM   22  C10 UNL     1      -2.805   1.233  -0.127  1.00  0.00     0.036 C 
ENDBRANCH   4  17
TORSDOF 3
