REMARK  1 active torsions:
REMARK  status: ('A' for Active; 'I' for Inactive)
REMARK    1  A    between atoms: C3_6  and  C4_7 
ROOT
HETATM    1  C4  UNL     1       1.885   0.954   0.048  1.00  0.00     0.364 C 
HETATM    2  O1  UNL     1       1.222   0.619   1.204  1.00  0.00    -0.200 OA
HETATM    3  O2  UNL     1      -0.040   1.032   1.053  1.00  0.00    -0.194 OA
HETATM    4  C5  UNL     1      -0.697   0.244   0.097  1.00  0.00     0.237 C 
HETATM    5  O3  UNL     1       0.301  -0.373  -0.655  1.00  0.00    -0.194 OA
HETATM    6  O4  UNL     1       1.080   0.628  -1.071  1.00  0.00    -0.200 OA
HETATM    7  C6  UNL     1      -1.513   1.090  -0.861  1.00  0.00     0.055 C 
HETATM    8  C7  UNL     1      -2.509   1.877  -0.076  1.00  0.00     0.015 C 
HETATM    9  C8  UNL     1      -3.357   0.926   0.721  1.00  0.00    -0.013 C 
HETATM   10  C9  UNL     1      -4.111   0.055  -0.260  1.00  0.00     0.009 C 
HETATM   11  C10 UNL     1      -3.120  -0.771  -1.034  1.00  0.00    -0.013 C 
HETATM   12  C11 UNL     1      -2.198   0.144  -1.817  1.00  0.00     0.015 C 
HETATM   13  C12 UNL     1      -2.268  -1.622  -0.132  1.00  0.00     0.015 C 
HETATM   14  C13 UNL     1      -1.546  -0.740   0.843  1.00  0.00     0.055 C 
HETATM   15  C14 UNL     1      -2.549   0.075   1.662  1.00  0.00     0.015 C 
ENDROOT
BRANCH   1  16
HETATM   16  C3  UNL     1       3.186   0.269  -0.159  1.00  0.00     0.246 C 
HETATM   17  N1  UNL     1       3.004  -1.189  -0.211  1.00  0.00    -0.066 N 
HETATM   18  C2  UNL     1       4.405  -1.604  -0.382  1.00  0.00     0.233 C 
ATOM     19  H12 UNL     1       2.347  -1.533  -0.911  1.00  0.00     0.277 HD
ATOM     20  H11 UNL     1       2.506  -1.606   0.576  1.00  0.00     0.277 HD
HETATM   21  C1  UNL     1       5.152  -0.719   0.597  1.00  0.00     0.030 C 
HETATM   22  C15 UNL     1       4.163   0.400   0.961  1.00  0.00     0.040 C 
ENDBRANCH   1  16
TORSDOF 1
