REMARK  3 active torsions:
REMARK  status: ('A' for Active; 'I' for Inactive)
REMARK    1  A    between atoms: C1_2  and  N1_3 
REMARK    2  A    between atoms: C4_8  and  O2_9 
REMARK    3  A    between atoms: N2_11  and  N3_12 
ROOT
HETATM    1  N1  UNL     1      -2.983   0.730  -0.895  1.00  0.00    -0.313 N 
ATOM      2  H1  UNL     1      -3.842   0.647  -1.438  1.00  0.00     0.170 HD
HETATM    3  C2  UNL     1      -2.613  -0.313  -0.214  1.00  0.00     0.174 A 
HETATM    4  S1  UNL     1      -3.433  -1.831  -0.136  1.00  0.00    -0.059 SA
HETATM    5  C3  UNL     1      -2.373  -2.634   0.925  1.00  0.00     0.111 A 
HETATM    6  C4  UNL     1      -1.436  -1.679   1.162  1.00  0.00     0.170 A 
HETATM    7  N2  UNL     1      -1.562  -0.503   0.581  1.00  0.00    -0.210 N 
ENDROOT
BRANCH   7   8
HETATM    8  N3  UNL     1      -0.624   0.587   0.751  1.00  0.00    -0.297 N 
HETATM    9  C5  UNL     1       0.469   0.601   0.094  1.00  0.00     0.022 C 
HETATM   10  C6  UNL     1       0.925  -0.426  -0.886  1.00  0.00     0.056 C 
HETATM   11  C9  UNL     1       1.530   1.641   0.196  1.00  0.00     0.129 C 
HETATM   12  C7  UNL     1       2.431  -0.391  -0.812  1.00  0.00     0.008 C 
HETATM   13  C8  UNL     1       2.808   0.840  -0.032  1.00  0.00     0.026 C 
HETATM   14 CL1  UNL     1       1.468   2.834  -1.116  1.00  0.00    -0.119 Cl
ATOM     15  H3  UNL     1      -0.838   1.346   1.398  1.00  0.00     0.187 HD
ENDBRANCH   7   8
BRANCH   6  16
HETATM   16  O2  UNL     1      -0.334  -1.952   2.031  1.00  0.00    -0.344 OA
ATOM     17  H2  UNL     1       0.321  -1.284   2.197  1.00  0.00     0.219 HD
ENDBRANCH   6  16
BRANCH   1  18
HETATM   18  C1  UNL     1      -2.312   1.957  -0.952  1.00  0.00     0.354 C 
HETATM   19  O1  UNL     1      -2.575   2.831  -0.086  1.00  0.00    -0.283 OA
ENDBRANCH   1  18
TORSDOF 3
