REMARK  7 active torsions:
REMARK  status: ('A' for Active; 'I' for Inactive)
REMARK    1  A    between atoms: N1_1  and  C1_5 
REMARK    2  A    between atoms: C1_5  and  C2_6 
REMARK    3  A    between atoms: C2_6  and  C3_7 
REMARK    4  A    between atoms: C2_6  and  O2_10 
REMARK    5  A    between atoms: C3_7  and  O1_8 
REMARK    6  A    between atoms: O2_10  and  C4_11 
REMARK    7  A    between atoms: C4_11  and  N2_12 
ROOT
HETATM    1  C2  UNL     1      -1.537   0.509  -0.695  1.00  0.00     0.172 C 
ENDROOT
BRANCH   1   2
HETATM    2  C1  UNL     1      -1.824   0.470   0.821  1.00  0.00     0.263 C 
BRANCH   2   3
HETATM    3  N1  UNL     1      -2.655  -0.672   1.143  1.00  0.00    -0.077 N 
ATOM      4  H13 UNL     1      -3.513  -0.686   0.592  1.00  0.00     0.274 HD
ATOM      5  H12 UNL     1      -2.248  -1.546   0.809  1.00  0.00     0.274 HD
ATOM      6  H11 UNL     1      -2.845  -0.698   2.145  1.00  0.00     0.274 HD
ENDBRANCH   2   3
ENDBRANCH   1   2
BRANCH   1   7
HETATM    7  C3  UNL     1      -2.817   0.870  -1.359  1.00  0.00     0.197 C 
BRANCH   7   8
HETATM    8  O1  UNL     1      -3.305   2.085  -0.870  1.00  0.00    -0.398 OA
ATOM      9  H1  UNL     1      -4.123   2.316  -1.294  1.00  0.00     0.209 HD
ENDBRANCH   7   8
ENDBRANCH   1   7
BRANCH   1  10
HETATM   10  O2  UNL     1      -0.913  -0.605  -1.018  1.00  0.00    -0.363 OA
BRANCH  10  11
HETATM   11  C4  UNL     1       0.347  -0.732  -1.417  1.00  0.00     0.299 C 
BRANCH  11  12
HETATM   12  N2  UNL     1       1.379  -0.275  -0.478  1.00  0.00    -0.324 N 
HETATM   13  C5  UNL     1       1.857   0.966  -0.499  1.00  0.00     0.094 A 
HETATM   14  C6  UNL     1       2.831   1.334   0.405  1.00  0.00     0.017 A 
HETATM   15  C7  UNL     1       3.331   0.463   1.334  1.00  0.00     0.005 A 
HETATM   16  C8  UNL     1       2.836  -0.822   1.355  1.00  0.00     0.045 A 
HETATM   17  C9  UNL     1       1.862  -1.168   0.441  1.00  0.00     0.119 A 
HETATM   18  N3  UNL     1       1.377  -2.490   0.490  1.00  0.00    -0.083 NA
ENDBRANCH  11  12
ENDBRANCH  10  11
ENDBRANCH   1  10
TORSDOF 7
