REMARK  7 active torsions:
REMARK  status: ('A' for Active; 'I' for Inactive)
REMARK    1  A    between atoms: O1_2  and  C2_3 
REMARK    2  A    between atoms: C2_3  and  C3_4 
REMARK    3  A    between atoms: C3_4  and  C4_5 
REMARK    4  A    between atoms: C4_5  and  N1_6 
REMARK    5  A    between atoms: N3_18  and  C14_19 
REMARK    6  A    between atoms: C17_22  and  O2_23 
REMARK    7  A    between atoms: C23_30  and  O3_31 
ROOT
HETATM    1  N1  UNL     1       1.675   0.211   0.619  1.00  0.00    -0.012 N 
HETATM    2  C5  UNL     1       0.329   0.488   0.327  1.00  0.00     0.215 C 
HETATM    3  C6  UNL     1      -0.529  -0.147  -0.648  1.00  0.00    -0.006 C 
HETATM    4  C7  UNL     1       0.067  -0.722  -1.901  1.00  0.00     0.043 C 
HETATM    5  C8  UNL     1       0.863  -1.940  -1.732  1.00  0.00     0.010 C 
HETATM    6  C9  UNL     1       1.181  -2.368  -0.342  1.00  0.00     0.001 C 
HETATM    7  C10 UNL     1       0.658  -3.758  -0.191  1.00  0.00     0.011 C 
HETATM    8  C11 UNL     1      -0.805  -3.691  -0.551  1.00  0.00     0.060 C 
HETATM    9  C12 UNL     1      -1.589  -2.517  -0.199  1.00  0.00     0.037 A 
HETATM   10  N2  UNL     1      -2.829  -2.813   0.331  1.00  0.00    -0.354 N 
ATOM     11  H2  UNL     1      -3.173  -3.761   0.481  1.00  0.00     0.166 HD
HETATM   12  C13 UNL     1      -3.514  -1.730   0.619  1.00  0.00     0.184 A 
HETATM   13  N3  UNL     1      -2.747  -0.668   0.288  1.00  0.00    -0.336 N 
HETATM   14  C20 UNL     1      -1.609  -1.108  -0.196  1.00  0.00     0.066 A 
HETATM   15  C21 UNL     1       2.520  -1.960   0.102  1.00  0.00     0.045 C 
HETATM   16  C22 UNL     1       3.670  -2.683  -0.497  1.00  0.00     0.023 C 
HETATM   17  C23 UNL     1       2.656  -1.763   1.602  1.00  0.00     0.157 C 
HETATM   18  C24 UNL     1       1.888  -0.490   1.888  1.00  0.00     0.279 C 
HETATM   19  C25 UNL     1       2.570  -0.442  -0.240  1.00  0.00     0.388 C 
HETATM   20  F1  UNL     1       3.909  -0.189   0.181  1.00  0.00    -0.217 F 
ENDROOT
BRANCH  13  21
HETATM   21  C14 UNL     1      -3.094   0.739   0.418  1.00  0.00     0.091 C 
HETATM   22  C15 UNL     1      -3.763   1.279  -0.800  1.00  0.00     0.028 C 
HETATM   23  C16 UNL     1      -5.262   1.396  -0.728  1.00  0.00     0.034 C 
HETATM   24  C17 UNL     1      -5.601   2.154   0.560  1.00  0.00     0.118 C 
HETATM   25  C18 UNL     1      -5.288   1.120   1.650  1.00  0.00     0.034 C 
HETATM   26  C19 UNL     1      -3.827   0.922   1.709  1.00  0.00     0.028 C 
BRANCH  24  27
HETATM   27  O2  UNL     1      -4.717   3.221   0.626  1.00  0.00    -0.396 OA
ATOM     28  H2  UNL     1      -4.927   3.691   1.424  1.00  0.00     0.210 HD
ENDBRANCH  24  27
ENDBRANCH  13  21
BRANCH   1  29
HETATM   29  C4  UNL     1       2.314   1.527   0.877  1.00  0.00     0.248 C 
BRANCH  29  30
HETATM   30  C3  UNL     1       2.397   2.396  -0.343  1.00  0.00     0.055 C 
BRANCH  30  31
HETATM   31  C2  UNL     1       2.994   3.727   0.033  1.00  0.00     0.168 C 
BRANCH  31  32
HETATM   32  O1  UNL     1       4.252   3.617   0.512  1.00  0.00    -0.396 OA
HETATM   33  C1  UNL     1       5.209   3.187  -0.366  1.00  0.00     0.201 C 
ENDBRANCH  31  32
ENDBRANCH  30  31
ENDBRANCH  29  30
ENDBRANCH   1  29
BRANCH  17  34
HETATM   34  O3  UNL     1       3.956  -1.712   2.030  1.00  0.00    -0.393 OA
ATOM     35  H3  UNL     1       4.041  -1.589   2.968  1.00  0.00     0.210 HD
ENDBRANCH  17  34
TORSDOF 7
