REMARK  6 active torsions:
REMARK  status: ('A' for Active; 'I' for Inactive)
REMARK    1  A    between atoms: C6_6  and  S1_7 
REMARK    2  A    between atoms: C10_14  and  N1_15 
REMARK       I    between atoms: N1_15  and  C11_17 
REMARK       I    between atoms: C11_17  and  N2_19 
REMARK    3  A    between atoms: C14_24  and  C15_25 
REMARK    4  A    between atoms: C15_25  and  C16_26 
REMARK    5  A    between atoms: C16_26  and  C17_27 
REMARK    6  A    between atoms: C17_27  and  C18_28 
ROOT
HETATM    1  N1  UNL     1      -0.057  -0.378  -0.063  1.00  0.00    -0.338 N 
ATOM      2  H1  UNL     1       0.190  -1.136  -0.699  1.00  0.00     0.164 HD
HETATM    3  C11 UNL     1       0.996   0.240   0.631  1.00  0.00     0.320 C 
HETATM    4  O3  UNL     1       0.700   1.181   1.418  1.00  0.00    -0.247 OA
HETATM    5  N2  UNL     1       2.354  -0.145   0.482  1.00  0.00    -0.312 N 
HETATM    6  C12 UNL     1       2.810  -1.219  -0.404  1.00  0.00     0.211 C 
HETATM    7  S2  UNL     1       4.024  -2.022   0.730  1.00  0.00    -0.070 SA
HETATM    8  C13 UNL     1       4.166  -0.671   1.872  1.00  0.00     0.210 C 
HETATM    9  O4  UNL     1       4.669  -0.678   2.943  1.00  0.00    -0.283 OA
HETATM   10  C14 UNL     1       3.513   0.448   1.173  1.00  0.00     0.171 C 
ENDROOT
BRANCH   1  11
HETATM   11  C10 UNL     1      -1.440  -0.044   0.038  1.00  0.00     0.094 C 
HETATM   12  C4  UNL     1      -2.111   0.403  -1.208  1.00  0.00     0.011 C 
HETATM   13  C3  UNL     1      -3.478   0.967  -0.789  1.00  0.00     0.015 C 
HETATM   14  C5  UNL     1      -2.388  -0.680  -2.201  1.00  0.00     0.035 C 
HETATM   15  C2  UNL     1      -4.295  -0.134  -0.188  1.00  0.00    -0.042 C 
HETATM   16  C1  UNL     1      -5.674   0.403   0.145  1.00  0.00     0.015 C 
HETATM   17  C9  UNL     1      -3.615  -0.609   1.078  1.00  0.00     0.015 C 
HETATM   18  C19 UNL     1      -4.458  -1.324  -1.086  1.00  0.00     0.037 C 
HETATM   19  C8  UNL     1      -2.258  -1.154   0.700  1.00  0.00     0.011 C 
HETATM   20  C7  UNL     1      -2.340  -2.295  -0.277  1.00  0.00     0.035 C 
HETATM   21  C6  UNL     1      -3.070  -1.821  -1.491  1.00  0.00     0.095 C 
BRANCH  21  22
HETATM   22  S1  UNL     1      -3.294  -3.138  -2.664  1.00  0.00     0.308 S 
HETATM   23  O1  UNL     1      -4.148  -2.697  -3.807  1.00  0.00    -0.193 OA
HETATM   24  O2  UNL     1      -3.954  -4.326  -1.982  1.00  0.00    -0.193 OA
HETATM   25  F1  UNL     1      -1.818  -3.647  -3.264  1.00  0.00    -0.104 F 
ENDBRANCH  21  22
ENDBRANCH   1  11
BRANCH  10  26
HETATM   26  C15 UNL     1       4.471   1.043   0.162  1.00  0.00     0.034 C 
BRANCH  26  27
HETATM   27  C16 UNL     1       5.651   1.645   0.850  1.00  0.00     0.013 C 
BRANCH  27  28
HETATM   28  C17 UNL     1       5.249   2.747   1.799  1.00  0.00     0.113 C 
BRANCH  28  29
HETATM   29  C18 UNL     1       6.444   3.323   2.459  1.00  0.00     0.172 C 
HETATM   30  O5  UNL     1       7.571   2.862   2.170  1.00  0.00    -0.648 OA
HETATM   31  O6  UNL     1       6.366   4.347   3.378  1.00  0.00    -0.648 OA
ENDBRANCH  28  29
ENDBRANCH  27  28
ENDBRANCH  26  27
ENDBRANCH  10  26
TORSDOF 6
