REMARK  9 active torsions:
REMARK  status: ('A' for Active; 'I' for Inactive)
REMARK    1  A    between atoms: O1_2  and  C2_3 
REMARK    2  A    between atoms: C4_6  and  O2_7 
REMARK    3  A    between atoms: C5_9  and  C6_10 
REMARK    4  A    between atoms: C6_10  and  C7_11 
REMARK    5  A    between atoms: C6_10  and  C10_18 
REMARK    6  A    between atoms: C7_11  and  S1_12 
REMARK    7  A    between atoms: S1_12  and  C8_13 
REMARK    8  A    between atoms: C8_13  and  C9_15 
REMARK    9  A    between atoms: C10_18  and  O6_20 
ROOT
HETATM    1  C2  UNL     1      -3.643   0.520   0.677  1.00  0.00     0.116 A 
HETATM    2  C3  UNL     1      -3.282  -0.458  -0.184  1.00  0.00     0.103 A 
HETATM    3 CL1  UNL     1      -4.514  -1.467  -0.909  1.00  0.00    -0.078 Cl
HETATM    4  C4  UNL     1      -1.912  -0.636  -0.505  1.00  0.00     0.102 A 
HETATM    5  C5  UNL     1      -0.899   0.124   0.001  1.00  0.00     0.028 A 
HETATM    6  C13 UNL     1      -1.357   1.123   0.901  1.00  0.00     0.072 A 
HETATM    7 CL2  UNL     1      -0.219   2.073   1.831  1.00  0.00    -0.081 Cl
HETATM    8  C14 UNL     1      -2.678   1.307   1.215  1.00  0.00     0.091 A 
HETATM    9 CL3  UNL     1      -3.141   2.591   2.354  1.00  0.00    -0.079 Cl
ENDROOT
BRANCH   5  10
HETATM   10  C6  UNL     1       0.534  -0.117  -0.124  1.00  0.00    -0.027 C 
BRANCH  10  11
HETATM   11  C7  UNL     1       1.138   1.199  -0.598  1.00  0.00     0.120 C 
BRANCH  11  12
HETATM   12  S1  UNL     1       2.884   1.214  -0.777  1.00  0.00    -0.076 SA
BRANCH  12  13
HETATM   13  C8  UNL     1       3.892   1.169   0.649  1.00  0.00     0.285 C 
HETATM   14  O3  UNL     1       3.599   0.857   1.825  1.00  0.00    -0.273 OA
BRANCH  13  15
HETATM   15  C9  UNL     1       5.332   1.574   0.398  1.00  0.00     0.258 C 
HETATM   16  O4  UNL     1       5.679   1.911  -0.769  1.00  0.00    -0.641 OA
HETATM   17  O5  UNL     1       6.204   1.564   1.427  1.00  0.00    -0.641 OA
ENDBRANCH  13  15
ENDBRANCH  12  13
ENDBRANCH  11  12
ENDBRANCH  10  11
BRANCH  10  18
HETATM   18  C10 UNL     1       1.146  -1.290  -0.692  1.00  0.00     0.147 C 
HETATM   19  C11 UNL     1       1.073  -1.719  -2.081  1.00  0.00     0.044 C 
BRANCH  18  20
HETATM   20  O6  UNL     1       0.583  -2.393   0.062  1.00  0.00    -0.387 OA
HETATM   21  C12 UNL     1       1.567  -2.980   0.823  1.00  0.00     0.202 C 
ENDBRANCH  18  20
ENDBRANCH  10  18
ENDBRANCH   5  10
BRANCH   4  22
HETATM   22  O2  UNL     1      -1.712  -1.673  -1.390  1.00  0.00    -0.358 OA
ATOM     23  H2  UNL     1      -0.794  -1.792  -1.605  1.00  0.00     0.217 HD
ENDBRANCH   4  22
BRANCH   1  24
HETATM   24  O1  UNL     1      -4.972   0.769   1.047  1.00  0.00    -0.352 OA
HETATM   25  C1  UNL     1      -5.675   1.734   0.261  1.00  0.00     0.210 C 
ENDBRANCH   1  24
TORSDOF 9
