REMARK  9 active torsions:
REMARK  status: ('A' for Active; 'I' for Inactive)
REMARK    1  A    between atoms: N1_1  and  C1_4 
REMARK    2  A    between atoms: C3_10  and  N4_11 
REMARK    3  A    between atoms: C6_14  and  O1_15 
REMARK    4  A    between atoms: O1_15  and  C7_16 
REMARK    5  A    between atoms: C7_16  and  C8_17 
REMARK    6  A    between atoms: C13_24  and  C14_25 
REMARK    7  A    between atoms: C14_25  and  S1_26 
REMARK    8  A    between atoms: S1_26  and  C15_27 
REMARK    9  A    between atoms: C15_27  and  N5_28 
ROOT
HETATM    1  N4  UNL     1      -3.426  -0.129  -0.440  1.00  0.00    -0.366 N 
HETATM    2  C4  UNL     1      -2.363  -1.034  -0.658  1.00  0.00     0.127 C 
HETATM    3  C5  UNL     1      -1.332  -0.314  -1.512  1.00  0.00     0.052 C 
HETATM    4  C6  UNL     1      -0.790   0.869  -0.697  1.00  0.00     0.131 C 
HETATM    5  C16 UNL     1      -1.867   1.685  -0.144  1.00  0.00     0.052 C 
HETATM    6  C17 UNL     1      -3.210   1.316  -0.805  1.00  0.00     0.127 C 
ENDROOT
BRANCH   4   7
HETATM    7  O1  UNL     1       0.070   0.311   0.302  1.00  0.00    -0.357 OA
BRANCH   7   8
HETATM    8  C7  UNL     1       1.346   0.431  -0.219  1.00  0.00     0.147 C 
BRANCH   8   9
HETATM    9  C8  UNL     1       2.465   0.314   0.663  1.00  0.00    -0.005 A 
HETATM   10  C9  UNL     1       2.387  -0.029   1.979  1.00  0.00     0.041 A 
HETATM   11  C10 UNL     1       3.509  -0.124   2.796  1.00  0.00     0.073 A 
HETATM   12 CL1  UNL     1       3.464  -0.690   4.460  1.00  0.00    -0.081 Cl
HETATM   13  C11 UNL     1       4.737   0.146   2.262  1.00  0.00     0.138 A 
HETATM   14  F1  UNL     1       5.869   0.101   3.027  1.00  0.00    -0.204 F 
HETATM   15  C12 UNL     1       4.775   0.485   0.926  1.00  0.00     0.052 A 
HETATM   16  C13 UNL     1       3.719   0.575   0.076  1.00  0.00    -0.034 A 
BRANCH  16  17
HETATM   17  C14 UNL     1       3.861   0.984  -1.309  1.00  0.00     0.115 C 
BRANCH  17  18
HETATM   18  S1  UNL     1       5.061  -0.065  -2.129  1.00  0.00    -0.138 SA
BRANCH  18  19
HETATM   19  C15 UNL     1       6.648  -0.202  -1.446  1.00  0.00     0.303 C 
BRANCH  19  20
HETATM   20  N5  UNL     1       7.470  -1.272  -2.089  1.00  0.00    -0.071 N 
ATOM     21  H53 UNL     1       6.984  -2.169  -2.064  1.00  0.00     0.275 HD
ATOM     22  H52 UNL     1       7.519  -1.137  -3.099  1.00  0.00     0.275 HD
ATOM     23  H51 UNL     1       8.404  -1.353  -1.687  1.00  0.00     0.275 HD
ENDBRANCH  19  20
ENDBRANCH  18  19
ENDBRANCH  17  18
ENDBRANCH  16  17
ENDBRANCH   8   9
ENDBRANCH   7   8
ENDBRANCH   4   7
BRANCH   1  24
HETATM   24  C3  UNL     1      -4.699  -0.428   0.108  1.00  0.00     0.130 A 
HETATM   25  N3  UNL     1      -4.891   0.110   1.342  1.00  0.00    -0.337 N 
HETATM   26  C2  UNL     1      -6.063   0.007   1.984  1.00  0.00     0.183 A 
ATOM     27  H3  UNL     1      -4.121   0.606   1.792  1.00  0.00     0.168 HD
HETATM   28  N2  UNL     1      -7.078  -0.636   1.408  1.00  0.00    -0.337 N 
HETATM   29  C1  UNL     1      -6.923  -1.189   0.178  1.00  0.00     0.125 A 
ATOM     30  H2  UNL     1      -7.973  -0.713   1.892  1.00  0.00     0.168 HD
HETATM   31  C18 UNL     1      -5.711  -1.091  -0.491  1.00  0.00     0.121 A 
HETATM   32 CL2  UNL     1      -5.510  -1.786  -2.062  1.00  0.00    -0.076 Cl
BRANCH  29  33
HETATM   33  N1  UNL     1      -7.937  -1.782  -0.331  1.00  0.00    -0.384 N 
ATOM     34  H12 UNL     1      -8.828  -1.854   0.161  1.00  0.00     0.157 HD
ATOM     35  H11 UNL     1      -7.821  -2.198  -1.255  1.00  0.00     0.157 HD
ENDBRANCH  29  33
ENDBRANCH   1  24
TORSDOF 9
