REMARK  9 active torsions:
REMARK  status: ('A' for Active; 'I' for Inactive)
REMARK    1  A    between atoms: C4_4  and  C5_5 
REMARK    2  A    between atoms: C5_5  and  C6_6 
REMARK    3  A    between atoms: C8_10  and  C9_11 
REMARK    4  A    between atoms: C9_11  and  N2_12 
REMARK    5  A    between atoms: C12_17  and  N4_18 
REMARK    6  A    between atoms: N6_24  and  C14_25 
REMARK    7  A    between atoms: C14_25  and  C15_26 
REMARK    8  A    between atoms: C15_26  and  C16_27 
REMARK    9  A    between atoms: C16_27  and  N7_28 
ROOT
HETATM    1  C6  UNL     1      -0.927   0.415   0.102  1.00  0.00     0.089 A 
HETATM    2  N1  UNL     1       0.089  -0.485   0.292  1.00  0.00    -0.341 N 
ATOM      3  H1  UNL     1      -0.019  -1.407   0.715  1.00  0.00     0.167 HD
HETATM    4  C7  UNL     1       1.245   0.022  -0.159  1.00  0.00     0.104 A 
HETATM    5  C8  UNL     1       2.548  -0.414  -0.230  1.00  0.00     0.085 A 
HETATM    6  N3  UNL     1       3.536   0.353  -0.761  1.00  0.00    -0.192 N 
ATOM      7  H3  UNL     1       4.499   0.020  -0.808  1.00  0.00     0.184 HD
HETATM    8  C12 UNL     1       3.196   1.563  -1.220  1.00  0.00     0.677 A 
HETATM    9  N5  UNL     1       1.918   2.012  -1.161  1.00  0.00    -0.174 N 
ATOM     10  H5  UNL     1       1.704   2.941  -1.524  1.00  0.00     0.186 HD
HETATM   11  C13 UNL     1       0.916   1.267  -0.636  1.00  0.00     0.153 A 
HETATM   12  N6  UNL     1      -0.421   1.493  -0.467  1.00  0.00    -0.320 N 
ENDROOT
BRANCH   1  13
HETATM   13  C5  UNL     1      -2.330   0.180   0.523  1.00  0.00     0.117 C 
BRANCH  13  14
HETATM   14  C4  UNL     1      -2.916  -1.073  -0.025  1.00  0.00    -0.029 A 
HETATM   15  C3  UNL     1      -3.021  -2.203   0.806  1.00  0.00     0.017 A 
HETATM   16  C2  UNL     1      -3.541  -3.401   0.384  1.00  0.00    -0.040 A 
HETATM   17  C1  UNL     1      -3.643  -4.588   1.286  1.00  0.00     0.050 C 
HETATM   18  C19 UNL     1      -3.995  -3.552  -0.905  1.00  0.00     0.041 A 
HETATM   19  C18 UNL     1      -3.900  -2.458  -1.732  1.00  0.00     0.048 A 
HETATM   20 CL2  UNL     1      -4.659  -5.082  -1.446  1.00  0.00    -0.084 Cl
HETATM   21  C17 UNL     1      -3.370  -1.230  -1.309  1.00  0.00     0.042 A 
HETATM   22 CL1  UNL     1      -3.312   0.094  -2.454  1.00  0.00    -0.084 Cl
ENDBRANCH  13  14
ENDBRANCH   1  13
BRANCH  12  23
HETATM   23  C14 UNL     1      -1.031   2.734  -0.853  1.00  0.00     0.133 C 
BRANCH  23  24
HETATM   24  C15 UNL     1      -0.975   3.766   0.266  1.00  0.00     0.047 C 
BRANCH  24  25
HETATM   25  C16 UNL     1      -1.641   5.021  -0.251  1.00  0.00     0.231 C 
BRANCH  25  26
HETATM   26  N7  UNL     1      -1.640   6.074   0.746  1.00  0.00    -0.079 N 
ATOM     27  H73 UNL     1      -2.063   5.761   1.620  1.00  0.00     0.274 HD
ATOM     28  H72 UNL     1      -0.697   6.265   1.086  1.00  0.00     0.274 HD
ATOM     29  H71 UNL     1      -2.089   6.921   0.397  1.00  0.00     0.274 HD
ENDBRANCH  25  26
ENDBRANCH  24  25
ENDBRANCH  23  24
ENDBRANCH  12  23
BRANCH   5  30
HETATM   30  C9  UNL     1       2.814  -1.773   0.307  1.00  0.00     0.331 C 
BRANCH  30  31
HETATM   31  N2  UNL     1       4.239  -2.051   0.147  1.00  0.00     0.085 N 
HETATM   32  C10 UNL     1       4.565  -3.379   0.640  1.00  0.00     0.309 C 
HETATM   33  C11 UNL     1       4.965  -1.112   1.013  1.00  0.00     0.309 C 
ENDBRANCH  30  31
ENDBRANCH   5  30
BRANCH   8  34
HETATM   34  N4  UNL     1       4.073   2.330  -1.730  1.00  0.00    -0.234 N 
ATOM     35  H42 UNL     1       5.034   1.992  -1.774  1.00  0.00     0.174 HD
ATOM     36  H41 UNL     1       3.814   3.252  -2.080  1.00  0.00     0.174 HD
ENDBRANCH   8  34
TORSDOF 9
