REMARK  9 active torsions:
REMARK  status: ('A' for Active; 'I' for Inactive)
REMARK    1  A    between atoms: N1_1  and  C1_4 
REMARK    2  A    between atoms: N4_15  and  C7_16 
REMARK    3  A    between atoms: C7_16  and  C8_17 
REMARK    4  A    between atoms: C8_17  and  C9_18 
REMARK    5  A    between atoms: C9_18  and  C10_19 
REMARK    6  A    between atoms: C10_19  and  C11_20 
REMARK    7  A    between atoms: C11_20  and  C12_21 
REMARK    8  A    between atoms: C12_21  and  C13_22 
REMARK    9  A    between atoms: C13_22  and  O2_23 
ROOT
HETATM    1  C1  UNL     1       5.796  -0.375   0.792  1.00  0.00     0.679 A 
HETATM    2  N2  UNL     1       4.922   0.548   0.368  1.00  0.00    -0.195 N 
ATOM      3  H2  UNL     1       5.229   1.521   0.355  1.00  0.00     0.184 HD
HETATM    4  C2  UNL     1       3.670   0.282  -0.041  1.00  0.00     0.040 A 
HETATM    5  C3  UNL     1       3.252  -1.027  -0.023  1.00  0.00     0.035 A 
HETATM    6  C4  UNL     1       4.133  -2.012   0.412  1.00  0.00     0.267 A 
HETATM    7  O1  UNL     1       3.789  -3.208   0.441  1.00  0.00    -0.267 OA
HETATM    8  N3  UNL     1       5.368  -1.655   0.803  1.00  0.00    -0.156 N 
ATOM      9  H3  UNL     1       6.009  -2.382   1.121  1.00  0.00     0.187 HD
HETATM   10  C5  UNL     1       1.966  -1.597  -0.408  1.00  0.00     0.076 C 
HETATM   11  C6  UNL     1       0.762  -0.942   0.222  1.00  0.00     0.277 C 
HETATM   12  N4  UNL     1       0.928   0.443   0.485  1.00  0.00     0.089 N 
HETATM   13  C14 UNL     1       1.447   1.229  -0.601  1.00  0.00     0.278 C 
HETATM   14  C15 UNL     1       2.923   1.513  -0.460  1.00  0.00     0.088 C 
ENDROOT
BRANCH  12  15
HETATM   15  C7  UNL     1      -0.313   1.017   0.929  1.00  0.00     0.272 C 
BRANCH  15  16
HETATM   16  C8  UNL     1      -1.382   1.083  -0.150  1.00  0.00     0.030 C 
BRANCH  16  17
HETATM   17  C9  UNL     1      -2.619   1.712   0.453  1.00  0.00     0.002 C 
BRANCH  17  18
HETATM   18  C10 UNL     1      -3.704   1.806  -0.581  1.00  0.00     0.000 C 
BRANCH  18  19
HETATM   19  C11 UNL     1      -4.077   0.455  -1.107  1.00  0.00     0.002 C 
BRANCH  19  20
HETATM   20  C12 UNL     1      -4.563  -0.415   0.046  1.00  0.00     0.026 C 
BRANCH  20  21
HETATM   21  C13 UNL     1      -4.959  -1.793  -0.449  1.00  0.00     0.164 C 
BRANCH  21  22
HETATM   22  O2  UNL     1      -5.994  -1.701  -1.399  1.00  0.00    -0.401 OA
ATOM     23  H2  UNL     1      -6.242  -2.564  -1.709  1.00  0.00     0.209 HD
ENDBRANCH  21  22
ENDBRANCH  20  21
ENDBRANCH  19  20
ENDBRANCH  18  19
ENDBRANCH  17  18
ENDBRANCH  16  17
ENDBRANCH  15  16
ENDBRANCH  12  15
BRANCH   1  24
HETATM   24  N1  UNL     1       6.998  -0.036   1.173  1.00  0.00    -0.234 N 
ATOM     25  H12 UNL     1       7.321   0.931   1.165  1.00  0.00     0.174 HD
ATOM     26  H11 UNL     1       7.663  -0.739   1.496  1.00  0.00     0.174 HD
ENDBRANCH   1  24
TORSDOF 9
