REMARK  14 active torsions:
REMARK  status: ('A' for Active; 'I' for Inactive)
REMARK    1  A    between atoms: C2_2  and  C3_4 
REMARK    2  A    between atoms: C3_4  and  C4_5 
REMARK    3  A    between atoms: C4_5  and  C5_6 
REMARK    4  A    between atoms: C5_6  and  N1_7 
REMARK    5  A    between atoms: C5_6  and  C15_23 
REMARK       I    between atoms: N1_7  and  C6_9 
REMARK    6  A    between atoms: C6_9  and  C7_11 
REMARK    7  A    between atoms: C7_11  and  C8_12 
REMARK    8  A    between atoms: C8_12  and  C9_13 
REMARK    9  A    between atoms: C9_13  and  C10_14 
REMARK   10  A    between atoms: C10_14  and  C11_15 
REMARK   11  A    between atoms: C11_15  and  N2_16 
REMARK       I    between atoms: C15_23  and  N4_25 
REMARK   12  A    between atoms: N4_25  and  C16_27 
REMARK   13  A    between atoms: C16_27  and  C17_28 
REMARK   14  A    between atoms: C17_28  and  C18_30 
REMARK       I    between atoms: C18_30  and  N5_32 
ROOT
HETATM    1  C5  UNL     1      -1.440  -2.345   0.759  1.00  0.00     0.177 C 
ENDROOT
BRANCH   1   2
HETATM    2  C4  UNL     1      -0.905  -3.706   0.614  1.00  0.00     0.042 C 
BRANCH   2   3
HETATM    3  C3  UNL     1      -0.556  -4.116  -0.788  1.00  0.00     0.080 C 
BRANCH   3   4
HETATM    4  C2  UNL     1      -0.003  -5.498  -0.800  1.00  0.00     0.123 C 
HETATM    5  C1  UNL     1       0.275  -6.164   0.494  1.00  0.00     0.091 C 
HETATM    6  O1  UNL     1       0.205  -6.038  -1.861  1.00  0.00    -0.298 OA
ENDBRANCH   3   4
ENDBRANCH   2   3
ENDBRANCH   1   2
BRANCH   1   7
HETATM    7  N1  UNL     1      -2.654  -2.058   0.026  1.00  0.00    -0.348 N 
HETATM    8  C6  UNL     1      -3.653  -1.153   0.414  1.00  0.00     0.218 C 
HETATM    9  O2  UNL     1      -3.511  -0.507   1.480  1.00  0.00    -0.274 OA
ATOM     10  H1  UNL     1      -2.796  -2.559  -0.851  1.00  0.00     0.163 HD
BRANCH   8  11
HETATM   11  C7  UNL     1      -4.851  -0.951  -0.407  1.00  0.00     0.103 C 
BRANCH  11  12
HETATM   12  C8  UNL     1      -5.508   0.361   0.053  1.00  0.00     0.009 C 
BRANCH  12  13
HETATM   13  C9  UNL     1      -6.748   0.547  -0.745  1.00  0.00     0.002 C 
BRANCH  13  14
HETATM   14  C10 UNL     1      -7.411   1.836  -0.399  1.00  0.00     0.020 C 
BRANCH  14  15
HETATM   15  C11 UNL     1      -7.787   1.975   1.060  1.00  0.00     0.127 C 
BRANCH  15  16
HETATM   16  N2  UNL     1      -8.433   3.239   1.320  1.00  0.00    -0.333 N 
HETATM   17  C12 UNL     1      -9.846   3.518   1.290  1.00  0.00     0.147 C 
HETATM   18  C13 UNL     1      -9.939   5.010   1.032  1.00  0.00     0.144 C 
HETATM   19  N3  UNL     1      -8.596   5.545   1.218  1.00  0.00    -0.341 N 
HETATM   20  C14 UNL     1      -7.791   4.453   1.659  1.00  0.00     0.318 C 
ATOM     21  H3  UNL     1      -8.293   6.507   1.064  1.00  0.00     0.164 HD
HETATM   22  O3  UNL     1      -6.698   4.584   2.247  1.00  0.00    -0.247 OA
ENDBRANCH  15  16
ENDBRANCH  14  15
ENDBRANCH  13  14
ENDBRANCH  12  13
ENDBRANCH  11  12
ENDBRANCH   8  11
ENDBRANCH   1   7
BRANCH   1  23
HETATM   23  C15 UNL     1      -0.473  -1.264   0.450  1.00  0.00     0.240 C 
HETATM   24  O4  UNL     1      -0.920  -0.108   0.259  1.00  0.00    -0.271 OA
HETATM   25  N4  UNL     1       0.907  -1.521   0.376  1.00  0.00    -0.352 N 
ATOM     26  H4  UNL     1       1.298  -2.455   0.501  1.00  0.00     0.162 HD
BRANCH  25  27
HETATM   27  C16 UNL     1       1.747  -0.342   0.104  1.00  0.00     0.211 C 
BRANCH  27  28
HETATM   28  C17 UNL     1       3.163  -0.819   0.002  1.00  0.00     0.234 C 
HETATM   29  O5  UNL     1       3.341  -1.861  -0.651  1.00  0.00    -0.285 OA
BRANCH  28  30
HETATM   30  C18 UNL     1       4.194  -0.045   0.658  1.00  0.00     0.291 C 
HETATM   31  O6  UNL     1       3.816   0.897   1.456  1.00  0.00    -0.264 OA
HETATM   32  N5  UNL     1       5.597  -0.250   0.484  1.00  0.00    -0.345 N 
HETATM   33  C19 UNL     1       6.042  -1.191  -0.496  1.00  0.00     0.127 C 
HETATM   34  C27 UNL     1       6.526   0.485   1.333  1.00  0.00     0.127 C 
HETATM   35  C20 UNL     1       7.455  -0.935  -0.911  1.00  0.00     0.029 C 
HETATM   36  C21 UNL     1       7.825   0.500  -0.792  1.00  0.00    -0.037 C 
HETATM   37  C22 UNL     1       9.201   0.723  -1.395  1.00  0.00     0.010 C 
HETATM   38  C25 UNL     1       6.898   1.372  -1.620  1.00  0.00     0.010 C 
HETATM   39  C26 UNL     1       7.732   1.001   0.639  1.00  0.00     0.029 C 
HETATM   40  C23 UNL     1       9.100   1.883  -2.338  1.00  0.00     0.001 C 
HETATM   41  C24 UNL     1       7.808   2.550  -1.996  1.00  0.00     0.001 C 
ENDBRANCH  28  30
ENDBRANCH  27  28
ENDBRANCH  25  27
ENDBRANCH   1  23
TORSDOF 14
