REMARK  15 active torsions:
REMARK  status: ('A' for Active; 'I' for Inactive)
REMARK    1  A    between atoms: C2_2  and  N1_3 
REMARK    2  A    between atoms: N1_3  and  C3_4 
REMARK       I    between atoms: N1_3  and  C5_6 
REMARK    3  A    between atoms: C5_6  and  C6_8 
REMARK    4  A    between atoms: C6_8  and  N2_9 
REMARK    5  A    between atoms: C6_8  and  C22_32 
REMARK       I    between atoms: N2_9  and  C7_11 
REMARK    6  A    between atoms: C7_11  and  C8_13 
REMARK       I    between atoms: N3_16  and  C11_17 
REMARK    7  A    between atoms: C11_17  and  C12_19 
REMARK    8  A    between atoms: C12_19  and  C13_20 
REMARK    9  A    between atoms: C12_19  and  N4_24 
REMARK   10  A    between atoms: C13_20  and  C14_21 
REMARK       I    between atoms: N4_24  and  C17_26 
REMARK   11  A    between atoms: C17_26  and  C18_28 
REMARK       I    between atoms: C22_32  and  N5_34 
REMARK   12  A    between atoms: N5_34  and  C23_36 
REMARK   13  A    between atoms: C23_36  and  C24_37 
REMARK   14  A    between atoms: C23_36  and  C31_44 
REMARK   15  A    between atoms: C24_37  and  C25_38 
ROOT
HETATM    1  C6  UNL     1       1.922  -1.857   0.440  1.00  0.00     0.269 C 
ENDROOT
BRANCH   1   2
HETATM    2  C5  UNL     1       2.666  -3.024   0.044  1.00  0.00     0.252 C 
HETATM    3  N1  UNL     1       2.828  -4.229   0.808  1.00  0.00    -0.351 N 
HETATM    4  O1  UNL     1       3.278  -3.103  -1.073  1.00  0.00    -0.270 OA
BRANCH   3   5
HETATM    5  C2  UNL     1       3.912  -5.149   0.540  1.00  0.00     0.121 C 
HETATM    6  C1  UNL     1       3.571  -6.095  -0.583  1.00  0.00     0.026 C 
ENDBRANCH   3   5
BRANCH   3   7
HETATM    7  C3  UNL     1       1.801  -4.578   1.776  1.00  0.00     0.121 C 
HETATM    8  C4  UNL     1       0.766  -5.401   0.973  1.00  0.00     0.026 C 
ENDBRANCH   3   7
ENDBRANCH   1   2
BRANCH   1   9
HETATM    9  N2  UNL     1       0.899  -1.393  -0.391  1.00  0.00    -0.338 N 
HETATM   10  C7  UNL     1      -0.365  -0.792  -0.020  1.00  0.00     0.241 C 
HETATM   11  O2  UNL     1      -0.592  -0.539   1.211  1.00  0.00    -0.271 OA
ATOM     12  H2  UNL     1       1.065  -1.491  -1.393  1.00  0.00     0.163 HD
BRANCH  10  13
HETATM   13  C8  UNL     1      -1.297  -0.549  -1.050  1.00  0.00     0.180 C 
HETATM   14  C9  UNL     1      -1.092   0.269  -2.252  1.00  0.00     0.055 C 
HETATM   15  C10 UNL     1      -2.594  -0.219  -2.457  1.00  0.00     0.129 C 
HETATM   16  N3  UNL     1      -2.598   0.001  -0.928  1.00  0.00    -0.337 N 
HETATM   17  C11 UNL     1      -3.634   0.663  -0.247  1.00  0.00     0.243 C 
HETATM   18  O3  UNL     1      -3.469   1.346   0.749  1.00  0.00    -0.271 OA
BRANCH  17  19
HETATM   19  C12 UNL     1      -5.068   0.494  -0.795  1.00  0.00     0.177 C 
BRANCH  19  20
HETATM   20  C13 UNL     1      -5.481  -0.850  -0.323  1.00  0.00     0.038 C 
BRANCH  20  21
HETATM   21  C14 UNL     1      -6.760  -1.442  -0.652  1.00  0.00    -0.020 C 
HETATM   22  C15 UNL     1      -8.034  -0.760  -0.233  1.00  0.00     0.009 C 
HETATM   23  C16 UNL     1      -6.807  -2.770   0.218  1.00  0.00     0.009 C 
ENDBRANCH  20  21
ENDBRANCH  19  20
BRANCH  19  24
HETATM   24  N4  UNL     1      -5.905   1.601  -0.588  1.00  0.00    -0.347 N 
HETATM   25  C17 UNL     1      -6.452   2.077   0.621  1.00  0.00     0.226 C 
HETATM   26  O4  UNL     1      -6.225   1.533   1.739  1.00  0.00    -0.273 OA
ATOM     27  H4  UNL     1      -6.150   2.132  -1.424  1.00  0.00     0.163 HD
BRANCH  25  28
HETATM   28  C18 UNL     1      -7.348   3.264   0.670  1.00  0.00     0.030 C 
HETATM   29  C19 UNL     1      -7.995   3.442   2.034  1.00  0.00     0.024 C 
HETATM   30  C20 UNL     1      -8.473   3.198  -0.341  1.00  0.00     0.024 C 
HETATM   31  C21 UNL     1      -6.548   4.508   0.302  1.00  0.00     0.024 C 
ENDBRANCH  25  28
ENDBRANCH  19  24
ENDBRANCH  17  19
ENDBRANCH  10  13
ENDBRANCH   1   9
BRANCH   1  32
HETATM   32  C22 UNL     1       2.951  -0.742   0.690  1.00  0.00     0.250 C 
HETATM   33  O5  UNL     1       2.775  -0.066   1.703  1.00  0.00    -0.271 OA
HETATM   34  N5  UNL     1       3.940  -0.615  -0.236  1.00  0.00    -0.347 N 
ATOM     35  H5  UNL     1       3.799  -1.230  -1.037  1.00  0.00     0.163 HD
BRANCH  34  36
HETATM   36  C23 UNL     1       5.175   0.201  -0.365  1.00  0.00     0.154 C 
BRANCH  36  37
HETATM   37  C24 UNL     1       4.918   1.448   0.403  1.00  0.00     0.037 C 
BRANCH  37  38
HETATM   38  C25 UNL     1       5.997   2.468   0.499  1.00  0.00    -0.012 C 
HETATM   39  C26 UNL     1       6.492   3.102  -0.754  1.00  0.00     0.005 C 
HETATM   40  C27 UNL     1       7.060   4.481  -0.299  1.00  0.00     0.000 C 
HETATM   41  C28 UNL     1       7.951   4.300   0.880  1.00  0.00     0.000 C 
HETATM   42  C29 UNL     1       8.349   2.870   1.161  1.00  0.00     0.000 C 
HETATM   43  C30 UNL     1       7.236   1.877   1.193  1.00  0.00     0.005 C 
ENDBRANCH  37  38
ENDBRANCH  36  37
BRANCH  36  44
HETATM   44  C31 UNL     1       5.397   0.284  -1.789  1.00  0.00     0.145 C 
HETATM   45  C32 UNL     1       6.657   0.024  -2.489  1.00  0.00     0.093 C 
HETATM   46  O6  UNL     1       4.440   0.581  -2.499  1.00  0.00    -0.296 OA
ENDBRANCH  36  44
ENDBRANCH  34  36
ENDBRANCH   1  32
TORSDOF 15
