REMARK  4 active torsions:
REMARK  status: ('A' for Active; 'I' for Inactive)
REMARK    1  A    between atoms: C5_6  and  N1_7 
REMARK       I    between atoms: N1_7  and  C6_9 
REMARK    2  A    between atoms: C6_9  and  C7_11 
REMARK    3  A    between atoms: C7_11  and  S1_12 
REMARK    4  A    between atoms: S1_12  and  C8_13 
ROOT
HETATM    1  C7  UNL     1      -0.558  -1.176   0.141  1.00  0.00     0.185 C 
ENDROOT
BRANCH   1   2
HETATM    2  C6  UNL     1       0.820  -0.661   0.412  1.00  0.00     0.232 C 
HETATM    3  N1  UNL     1       1.817  -0.901  -0.560  1.00  0.00    -0.318 N 
ATOM      4  H1  UNL     1       1.536  -1.369  -1.421  1.00  0.00     0.169 HD
HETATM    5  O1  UNL     1       1.025  -0.056   1.480  1.00  0.00    -0.272 OA
BRANCH   3   6
HETATM    6  C5  UNL     1       3.185  -0.536  -0.423  1.00  0.00     0.116 A 
HETATM    7  C4  UNL     1       4.218  -0.708  -1.318  1.00  0.00     0.151 A 
HETATM    8  C3  UNL     1       5.428  -0.352  -0.914  1.00  0.00     0.059 A 
HETATM    9  F1  UNL     1       3.932  -1.222  -2.572  1.00  0.00    -0.203 F 
HETATM   10  C2  UNL     1       5.589   0.152   0.343  1.00  0.00    -0.016 A 
HETATM   11  C1  UNL     1       6.868   0.570   1.014  1.00  0.00     0.056 C 
HETATM   12  S2  UNL     1       3.977   0.116   0.939  1.00  0.00    -0.074 SA
ENDBRANCH   3   6
ENDBRANCH   1   2
BRANCH   1  13
HETATM   13  S1  UNL     1      -1.630  -0.816   1.529  1.00  0.00    -0.085 SA
BRANCH  13  14
HETATM   14  C8  UNL     1      -3.005   0.196   1.032  1.00  0.00     0.146 A 
HETATM   15  N2  UNL     1      -4.136  -0.436   0.592  1.00  0.00    -0.339 N 
HETATM   16  C9  UNL     1      -5.252   0.176   0.227  1.00  0.00     0.032 A 
ATOM     17  H2  UNL     1      -4.118  -1.455   0.541  1.00  0.00     0.168 HD
HETATM   18  C10 UNL     1      -6.445  -0.574  -0.248  1.00  0.00     0.070 C 
HETATM   19  C11 UNL     1      -5.306   1.545   0.285  1.00  0.00     0.094 A 
HETATM   20 CL1  UNL     1      -6.765   2.412  -0.151  1.00  0.00    -0.079 Cl
HETATM   21  C12 UNL     1      -4.182   2.197   0.720  1.00  0.00     0.129 A 
HETATM   22 CL2  UNL     1      -4.224   3.932   0.801  1.00  0.00    -0.062 Cl
HETATM   23  N3  UNL     1      -3.051   1.527   1.088  1.00  0.00    -0.326 N 
ATOM     24  H3  UNL     1      -2.235   2.049   1.408  1.00  0.00     0.169 HD
ENDBRANCH  13  14
ENDBRANCH   1  13
TORSDOF 4
