REMARK  4 active torsions:
REMARK  status: ('A' for Active; 'I' for Inactive)
REMARK    1  A    between atoms: C2_2  and  N2_6 
REMARK    2  A    between atoms: N2_6  and  C3_8 
REMARK    3  A    between atoms: C6_11  and  C7_12 
REMARK    4  A    between atoms: C7_12  and  C8_13 
ROOT
HETATM    1  C3  UNL     1       2.921  -1.162   0.109  1.00  0.00     0.082 C 
HETATM    2  C4  UNL     1       2.385  -0.312   1.233  1.00  0.00     0.025 C 
HETATM    3  C5  UNL     1       1.327   0.614   0.604  1.00  0.00     0.007 C 
HETATM    4  C6  UNL     1       0.144  -0.225   0.337  1.00  0.00    -0.002 C 
HETATM    5  C19 UNL     1       0.524  -1.316  -0.634  1.00  0.00     0.007 C 
HETATM    6  C20 UNL     1       1.981  -1.229  -1.054  1.00  0.00     0.025 C 
ENDROOT
BRANCH   4   7
HETATM    7  C7  UNL     1      -1.087   0.536  -0.133  1.00  0.00    -0.014 C 
HETATM    8  C14 UNL     1      -0.810   1.280  -1.421  1.00  0.00     0.014 C 
HETATM    9  C15 UNL     1      -1.812   2.357  -1.693  1.00  0.00     0.001 C 
HETATM   10  C16 UNL     1      -1.652   3.425  -0.653  1.00  0.00     0.000 C 
HETATM   11  C17 UNL     1      -1.360   2.906   0.709  1.00  0.00     0.001 C 
HETATM   12  C18 UNL     1      -1.624   1.451   0.913  1.00  0.00     0.014 C 
BRANCH   7  13
HETATM   13  C8  UNL     1      -2.105  -0.544  -0.319  1.00  0.00    -0.075 C 
HETATM   14  C9  UNL     1      -2.711  -0.837  -1.434  1.00  0.00    -0.023 C 
HETATM   15  C10 UNL     1      -3.722  -1.915  -1.603  1.00  0.00     0.027 C 
HETATM   16  C11 UNL     1      -4.162  -2.558  -0.334  1.00  0.00     0.004 C 
HETATM   17  C12 UNL     1      -3.963  -1.584   0.808  1.00  0.00     0.005 C 
HETATM   18  C13 UNL     1      -2.448  -1.350   0.886  1.00  0.00     0.034 C 
ENDBRANCH   7  13
ENDBRANCH   4   7
BRANCH   1  19
HETATM   19  N2  UNL     1       4.172  -0.562  -0.359  1.00  0.00    -0.376 N 
ATOM     20  H2  UNL     1       4.246  -0.256  -1.329  1.00  0.00     0.161 HD
BRANCH  19  21
HETATM   21  C2  UNL     1       5.275  -0.398   0.502  1.00  0.00     0.066 C 
HETATM   22  C1  UNL     1       6.067   0.843   0.450  1.00  0.00     0.088 C 
HETATM   23  N1  UNL     1       5.592  -1.320   1.328  1.00  0.00    -0.389 N 
ATOM     24  H12 UNL     1       6.391  -1.201   1.951  1.00  0.00     0.157 HD
ATOM     25  H11 UNL     1       5.044  -2.179   1.364  1.00  0.00     0.157 HD
ENDBRANCH  19  21
ENDBRANCH   1  19
TORSDOF 4
