REMARK  10 active torsions:
REMARK  status: ('A' for Active; 'I' for Inactive)
REMARK    1  A    between atoms: C2_2  and  C3_3 
REMARK    2  A    between atoms: C3_3  and  C4_4 
REMARK    3  A    between atoms: C4_4  and  C5_5 
REMARK    4  A    between atoms: C5_5  and  O2_7 
REMARK    5  A    between atoms: O2_7  and  C6_8 
REMARK    6  A    between atoms: C9_11  and  O3_12 
REMARK    7  A    between atoms: C14_20  and  O6_21 
REMARK    8  A    between atoms: O6_21  and  C15_22 
REMARK    9  A    between atoms: C15_22  and  C16_24 
REMARK   10  A    between atoms: C18_26  and  O8_27 
ROOT
HETATM    1  C6  UNL     1       0.762  -0.589   0.390  1.00  0.00     0.145 C 
HETATM    2  C7  UNL     1       0.632  -1.885   1.108  1.00  0.00     0.036 C 
HETATM    3  C8  UNL     1      -0.399  -2.814   0.606  1.00  0.00     0.049 C 
HETATM    4  C9  UNL     1      -0.462  -2.973  -0.865  1.00  0.00     0.140 C 
HETATM    5  C10 UNL     1       0.033  -1.852  -1.673  1.00  0.00     0.178 C 
HETATM    6  O4  UNL     1      -1.178  -1.891  -2.404  1.00  0.00    -0.343 OA
HETATM    7  C11 UNL     1      -1.792  -2.760  -1.531  1.00  0.00     0.194 C 
HETATM    8  C12 UNL     1      -2.395  -3.997  -2.145  1.00  0.00     0.082 C 
HETATM    9  O5  UNL     1      -2.746  -2.095  -0.776  1.00  0.00    -0.350 OA
HETATM   10  C13 UNL     1      -2.988  -0.853  -1.323  1.00  0.00     0.206 C 
HETATM   11  C14 UNL     1      -2.151   0.182  -0.607  1.00  0.00     0.185 C 
HETATM   12  C18 UNL     1      -0.854   0.454  -1.225  1.00  0.00     0.163 C 
HETATM   13  C19 UNL     1       0.249  -0.551  -1.004  1.00  0.00     0.041 C 
HETATM   14  C20 UNL     1       1.384   0.121  -1.825  1.00  0.00     0.023 C 
ENDROOT
BRANCH   1  15
HETATM   15  O2  UNL     1       2.132  -0.204   0.511  1.00  0.00    -0.315 OA
BRANCH  15  16
HETATM   16  C5  UNL     1       2.568   0.904   1.185  1.00  0.00     0.259 C 
HETATM   17  O1  UNL     1       1.733   1.640   1.737  1.00  0.00    -0.265 OA
BRANCH  16  18
HETATM   18  C4  UNL     1       4.039   1.145   1.204  1.00  0.00     0.115 C 
BRANCH  18  19
HETATM   19  C3  UNL     1       4.419   2.365   1.956  1.00  0.00     0.036 C 
BRANCH  19  20
HETATM   20  C2  UNL     1       5.886   2.540   1.922  1.00  0.00    -0.036 C 
HETATM   21  C1  UNL     1       6.655   1.689   1.271  1.00  0.00     0.007 C 
ENDBRANCH  19  20
ENDBRANCH  18  19
ENDBRANCH  16  18
ENDBRANCH  15  16
ENDBRANCH   1  15
BRANCH  12  22
HETATM   22  O8  UNL     1      -1.010   0.579  -2.613  1.00  0.00    -0.392 OA
ATOM     23  H8  UNL     1      -0.167   0.756  -3.015  1.00  0.00     0.210 HD
ENDBRANCH  12  22
BRANCH   4  24
HETATM   24  O3  UNL     1       0.038  -4.241  -1.246  1.00  0.00    -0.382 OA
ATOM     25  H3  UNL     1      -0.002  -4.343  -2.190  1.00  0.00     0.211 HD
ENDBRANCH   4  24
BRANCH  11  26
HETATM   26  O6  UNL     1      -2.868   1.420  -0.514  1.00  0.00    -0.311 OA
BRANCH  26  27
HETATM   27  C15 UNL     1      -3.317   1.971   0.651  1.00  0.00     0.258 C 
HETATM   28  O7  UNL     1      -3.095   1.367   1.718  1.00  0.00    -0.265 OA
BRANCH  27  29
HETATM   29  C16 UNL     1      -4.057   3.256   0.715  1.00  0.00     0.106 C 
HETATM   30  C17 UNL     1      -4.422   3.602   2.142  1.00  0.00     0.015 C 
ENDBRANCH  27  29
ENDBRANCH  26  27
ENDBRANCH  11  26
TORSDOF 10
