REMARK  4 active torsions:
REMARK  status: ('A' for Active; 'I' for Inactive)
REMARK    1  A    between atoms: C2_3  and  N2_4 
REMARK    2  A    between atoms: C4_6  and  C5_7 
REMARK    3  A    between atoms: C5_7  and  O1_8 
REMARK    4  A    between atoms: C6_11  and  N3_12 
ROOT
HETATM    1  N1  UNL     1      -1.636  -4.234   1.114  1.00  0.00    -0.195 NA
HETATM    2  C1  UNL     1      -1.958  -3.169   0.790  1.00  0.00     0.089 C 
HETATM    3  C2  UNL     1      -2.371  -1.842   0.407  1.00  0.00     0.395 C 
ENDROOT
BRANCH   3   4
HETATM    4  N2  UNL     1      -1.351  -0.838   0.561  1.00  0.00     0.108 N 
HETATM    5  C3  UNL     1      -1.860   0.417   0.159  1.00  0.00     0.307 C 
HETATM    6  C4  UNL     1      -0.932   1.225  -0.708  1.00  0.00     0.176 C 
HETATM    7  O2  UNL     1       0.319   1.175  -0.045  1.00  0.00    -0.355 OA
HETATM    8  C6  UNL     1       0.810  -0.108  -0.380  1.00  0.00     0.257 C 
HETATM    9  C10 UNL     1      -0.068  -1.201   0.115  1.00  0.00     0.327 C 
BRANCH   6  10
HETATM   10  C5  UNL     1      -1.314   2.655  -0.816  1.00  0.00     0.197 C 
BRANCH  10  11
HETATM   11  O1  UNL     1      -1.407   3.184   0.474  1.00  0.00    -0.398 OA
ATOM     12  H1  UNL     1      -1.652   4.099   0.405  1.00  0.00     0.209 HD
ENDBRANCH  10  11
ENDBRANCH   6  10
BRANCH   8  13
HETATM   13  N3  UNL     1       2.182  -0.223   0.073  1.00  0.00    -0.323 N 
HETATM   14  C7  UNL     1       3.259   0.235  -0.590  1.00  0.00     0.111 A 
HETATM   15  C8  UNL     1       4.399  -0.042   0.124  1.00  0.00     0.106 A 
HETATM   16  N4  UNL     1       4.014  -0.670   1.225  1.00  0.00    -0.361 N 
HETATM   17  C9  UNL     1       2.671  -0.780   1.195  1.00  0.00     0.184 A 
ATOM     18  H4  UNL     1       4.627  -1.011   1.966  1.00  0.00     0.166 HD
ENDBRANCH   8  13
ENDBRANCH   3   4
TORSDOF 4
