REMARK  1 active torsions:
REMARK  status: ('A' for Active; 'I' for Inactive)
REMARK    1  A    between atoms: C2_2  and  N1_5 
ROOT
HETATM    1  N1  UNL     1      -0.909   0.225   0.264  1.00  0.00    -0.305 N 
HETATM    2  N2  UNL     1      -0.274   0.960   1.318  1.00  0.00    -0.279 N 
ATOM      3  H2  UNL     1      -0.871   1.416   2.008  1.00  0.00     0.189 HD
HETATM    4  C5  UNL     1       0.978   1.080   1.448  1.00  0.00     0.184 C 
HETATM    5  S1  UNL     1       2.089   1.922   2.632  1.00  0.00    -0.014 SA
HETATM    6  C6  UNL     1       3.392   2.091   1.364  1.00  0.00     0.160 C 
HETATM    7  N3  UNL     1       4.266   3.015   1.379  1.00  0.00    -0.378 N 
ATOM      8  H31 UNL     1       4.994   3.109   0.671  1.00  0.00     0.158 HD
ATOM      9  H32 UNL     1       4.462   3.801   1.999  1.00  0.00     0.158 HD
HETATM   10  N4  UNL     1       3.122   1.007   0.508  1.00  0.00    -0.275 N 
ATOM     11  H4  UNL     1       3.835   0.632  -0.118  1.00  0.00     0.189 HD
HETATM   12  N5  UNL     1       1.866   0.480   0.552  1.00  0.00    -0.256 N 
HETATM   13  C7  UNL     1       1.294  -0.660  -0.186  1.00  0.00     0.075 C 
HETATM   14  C8  UNL     1       2.246  -1.102  -1.281  1.00  0.00     0.043 C 
HETATM   15  C9  UNL     1       1.101  -1.830   0.728  1.00  0.00     0.043 C 
HETATM   16  C10 UNL     1      -0.036  -0.230  -0.754  1.00  0.00     0.068 C 
HETATM   17  C11 UNL     1      -0.429  -1.317  -1.659  1.00  0.00     0.042 C 
HETATM   18  C12 UNL     1       0.314   1.051  -1.570  1.00  0.00     0.042 C 
ENDROOT
BRANCH   1  19
HETATM   19  C2  UNL     1      -2.312   0.119   0.429  1.00  0.00     0.038 C 
HETATM   20  C1  UNL     1      -3.169   0.681  -0.651  1.00  0.00     0.039 C 
HETATM   21  C3  UNL     1      -2.688  -1.331   0.619  1.00  0.00     0.039 C 
HETATM   22  C4  UNL     1      -2.827   0.812   1.712  1.00  0.00     0.039 C 
ENDBRANCH   1  19
TORSDOF 1
