REMARK  3 active torsions:
REMARK  status: ('A' for Active; 'I' for Inactive)
REMARK       I    between atoms: C1_2  and  N1_3 
REMARK    1  A    between atoms: C1_2  and  C6_9 
REMARK    2  A    between atoms: N1_3  and  C2_5 
REMARK    3  A    between atoms: C2_5  and  C3_6 
ROOT
HETATM    1  O1  UNL     1      -0.363  -1.780  -1.176  1.00  0.00    -0.273 OA
HETATM    2  C1  UNL     1      -0.457  -0.900  -0.255  1.00  0.00     0.223 C 
HETATM    3  N1  UNL     1       0.689  -0.458   0.431  1.00  0.00    -0.360 N 
ATOM      4  H1  UNL     1       0.607   0.245   1.165  1.00  0.00     0.162 HD
ENDROOT
BRANCH   2   5
HETATM    5  C6  UNL     1      -1.825  -0.407   0.013  1.00  0.00     0.105 C 
HETATM    6  C7  UNL     1      -1.949   1.085  -0.198  1.00  0.00     0.043 C 
HETATM    7  C8  UNL     1      -3.450   1.235  -0.390  1.00  0.00     0.233 C 
HETATM    8  N2  UNL     1      -3.969  -0.065  -0.690  1.00  0.00    -0.074 N 
HETATM    9  C9  UNL     1      -2.831  -0.912  -1.001  1.00  0.00     0.246 C 
ATOM     10  H22 UNL     1      -4.560  -0.442   0.051  1.00  0.00     0.277 HD
ATOM     11  H21 UNL     1      -4.675  -0.055  -1.426  1.00  0.00     0.277 HD
ENDBRANCH   2   5
BRANCH   3  12
HETATM   12  C2  UNL     1       1.973  -1.001   0.093  1.00  0.00     0.127 C 
BRANCH  12  13
HETATM   13  C3  UNL     1       3.097  -0.435   0.907  1.00  0.00     0.003 A 
HETATM   14  C4  UNL     1       3.388   1.031   0.879  1.00  0.00     0.007 A 
HETATM   15  C5  UNL     1       4.280   0.088   0.143  1.00  0.00     0.007 A 
ENDBRANCH  12  13
ENDBRANCH   3  12
TORSDOF 3
