REMARK  4 active torsions:
REMARK  status: ('A' for Active; 'I' for Inactive)
REMARK    1  A    between atoms: C2_2  and  C3_3 
REMARK    2  A    between atoms: C3_3  and  N1_4 
REMARK    3  A    between atoms: C3_3  and  C4_8 
REMARK       I    between atoms: C4_8  and  N2_10 
REMARK    4  A    between atoms: N2_10  and  C5_12 
ROOT
HETATM    1  C4  UNL     1       1.146   0.177  -0.808  1.00  0.00     0.252 C 
HETATM    2  O1  UNL     1       0.982  -0.180  -2.002  1.00  0.00    -0.271 OA
HETATM    3  N2  UNL     1       0.083   0.270   0.132  1.00  0.00    -0.354 N 
ATOM      4  H2  UNL     1       0.245   0.563   1.096  1.00  0.00     0.162 HD
ENDROOT
BRANCH   1   5
HETATM    5  C3  UNL     1       2.538   0.516  -0.377  1.00  0.00     0.296 C 
BRANCH   5   6
HETATM    6  C2  UNL     1       3.471  -0.610  -0.639  1.00  0.00     0.005 C 
HETATM    7  C1  UNL     1       4.743  -0.351  -0.874  1.00  0.00     0.009 C 
ENDBRANCH   5   6
BRANCH   5   8
HETATM    8  N1  UNL     1       2.580   0.908   1.011  1.00  0.00    -0.063 N 
ATOM      9  H13 UNL     1       2.401   0.118   1.631  1.00  0.00     0.275 HD
ATOM     10  H12 UNL     1       3.530   1.128   1.312  1.00  0.00     0.275 HD
ATOM     11  H11 UNL     1       1.939   1.681   1.191  1.00  0.00     0.275 HD
ENDBRANCH   5   8
ENDBRANCH   1   5
BRANCH   3  12
HETATM   12  C5  UNL     1      -1.236  -0.070  -0.345  1.00  0.00     0.084 C 
HETATM   13  C6  UNL     1      -1.894  -1.157   0.462  1.00  0.00     0.025 C 
HETATM   14  C7  UNL     1      -3.308  -1.089  -0.123  1.00  0.00     0.002 C 
HETATM   15  C8  UNL     1      -3.551   0.394  -0.145  1.00  0.00     0.002 C 
HETATM   16  C9  UNL     1      -2.212   1.075  -0.121  1.00  0.00     0.025 C 
ENDBRANCH   3  12
TORSDOF 4
