REMARK  16 active torsions:
REMARK  status: ('A' for Active; 'I' for Inactive)
REMARK    1  A    between atoms: C3_3  and  C4_4 
REMARK    2  A    between atoms: C4_4  and  O1_5 
REMARK    3  A    between atoms: O1_5  and  C5_6 
REMARK    4  A    between atoms: C7_10  and  C8_11 
REMARK    5  A    between atoms: C8_11  and  N1_14 
REMARK    6  A    between atoms: N1_14  and  C11_16 
REMARK    7  A    between atoms: C11_16  and  C12_17 
REMARK    8  A    between atoms: C11_16  and  C19_24 
REMARK    9  A    between atoms: C12_17  and  C13_18 
REMARK   10  A    between atoms: C22_30  and  O4_31 
REMARK   11  A    between atoms: N3_33  and  C23_34 
REMARK   12  A    between atoms: C23_34  and  O5_35 
REMARK   13  A    between atoms: C23_34  and  C24_37 
REMARK   14  A    between atoms: C24_37  and  O6_38 
REMARK   15  A    between atoms: C24_37  and  C27_42 
REMARK   16  A    between atoms: O6_38  and  C25_39 
ROOT
HETATM    1  C1  UNL     1       2.712   0.411   1.895  1.00  0.00     0.041 C 
HETATM    2  C2  UNL     1       2.265   0.330   0.697  1.00  0.00     0.038 C 
HETATM    3  C3  UNL     1       1.511   1.491   0.035  1.00  0.00     0.197 C 
HETATM    4  O3  UNL     1       0.537   0.735  -0.532  1.00  0.00    -0.350 OA
HETATM    5  C7  UNL     1       0.913  -0.567  -0.831  1.00  0.00     0.258 C 
HETATM    6  N3  UNL     1       2.262  -0.661  -0.322  1.00  0.00    -0.301 N 
ENDROOT
BRANCH   5   7
HETATM    7  C8  UNL     1      -0.146  -1.449  -0.347  1.00  0.00     0.067 C 
HETATM    8  C9  UNL     1       0.370  -2.929  -0.525  1.00  0.00     0.042 C 
HETATM    9  C10 UNL     1      -0.206  -1.346   1.194  1.00  0.00     0.042 C 
BRANCH   7  10
HETATM   10  N1  UNL     1      -1.401  -1.490  -0.792  1.00  0.00    -0.379 N 
ATOM     11  H1  UNL     1      -1.625  -2.422  -1.141  1.00  0.00     0.160 HD
BRANCH  10  12
HETATM   12  C11 UNL     1      -2.516  -0.631  -0.926  1.00  0.00     0.035 C 
BRANCH  12  13
HETATM   13  C12 UNL     1      -2.958  -0.030   0.353  1.00  0.00     0.005 C 
BRANCH  13  14
HETATM   14  C13 UNL     1      -4.157   0.842   0.466  1.00  0.00     0.010 C 
HETATM   15  C14 UNL     1      -5.409   0.145   0.116  1.00  0.00     0.008 C 
HETATM   16  C15 UNL     1      -6.278  -0.385   1.191  1.00  0.00     0.001 C 
HETATM   17  C16 UNL     1      -6.180   0.257   2.528  1.00  0.00     0.000 C 
HETATM   18  C17 UNL     1      -4.680   0.346   2.860  1.00  0.00     0.001 C 
HETATM   19  C18 UNL     1      -4.139   1.372   1.911  1.00  0.00     0.008 C 
ENDBRANCH  13  14
ENDBRANCH  12  13
BRANCH  12  20
HETATM   20  C19 UNL     1      -2.452   0.212  -2.150  1.00  0.00     0.263 C 
HETATM   21  N2  UNL     1      -3.588   1.072  -2.374  1.00  0.00    -0.063 N 
HETATM   22  C20 UNL     1      -3.226   1.642  -3.714  1.00  0.00     0.236 C 
ATOM     23  H22 UNL     1      -4.503   0.624  -2.314  1.00  0.00     0.278 HD
ATOM     24  H21 UNL     1      -3.781   1.753  -1.639  1.00  0.00     0.278 HD
HETATM   25  C21 UNL     1      -2.962   0.356  -4.481  1.00  0.00     0.061 C 
HETATM   26  C22 UNL     1      -2.549  -0.637  -3.414  1.00  0.00     0.156 C 
BRANCH  26  27
HETATM   27  O4  UNL     1      -3.603  -1.527  -3.225  1.00  0.00    -0.393 OA
ATOM     28  H4  UNL     1      -3.663  -2.056  -4.012  1.00  0.00     0.210 HD
ENDBRANCH  26  27
ENDBRANCH  12  20
ENDBRANCH  10  12
ENDBRANCH   7  10
ENDBRANCH   5   7
BRANCH   6  29
HETATM   29  C23 UNL     1       3.388  -1.400  -0.709  1.00  0.00     0.151 C 
BRANCH  29  30
HETATM   30  O5  UNL     1       3.123  -2.300  -1.652  1.00  0.00    -0.347 OA
ATOM     31  H5  UNL     1       3.886  -2.801  -1.914  1.00  0.00     0.219 HD
ENDBRANCH  29  30
BRANCH  29  32
HETATM   32  C24 UNL     1       4.785  -1.464  -0.381  1.00  0.00     0.210 C 
BRANCH  32  33
HETATM   33  O6  UNL     1       5.376  -0.664   0.578  1.00  0.00    -0.308 OA
BRANCH  33  34
HETATM   34  C25 UNL     1       6.132  -1.150   1.644  1.00  0.00     0.255 C 
HETATM   35  C26 UNL     1       6.710  -0.198   2.599  1.00  0.00     0.126 C 
HETATM   36  O7  UNL     1       6.273  -2.375   1.722  1.00  0.00    -0.266 OA
ENDBRANCH  33  34
ENDBRANCH  32  33
BRANCH  32  37
HETATM   37  C27 UNL     1       5.680  -1.461  -1.633  1.00  0.00     0.023 A 
HETATM   38  C28 UNL     1       5.608  -2.539  -2.649  1.00  0.00     0.008 A 
HETATM   39  C29 UNL     1       6.740  -2.534  -1.666  1.00  0.00     0.008 A 
ENDBRANCH  32  37
ENDBRANCH  29  32
ENDBRANCH   6  29
BRANCH   3  40
HETATM   40  C4  UNL     1       0.980   2.470   1.017  1.00  0.00     0.217 C 
BRANCH  40  41
HETATM   41  O1  UNL     1       2.008   3.282   1.527  1.00  0.00    -0.319 OA
BRANCH  41  42
HETATM   42  C5  UNL     1       1.654   4.260   2.471  1.00  0.00     0.254 C 
HETATM   43  C6  UNL     1       2.726   5.141   3.033  1.00  0.00     0.126 C 
HETATM   44  O2  UNL     1       0.467   4.404   2.845  1.00  0.00    -0.266 OA
ENDBRANCH  41  42
ENDBRANCH  40  41
ENDBRANCH   3  40
TORSDOF 16
