REMARK  5 active torsions:
REMARK  status: ('A' for Active; 'I' for Inactive)
REMARK    1  A    between atoms: N1_1  and  C1_4 
REMARK    2  A    between atoms: C3_9  and  N3_10 
REMARK    3  A    between atoms: N4_13  and  N5_14 
REMARK    4  A    between atoms: C4_17  and  N6_18 
REMARK    5  A    between atoms: N6_18  and  N7_20 
ROOT
HETATM    1  C1  UNL     1      -1.805   0.556  -0.150  1.00  0.00     0.693 C 
HETATM    2  N2  UNL     1      -2.072  -0.752  -0.003  1.00  0.00    -0.153 N 
ATOM      3  H2  UNL     1      -3.048  -1.009  -0.153  1.00  0.00     0.187 HD
HETATM    4  C2  UNL     1      -1.252  -1.787   0.313  1.00  0.00     0.305 C 
HETATM    5  O1  UNL     1      -1.755  -2.838   0.754  1.00  0.00    -0.263 OA
HETATM    6  C3  UNL     1       0.122  -1.803   0.194  1.00  0.00     0.207 C 
HETATM    7  N4  UNL     1       0.923  -0.738   0.010  1.00  0.00    -0.069 N 
HETATM    8  C4  UNL     1       0.624   0.590  -0.007  1.00  0.00     0.733 C 
HETATM    9  N8  UNL     1      -0.591   1.159  -0.066  1.00  0.00    -0.019 N 
ATOM     10  H8  UNL     1      -0.604   2.179  -0.045  1.00  0.00     0.203 HD
ENDROOT
BRANCH   8  11
HETATM   11  N6  UNL     1       1.646   1.360   0.038  1.00  0.00    -0.136 N 
ATOM     12  H6  UNL     1       2.572   0.934   0.082  1.00  0.00     0.205 HD
BRANCH  11  13
HETATM   13  N7  UNL     1       1.556   2.749   0.030  1.00  0.00    -0.331 N 
ATOM     14  H72 UNL     1       0.622   3.157  -0.014  1.00  0.00     0.177 HD
ATOM     15  H71 UNL     1       2.370   3.362   0.066  1.00  0.00     0.177 HD
ENDBRANCH  11  13
ENDBRANCH   8  11
BRANCH   7  16
HETATM   16  N5  UNL     1       2.276  -1.007  -0.196  1.00  0.00    -0.322 N 
ATOM     17  H52 UNL     1       2.500  -2.002  -0.183  1.00  0.00     0.178 HD
ATOM     18  H51 UNL     1       2.883  -0.199  -0.336  1.00  0.00     0.178 HD
ENDBRANCH   7  16
BRANCH   6  19
HETATM   19  N3  UNL     1       0.696  -2.971   0.269  1.00  0.00    -0.379 N 
ATOM     20  H32 UNL     1       0.089  -3.779   0.409  1.00  0.00     0.158 HD
ATOM     21  H31 UNL     1       1.712  -2.983   0.181  1.00  0.00     0.158 HD
ENDBRANCH   6  19
BRANCH   1  22
HETATM   22  N1  UNL     1      -2.784   1.356  -0.397  1.00  0.00    -0.234 N 
ATOM     23  H12 UNL     1      -3.696   0.903  -0.460  1.00  0.00     0.174 HD
ATOM     24  H11 UNL     1      -2.581   2.349  -0.509  1.00  0.00     0.174 HD
ENDBRANCH   1  22
TORSDOF 5
