REMARK  12 active torsions:
REMARK  status: ('A' for Active; 'I' for Inactive)
REMARK    1  A    between atoms: C2_7  and  C3_8 
REMARK    2  A    between atoms: C3_8  and  C4_9 
REMARK    3  A    between atoms: C3_8  and  N10_28 
REMARK       I    between atoms: C4_9  and  N3_11 
REMARK    4  A    between atoms: N3_11  and  N4_13 
REMARK    5  A    between atoms: N4_13  and  C5_15 
REMARK    6  A    between atoms: N7_20  and  N8_21 
REMARK    7  A    between atoms: C6_24  and  N9_25 
REMARK    8  A    between atoms: N10_28  and  N11_29 
REMARK       I    between atoms: N10_28  and  C7_32 
REMARK    9  A    between atoms: C7_32  and  C8_34 
REMARK   10  A    between atoms: C8_34  and  N12_35 
REMARK   11  A    between atoms: C10_42  and  N14_43 
REMARK   12  A    between atoms: N15_45  and  N16_47 
ROOT
HETATM    1  C3  UNL     1      -0.878   0.783   0.920  1.00  0.00     0.271 C 
ENDROOT
BRANCH   1   2
HETATM    2  C2  UNL     1      -1.328  -0.364   0.099  1.00  0.00     0.117 A 
HETATM    3  N2  UNL     1      -2.003  -0.347  -1.040  1.00  0.00    -0.328 N 
HETATM    4  C1  UNL     1      -2.361  -1.485  -1.723  1.00  0.00     0.130 A 
ATOM      5  H2  UNL     1      -2.271   0.556  -1.430  1.00  0.00     0.169 HD
HETATM    6  N1  UNL     1      -3.017  -1.394  -2.823  1.00  0.00    -0.384 N 
HETATM    7  C10 UNL     1      -2.017  -2.715  -1.229  1.00  0.00     0.108 A 
ATOM      8  H12 UNL     1      -3.273  -0.478  -3.191  1.00  0.00     0.157 HD
ATOM      9  H11 UNL     1      -3.283  -2.238  -3.330  1.00  0.00     0.157 HD
HETATM   10  C9  UNL     1      -1.319  -2.753  -0.052  1.00  0.00     0.124 A 
HETATM   11  N13 UNL     1      -1.008  -1.621   0.552  1.00  0.00    -0.351 N 
ATOM     12  H13 UNL     1      -0.487  -1.685   1.427  1.00  0.00     0.166 HD
BRANCH   7  13
HETATM   13  N14 UNL     1      -2.345  -3.934  -1.872  1.00  0.00    -0.282 N 
HETATM   14  N15 UNL     1      -3.116  -4.751  -1.295  1.00  0.00    -0.249 N 
ATOM     15  H15 UNL     1      -3.357  -5.631  -1.751  1.00  0.00     0.207 HD
ATOM     16  H14 UNL     1      -1.962  -4.150  -2.792  1.00  0.00     0.188 HD
BRANCH  14  17
HETATM   17  N16 UNL     1      -3.634  -4.458  -0.049  1.00  0.00    -0.331 N 
ATOM     18 2H16 UNL     1      -3.383  -3.574   0.393  1.00  0.00     0.178 HD
ATOM     19 1H16 UNL     1      -4.257  -5.118   0.417  1.00  0.00     0.178 HD
ENDBRANCH  14  17
ENDBRANCH   7  13
ENDBRANCH   1   2
BRANCH   1  20
HETATM   20  C4  UNL     1       0.482   1.180   0.524  1.00  0.00     0.268 C 
HETATM   21  O1  UNL     1       0.809   2.386   0.248  1.00  0.00    -0.269 OA
HETATM   22  N3  UNL     1       1.496   0.207   0.435  1.00  0.00    -0.266 N 
ATOM     23  H3  UNL     1       1.300  -0.772   0.645  1.00  0.00     0.190 HD
BRANCH  22  24
HETATM   24  N4  UNL     1       2.787   0.616   0.050  1.00  0.00    -0.279 N 
ATOM     25  H4  UNL     1       2.953   1.589  -0.207  1.00  0.00     0.189 HD
BRANCH  24  26
HETATM   26  C5  UNL     1       3.864  -0.318   0.016  1.00  0.00     0.184 A 
HETATM   27  N5  UNL     1       3.757  -1.614   0.336  1.00  0.00    -0.265 N 
HETATM   28  N6  UNL     1       4.944  -2.172   0.189  1.00  0.00    -0.218 N 
ATOM     29  H5  UNL     1       2.906  -2.087   0.640  1.00  0.00     0.190 HD
HETATM   30  N7  UNL     1       5.800  -1.250  -0.218  1.00  0.00    -0.168 N 
ATOM     31  H6  UNL     1       5.165  -3.153   0.361  1.00  0.00     0.210 HD
HETATM   32  C6  UNL     1       5.174  -0.080  -0.340  1.00  0.00     0.187 A 
BRANCH  30  33
HETATM   33  N8  UNL     1       7.158  -1.441  -0.487  1.00  0.00    -0.321 N 
ATOM     34  H82 UNL     1       7.637  -2.337  -0.394  1.00  0.00     0.179 HD
ATOM     35  H81 UNL     1       7.818  -0.730  -0.801  1.00  0.00     0.179 HD
ENDBRANCH  30  33
BRANCH  32  36
HETATM   36  N9  UNL     1       5.682   1.027  -0.710  1.00  0.00    -0.380 N 
ATOM     37  H92 UNL     1       5.203   1.923  -0.803  1.00  0.00     0.158 HD
ATOM     38  H91 UNL     1       6.652   1.203  -0.973  1.00  0.00     0.158 HD
ENDBRANCH  32  36
ENDBRANCH  24  26
ENDBRANCH  22  24
ENDBRANCH   1  20
BRANCH   1  39
HETATM   39  N10 UNL     1      -1.836   1.827   0.999  1.00  0.00    -0.245 N 
HETATM   40  C7  UNL     1      -2.185   2.825   0.085  1.00  0.00     0.264 C 
HETATM   41  O2  UNL     1      -1.617   3.000  -1.006  1.00  0.00    -0.270 OA
BRANCH  39  42
HETATM   42  N11 UNL     1      -2.585   1.868   2.233  1.00  0.00    -0.339 N 
ATOM     43 2H11 UNL     1      -2.330   1.140   2.900  1.00  0.00     0.177 HD
ATOM     44 1H11 UNL     1      -3.274   2.618   2.290  1.00  0.00     0.177 HD
ENDBRANCH  39  42
BRANCH  40  45
HETATM   45  C8  UNL     1      -3.309   3.778   0.383  1.00  0.00     0.334 C 
BRANCH  45  46
HETATM   46  N12 UNL     1      -3.512   4.726  -0.674  1.00  0.00    -0.071 N 
ATOM     47 3H12 UNL     1      -2.651   5.228  -0.889  1.00  0.00     0.274 HD
ATOM     48 2H12 UNL     1      -3.654   4.256  -1.568  1.00  0.00     0.274 HD
ATOM     49 1H12 UNL     1      -4.275   5.373  -0.472  1.00  0.00     0.274 HD
ENDBRANCH  45  46
ENDBRANCH  40  45
ENDBRANCH   1  39
TORSDOF 12
