REMARK  14 active torsions:
REMARK  status: ('A' for Active; 'I' for Inactive)
REMARK    1  A    between atoms: C1_4  and  N2_5 
REMARK    2  A    between atoms: N2_5  and  C2_7 
REMARK    3  A    between atoms: C2_7  and  C3_8 
REMARK    4  A    between atoms: C3_8  and  N3_9 
REMARK    5  A    between atoms: C3_8  and  C7_18 
REMARK    6  A    between atoms: N3_9  and  C4_12 
REMARK    7  A    between atoms: C4_12  and  C5_13 
REMARK    8  A    between atoms: C5_13  and  N4_14 
REMARK    9  A    between atoms: N4_14  and  C6_16 
REMARK   10  A    between atoms: C7_18  and  O2_19 
REMARK   11  A    between atoms: C7_18  and  N5_21 
REMARK   12  A    between atoms: N5_21  and  C8_23 
REMARK   13  A    between atoms: C8_23  and  C9_24 
REMARK   14  A    between atoms: C8_23  and  C10_27 
ROOT
HETATM    1  C3  UNL     1      -0.737  -0.624  -0.455  1.00  0.00     0.277 C 
ENDROOT
BRANCH   1   2
HETATM    2  C2  UNL     1      -1.058  -1.303   0.802  1.00  0.00     0.162 C 
BRANCH   2   3
HETATM    3  N2  UNL     1      -0.233  -2.425   1.173  1.00  0.00    -0.384 N 
ATOM      4  H2  UNL     1       0.507  -2.776   0.565  1.00  0.00     0.160 HD
BRANCH   3   5
HETATM    5  C1  UNL     1      -0.516  -3.023   2.455  1.00  0.00     0.168 C 
HETATM    6  N1  UNL     1      -1.193  -4.113   2.578  1.00  0.00    -0.396 N 
ATOM      7  H12 UNL     1      -1.535  -4.557   1.726  1.00  0.00     0.156 HD
ATOM      8  H11 UNL     1      -1.393  -4.536   3.484  1.00  0.00     0.156 HD
ENDBRANCH   3   5
ENDBRANCH   2   3
ENDBRANCH   1   2
BRANCH   1   9
HETATM    9  N3  UNL     1      -1.716   0.443  -0.700  1.00  0.00    -0.060 N 
ATOM     10  H32 UNL     1      -1.684   1.150   0.034  1.00  0.00     0.278 HD
ATOM     11  H31 UNL     1      -1.441   1.022  -1.493  1.00  0.00     0.278 HD
BRANCH   9  12
HETATM   12  C4  UNL     1      -3.030  -0.069  -0.866  1.00  0.00     0.253 C 
BRANCH  12  13
HETATM   13  C5  UNL     1      -3.936   1.132  -1.174  1.00  0.00     0.149 C 
BRANCH  13  14
HETATM   14  N4  UNL     1      -3.918   2.086  -0.100  1.00  0.00    -0.367 N 
ATOM     15  H4  UNL     1      -3.351   1.911   0.730  1.00  0.00     0.161 HD
BRANCH  14  16
HETATM   16  C6  UNL     1      -4.683   3.261  -0.195  1.00  0.00     0.348 C 
HETATM   17  O1  UNL     1      -5.387   3.485  -1.223  1.00  0.00    -0.284 OA
ENDBRANCH  14  16
ENDBRANCH  13  14
ENDBRANCH  12  13
ENDBRANCH   9  12
ENDBRANCH   1   9
BRANCH   1  18
HETATM   18  C7  UNL     1       0.606  -0.057  -0.628  1.00  0.00     0.145 C 
BRANCH  18  19
HETATM   19  O2  UNL     1       0.747   0.784  -1.614  1.00  0.00    -0.348 OA
ATOM     20  H2  UNL     1       1.616   1.151  -1.726  1.00  0.00     0.219 HD
ENDBRANCH  18  19
BRANCH  18  21
HETATM   21  N5  UNL     1       1.733  -0.319   0.144  1.00  0.00    -0.352 N 
ATOM     22  H5  UNL     1       1.673  -0.966   0.930  1.00  0.00     0.162 HD
BRANCH  21  23
HETATM   23  C8  UNL     1       3.017   0.339  -0.174  1.00  0.00     0.262 C 
BRANCH  23  24
HETATM   24  C9  UNL     1       3.411   1.212   0.952  1.00  0.00     0.262 C 
HETATM   25  N6  UNL     1       4.606   1.967   0.909  1.00  0.00    -0.060 NA
HETATM   26  O3  UNL     1       2.693   1.302   1.973  1.00  0.00    -0.274 OA
ENDBRANCH  23  24
BRANCH  23  27
HETATM   27  C10 UNL     1       4.032  -0.691  -0.431  1.00  0.00     0.262 C 
HETATM   28  N7  UNL     1       5.359  -0.317  -0.765  1.00  0.00    -0.060 NA
HETATM   29  O4  UNL     1       3.729  -1.910  -0.356  1.00  0.00    -0.274 OA
ENDBRANCH  23  27
ENDBRANCH  21  23
ENDBRANCH  18  21
ENDBRANCH   1  18
TORSDOF 14
