REMARK  5 active torsions:
REMARK  status: ('A' for Active; 'I' for Inactive)
REMARK    1  A    between atoms: C1_2  and  O2_3 
REMARK    2  A    between atoms: O2_3  and  C2_4 
REMARK    3  A    between atoms: C2_4  and  C3_6 
REMARK    4  A    between atoms: C4_10  and  N3_11 
REMARK    5  A    between atoms: N3_11  and  N4_13 
ROOT
HETATM    1  C3  UNL     1       2.662  -0.093  -0.268  1.00  0.00     0.161 C 
HETATM    2  N1  UNL     1       2.672  -0.323   0.979  1.00  0.00    -0.290 N 
ATOM      3  H1  UNL     1       3.539  -0.587   1.447  1.00  0.00     0.183 HD
HETATM    4  N2  UNL     1       1.522  -0.215   1.683  1.00  0.00    -0.102 NA
HETATM    5  C4  UNL     1       0.297  -0.508   0.876  1.00  0.00     0.281 C 
HETATM    6  S2  UNL     1       0.961   0.306  -0.656  1.00  0.00    -0.060 SA
ENDROOT
BRANCH   5   7
HETATM    7  N3  UNL     1      -0.776   0.245   1.380  1.00  0.00    -0.297 N 
ATOM      8  H3  UNL     1      -0.552   0.871   2.153  1.00  0.00     0.183 HD
BRANCH   7   9
HETATM    9  N4  UNL     1      -2.090   0.250   0.969  1.00  0.00    -0.243 N 
HETATM   10  C5  UNL     1      -2.960   1.105   1.618  1.00  0.00     0.124 A 
HETATM   11  C6  UNL     1      -4.283   1.194   1.302  1.00  0.00     0.093 A 
HETATM   12  C7  UNL     1      -4.806   0.415   0.301  1.00  0.00     0.248 A 
HETATM   13  O4  UNL     1      -6.044   0.493  -0.000  1.00  0.00    -0.268 OA
HETATM   14  N5  UNL     1      -3.973  -0.411  -0.327  1.00  0.00    -0.299 N 
HETATM   15  C8  UNL     1      -2.643  -0.482   0.011  1.00  0.00     0.199 A 
ATOM     16  H5  UNL     1      -4.330  -1.005  -1.076  1.00  0.00     0.171 HD
HETATM   17  S1  UNL     1      -1.721  -1.539  -0.827  1.00  0.00    -0.039 SA
ENDBRANCH   7   9
ENDBRANCH   5   7
BRANCH   1  18
HETATM   18  C2  UNL     1       3.807  -0.165  -1.149  1.00  0.00     0.325 C 
HETATM   19  O3  UNL     1       3.673   0.086  -2.375  1.00  0.00    -0.256 OA
BRANCH  18  20
HETATM   20  O2  UNL     1       5.052  -0.504  -0.682  1.00  0.00    -0.247 OA
BRANCH  20  21
HETATM   21  C1  UNL     1       6.187  -0.590  -1.477  1.00  0.00     0.406 C 
HETATM   22  O1  UNL     1       6.046  -0.336  -2.706  1.00  0.00    -0.276 OA
ENDBRANCH  20  21
ENDBRANCH  18  20
ENDBRANCH   1  18
TORSDOF 5
