REMARK  12 active torsions:
REMARK  status: ('A' for Active; 'I' for Inactive)
REMARK    1  A    between atoms: C2_2  and  S1_3 
REMARK    2  A    between atoms: S1_3  and  C3_4 
REMARK    3  A    between atoms: C3_4  and  C4_5 
REMARK    4  A    between atoms: C6_10  and  O1_11 
REMARK    5  A    between atoms: C10_16  and  C11_17 
REMARK    6  A    between atoms: C11_17  and  O3_18 
REMARK    7  A    between atoms: O3_18  and  N2_19 
REMARK    8  A    between atoms: C12_21  and  O4_22 
REMARK    9  A    between atoms: C12_21  and  C13_24 
REMARK   10  A    between atoms: C14_30  and  N5_31 
REMARK   11  A    between atoms: C15_35  and  O7_36 
REMARK   12  A    between atoms: N6_38  and  N7_39 
ROOT
HETATM    1  C4  UNL     1      -2.789   0.506  -0.850  1.00  0.00     0.312 C 
HETATM    2  N1  UNL     1      -3.479   1.807  -0.874  1.00  0.00    -0.027 N 
ATOM      3  H11 UNL     1      -4.496   1.734  -0.903  1.00  0.00     0.281 HD
ATOM      4  H12 UNL     1      -3.373   2.314  -1.752  1.00  0.00     0.281 HD
HETATM    5  C5  UNL     1      -2.981   2.513   0.266  1.00  0.00     0.338 C 
HETATM    6  C6  UNL     1      -2.037   1.539   0.910  1.00  0.00     0.311 C 
HETATM    7  O2  UNL     1      -0.718   1.801   0.760  1.00  0.00    -0.301 OA
HETATM    8  C8  UNL     1      -0.191   1.981  -0.454  1.00  0.00     0.169 C 
HETATM    9  C9  UNL     1       0.743   3.170  -0.468  1.00  0.00     0.069 C 
HETATM   10  C10 UNL     1       0.589   0.720  -0.871  1.00  0.00     0.204 C 
HETATM   11  O6  UNL     1      -0.464  -0.142  -1.043  1.00  0.00    -0.325 OA
HETATM   12  C15 UNL     1      -1.498   0.600  -1.641  1.00  0.00     0.308 C 
HETATM   13  N6  UNL     1      -1.109   2.006  -1.567  1.00  0.00    -0.137 NA
HETATM   14  O8  UNL     1      -2.440   0.282   0.453  1.00  0.00    -0.286 OA
ENDROOT
BRANCH  10  15
HETATM   15  C11 UNL     1       1.587   0.365   0.155  1.00  0.00     0.237 C 
BRANCH  15  16
HETATM   16  O3  UNL     1       2.183  -0.880  -0.141  1.00  0.00    -0.276 OA
BRANCH  16  17
HETATM   17  N2  UNL     1       3.134  -1.347   0.721  1.00  0.00    -0.243 N 
HETATM   18  C12 UNL     1       4.343  -1.567   0.295  1.00  0.00     0.193 C 
ATOM     19  H2  UNL     1       2.896  -1.523   1.697  1.00  0.00     0.196 HD
BRANCH  18  20
HETATM   20  O4  UNL     1       4.606  -1.310  -1.040  1.00  0.00    -0.343 OA
ATOM     21  H4  UNL     1       5.489  -1.471  -1.351  1.00  0.00     0.219 HD
ENDBRANCH  18  20
BRANCH  18  22
HETATM   22  C13 UNL     1       5.375  -2.068   1.205  1.00  0.00     0.154 A 
HETATM   23  N3  UNL     1       5.235  -2.354   2.519  1.00  0.00    -0.234 N 
HETATM   24  O5  UNL     1       6.366  -2.768   2.968  1.00  0.00    -0.155 OA
ATOM     25  H3  UNL     1       4.377  -2.258   3.062  1.00  0.00     0.197 HD
HETATM   26  N4  UNL     1       7.270  -2.787   2.063  1.00  0.00    -0.224 N 
HETATM   27  C14 UNL     1       6.683  -2.344   0.905  1.00  0.00     0.154 A 
ATOM     28  H4  UNL     1       8.241  -3.076   2.180  1.00  0.00     0.198 HD
BRANCH  27  29
HETATM   29  N5  UNL     1       7.315  -2.243  -0.192  1.00  0.00    -0.382 N 
ATOM     30  H52 UNL     1       6.879  -1.914  -1.053  1.00  0.00     0.157 HD
ATOM     31  H51 UNL     1       8.289  -2.448  -0.415  1.00  0.00     0.157 HD
ENDBRANCH  27  29
ENDBRANCH  18  22
ENDBRANCH  16  17
ENDBRANCH  15  16
ENDBRANCH  10  15
BRANCH  13  32
HETATM   32  N7  UNL     1      -0.375   2.373  -2.708  1.00  0.00    -0.356 NA
ATOM     33  H72 UNL     1      -0.103   3.355  -2.656  1.00  0.00     0.171 HD
ATOM     34  H71 UNL     1      -1.024   2.391  -3.495  1.00  0.00     0.171 HD
ENDBRANCH  13  32
BRANCH  12  35
HETATM   35  O7  UNL     1      -1.632   0.155  -2.935  1.00  0.00    -0.348 OA
ATOM     36  H7  UNL     1      -0.824   0.214  -3.430  1.00  0.00     0.214 HD
ENDBRANCH  12  35
BRANCH   6  37
HETATM   37  O1  UNL     1      -2.318   1.549   2.283  1.00  0.00    -0.336 OA
HETATM   38  C7  UNL     1      -1.578   0.591   2.966  1.00  0.00     0.208 C 
ENDBRANCH   6  37
BRANCH   1  39
HETATM   39  C3  UNL     1      -3.751  -0.480  -1.433  1.00  0.00     0.150 C 
BRANCH  39  40
HETATM   40  S1  UNL     1      -3.130  -2.158  -1.512  1.00  0.00    -0.164 SA
BRANCH  40  41
HETATM   41  C2  UNL     1      -2.897  -2.820   0.155  1.00  0.00     0.069 C 
HETATM   42  C1  UNL     1      -4.193  -2.982   0.886  1.00  0.00     0.016 C 
ENDBRANCH  40  41
ENDBRANCH  39  40
ENDBRANCH   1  39
TORSDOF 12
