REMARK  15 active torsions:
REMARK  status: ('A' for Active; 'I' for Inactive)
REMARK    1  A    between atoms: C2_2  and  C3_3 
REMARK    2  A    between atoms: C3_3  and  N1_4 
REMARK    3  A    between atoms: N1_4  and  C4_6 
REMARK    4  A    between atoms: C5_9  and  C6_10 
REMARK    5  A    between atoms: C8_13  and  C9_14 
REMARK    6  A    between atoms: C9_14  and  C10_15 
REMARK    7  A    between atoms: C10_15  and  C11_16 
REMARK    8  A    between atoms: C11_16  and  N3_17 
REMARK    9  A    between atoms: N3_17  and  C12_18 
REMARK   10  A    between atoms: N3_17  and  C14_21 
REMARK   11  A    between atoms: C12_18  and  C13_19 
REMARK   12  A    between atoms: C15_24  and  N5_25 
REMARK   13  A    between atoms: N5_25  and  C16_27 
REMARK   14  A    between atoms: C16_27  and  C17_28 
REMARK   15  A    between atoms: C22_35  and  N7_36 
ROOT
HETATM    1  N3  UNL     1      -1.676   1.895   1.113  1.00  0.00    -0.216 N 
ENDROOT
BRANCH   1   2
HETATM    2  C11 UNL     1      -0.322   1.347   1.074  1.00  0.00     0.141 C 
BRANCH   2   3
HETATM    3  C10 UNL     1      -0.138   0.273   0.064  1.00  0.00     0.025 C 
BRANCH   3   4
HETATM    4  C9  UNL     1       1.211  -0.321  -0.021  1.00  0.00     0.048 C 
BRANCH   4   5
HETATM    5  C8  UNL     1       2.259   0.641  -0.425  1.00  0.00    -0.017 A 
HETATM    6  S1  UNL     1       2.221   2.253  -0.952  1.00  0.00    -0.106 SA
HETATM    7  C7  UNL     1       3.889   2.522  -1.155  1.00  0.00     0.063 A 
HETATM    8  C6  UNL     1       4.442   1.318  -0.798  1.00  0.00    -0.001 A 
HETATM    9  C23 UNL     1       3.594   0.341  -0.419  1.00  0.00     0.028 A 
BRANCH   8  10
HETATM   10  C5  UNL     1       5.926   1.165  -0.853  1.00  0.00     0.061 A 
HETATM   11  N2  UNL     1       6.458   0.012  -0.445  1.00  0.00    -0.191 N 
HETATM   12  C4  UNL     1       7.798  -0.246  -0.452  1.00  0.00     0.678 A 
ATOM     13  H2  UNL     1       5.829  -0.717  -0.109  1.00  0.00     0.184 HD
HETATM   14  N9  UNL     1       8.581   0.742  -0.904  1.00  0.00    -0.202 N 
HETATM   15  C25 UNL     1       8.108   1.931  -1.331  1.00  0.00     0.108 A 
ATOM     16  H9  UNL     1       9.589   0.587  -0.927  1.00  0.00     0.183 HD
HETATM   17  C24 UNL     1       6.745   2.143  -1.303  1.00  0.00     0.048 A 
BRANCH  12  18
HETATM   18  N1  UNL     1       8.231  -1.392  -0.033  1.00  0.00    -0.226 N 
ATOM     19  H1  UNL     1       7.559  -2.085   0.297  1.00  0.00     0.177 HD
BRANCH  18  20
HETATM   20  C3  UNL     1       9.630  -1.717  -0.019  1.00  0.00     0.137 C 
BRANCH  20  21
HETATM   21  C2  UNL     1       9.891  -2.855   0.971  1.00  0.00     0.016 C 
HETATM   22  C1  UNL     1       9.122  -4.087   0.606  1.00  0.00     0.006 C 
ENDBRANCH  20  21
ENDBRANCH  18  20
ENDBRANCH  12  18
ENDBRANCH   8  10
ENDBRANCH   4   5
ENDBRANCH   3   4
ENDBRANCH   2   3
ENDBRANCH   1   2
BRANCH   1  23
HETATM   23  C12 UNL     1      -1.990   2.915   2.096  1.00  0.00     0.156 C 
BRANCH  23  24
HETATM   24  C13 UNL     1      -1.323   4.226   1.892  1.00  0.00     0.135 C 
HETATM   25 CL1  UNL     1      -1.680   5.048   0.389  1.00  0.00    -0.129 Cl
ENDBRANCH  23  24
ENDBRANCH   1  23
BRANCH   1  26
HETATM   26  C14 UNL     1      -2.724   1.473   0.256  1.00  0.00     0.709 A 
HETATM   27  N4  UNL     1      -3.682   0.630   0.681  1.00  0.00    -0.021 N 
HETATM   28  C15 UNL     1      -4.693   0.219  -0.125  1.00  0.00     0.707 A 
ATOM     29  H4  UNL     1      -3.647   0.288   1.641  1.00  0.00     0.203 HD
HETATM   30  N6  UNL     1      -4.760   0.655  -1.394  1.00  0.00    -0.022 N 
HETATM   31  C22 UNL     1      -3.815   1.494  -1.835  1.00  0.00     0.705 A 
ATOM     32  H6  UNL     1      -5.516   0.353  -2.009  1.00  0.00     0.203 HD
HETATM   33  N8  UNL     1      -2.824   1.887  -1.018  1.00  0.00    -0.022 N 
ATOM     34  H8  UNL     1      -2.117   2.527  -1.380  1.00  0.00     0.203 HD
BRANCH  28  35
HETATM   35  N5  UNL     1      -5.577  -0.585   0.343  1.00  0.00    -0.225 N 
ATOM     36  H5  UNL     1      -5.522  -0.912   1.307  1.00  0.00     0.177 HD
BRANCH  35  37
HETATM   37  C16 UNL     1      -6.646  -1.016  -0.517  1.00  0.00     0.142 C 
BRANCH  37  38
HETATM   38  C17 UNL     1      -7.502  -2.091   0.122  1.00  0.00     0.004 C 
HETATM   39  C18 UNL     1      -8.102  -1.565   1.391  1.00  0.00     0.006 C 
HETATM   40  C19 UNL     1      -9.417  -2.306   1.525  1.00  0.00     0.000 C 
HETATM   41  C20 UNL     1      -9.881  -2.576   0.108  1.00  0.00     0.000 C 
HETATM   42  C21 UNL     1      -8.651  -2.471  -0.773  1.00  0.00     0.006 C 
ENDBRANCH  37  38
ENDBRANCH  35  37
ENDBRANCH  28  35
BRANCH  31  43
HETATM   43  N7  UNL     1      -3.914   1.889  -3.058  1.00  0.00    -0.234 N 
ATOM     44  H72 UNL     1      -4.667   1.591  -3.678  1.00  0.00     0.174 HD
ATOM     45  H71 UNL     1      -3.194   2.528  -3.394  1.00  0.00     0.174 HD
ENDBRANCH  31  43
ENDBRANCH   1  26
TORSDOF 15
