REMARK  4 active torsions:
REMARK  status: ('A' for Active; 'I' for Inactive)
REMARK    1  A    between atoms: C3_5  and  O1_6 
REMARK    2  A    between atoms: C4_8  and  N2_9 
REMARK    3  A    between atoms: N3_11  and  C5_13 
REMARK    4  A    between atoms: C11_19  and  O2_20 
ROOT
HETATM    1  C1  UNL     1       5.426   0.242  -1.092  1.00  0.00     0.071 C 
HETATM    2  C2  UNL     1       4.197   0.159  -0.271  1.00  0.00     0.043 A 
HETATM    3  N1  UNL     1       4.035   0.639   0.972  1.00  0.00    -0.336 N 
ATOM      4  H1  UNL     1       4.740   1.128   1.523  1.00  0.00     0.168 HD
HETATM    5  C3  UNL     1       2.761   0.357   1.368  1.00  0.00     0.172 A 
HETATM    6  C4  UNL     1       2.107  -0.312   0.362  1.00  0.00     0.134 A 
HETATM    7  C11 UNL     1       3.022  -0.434  -0.674  1.00  0.00     0.120 A 
ENDROOT
BRANCH   6   8
HETATM    8  N2  UNL     1       0.759  -0.794   0.357  1.00  0.00    -0.298 N 
HETATM    9  N3  UNL     1      -0.182   0.047   0.251  1.00  0.00    -0.331 N 
ATOM     10  H3  UNL     1       0.070   1.032   0.174  1.00  0.00     0.180 HD
ATOM     11  H2  UNL     1       0.561  -1.791   0.437  1.00  0.00     0.187 HD
BRANCH   9  12
HETATM   12  C5  UNL     1      -1.569  -0.286   0.231  1.00  0.00     0.099 C 
HETATM   13  C6  UNL     1      -2.152  -0.256  -1.183  1.00  0.00     0.026 C 
HETATM   14  C7  UNL     1      -3.546  -0.881  -1.033  1.00  0.00     0.002 C 
HETATM   15  C8  UNL     1      -4.382   0.091  -0.274  1.00  0.00     0.000 C 
HETATM   16  C9  UNL     1      -3.807   0.573   0.999  1.00  0.00     0.002 C 
HETATM   17  C10 UNL     1      -2.331   0.680   1.060  1.00  0.00     0.026 C 
ENDBRANCH   9  12
ENDBRANCH   6   8
BRANCH   5  18
HETATM   18  O1  UNL     1       2.193   0.687   2.599  1.00  0.00    -0.344 OA
ATOM     19  H1  UNL     1       1.305   0.491   2.875  1.00  0.00     0.219 HD
ENDBRANCH   5  18
BRANCH   7  20
HETATM   20  O2  UNL     1       2.813  -1.040  -1.901  1.00  0.00    -0.356 OA
ATOM     21  H2  UNL     1       2.002  -1.449  -2.179  1.00  0.00     0.218 HD
ENDBRANCH   7  20
TORSDOF 4
