REMARK  6 active torsions:
REMARK  status: ('A' for Active; 'I' for Inactive)
REMARK    1  A    between atoms: C2_5  and  C3_6 
REMARK    2  A    between atoms: C2_5  and  C9_12 
REMARK    3  A    between atoms: N2_20  and  C16_21 
REMARK    4  A    between atoms: C16_21  and  C17_22 
REMARK    5  A    between atoms: C17_22  and  O3_23 
REMARK    6  A    between atoms: C17_22  and  C18_25 
ROOT
HETATM    1  O1  UNL     1      -0.173  -2.294   1.998  1.00  0.00    -0.247 OA
HETATM    2  C1  UNL     1      -0.462  -1.429   1.154  1.00  0.00     0.326 C 
HETATM    3  N1  UNL     1      -1.808  -1.060   0.842  1.00  0.00    -0.317 N 
ATOM      4  H1  UNL     1      -2.647  -1.364   1.335  1.00  0.00     0.166 HD
HETATM    5  C2  UNL     1      -1.760  -0.179  -0.299  1.00  0.00     0.171 C 
HETATM    6  C15 UNL     1      -0.348   0.172  -0.435  1.00  0.00     0.266 C 
HETATM    7  O2  UNL     1       0.121   1.091  -1.160  1.00  0.00    -0.269 OA
HETATM    8  N2  UNL     1       0.465  -0.692   0.388  1.00  0.00    -0.265 N 
ENDROOT
BRANCH   5   9
HETATM    9  C3  UNL     1      -2.296  -0.954  -1.469  1.00  0.00    -0.016 A 
HETATM   10  C4  UNL     1      -3.522  -1.583  -1.331  1.00  0.00     0.010 A 
HETATM   11  C5  UNL     1      -4.063  -2.312  -2.381  1.00  0.00     0.001 A 
HETATM   12  C6  UNL     1      -3.380  -2.412  -3.569  1.00  0.00     0.000 A 
HETATM   13  C7  UNL     1      -2.160  -1.791  -3.718  1.00  0.00     0.001 A 
HETATM   14  C8  UNL     1      -1.617  -1.060  -2.664  1.00  0.00     0.010 A 
ENDBRANCH   5   9
BRANCH   5  15
HETATM   15  C9  UNL     1      -2.627   0.988  -0.014  1.00  0.00    -0.016 A 
HETATM   16  C10 UNL     1      -2.840   1.976  -0.965  1.00  0.00     0.010 A 
HETATM   17  C11 UNL     1      -3.643   3.075  -0.722  1.00  0.00     0.001 A 
HETATM   18  C12 UNL     1      -4.268   3.219   0.503  1.00  0.00     0.000 A 
HETATM   19  C13 UNL     1      -4.070   2.256   1.454  1.00  0.00     0.001 A 
HETATM   20  C14 UNL     1      -3.258   1.149   1.202  1.00  0.00     0.010 A 
ENDBRANCH   5  15
BRANCH   8  21
HETATM   21  C16 UNL     1       1.911  -0.708   0.348  1.00  0.00     0.173 C 
BRANCH  21  22
HETATM   22  C17 UNL     1       2.540   0.252   1.291  1.00  0.00     0.169 C 
BRANCH  22  23
HETATM   23  O3  UNL     1       2.148  -0.078   2.585  1.00  0.00    -0.389 OA
ATOM     24  H3  UNL     1       2.550   0.536   3.188  1.00  0.00     0.210 HD
ENDBRANCH  22  23
BRANCH  22  25
HETATM   25  C18 UNL     1       3.998   0.293   1.268  1.00  0.00    -0.028 A 
HETATM   26  C19 UNL     1       4.739   1.305   0.687  1.00  0.00     0.011 A 
HETATM   27  C20 UNL     1       6.117   1.293   0.692  1.00  0.00     0.024 A 
HETATM   28  C21 UNL     1       6.825   0.267   1.279  1.00  0.00     0.034 A 
HETATM   29 CL1  UNL     1       8.589   0.253   1.283  1.00  0.00    -0.084 Cl
HETATM   30  C22 UNL     1       6.103  -0.751   1.863  1.00  0.00     0.024 A 
HETATM   31  C23 UNL     1       4.703  -0.733   1.855  1.00  0.00     0.011 A 
ENDBRANCH  22  25
ENDBRANCH  21  22
ENDBRANCH   8  21
TORSDOF 6
