REMARK  16 active torsions:
REMARK  status: ('A' for Active; 'I' for Inactive)
REMARK    1  A    between atoms: N1_1  and  C1_4 
REMARK    2  A    between atoms: N3_9  and  C3_10 
REMARK    3  A    between atoms: C4_12  and  C5_13 
REMARK    4  A    between atoms: C5_13  and  O2_14 
REMARK    5  A    between atoms: O2_14  and  C6_15 
REMARK    6  A    between atoms: C6_15  and  C7_17 
REMARK    7  A    between atoms: C7_17  and  N4_18 
REMARK    8  A    between atoms: C7_17  and  O4_22 
REMARK    9  A    between atoms: O4_22  and  C8_23 
REMARK   10  A    between atoms: C9_26  and  O6_27 
REMARK   11  A    between atoms: O6_27  and  C10_28 
REMARK   12  A    between atoms: C11_30  and  N6_31 
REMARK   13  A    between atoms: N6_31  and  N7_32 
REMARK   14  A    between atoms: C12_38  and  O8_39 
REMARK   15  A    between atoms: C13_41  and  O9_42 
REMARK   16  A    between atoms: C14_44  and  O10_45 
ROOT
HETATM    1  C3  UNL     1      -0.374   2.511  -0.557  1.00  0.00     0.206 C 
HETATM    2  S1  UNL     1       1.049   1.553  -1.221  1.00  0.00    -0.129 SA
HETATM    3  C4  UNL     1       0.561  -0.071  -0.504  1.00  0.00     0.105 C 
HETATM    4  C9  UNL     1      -0.817   0.275  -0.003  1.00  0.00     0.172 C 
HETATM    5  C14 UNL     1      -0.695   1.639   0.644  1.00  0.00     0.183 C 
ENDROOT
BRANCH   4   6
HETATM    6  O6  UNL     1      -1.378  -0.676   0.795  1.00  0.00    -0.349 OA
BRANCH   6   7
HETATM    7  C10 UNL     1      -2.532  -1.161   0.235  1.00  0.00     0.297 C 
HETATM    8  O7  UNL     1      -2.455  -2.544  -0.026  1.00  0.00    -0.312 OA
HETATM    9  C11 UNL     1      -3.516  -2.860  -0.851  1.00  0.00     0.442 C 
HETATM   10  N8  UNL     1      -4.790  -2.795  -0.134  1.00  0.00    -0.004 N 
HETATM   11  C12 UNL     1      -4.964  -1.437   0.292  1.00  0.00     0.357 C 
ATOM     12  H82 UNL     1      -5.576  -3.147  -0.681  1.00  0.00     0.285 HD
ATOM     13  H81 UNL     1      -4.853  -3.466   0.632  1.00  0.00     0.285 HD
HETATM   14  C13 UNL     1      -3.759  -0.967   1.093  1.00  0.00     0.229 C 
BRANCH   9  15
HETATM   15  N6  UNL     1      -3.399  -4.126  -1.505  1.00  0.00    -0.087 NA
BRANCH  15  16
HETATM   16  N7  UNL     1      -4.537  -4.307  -2.300  1.00  0.00    -0.344 N 
ATOM     17  H72 UNL     1      -5.306  -3.643  -2.387  1.00  0.00     0.172 HD
ATOM     18  H71 UNL     1      -4.454  -5.210  -2.767  1.00  0.00     0.172 HD
ENDBRANCH  15  16
ENDBRANCH   9  15
BRANCH  11  19
HETATM   19  O8  UNL     1      -6.099  -1.318   1.122  1.00  0.00    -0.368 OA
ATOM     20  H8  UNL     1      -6.214  -0.418   1.404  1.00  0.00     0.212 HD
ENDBRANCH  11  19
BRANCH  14  21
HETATM   21  O9  UNL     1      -3.718  -1.759   2.245  1.00  0.00    -0.386 OA
ATOM     22  H9  UNL     1      -4.490  -1.637   2.785  1.00  0.00     0.210 HD
ENDBRANCH  14  21
ENDBRANCH   6   7
ENDBRANCH   4   6
BRANCH   3  23
HETATM   23  C5  UNL     1       1.513  -0.487   0.555  1.00  0.00     0.197 C 
BRANCH  23  24
HETATM   24  O2  UNL     1       2.807  -0.589  -0.060  1.00  0.00    -0.317 OA
BRANCH  24  25
HETATM   25  C6  UNL     1       3.931  -0.958   0.640  1.00  0.00     0.316 C 
HETATM   26  O3  UNL     1       3.804  -1.212   1.867  1.00  0.00    -0.260 OA
BRANCH  25  27
HETATM   27  C7  UNL     1       5.276  -1.062  -0.006  1.00  0.00     0.428 C 
BRANCH  27  28
HETATM   28  N4  UNL     1       5.610   0.246  -0.536  1.00  0.00    -0.043 N 
ATOM     29  H43 UNL     1       4.895   0.614  -1.164  1.00  0.00     0.278 HD
ATOM     30  H42 UNL     1       5.563   0.983   0.167  1.00  0.00     0.278 HD
ATOM     31  H41 UNL     1       6.527   0.175  -0.977  1.00  0.00     0.278 HD
ENDBRANCH  27  28
BRANCH  27  32
HETATM   32  O4  UNL     1       6.256  -1.451   0.905  1.00  0.00    -0.263 OA
BRANCH  32  33
HETATM   33  C8  UNL     1       7.041  -2.551   0.669  1.00  0.00     0.375 C 
HETATM   34  N5  UNL     1       8.056  -2.975   1.587  1.00  0.00    -0.032 NA
HETATM   35  O5  UNL     1       6.922  -3.260  -0.372  1.00  0.00    -0.242 OA
ENDBRANCH  32  33
ENDBRANCH  27  32
ENDBRANCH  25  27
ENDBRANCH  24  25
ENDBRANCH  23  24
ENDBRANCH   3  23
BRANCH   5  36
HETATM   36  O10 UNL     1      -1.816   2.025   1.311  1.00  0.00    -0.390 OA
ATOM     37  H10 UNL     1      -2.017   1.479   2.062  1.00  0.00     0.210 HD
ENDBRANCH   5  36
BRANCH   1  38
HETATM   38  N3  UNL     1      -0.013   3.839  -0.222  1.00  0.00    -0.210 N 
HETATM   39  C2  UNL     1       1.035   4.219   0.525  1.00  0.00     0.357 A 
HETATM   40  N2  UNL     1       1.028   5.562   0.607  1.00  0.00    -0.139 N 
HETATM   41  O1  UNL     1       1.849   3.411   1.035  1.00  0.00    -0.244 OA
HETATM   42  C1  UNL     1      -0.033   6.030  -0.095  1.00  0.00     0.694 A 
ATOM     43  H2  UNL     1       1.707   6.132   1.112  1.00  0.00     0.189 HD
HETATM   44  N9  UNL     1      -0.659   4.931  -0.598  1.00  0.00    -0.125 N 
ATOM     45  H9  UNL     1      -1.499   4.947  -1.177  1.00  0.00     0.206 HD
BRANCH  42  46
HETATM   46  N1  UNL     1      -0.354   7.273  -0.237  1.00  0.00    -0.233 N 
ATOM     47  H12 UNL     1       0.115   8.097   0.140  1.00  0.00     0.174 HD
ATOM     48  H11 UNL     1      -1.152   7.625  -0.765  1.00  0.00     0.174 HD
ENDBRANCH  42  46
ENDBRANCH   1  38
TORSDOF 16
