REMARK  15 active torsions:
REMARK  status: ('A' for Active; 'I' for Inactive)
REMARK    1  A    between atoms: N1_1  and  C1_5 
REMARK    2  A    between atoms: C1_5  and  N2_6 
REMARK    3  A    between atoms: C1_5  and  C2_10 
REMARK    4  A    between atoms: C3_11  and  N3_12 
REMARK    5  A    between atoms: N3_12  and  C4_14 
REMARK    6  A    between atoms: C4_14  and  C5_15 
REMARK    7  A    between atoms: C5_15  and  C6_16 
REMARK    8  A    between atoms: C6_16  and  C7_17 
REMARK    9  A    between atoms: C7_17  and  C8_18 
REMARK   10  A    between atoms: C8_18  and  C9_19 
REMARK   11  A    between atoms: C9_19  and  C10_20 
REMARK   12  A    between atoms: C10_20  and  C11_21 
REMARK   13  A    between atoms: C11_21  and  C12_22 
REMARK   14  A    between atoms: C12_22  and  N4_23 
REMARK   15  A    between atoms: N4_23  and  C13_25 
ROOT
HETATM    1  N3  UNL     1      -3.432   0.152  -0.668  1.00  0.00    -0.376 N 
ATOM      2  H3  UNL     1      -3.006   1.002  -0.299  1.00  0.00     0.161 HD
ENDROOT
BRANCH   1   3
HETATM    3  C3  UNL     1      -4.768  -0.181  -0.322  1.00  0.00     0.117 A 
HETATM    4  C2  UNL     1      -5.533   0.592   0.505  1.00  0.00     0.110 A 
HETATM    5  C19 UNL     1      -6.828   0.180   0.766  1.00  0.00     0.260 A 
HETATM    6  N7  UNL     1      -7.309  -0.949   0.218  1.00  0.00    -0.319 N 
HETATM    7  O1  UNL     1      -7.528   0.892   1.524  1.00  0.00    -0.267 OA
HETATM    8  C18 UNL     1      -6.533  -1.696  -0.596  1.00  0.00     0.184 A 
ATOM      9  H7  UNL     1      -8.265  -1.243   0.418  1.00  0.00     0.169 HD
HETATM   10  N6  UNL     1      -5.274  -1.332  -0.874  1.00  0.00    -0.338 N 
ATOM     11  H6  UNL     1      -4.697  -1.905  -1.490  1.00  0.00     0.168 HD
BRANCH   4  12
HETATM   12  C1  UNL     1      -5.042   1.814   1.125  1.00  0.00     0.420 C 
BRANCH  12  13
HETATM   13  N1  UNL     1      -5.412   1.912   2.535  1.00  0.00    -0.046 N 
ATOM     14  H13 UNL     1      -5.086   2.769   2.981  1.00  0.00     0.277 HD
ATOM     15  H12 UNL     1      -6.410   2.066   2.682  1.00  0.00     0.277 HD
ATOM     16  H11 UNL     1      -5.062   1.065   2.982  1.00  0.00     0.277 HD
ENDBRANCH  12  13
BRANCH  12  17
HETATM   17  N2  UNL     1      -5.539   3.019   0.489  1.00  0.00    -0.046 N 
ATOM     18  H23 UNL     1      -6.537   3.173   0.636  1.00  0.00     0.277 HD
ATOM     19  H22 UNL     1      -5.213   3.876   0.935  1.00  0.00     0.277 HD
ATOM     20  H21 UNL     1      -5.281   2.951  -0.495  1.00  0.00     0.277 HD
ENDBRANCH  12  17
ENDBRANCH   4  12
ENDBRANCH   1   3
BRANCH   1  21
HETATM   21  C4  UNL     1      -2.674  -0.715  -1.545  1.00  0.00     0.121 C 
BRANCH  21  22
HETATM   22  C5  UNL     1      -1.305  -0.154  -1.746  1.00  0.00     0.020 C 
BRANCH  22  23
HETATM   23  C6  UNL     1      -0.540  -0.022  -0.455  1.00  0.00     0.002 C 
BRANCH  23  24
HETATM   24  C7  UNL     1      -0.381  -1.356   0.210  1.00  0.00     0.000 C 
BRANCH  24  25
HETATM   25  C8  UNL     1       0.353  -2.309  -0.692  1.00  0.00     0.000 C 
BRANCH  25  26
HETATM   26  C9  UNL     1       1.730  -1.843  -1.067  1.00  0.00     0.000 C 
BRANCH  26  27
HETATM   27  C10 UNL     1       2.543  -1.670   0.196  1.00  0.00     0.002 C 
BRANCH  27  28
HETATM   28  C11 UNL     1       3.964  -1.197  -0.142  1.00  0.00     0.020 C 
BRANCH  28  29
HETATM   29  C12 UNL     1       4.746  -1.033   1.118  1.00  0.00     0.120 C 
BRANCH  29  30
HETATM   30  N4  UNL     1       6.105  -0.583   0.935  1.00  0.00    -0.388 N 
ATOM     31  H4  UNL     1       6.848  -1.244   1.162  1.00  0.00     0.159 HD
BRANCH  30  32
HETATM   32  C13 UNL     1       6.497   0.689   0.471  1.00  0.00     0.056 A 
HETATM   33  C14 UNL     1       5.637   1.732   0.204  1.00  0.00     0.048 A 
HETATM   34  C15 UNL     1       6.094   2.955  -0.235  1.00  0.00     0.092 A 
HETATM   35  N5  UNL     1       7.396   3.186  -0.422  1.00  0.00    -0.341 N 
HETATM   36  C16 UNL     1       8.264   2.205  -0.176  1.00  0.00     0.212 A 
ATOM     37  H5  UNL     1       7.720   4.097  -0.747  1.00  0.00     0.167 HD
HETATM   38  F1  UNL     1       9.582   2.444  -0.367  1.00  0.00    -0.184 F 
HETATM   39  C17 UNL     1       7.832   0.955   0.269  1.00  0.00     0.116 A 
HETATM   40 CL1  UNL     1       9.033  -0.255   0.562  1.00  0.00    -0.077 Cl
ENDBRANCH  30  32
ENDBRANCH  29  30
ENDBRANCH  28  29
ENDBRANCH  27  28
ENDBRANCH  26  27
ENDBRANCH  25  26
ENDBRANCH  24  25
ENDBRANCH  23  24
ENDBRANCH  22  23
ENDBRANCH  21  22
ENDBRANCH   1  21
TORSDOF 15
