REMARK  14 active torsions:
REMARK  status: ('A' for Active; 'I' for Inactive)
REMARK    1  A    between atoms: C2_2  and  C3_3 
REMARK    2  A    between atoms: C3_3  and  N1_4 
REMARK    3  A    between atoms: C3_3  and  C23_35 
REMARK       I    between atoms: N1_4  and  C4_6 
REMARK    4  A    between atoms: C4_6  and  C5_8 
REMARK       I    between atoms: N2_13  and  C10_14 
REMARK    5  A    between atoms: C10_14  and  C11_16 
REMARK    6  A    between atoms: C11_16  and  C12_17 
REMARK    7  A    between atoms: C11_16  and  N4_25 
REMARK    8  A    between atoms: C12_17  and  C13_18 
REMARK    9  A    between atoms: C13_18  and  C14_19 
REMARK   10  A    between atoms: C14_19  and  C15_20 
REMARK   11  A    between atoms: C15_20  and  N3_21 
REMARK       I    between atoms: N4_25  and  C16_27 
REMARK   12  A    between atoms: C16_27  and  C17_29 
REMARK   13  A    between atoms: C17_29  and  C18_30 
REMARK       I    between atoms: C23_35  and  N5_37 
REMARK   14  A    between atoms: C27_41  and  C28_42 
ROOT
HETATM    1  C5  UNL     1       0.190   2.273   1.558  1.00  0.00     0.179 C 
HETATM    2  C6  UNL     1       0.743   3.215   2.626  1.00  0.00     0.035 C 
HETATM    3  C7  UNL     1       1.030   2.458   3.900  1.00  0.00     0.004 C 
HETATM    4  C8  UNL     1      -0.339   1.989   4.403  1.00  0.00     0.020 C 
HETATM    5  C9  UNL     1      -0.805   0.937   3.446  1.00  0.00     0.127 C 
HETATM    6  N2  UNL     1      -0.875   1.469   2.064  1.00  0.00    -0.337 N 
HETATM    7  C10 UNL     1      -2.013   1.152   1.332  1.00  0.00     0.243 C 
HETATM    8  O2  UNL     1      -2.880   0.402   1.938  1.00  0.00    -0.271 OA
ENDROOT
BRANCH   1   9
HETATM    9  C4  UNL     1       1.298   1.576   0.903  1.00  0.00     0.241 C 
HETATM   10  N1  UNL     1       1.400   0.245   0.508  1.00  0.00    -0.346 N 
ATOM     11  H1  UNL     1       0.607  -0.374   0.677  1.00  0.00     0.163 HD
HETATM   12  O1  UNL     1       2.345   2.298   0.645  1.00  0.00    -0.271 OA
BRANCH  10  13
HETATM   13  C3  UNL     1       2.588  -0.308  -0.137  1.00  0.00     0.176 C 
BRANCH  13  14
HETATM   14  C2  UNL     1       2.311  -0.586  -1.596  1.00  0.00     0.030 C 
HETATM   15  C1  UNL     1       1.929   0.671  -2.336  1.00  0.00     0.007 C 
ENDBRANCH  13  14
BRANCH  13  16
HETATM   16  C23 UNL     1       3.052  -1.495   0.590  1.00  0.00     0.243 C 
HETATM   17  O4  UNL     1       2.352  -1.962   1.520  1.00  0.00    -0.271 OA
HETATM   18  N5  UNL     1       4.284  -2.172   0.304  1.00  0.00    -0.337 N 
HETATM   19  C24 UNL     1       5.289  -1.808  -0.669  1.00  0.00     0.127 C 
HETATM   20  C27 UNL     1       4.749  -3.383   0.942  1.00  0.00     0.176 C 
HETATM   21  C25 UNL     1       6.580  -2.132   0.057  1.00  0.00     0.022 C 
HETATM   22  C26 UNL     1       6.223  -3.138   1.118  1.00  0.00     0.036 C 
BRANCH  20  23
HETATM   23  C28 UNL     1       4.585  -4.579   0.059  1.00  0.00     0.254 C 
HETATM   24  N6  UNL     1       3.950  -4.523  -1.204  1.00  0.00    -0.060 NA
HETATM   25  O5  UNL     1       5.026  -5.715   0.434  1.00  0.00    -0.275 OA
ENDBRANCH  20  23
ENDBRANCH  13  16
ENDBRANCH  10  13
ENDBRANCH   1   9
BRANCH   7  26
HETATM   26  C11 UNL     1      -2.410   1.520  -0.034  1.00  0.00     0.176 C 
BRANCH  26  27
HETATM   27  C12 UNL     1      -3.401   2.630  -0.152  1.00  0.00     0.035 C 
BRANCH  27  28
HETATM   28  C13 UNL     1      -3.038   3.954   0.410  1.00  0.00     0.004 C 
BRANCH  28  29
HETATM   29  C14 UNL     1      -4.174   4.953   0.180  1.00  0.00     0.027 C 
BRANCH  29  30
HETATM   30  C15 UNL     1      -3.748   6.292   0.774  1.00  0.00     0.229 C 
BRANCH  30  31
HETATM   31  N3  UNL     1      -4.754   7.297   0.610  1.00  0.00    -0.079 N 
ATOM     32  H33 UNL     1      -5.022   7.395  -0.369  1.00  0.00     0.274 HD
ATOM     33  H32 UNL     1      -5.649   6.991   0.992  1.00  0.00     0.274 HD
ATOM     34  H31 UNL     1      -4.469   8.192   1.007  1.00  0.00     0.274 HD
ENDBRANCH  30  31
ENDBRANCH  29  30
ENDBRANCH  28  29
ENDBRANCH  27  28
ENDBRANCH  26  27
BRANCH  26  35
HETATM   35  N4  UNL     1      -3.155   0.342  -0.555  1.00  0.00    -0.348 N 
HETATM   36  C16 UNL     1      -2.663  -0.494  -1.576  1.00  0.00     0.218 C 
HETATM   37  O3  UNL     1      -1.565  -0.356  -2.149  1.00  0.00    -0.274 OA
ATOM     38  H4  UNL     1      -4.068   0.129  -0.152  1.00  0.00     0.163 HD
BRANCH  36  39
HETATM   39  C17 UNL     1      -3.503  -1.662  -2.037  1.00  0.00     0.107 C 
BRANCH  39  40
HETATM   40  C18 UNL     1      -2.693  -2.533  -3.002  1.00  0.00    -0.006 C 
HETATM   41  C19 UNL     1      -1.474  -3.073  -2.333  1.00  0.00     0.005 C 
HETATM   42  C20 UNL     1      -1.679  -4.572  -2.222  1.00  0.00     0.000 C 
HETATM   43  C21 UNL     1      -2.615  -4.904  -3.350  1.00  0.00     0.000 C 
HETATM   44  C22 UNL     1      -3.502  -3.710  -3.410  1.00  0.00     0.005 C 
ENDBRANCH  39  40
ENDBRANCH  36  39
ENDBRANCH  26  35
ENDBRANCH   7  26
TORSDOF 14
