REMARK  14 active torsions:
REMARK  status: ('A' for Active; 'I' for Inactive)
REMARK    1  A    between atoms: C2_2  and  N1_3 
REMARK    2  A    between atoms: C6_7  and  C7_8 
REMARK       I    between atoms: C7_8  and  N2_10 
REMARK    3  A    between atoms: N2_10  and  C8_12 
REMARK    4  A    between atoms: C8_12  and  C9_13 
REMARK    5  A    between atoms: C8_12  and  C14_22 
REMARK    6  A    between atoms: C9_13  and  C10_14 
REMARK    7  A    between atoms: C10_14  and  C11_15 
REMARK    8  A    between atoms: C11_15  and  C12_16 
REMARK    9  A    between atoms: C12_16  and  N3_17 
REMARK       I    between atoms: C14_22  and  N6_24 
REMARK   10  A    between atoms: N6_24  and  C15_26 
REMARK   11  A    between atoms: C15_26  and  C16_27 
REMARK   12  A    between atoms: C15_26  and  C23_34 
REMARK   13  A    between atoms: C16_27  and  C17_28 
REMARK       I    between atoms: C23_34  and  N7_36 
REMARK   14  A    between atoms: C26_39  and  O4_40 
ROOT
HETATM    1  C14 UNL     1      -0.397  -0.437  -0.196  1.00  0.00     0.241 C 
HETATM    2  O2  UNL     1      -0.399  -1.669   0.166  1.00  0.00    -0.271 OA
HETATM    3  N6  UNL     1      -1.513   0.407  -0.133  1.00  0.00    -0.346 N 
ATOM      4  H6  UNL     1      -1.426   1.372  -0.450  1.00  0.00     0.163 HD
ENDROOT
BRANCH   1   5
HETATM    5  C8  UNL     1       0.961  -0.001  -0.698  1.00  0.00     0.176 C 
BRANCH   5   6
HETATM    6  N2  UNL     1       1.929  -0.820  -0.050  1.00  0.00    -0.346 N 
HETATM    7  C7  UNL     1       2.758  -1.793  -0.620  1.00  0.00     0.252 C 
HETATM    8  O1  UNL     1       2.679  -2.008  -1.867  1.00  0.00    -0.271 OA
ATOM      9  H2  UNL     1       2.031  -0.680   0.955  1.00  0.00     0.163 HD
BRANCH   7  10
HETATM   10  C6  UNL     1       3.732  -2.599   0.147  1.00  0.00     0.314 C 
HETATM   11  N1  UNL     1       4.496  -3.489  -0.662  1.00  0.00     0.101 N 
HETATM   12  C3  UNL     1       5.710  -2.863  -1.073  1.00  0.00     0.273 C 
HETATM   13  C4  UNL     1       6.034  -1.957   0.095  1.00  0.00     0.033 C 
HETATM   14  C5  UNL     1       4.733  -1.682   0.778  1.00  0.00     0.047 C 
BRANCH  11  15
HETATM   15  C2  UNL     1       4.807  -4.688   0.089  1.00  0.00     0.269 C 
HETATM   16  C1  UNL     1       5.430  -5.755  -0.805  1.00  0.00     0.037 C 
ENDBRANCH  11  15
ENDBRANCH   7  10
ENDBRANCH   5   6
BRANCH   5  17
HETATM   17  C9  UNL     1       1.079   1.464  -0.507  1.00  0.00     0.035 C 
BRANCH  17  18
HETATM   18  C10 UNL     1       2.418   2.007  -0.994  1.00  0.00     0.004 C 
BRANCH  18  19
HETATM   19  C11 UNL     1       2.475   3.517  -0.797  1.00  0.00     0.020 C 
BRANCH  19  20
HETATM   20  C12 UNL     1       3.830   3.978  -1.312  1.00  0.00     0.122 C 
BRANCH  20  21
HETATM   21  N3  UNL     1       3.955   5.409  -1.176  1.00  0.00    -0.367 N 
HETATM   22  C13 UNL     1       4.205   6.013  -0.075  1.00  0.00     0.196 C 
HETATM   23  N4  UNL     1       4.382   5.271   1.122  1.00  0.00    -0.067 NA
HETATM   24  N5  UNL     1       4.284   7.428  -0.119  1.00  0.00    -0.067 NA
ATOM     25  H3  UNL     1       3.836   5.978  -2.014  1.00  0.00     0.161 HD
ENDBRANCH  20  21
ENDBRANCH  19  20
ENDBRANCH  18  19
ENDBRANCH  17  18
ENDBRANCH   5  17
ENDBRANCH   1   5
BRANCH   3  26
HETATM   26  C15 UNL     1      -2.790  -0.060   0.373  1.00  0.00     0.177 C 
BRANCH  26  27
HETATM   27  C16 UNL     1      -3.377  -1.055  -0.579  1.00  0.00     0.039 C 
BRANCH  27  28
HETATM   28  C17 UNL     1      -3.694  -0.534  -1.936  1.00  0.00    -0.012 C 
HETATM   29  C18 UNL     1      -4.667   0.627  -1.875  1.00  0.00     0.005 C 
HETATM   30  C19 UNL     1      -4.959   1.100  -3.281  1.00  0.00     0.000 C 
HETATM   31  C20 UNL     1      -4.455   0.149  -4.317  1.00  0.00     0.000 C 
HETATM   32  C21 UNL     1      -3.012  -0.173  -4.272  1.00  0.00     0.000 C 
HETATM   33  C22 UNL     1      -2.540  -0.275  -2.813  1.00  0.00     0.005 C 
ENDBRANCH  27  28
ENDBRANCH  26  27
BRANCH  26  34
HETATM   34  C23 UNL     1      -2.659  -0.475   1.776  1.00  0.00     0.242 C 
HETATM   35  O3  UNL     1      -1.470  -0.471   2.291  1.00  0.00    -0.271 OA
HETATM   36  N7  UNL     1      -3.700  -0.882   2.641  1.00  0.00    -0.350 N 
HETATM   37  C24 UNL     1      -3.335  -1.352   4.002  1.00  0.00     0.128 C 
HETATM   38  C28 UNL     1      -5.064  -0.796   2.246  1.00  0.00     0.128 C 
HETATM   39  C25 UNL     1      -4.032  -0.396   4.943  1.00  0.00     0.051 C 
HETATM   40  C26 UNL     1      -5.515  -0.573   4.726  1.00  0.00     0.121 C 
HETATM   41  C27 UNL     1      -5.991  -0.353   3.348  1.00  0.00     0.051 C 
BRANCH  40  42
HETATM   42  O4  UNL     1      -6.141   0.323   5.618  1.00  0.00    -0.395 OA
ATOM     43  H4  UNL     1      -7.075   0.212   5.481  1.00  0.00     0.210 HD
ENDBRANCH  40  42
ENDBRANCH  26  34
ENDBRANCH   3  26
TORSDOF 14
