REMARK  13 active torsions:
REMARK  status: ('A' for Active; 'I' for Inactive)
REMARK    1  A    between atoms: N1_1  and  C1_4 
REMARK    2  A    between atoms: C4_7  and  C5_8 
REMARK    3  A    between atoms: C6_9  and  C7_10 
REMARK    4  A    between atoms: N2_13  and  C10_14 
REMARK    5  A    between atoms: C10_14  and  C11_15 
REMARK    6  A    between atoms: C11_15  and  C12_16 
REMARK    7  A    between atoms: C12_16  and  C13_17 
REMARK    8  A    between atoms: C18_23  and  N4_24 
REMARK    9  A    between atoms: N6_30  and  C20_31 
REMARK   10  A    between atoms: C20_31  and  C21_32 
REMARK   11  A    between atoms: C21_32  and  C22_33 
REMARK   12  A    between atoms: C22_33  and  C23_34 
REMARK   13  A    between atoms: C23_34  and  S1_35 
ROOT
HETATM    1  C13 UNL     1       1.992   1.302   1.714  1.00  0.00    -0.054 A 
HETATM    2  C14 UNL     1       2.586   1.929   0.614  1.00  0.00     0.026 A 
HETATM    3  C15 UNL     1       3.472   1.294  -0.223  1.00  0.00     0.117 A 
HETATM    4  N3  UNL     1       3.785  -0.006   0.032  1.00  0.00    -0.261 N 
HETATM    5  C16 UNL     1       3.233  -0.624   1.072  1.00  0.00     0.100 A 
HETATM    6  C17 UNL     1       2.335  -0.006   1.933  1.00  0.00     0.042 A 
HETATM    7  C18 UNL     1       3.530  -1.948   1.363  1.00  0.00     0.129 A 
HETATM    8  N5  UNL     1       4.388  -2.570   0.560  1.00  0.00    -0.336 N 
ATOM      9  H5  UNL     1       4.636  -3.544   0.737  1.00  0.00     0.168 HD
HETATM   10  C19 UNL     1       4.937  -1.911  -0.498  1.00  0.00     0.202 A 
HETATM   11  N6  UNL     1       4.651  -0.633  -0.781  1.00  0.00    -0.281 N 
ENDROOT
BRANCH   1  12
HETATM   12  C12 UNL     1       1.068   2.085   2.562  1.00  0.00     0.040 C 
BRANCH  12  13
HETATM   13  C11 UNL     1      -0.321   2.017   2.001  1.00  0.00     0.025 C 
BRANCH  13  14
HETATM   14  C10 UNL     1      -0.796   0.607   1.961  1.00  0.00     0.128 C 
BRANCH  14  15
HETATM   15  N2  UNL     1      -2.151   0.493   1.442  1.00  0.00    -0.366 N 
HETATM   16  C9  UNL     1      -2.380   0.326   0.122  1.00  0.00     0.092 A 
HETATM   17  C8  UNL     1      -3.680   0.220  -0.349  1.00  0.00     0.038 A 
HETATM   18  C7  UNL     1      -4.748   0.283   0.514  1.00  0.00     0.020 A 
HETATM   19  C25 UNL     1      -4.466   0.455   1.859  1.00  0.00     0.038 A 
HETATM   20  C24 UNL     1      -3.160   0.560   2.321  1.00  0.00     0.092 A 
BRANCH  18  21
HETATM   21  C6  UNL     1      -6.087   0.172   0.007  1.00  0.00    -0.061 C 
HETATM   22  C5  UNL     1      -7.205   0.073  -0.438  1.00  0.00    -0.060 C 
BRANCH  22  23
HETATM   23  C4  UNL     1      -8.529  -0.026  -0.985  1.00  0.00     0.033 A 
HETATM   24  C3  UNL     1      -9.226   1.101  -1.386  1.00  0.00     0.026 A 
HETATM   25  C2  UNL     1     -10.496   0.992  -1.910  1.00  0.00     0.049 A 
HETATM   26  C1  UNL     1     -11.092  -0.237  -2.042  1.00  0.00     0.098 A 
HETATM   27  N7  UNL     1     -10.419  -1.327  -1.655  1.00  0.00    -0.351 N 
HETATM   28  C26 UNL     1      -9.185  -1.237  -1.145  1.00  0.00     0.110 A 
ATOM     29  H7  UNL     1     -10.855  -2.244  -1.751  1.00  0.00     0.166 HD
BRANCH  26  30
HETATM   30  N1  UNL     1     -12.289  -0.381  -2.532  1.00  0.00    -0.385 N 
ATOM     31  H12 UNL     1     -12.802   0.450  -2.827  1.00  0.00     0.157 HD
ATOM     32  H11 UNL     1     -12.732  -1.295  -2.630  1.00  0.00     0.157 HD
ENDBRANCH  26  30
ENDBRANCH  22  23
ENDBRANCH  18  21
ENDBRANCH  14  15
ENDBRANCH  13  14
ENDBRANCH  12  13
ENDBRANCH   1  12
BRANCH   7  33
HETATM   33  N4  UNL     1       2.981  -2.539   2.386  1.00  0.00    -0.384 N 
ATOM     34  H42 UNL     1       2.323  -2.062   3.002  1.00  0.00     0.157 HD
ATOM     35  H41 UNL     1       3.199  -3.512   2.600  1.00  0.00     0.157 HD
ENDBRANCH   7  33
BRANCH  11  36
HETATM   36  C20 UNL     1       5.201   0.092  -1.916  1.00  0.00     0.150 C 
BRANCH  36  37
HETATM   37  C21 UNL     1       6.428   0.876  -1.623  1.00  0.00     0.023 C 
BRANCH  37  38
HETATM   38  C22 UNL     1       7.572   0.030  -1.191  1.00  0.00     0.018 C 
BRANCH  38  39
HETATM   39  C23 UNL     1       8.058  -0.953  -2.207  1.00  0.00     0.157 C 
BRANCH  39  40
HETATM   40  S1  UNL     1       9.300  -1.807  -1.613  1.00  0.00     0.250 S 
HETATM   41  O1  UNL     1      10.004  -1.410  -0.550  1.00  0.00    -0.212 OA
HETATM   42  O2  UNL     1       9.931  -2.859  -2.502  1.00  0.00    -0.212 OA
ENDBRANCH  39  40
ENDBRANCH  38  39
ENDBRANCH  37  38
ENDBRANCH  36  37
ENDBRANCH  11  36
TORSDOF 13
