REMARK  3 active torsions:
REMARK  status: ('A' for Active; 'I' for Inactive)
REMARK       I    between atoms: N1_4  and  C3_5 
REMARK       I    between atoms: C3_5  and  N2_7 
REMARK    1  A    between atoms: N2_7  and  N3_9 
REMARK       I    between atoms: N3_9  and  C4_11 
REMARK    2  A    between atoms: C4_11  and  O4_13 
REMARK    3  A    between atoms: O4_13  and  C5_14 
ROOT
HETATM    1  C1  UNL     1      -3.610   2.328  -1.976  1.00  0.00     0.049 C 
HETATM    2  C2  UNL     1      -2.877   1.687  -1.101  1.00  0.00     0.073 C 
HETATM    3  O1  UNL     1      -1.591   1.164  -1.288  1.00  0.00    -0.236 OA
HETATM    4  N1  UNL     1      -1.351   0.156  -0.390  1.00  0.00    -0.195 N 
HETATM    5  C3  UNL     1      -0.110  -0.555  -0.208  1.00  0.00     0.361 C 
HETATM    6  O2  UNL     1      -0.018  -1.460   0.647  1.00  0.00    -0.243 OA
HETATM    7  N2  UNL     1       1.034  -0.250  -0.989  1.00  0.00    -0.245 N 
ATOM      8  H2  UNL     1       0.975   0.490  -1.689  1.00  0.00     0.192 HD
HETATM    9  C9  UNL     1      -2.589  -0.057   0.333  1.00  0.00     0.131 C 
HETATM   10  C10 UNL     1      -3.375  -1.056  -0.490  1.00  0.00     0.029 C 
HETATM   11  C11 UNL     1      -4.446  -1.763   0.272  1.00  0.00     0.002 C 
HETATM   12  C12 UNL     1      -5.468  -0.854   0.874  1.00  0.00     0.000 C 
HETATM   13  C13 UNL     1      -5.535   0.469   0.153  1.00  0.00     0.001 C 
HETATM   14  C14 UNL     1      -4.575   1.465   0.700  1.00  0.00     0.013 C 
HETATM   15  C15 UNL     1      -3.165   1.321   0.318  1.00  0.00     0.070 C 
ENDROOT
BRANCH   7  16
HETATM   16  N3  UNL     1       2.240  -0.937  -0.825  1.00  0.00    -0.241 N 
HETATM   17  C4  UNL     1       3.412  -0.294  -0.310  1.00  0.00     0.380 C 
HETATM   18  O3  UNL     1       3.387   0.920   0.014  1.00  0.00    -0.237 OA
ATOM     19  H3  UNL     1       2.287  -1.924  -1.079  1.00  0.00     0.192 HD
BRANCH  17  20
HETATM   20  O4  UNL     1       4.595  -0.978  -0.155  1.00  0.00    -0.293 OA
BRANCH  20  21
HETATM   21  C5  UNL     1       5.766  -0.412   0.341  1.00  0.00     0.061 C 
HETATM   22  C6  UNL     1       5.668   0.135   1.728  1.00  0.00     0.046 C 
HETATM   23  C7  UNL     1       6.281   0.708  -0.561  1.00  0.00     0.046 C 
HETATM   24  C8  UNL     1       6.837  -1.494   0.334  1.00  0.00     0.046 C 
ENDBRANCH  20  21
ENDBRANCH  17  20
ENDBRANCH   7  16
TORSDOF 3
