REMARK  7 active torsions:
REMARK  status: ('A' for Active; 'I' for Inactive)
REMARK    1  A    between atoms: C2_2  and  C3_3 
REMARK    2  A    between atoms: C3_3  and  C4_4 
REMARK    3  A    between atoms: C3_3  and  N1_6 
REMARK    4  A    between atoms: N1_6  and  C6_7 
REMARK    5  A    between atoms: N1_6  and  C8_13 
REMARK    6  A    between atoms: C6_7  and  C7_8 
REMARK    7  A    between atoms: C7_8  and  N2_9 
ROOT
HETATM    1  N1  UNL     1      -0.471   0.011   0.191  1.00  0.00    -0.361 N 
ENDROOT
BRANCH   1   2
HETATM    2  C3  UNL     1       0.900  -0.213   0.116  1.00  0.00    -0.012 C 
BRANCH   2   3
HETATM    3  C2  UNL     1       1.608  -0.504   1.396  1.00  0.00     0.048 C 
HETATM    4  C1  UNL     1       2.923  -1.183   1.311  1.00  0.00     0.011 C 
ENDBRANCH   2   3
BRANCH   2   5
HETATM    5  C4  UNL     1       1.599   0.689  -0.846  1.00  0.00     0.048 C 
HETATM    6  C5  UNL     1       2.936   0.152  -1.352  1.00  0.00     0.011 C 
ENDBRANCH   2   5
ENDBRANCH   1   2
BRANCH   1   7
HETATM    7  C6  UNL     1      -1.084   1.047   0.865  1.00  0.00     0.091 C 
BRANCH   7   8
HETATM    8  C7  UNL     1      -1.024   2.445   0.306  1.00  0.00     0.274 C 
BRANCH   8   9
HETATM    9  N2  UNL     1      -1.774   3.366   1.188  1.00  0.00    -0.075 N 
ATOM     10  H23 UNL     1      -2.733   3.055   1.343  1.00  0.00     0.274 HD
ATOM     11  H22 UNL     1      -1.448   3.324   2.154  1.00  0.00     0.274 HD
ATOM     12  H21 UNL     1      -1.733   4.312   0.810  1.00  0.00     0.274 HD
ENDBRANCH   8   9
ENDBRANCH   7   8
ENDBRANCH   1   7
BRANCH   1  13
HETATM   13  C8  UNL     1      -1.278  -0.718  -0.746  1.00  0.00     0.088 C 
HETATM   14  C9  UNL     1      -1.302  -2.211  -0.665  1.00  0.00     0.026 C 
HETATM   15  C10 UNL     1      -2.750  -2.096  -1.179  1.00  0.00     0.004 C 
HETATM   16  C11 UNL     1      -2.754  -0.772  -0.422  1.00  0.00     0.026 C 
ENDBRANCH   1  13
TORSDOF 7
