REMARK  6 active torsions:
REMARK  status: ('A' for Active; 'I' for Inactive)
REMARK    1  A    between atoms: N1_4  and  C4_5 
REMARK    2  A    between atoms: C4_5  and  C5_6 
REMARK    3  A    between atoms: C5_6  and  C6_7 
REMARK    4  A    between atoms: C5_6  and  C7_12 
REMARK    5  A    between atoms: C6_7  and  N2_8 
REMARK    6  A    between atoms: C7_12  and  C8_13 
ROOT
HETATM    1  C5  UNL     1       0.158  -1.137  -0.135  1.00  0.00     0.038 C 
ENDROOT
BRANCH   1   2
HETATM    2  C4  UNL     1       1.427  -1.010   0.602  1.00  0.00     0.130 C 
BRANCH   2   3
HETATM    3  N1  UNL     1       2.418  -0.090   0.155  1.00  0.00    -0.377 N 
HETATM    4  C2  UNL     1       3.203   1.122   0.367  1.00  0.00     0.016 A 
HETATM    5  C1  UNL     1       3.485   2.172   1.132  1.00  0.00     0.039 C 
HETATM    6  C3  UNL     1       3.442   0.365  -0.830  1.00  0.00     0.178 A 
ENDBRANCH   2   3
ENDBRANCH   1   2
BRANCH   1   7
HETATM    7  C6  UNL     1       0.301  -1.518  -1.570  1.00  0.00     0.236 C 
BRANCH   7   8
HETATM    8  N2  UNL     1       0.971  -2.823  -1.712  1.00  0.00    -0.079 N 
ATOM      9  H23 UNL     1       1.869  -2.837  -1.229  1.00  0.00     0.274 HD
ATOM     10  H22 UNL     1       0.494  -3.549  -1.177  1.00  0.00     0.274 HD
ATOM     11  H21 UNL     1       1.069  -3.084  -2.693  1.00  0.00     0.274 HD
ENDBRANCH   7   8
ENDBRANCH   1   7
BRANCH   1  12
HETATM   12  C7  UNL     1      -0.813  -0.018   0.150  1.00  0.00    -0.030 C 
HETATM   13  C11 UNL     1      -2.113  -0.227  -0.599  1.00  0.00     0.010 C 
HETATM   14  C12 UNL     1      -2.223   0.897  -1.621  1.00  0.00     0.001 C 
HETATM   15  C13 UNL     1      -1.402   2.013  -1.006  1.00  0.00     0.001 C 
HETATM   16  C14 UNL     1      -0.230   1.271  -0.363  1.00  0.00     0.010 C 
BRANCH  12  17
HETATM   17  C8  UNL     1      -1.111   0.060   1.599  1.00  0.00    -0.005 A 
HETATM   18  C9  UNL     1      -1.766  -1.012   2.363  1.00  0.00     0.006 A 
HETATM   19  C10 UNL     1      -2.414   0.388   2.242  1.00  0.00     0.006 A 
ENDBRANCH  12  17
ENDBRANCH   1  12
TORSDOF 6
