REMARK  4 active torsions:
REMARK  status: ('A' for Active; 'I' for Inactive)
REMARK    1  A    between atoms: C2_2  and  S1_3 
REMARK    2  A    between atoms: S1_3  and  C3_4 
REMARK    3  A    between atoms: C6_8  and  O2_9 
REMARK    4  A    between atoms: C7_11  and  O3_12 
ROOT
HETATM    1  C3  UNL     1       0.576   0.137   0.431  1.00  0.00     0.190 C 
HETATM    2  C4  UNL     1       0.204  -1.321   0.447  1.00  0.00     0.104 C 
HETATM    3  C5  UNL     1      -1.268  -1.387   0.048  1.00  0.00     0.269 C 
HETATM    4  O1  UNL     1      -1.968  -0.614   0.973  1.00  0.00    -0.329 OA
HETATM    5  C6  UNL     1      -3.128  -0.056   0.429  1.00  0.00     0.293 C 
HETATM    6  C7  UNL     1      -2.670   1.008  -0.562  1.00  0.00     0.228 C 
HETATM    7  C8  UNL     1      -1.248   0.606  -0.946  1.00  0.00     0.297 C 
HETATM    8  O4  UNL     1      -1.294  -0.748  -1.203  1.00  0.00    -0.329 OA
HETATM    9  O5  UNL     1      -0.430   0.988   0.080  1.00  0.00    -0.343 OA
ENDROOT
BRANCH   1  10
HETATM   10  S1  UNL     1       2.109   0.396  -0.524  1.00  0.00    -0.137 SA
BRANCH  10  11
HETATM   11  C2  UNL     1       3.516  -0.221   0.452  1.00  0.00     0.072 C 
HETATM   12  C1  UNL     1       4.795   0.420  -0.028  1.00  0.00     0.016 C 
ENDBRANCH  10  11
ENDBRANCH   1  10
BRANCH   6  13
HETATM   13  O3  UNL     1      -3.514   0.977  -1.663  1.00  0.00    -0.386 OA
ATOM     14  H3  UNL     1      -3.229   1.640  -2.281  1.00  0.00     0.210 HD
ENDBRANCH   6  13
BRANCH   5  15
HETATM   15  O2  UNL     1      -3.773   0.612   1.462  1.00  0.00    -0.368 OA
ATOM     16  H2  UNL     1      -4.562   0.991   1.092  1.00  0.00     0.212 HD
ENDBRANCH   5  15
TORSDOF 4
