REMARK  2 active torsions:
REMARK  status: ('A' for Active; 'I' for Inactive)
REMARK    1  A    between atoms: C2_2  and  C3_3 
REMARK    2  A    between atoms: C3_3  and  C4_4 
ROOT
HETATM    1  C4  UNL     1      -2.628  -0.661  -0.481  1.00  0.00    -0.012 C 
HETATM    2  C5  UNL     1      -2.538  -1.360   0.835  1.00  0.00     0.008 C 
HETATM    3  C6  UNL     1      -1.033  -1.521   0.968  1.00  0.00     0.042 C 
HETATM    4  C7  UNL     1      -0.440  -0.308   0.287  1.00  0.00     0.097 C 
HETATM    5  C8  UNL     1       0.277   0.508   1.312  1.00  0.00     0.041 C 
HETATM    6  C9  UNL     1       1.199   1.536   0.745  1.00  0.00     0.010 C 
HETATM    7  C10 UNL     1       2.003   1.071  -0.424  1.00  0.00     0.104 C 
HETATM    8  C11 UNL     1       2.515  -0.335  -0.295  1.00  0.00     0.369 C 
HETATM    9  N1  UNL     1       3.459  -0.601  -1.331  1.00  0.00    -0.014 N 
ATOM     10  H11 UNL     1       3.053  -0.393  -2.243  1.00  0.00     0.283 HD
ATOM     11  H12 UNL     1       3.604  -1.606  -1.429  1.00  0.00     0.283 HD
HETATM   12  C12 UNL     1       4.717   0.073  -1.179  1.00  0.00     0.247 C 
HETATM   13  C13 UNL     1       5.408  -0.201   0.118  1.00  0.00     0.111 C 
HETATM   14  C14 UNL     1       4.488  -0.929   1.043  1.00  0.00     0.118 C 
HETATM   15  N2  UNL     1       4.903  -1.831   1.873  1.00  0.00    -0.383 N 
ATOM     16  H21 UNL     1       4.275  -2.328   2.505  1.00  0.00     0.157 HD
ATOM     17  H22 UNL     1       5.887  -2.092   1.936  1.00  0.00     0.157 HD
HETATM   18  O1  UNL     1       3.137  -0.571   0.956  1.00  0.00    -0.277 OA
HETATM   19  O2  UNL     1       1.473  -1.264  -0.399  1.00  0.00    -0.168 OA
HETATM   20  O3  UNL     1       0.371  -0.667  -0.786  1.00  0.00    -0.225 OA
HETATM   21  C15 UNL     1      -1.628   0.446  -0.322  1.00  0.00     0.045 C 
ENDROOT
BRANCH   1  22
HETATM   22  C3  UNL     1      -3.993  -0.197  -0.855  1.00  0.00     0.004 C 
BRANCH  22  23
HETATM   23  C2  UNL     1      -4.608   0.772   0.095  1.00  0.00    -0.004 C 
HETATM   24  C1  UNL     1      -5.994   1.126  -0.459  1.00  0.00     0.005 C 
ENDBRANCH  22  23
ENDBRANCH   1  22
TORSDOF 2
