REMARK  14 active torsions:
REMARK  status: ('A' for Active; 'I' for Inactive)
REMARK    1  A    between atoms: N2_5  and  C4_7 
REMARK    2  A    between atoms: C4_7  and  C5_8 
REMARK    3  A    between atoms: C5_8  and  C6_9 
REMARK    4  A    between atoms: C6_9  and  C7_10 
REMARK    5  A    between atoms: C9_15  and  C10_16 
REMARK    6  A    between atoms: C10_16  and  C11_17 
REMARK    7  A    between atoms: C16_24  and  C17_25 
REMARK    8  A    between atoms: C17_25  and  C18_26 
REMARK    9  A    between atoms: C21_31  and  O3_32 
REMARK   10  A    between atoms: C22_34  and  C23_35 
REMARK   11  A    between atoms: C23_35  and  C24_36 
REMARK   12  A    between atoms: C32_48  and  O4_49 
REMARK   13  A    between atoms: C33_51  and  C34_52 
REMARK   14  A    between atoms: C34_52  and  C35_53 
ROOT
HETATM    1  C1  UNL     1       8.306   2.026   1.731  1.00  0.00     0.105 C 
HETATM    2  C2  UNL     1       8.207   1.477   0.646  1.00  0.00    -0.116 C 
HETATM    3  C3  UNL     1       8.069   0.844  -0.635  1.00  0.00     0.154 C 
HETATM    4  N1  UNL     1       9.260   0.457  -1.308  1.00  0.00    -0.074 NA
HETATM    5  N2  UNL     1       6.902   0.622  -1.177  1.00  0.00    -0.372 N 
ATOM      6  H2  UNL     1       6.816   0.171  -2.088  1.00  0.00     0.161 HD
ENDROOT
BRANCH   5   7
HETATM    7  C4  UNL     1       5.751   1.037  -0.441  1.00  0.00     0.121 C 
BRANCH   7   8
HETATM    8  C5  UNL     1       4.527   0.145  -0.682  1.00  0.00     0.023 C 
BRANCH   8   9
HETATM    9  C6  UNL     1       3.434   0.739   0.177  1.00  0.00     0.048 C 
BRANCH   9  10
HETATM   10  C7  UNL     1       2.121  -0.007   0.085  1.00  0.00     0.180 C 
HETATM   11  N3  UNL     1       2.336  -1.392   0.516  1.00  0.00    -0.335 N 
HETATM   12  C8  UNL     1       1.892  -2.537  -0.199  1.00  0.00     0.269 C 
ATOM     13  H3  UNL     1       2.839  -1.544   1.390  1.00  0.00     0.164 HD
HETATM   14  O1  UNL     1       2.772  -3.475  -0.166  1.00  0.00    -0.266 OA
HETATM   15  C9  UNL     1       0.614  -2.686  -0.898  1.00  0.00     0.102 C 
HETATM   16  N4  UNL     1      -0.275  -3.704  -0.322  1.00  0.00    -0.313 N 
HETATM   17  C14 UNL     1       0.281  -4.916   0.282  1.00  0.00     0.160 C 
HETATM   18  C15 UNL     1      -1.695  -3.589  -0.311  1.00  0.00     0.270 C 
HETATM   19  O2  UNL     1      -2.268  -4.664  -0.753  1.00  0.00    -0.266 OA
HETATM   20  C16 UNL     1      -2.536  -2.452   0.119  1.00  0.00     0.080 C 
HETATM   21  N5  UNL     1      -3.032  -1.655  -0.973  1.00  0.00    -0.334 N 
HETATM   22  C21 UNL     1      -3.419  -0.341  -1.117  1.00  0.00     0.164 C 
ATOM     23  H5  UNL     1      -3.116  -2.186  -1.840  1.00  0.00     0.168 HD
HETATM   24  C22 UNL     1      -2.669   0.938  -1.022  1.00  0.00     0.066 C 
HETATM   25  N7  UNL     1      -1.280   0.800  -1.297  1.00  0.00    -0.339 N 
HETATM   26  C32 UNL     1      -0.150   1.456  -0.823  1.00  0.00     0.139 C 
ATOM     27  H7  UNL     1      -1.071   0.072  -1.980  1.00  0.00     0.167 HD
HETATM   28  C33 UNL     1       0.330   1.583   0.577  1.00  0.00     0.153 C 
HETATM   29  N8  UNL     1       1.215   0.572   1.008  1.00  0.00    -0.390 N 
ATOM     30  H8  UNL     1       1.203   0.260   1.979  1.00  0.00     0.156 HD
BRANCH  15  31
HETATM   31  C10 UNL     1       0.613  -2.577  -2.351  1.00  0.00     0.012 C 
BRANCH  31  32
HETATM   32  C11 UNL     1       1.352  -3.430  -3.270  1.00  0.00     0.002 C 
HETATM   33  C12 UNL     1       1.032  -4.909  -3.244  1.00  0.00     0.013 C 
HETATM   34  C13 UNL     1       2.844  -3.210  -3.324  1.00  0.00     0.013 C 
ENDBRANCH  31  32
ENDBRANCH  15  31
BRANCH  20  35
HETATM   35  C17 UNL     1      -2.136  -1.746   1.353  1.00  0.00     0.067 C 
BRANCH  35  36
HETATM   36  C18 UNL     1      -2.154  -2.713   2.531  1.00  0.00    -0.017 C 
HETATM   37  C19 UNL     1      -1.742  -2.003   3.815  1.00  0.00     0.010 C 
HETATM   38  C20 UNL     1      -3.623  -3.107   2.753  1.00  0.00     0.010 C 
ENDBRANCH  35  36
ENDBRANCH  20  35
BRANCH  22  39
HETATM   39  O3  UNL     1      -4.675  -0.117  -1.395  1.00  0.00    -0.345 OA
ATOM     40  H3  UNL     1      -4.942   0.789  -1.494  1.00  0.00     0.219 HD
ENDBRANCH  22  39
BRANCH  24  41
HETATM   41  C23 UNL     1      -3.030   1.792   0.154  1.00  0.00     0.102 C 
BRANCH  41  42
HETATM   42  C24 UNL     1      -4.449   2.180   0.136  1.00  0.00    -0.025 A 
HETATM   43  C25 UNL     1      -5.450   1.677   0.941  1.00  0.00     0.096 A 
HETATM   44  N6  UNL     1      -6.612   2.293   0.636  1.00  0.00    -0.365 N 
HETATM   45  C26 UNL     1      -6.404   3.188  -0.348  1.00  0.00     0.042 A 
ATOM     46  H6  UNL     1      -7.510   2.109   1.083  1.00  0.00     0.165 HD
HETATM   47  C27 UNL     1      -7.258   4.053  -0.996  1.00  0.00     0.030 A 
HETATM   48  C31 UNL     1      -5.053   3.122  -0.665  1.00  0.00    -0.002 A 
HETATM   49  C28 UNL     1      -6.760   4.872  -1.983  1.00  0.00     0.002 A 
HETATM   50  C29 UNL     1      -5.421   4.807  -2.297  1.00  0.00     0.001 A 
HETATM   51  C30 UNL     1      -4.559   3.960  -1.669  1.00  0.00     0.014 A 
ENDBRANCH  41  42
ENDBRANCH  24  41
BRANCH  26  52
HETATM   52  O4  UNL     1       0.648   2.065  -1.653  1.00  0.00    -0.348 OA
ATOM     53  H4  UNL     1       1.420   2.513  -1.329  1.00  0.00     0.219 HD
ENDBRANCH  26  52
BRANCH  28  54
HETATM   54  C34 UNL     1       0.873   3.009   0.763  1.00  0.00     0.037 C 
BRANCH  54  55
HETATM   55  C35 UNL     1       1.390   3.262   2.133  1.00  0.00    -0.020 C 
HETATM   56  C36 UNL     1       0.300   3.069   3.159  1.00  0.00     0.009 C 
HETATM   57  C37 UNL     1       1.758   4.753   2.181  1.00  0.00     0.009 C 
ENDBRANCH  54  55
ENDBRANCH  28  54
ENDBRANCH   9  10
ENDBRANCH   8   9
ENDBRANCH   7   8
ENDBRANCH   5   7
TORSDOF 14
