REMARK  3 active torsions:
REMARK  status: ('A' for Active; 'I' for Inactive)
REMARK    1  A    between atoms: N1_1  and  C1_4 
REMARK    2  A    between atoms: C2_10  and  C3_11 
REMARK       I    between atoms: C3_11  and  N4_13 
REMARK    3  A    between atoms: N4_13  and  C4_15 
ROOT
HETATM    1  C3  UNL     1      -0.369  -0.239  -0.934  1.00  0.00     0.292 C 
HETATM    2  O2  UNL     1      -0.520  -1.344  -1.501  1.00  0.00    -0.265 OA
HETATM    3  N4  UNL     1       0.857   0.453  -0.882  1.00  0.00    -0.152 N 
ATOM      4  H4  UNL     1       0.877   1.412  -1.229  1.00  0.00     0.188 HD
ENDROOT
BRANCH   1   5
HETATM    5  C2  UNL     1      -1.531   0.363  -0.293  1.00  0.00     0.170 A 
HETATM    6  C1  UNL     1      -2.814  -0.121  -0.216  1.00  0.00     0.155 A 
HETATM    7  N2  UNL     1      -3.537   0.791   0.478  1.00  0.00    -0.224 N 
HETATM    8  O1  UNL     1      -2.743   1.745   0.790  1.00  0.00    -0.155 OA
ATOM      9  H2  UNL     1      -4.529   0.729   0.709  1.00  0.00     0.198 HD
HETATM   10  N3  UNL     1      -1.557   1.537   0.359  1.00  0.00    -0.233 N 
ATOM     11  H3  UNL     1      -0.761   2.161   0.489  1.00  0.00     0.197 HD
BRANCH   6  12
HETATM   12  N1  UNL     1      -3.302  -1.208  -0.683  1.00  0.00    -0.382 N 
ATOM     13  H12 UNL     1      -4.255  -1.567  -0.626  1.00  0.00     0.157 HD
ATOM     14  H11 UNL     1      -2.758  -1.895  -1.205  1.00  0.00     0.157 HD
ENDBRANCH   6  12
ENDBRANCH   1   5
BRANCH   3  15
HETATM   15  C4  UNL     1       1.948  -0.040  -0.429  1.00  0.00     0.713 A 
HETATM   16  N5  UNL     1       2.123  -1.275   0.069  1.00  0.00    -0.113 N 
HETATM   17  N6  UNL     1       3.407  -1.355   0.420  1.00  0.00     0.009 NA
ATOM     18  H5  UNL     1       1.416  -2.005   0.160  1.00  0.00     0.203 HD
HETATM   19  N7  UNL     1       4.029  -0.217   0.156  1.00  0.00    -0.212 N 
HETATM   20  N8  UNL     1       3.131   0.593  -0.366  1.00  0.00    -0.118 N 
ATOM     21  H7  UNL     1       5.013  -0.008   0.324  1.00  0.00     0.206 HD
ATOM     22  H8  UNL     1       3.306   1.550  -0.674  1.00  0.00     0.207 HD
ENDBRANCH   3  15
TORSDOF 3
