REMARK  9 active torsions:
REMARK  status: ('A' for Active; 'I' for Inactive)
REMARK    1  A    between atoms: C2_2  and  N1_3 
REMARK    2  A    between atoms: C2_2  and  C13_23 
REMARK    3  A    between atoms: N1_3  and  C3_5 
REMARK    4  A    between atoms: C3_5  and  C4_6 
REMARK    5  A    between atoms: C3_5  and  C8_14 
REMARK    6  A    between atoms: C4_6  and  C5_7 
REMARK    7  A    between atoms: C5_7  and  C6_8 
REMARK    8  A    between atoms: C6_8  and  N2_9 
REMARK       I    between atoms: N2_9  and  C7_11 
REMARK    9  A    between atoms: C8_14  and  N4_15 
ROOT
HETATM    1  C3  UNL     1      -0.618   0.028   0.072  1.00  0.00     0.113 C 
ENDROOT
BRANCH   1   2
HETATM    2  N1  UNL     1      -1.959   0.310   0.509  1.00  0.00    -0.403 N 
ATOM      3  H1  UNL     1      -2.598  -0.464   0.690  1.00  0.00     0.154 HD
BRANCH   2   4
HETATM    4  C2  UNL     1      -2.405   1.617   0.690  1.00  0.00     0.162 C 
HETATM    5  C1  UNL     1      -1.834   2.516   1.709  1.00  0.00     0.041 C 
BRANCH   4   6
HETATM    6  C13 UNL     1      -2.539   2.406  -0.576  1.00  0.00     0.253 C 
HETATM    7  N5  UNL     1      -2.956   3.743  -0.422  1.00  0.00    -0.060 NA
HETATM    8  O2  UNL     1      -2.320   1.990  -1.720  1.00  0.00    -0.275 OA
ENDBRANCH   4   6
ENDBRANCH   2   4
ENDBRANCH   1   2
BRANCH   1   9
HETATM    9  C4  UNL     1       0.432   0.341   1.077  1.00  0.00     0.029 C 
BRANCH   9  10
HETATM   10  C5  UNL     1       1.861   0.135   0.685  1.00  0.00     0.022 C 
BRANCH  10  11
HETATM   11  C6  UNL     1       2.223   0.994  -0.525  1.00  0.00     0.124 C 
BRANCH  11  12
HETATM   12  N2  UNL     1       3.595   0.747  -0.858  1.00  0.00    -0.345 N 
HETATM   13  C7  UNL     1       4.731   0.983  -0.056  1.00  0.00     0.328 C 
HETATM   14  N3  UNL     1       6.044   0.665  -0.568  1.00  0.00    -0.040 NA
HETATM   15  O1  UNL     1       4.621   1.465   1.096  1.00  0.00    -0.251 OA
ATOM     16  H2  UNL     1       3.770   0.355  -1.783  1.00  0.00     0.163 HD
ENDBRANCH  11  12
ENDBRANCH  10  11
ENDBRANCH   9  10
ENDBRANCH   1   9
BRANCH   1  17
HETATM   17  C8  UNL     1      -0.614  -1.435  -0.289  1.00  0.00     0.143 C 
HETATM   18  C9  UNL     1      -1.719  -1.718  -1.335  1.00  0.00     0.041 C 
HETATM   19  C10 UNL     1      -1.719  -3.244  -1.318  1.00  0.00     0.003 C 
HETATM   20  C11 UNL     1      -1.276  -3.660   0.047  1.00  0.00     0.003 C 
HETATM   21  C12 UNL     1      -1.131  -2.337   0.828  1.00  0.00     0.041 C 
BRANCH  17  22
HETATM   22  N4  UNL     1       0.551  -2.000  -0.797  1.00  0.00    -0.068 N 
ATOM     23  H43 UNL     1       0.851  -1.460  -1.609  1.00  0.00     0.275 HD
ATOM     24  H42 UNL     1       1.315  -1.820  -0.145  1.00  0.00     0.275 HD
ATOM     25  H41 UNL     1       0.554  -2.990  -1.041  1.00  0.00     0.275 HD
ENDBRANCH  17  22
ENDBRANCH   1  17
TORSDOF 9
