REMARK  2 active torsions:
REMARK  status: ('A' for Active; 'I' for Inactive)
REMARK       I    between atoms: C1_4  and  N2_5 
REMARK       I    between atoms: C1_4  and  N4_10 
REMARK    1  A    between atoms: N2_5  and  N3_7 
REMARK    2  A    between atoms: C4_17  and  N7_18 
ROOT
HETATM    1  N1  UNL     1      -2.073  -1.953   1.012  1.00  0.00    -0.233 N 
ATOM      2  H11 UNL     1      -1.386  -2.668   0.772  1.00  0.00     0.174 HD
ATOM      3  H12 UNL     1      -2.858  -2.129   1.638  1.00  0.00     0.174 HD
HETATM    4  C1  UNL     1      -1.967  -0.773   0.516  1.00  0.00     0.698 C 
HETATM    5  N2  UNL     1      -2.917   0.216   0.848  1.00  0.00    -0.138 N 
ATOM      6  H2  UNL     1      -3.430   0.165   1.728  1.00  0.00     0.205 HD
HETATM    7  N4  UNL     1      -0.876  -0.528  -0.354  1.00  0.00    -0.133 N 
HETATM    8  C2  UNL     1      -0.948  -0.598  -1.710  1.00  0.00     0.209 A 
HETATM    9  N5  UNL     1       0.277  -0.303  -2.153  1.00  0.00    -0.335 N 
ATOM     10  H5  UNL     1       0.533  -0.275  -3.140  1.00  0.00     0.168 HD
HETATM   11  C3  UNL     1       1.130  -0.048  -1.156  1.00  0.00     0.155 A 
HETATM   12  N6  UNL     1       2.424   0.285  -1.037  1.00  0.00    -0.174 N 
ATOM     13  H6  UNL     1       2.976   0.393  -1.888  1.00  0.00     0.186 HD
HETATM   14  C4  UNL     1       3.030   0.484   0.146  1.00  0.00     0.680 A 
HETATM   15  N8  UNL     1       2.304   0.341   1.262  1.00  0.00    -0.154 N 
ATOM     16  H8  UNL     1       2.748   0.488   2.169  1.00  0.00     0.187 HD
HETATM   17  C5  UNL     1       1.006   0.009   1.212  1.00  0.00     0.291 A 
HETATM   18  O1  UNL     1       0.369  -0.112   2.279  1.00  0.00    -0.265 OA
HETATM   19  C6  UNL     1       0.382  -0.195   0.001  1.00  0.00     0.170 A 
ENDROOT
BRANCH   5  20
HETATM   20  N3  UNL     1      -3.149   1.281  -0.058  1.00  0.00    -0.331 N 
ATOM     21  H32 UNL     1      -2.628   1.317  -0.934  1.00  0.00     0.177 HD
ATOM     22  H31 UNL     1      -3.836   1.996   0.182  1.00  0.00     0.177 HD
ENDBRANCH   5  20
BRANCH  14  23
HETATM   23  N7  UNL     1       4.286   0.806   0.224  1.00  0.00    -0.234 N 
ATOM     24  H72 UNL     1       4.839   0.915  -0.626  1.00  0.00     0.174 HD
ATOM     25  H71 UNL     1       4.746   0.957   1.122  1.00  0.00     0.174 HD
ENDBRANCH  14  23
TORSDOF 2
