REMARK  5 active torsions:
REMARK  status: ('A' for Active; 'I' for Inactive)
REMARK    1  A    between atoms: C3_3  and  N1_4 
REMARK    2  A    between atoms: C3_3  and  C4_8 
REMARK       I    between atoms: C4_8  and  N2_10 
REMARK    3  A    between atoms: N2_10  and  C5_12 
REMARK    4  A    between atoms: C9_18  and  C10_19 
REMARK       I    between atoms: C10_19  and  N4_21 
REMARK    5  A    between atoms: N4_21  and  S1_23 
ROOT
HETATM    1  C1  UNL     1       5.036   0.403  -0.406  1.00  0.00     0.015 C 
HETATM    2  C2  UNL     1       3.954   0.905  -0.226  1.00  0.00    -0.075 C 
HETATM    3  C3  UNL     1       2.623   1.501  -0.027  1.00  0.00     0.352 C 
ENDROOT
BRANCH   3   4
HETATM    4  N1  UNL     1       1.940   1.704  -1.277  1.00  0.00    -0.056 N 
ATOM      5  H13 UNL     1       2.503   2.257  -1.923  1.00  0.00     0.276 HD
ATOM      6  H12 UNL     1       1.884   0.839  -1.815  1.00  0.00     0.276 HD
ATOM      7  H11 UNL     1       1.018   2.117  -1.139  1.00  0.00     0.276 HD
ENDBRANCH   3   4
BRANCH   3   8
HETATM    8  C4  UNL     1       1.860   0.620   0.894  1.00  0.00     0.265 C 
HETATM    9  O1  UNL     1       2.358   0.387   2.023  1.00  0.00    -0.270 OA
HETATM   10  N2  UNL     1       0.615   0.050   0.543  1.00  0.00    -0.310 N 
ATOM     11  H2  UNL     1      -0.163   0.702   0.439  1.00  0.00     0.170 HD
BRANCH  10  12
HETATM   12  C5  UNL     1       0.349  -1.165   0.343  1.00  0.00     0.123 A 
HETATM   13  N3  UNL     1       1.384  -2.057   0.479  1.00  0.00    -0.351 N 
HETATM   14  C6  UNL     1       1.221  -3.378   0.309  1.00  0.00     0.090 A 
ATOM     15  H3  UNL     1       2.310  -1.703   0.718  1.00  0.00     0.166 HD
HETATM   16  C7  UNL     1      -0.039  -3.856  -0.016  1.00  0.00     0.018 A 
HETATM   17  C8  UNL     1      -1.094  -2.999  -0.160  1.00  0.00     0.022 A 
HETATM   18  C9  UNL     1      -0.896  -1.610   0.024  1.00  0.00     0.077 A 
BRANCH  18  19
HETATM   19  C10 UNL     1      -2.021  -0.712  -0.156  1.00  0.00     0.268 C 
HETATM   20  O2  UNL     1      -3.180  -1.291  -0.209  1.00  0.00    -0.267 OA
HETATM   21  N4  UNL     1      -2.054   0.663  -0.284  1.00  0.00    -0.250 N 
ATOM     22  H4  UNL     1      -1.188   1.201  -0.259  1.00  0.00     0.181 HD
BRANCH  21  23
HETATM   23  S1  UNL     1      -3.588   1.475  -0.489  1.00  0.00     0.229 S 
HETATM   24  C11 UNL     1      -3.505   3.098   0.238  1.00  0.00     0.186 C 
HETATM   25  O3  UNL     1      -4.612   0.676   0.255  1.00  0.00    -0.206 OA
HETATM   26  O4  UNL     1      -3.966   1.554  -1.937  1.00  0.00    -0.206 OA
ENDBRANCH  21  23
ENDBRANCH  18  19
ENDBRANCH  10  12
ENDBRANCH   3   8
TORSDOF 5
