REMARK  2 active torsions:
REMARK  status: ('A' for Active; 'I' for Inactive)
REMARK    1  A    between atoms: C2_2  and  O1_3 
REMARK    2  A    between atoms: O1_3  and  C3_4 
ROOT
HETATM    1  C3  UNL     1       1.932   0.391   0.113  1.00  0.00     0.181 C 
HETATM    2  C4  UNL     1       1.578  -1.026   0.470  1.00  0.00     0.040 C 
HETATM    3  C5  UNL     1       0.113  -1.091   0.806  1.00  0.00     0.045 C 
HETATM    4  C6  UNL     1      -0.662  -0.595  -0.371  1.00  0.00     0.106 C 
HETATM    5  C7  UNL     1      -0.623  -1.605  -1.535  1.00  0.00     0.160 C 
HETATM    6  N1  UNL     1      -1.802  -1.179  -2.274  1.00  0.00    -0.383 N 
ATOM      7  H1  UNL     1      -1.922  -1.279  -3.282  1.00  0.00     0.160 HD
HETATM    8  C8  UNL     1      -2.665  -0.664  -1.490  1.00  0.00     0.069 C 
HETATM    9  S1  UNL     1      -4.306   0.042  -1.791  1.00  0.00    -0.110 SA
HETATM   10  C9  UNL     1      -4.548   1.201  -0.420  1.00  0.00     0.124 C 
HETATM   11  C10 UNL     1      -3.935   0.701   0.838  1.00  0.00     0.067 C 
HETATM   12  N2  UNL     1      -2.679   0.158   0.825  1.00  0.00    -0.388 N 
ATOM     13  H2  UNL     1      -2.061   0.407   1.597  1.00  0.00     0.159 HD
HETATM   14  C11 UNL     1      -2.170  -0.692  -0.131  1.00  0.00     0.174 C 
HETATM   15  O2  UNL     1      -0.277   0.598  -0.875  1.00  0.00    -0.339 OA
HETATM   16  C12 UNL     1       0.778   1.227  -0.321  1.00  0.00     0.336 C 
HETATM   17  F1  UNL     1       0.311   1.995   0.756  1.00  0.00    -0.217 F 
ENDROOT
BRANCH   1  18
HETATM   18  O1  UNL     1       2.959   0.346  -0.821  1.00  0.00    -0.381 OA
BRANCH  18  19
HETATM   19  C2  UNL     1       4.146   0.875  -0.339  1.00  0.00     0.164 C 
HETATM   20  C1  UNL     1       4.679   0.175   0.863  1.00  0.00     0.033 C 
ENDBRANCH  18  19
ENDBRANCH   1  18
TORSDOF 2
