REMARK  9 active torsions:
REMARK  status: ('A' for Active; 'I' for Inactive)
REMARK    1  A    between atoms: C3_3  and  C4_4 
REMARK    2  A    between atoms: C4_4  and  C5_5 
REMARK    3  A    between atoms: C5_5  and  N1_6 
REMARK    4  A    between atoms: N1_6  and  C6_7 
REMARK    5  A    between atoms: C6_7  and  C7_8 
REMARK    6  A    between atoms: C12_15  and  C13_16 
REMARK    7  A    between atoms: C13_16  and  C14_17 
REMARK    8  A    between atoms: C14_17  and  N3_18 
REMARK    9  A    between atoms: C19_26  and  N4_28 
ROOT
HETATM    1  C1  UNL     1      -4.143   5.498   0.188  1.00  0.00     0.112 C 
HETATM    2  C2  UNL     1      -3.746   4.104   0.380  1.00  0.00    -0.111 C 
HETATM    3  C3  UNL     1      -3.422   2.946   0.517  1.00  0.00    -0.105 C 
ENDROOT
BRANCH   3   4
HETATM    4  C4  UNL     1      -3.034   1.516   0.659  1.00  0.00     0.123 C 
BRANCH   4   5
HETATM    5  C5  UNL     1      -1.776   1.378  -0.167  1.00  0.00     0.265 C 
BRANCH   5   6
HETATM    6  N1  UNL     1      -1.322  -0.002  -0.082  1.00  0.00     0.022 N 
HETATM    7  C17 UNL     1      -0.981  -0.372   1.221  1.00  0.00     0.212 C 
HETATM    8  C18 UNL     1      -1.595  -1.487   1.559  1.00  0.00     0.050 C 
HETATM    9  C19 UNL     1      -2.432  -1.978   0.470  1.00  0.00     0.262 C 
HETATM   10  C20 UNL     1      -3.837  -2.163   0.987  1.00  0.00     0.065 C 
HETATM   11  C23 UNL     1      -2.393  -0.836  -0.479  1.00  0.00     0.365 C 
HETATM   12  O1  UNL     1      -3.171  -0.708  -1.406  1.00  0.00    -0.261 OA
BRANCH   6  13
HETATM   13  C6  UNL     1      -0.251  -0.246  -1.045  1.00  0.00     0.291 C 
BRANCH  13  14
HETATM   14  C7  UNL     1       0.926   0.613  -0.872  1.00  0.00    -0.030 A 
HETATM   15  C8  UNL     1       0.947   1.886  -1.380  1.00  0.00     0.011 A 
HETATM   16  C9  UNL     1       2.061   2.665  -1.212  1.00  0.00     0.031 A 
HETATM   17  C10 UNL     1       3.158   2.182  -0.541  1.00  0.00     0.043 A 
HETATM   18  N2  UNL     1       4.358   2.741  -0.249  1.00  0.00    -0.365 N 
HETATM   19  C15 UNL     1       3.180   0.904  -0.013  1.00  0.00    -0.001 A 
HETATM   20  C11 UNL     1       5.114   1.852   0.438  1.00  0.00     0.096 A 
ATOM     21  H2  UNL     1       4.647   3.685  -0.507  1.00  0.00     0.165 HD
HETATM   22  C12 UNL     1       4.396   0.689   0.598  1.00  0.00    -0.029 A 
HETATM   23  C16 UNL     1       2.035   0.152  -0.205  1.00  0.00     0.023 A 
BRANCH  22  24
HETATM   24  C13 UNL     1       4.847  -0.557   1.281  1.00  0.00     0.068 C 
BRANCH  24  25
HETATM   25  C14 UNL     1       5.236  -1.616   0.265  1.00  0.00     0.234 C 
BRANCH  25  26
HETATM   26  N3  UNL     1       6.314  -1.149  -0.590  1.00  0.00    -0.079 N 
ATOM     27  H33 UNL     1       6.080  -0.264  -1.040  1.00  0.00     0.274 HD
ATOM     28  H32 UNL     1       7.118  -0.838  -0.045  1.00  0.00     0.274 HD
ATOM     29  H31 UNL     1       6.575  -1.860  -1.273  1.00  0.00     0.274 HD
ENDBRANCH  25  26
ENDBRANCH  24  25
ENDBRANCH  22  24
ENDBRANCH  13  14
ENDBRANCH   6  13
BRANCH   9  30
HETATM   30  N4  UNL     1      -1.927  -3.181  -0.163  1.00  0.00     0.102 N 
HETATM   31  C21 UNL     1      -1.877  -4.299   0.742  1.00  0.00     0.311 C 
HETATM   32  C22 UNL     1      -2.698  -3.521  -1.326  1.00  0.00     0.311 C 
ENDBRANCH   9  30
ENDBRANCH   5   6
ENDBRANCH   4   5
ENDBRANCH   3   4
TORSDOF 9
