REMARK  6 active torsions:
REMARK  status: ('A' for Active; 'I' for Inactive)
REMARK    1  A    between atoms: C4_6  and  S1_7 
REMARK    2  A    between atoms: S1_7  and  C5_8 
REMARK    3  A    between atoms: C5_8  and  C6_9 
REMARK    4  A    between atoms: C6_9  and  C7_10 
REMARK    5  A    between atoms: C8_11  and  O2_12 
REMARK    6  A    between atoms: C9_14  and  O3_15 
ROOT
HETATM    1  C7  UNL     1      -0.476   0.444   0.829  1.00  0.00     0.049 C 
HETATM    2  C8  UNL     1      -1.273   1.690   0.617  1.00  0.00     0.156 C 
HETATM    3  C9  UNL     1      -1.868   1.447  -0.765  1.00  0.00     0.178 C 
HETATM    4  C10 UNL     1      -2.102  -0.057  -0.816  1.00  0.00     0.185 C 
HETATM    5  O4  UNL     1      -3.459  -0.353  -0.703  1.00  0.00    -0.345 OA
HETATM    6  C11 UNL     1      -3.671  -0.924   0.523  1.00  0.00     0.158 C 
HETATM    7  C12 UNL     1      -4.966  -0.332   1.088  1.00  0.00     0.078 C 
HETATM    8  C13 UNL     1      -3.814  -2.427   0.456  1.00  0.00     0.078 C 
HETATM    9  O5  UNL     1      -2.586  -0.597   1.330  1.00  0.00    -0.347 OA
HETATM   10  C14 UNL     1      -1.532  -0.607   0.455  1.00  0.00     0.163 C 
ENDROOT
BRANCH   1  11
HETATM   11  C6  UNL     1       0.633   0.266  -0.146  1.00  0.00     0.020 C 
BRANCH  11  12
HETATM   12  C5  UNL     1       1.678   1.321  -0.177  1.00  0.00     0.076 C 
BRANCH  12  13
HETATM   13  S1  UNL     1       2.926   0.805  -1.434  1.00  0.00    -0.143 SA
BRANCH  13  14
HETATM   14  C4  UNL     1       3.715  -0.673  -0.812  1.00  0.00     0.157 C 
HETATM   15  N1  UNL     1       4.518  -0.552   0.366  1.00  0.00    -0.343 N 
HETATM   16  C1  UNL     1       4.554   0.218   1.576  1.00  0.00     0.154 C 
HETATM   17  C2  UNL     1       5.357  -1.571  -0.146  1.00  0.00     0.223 C 
HETATM   18  O1  UNL     1       6.015  -2.465   0.403  1.00  0.00    -0.273 OA
HETATM   19  C3  UNL     1       5.041  -1.034  -1.498  1.00  0.00     0.139 C 
ENDBRANCH  13  14
ENDBRANCH  12  13
ENDBRANCH  11  12
ENDBRANCH   1  11
BRANCH   2  20
HETATM   20  O2  UNL     1      -0.565   2.863   0.705  1.00  0.00    -0.392 OA
ATOM     21  H2  UNL     1      -1.072   3.655   0.570  1.00  0.00     0.210 HD
ENDBRANCH   2  20
BRANCH   3  22
HETATM   22  O3  UNL     1      -3.029   2.170  -0.914  1.00  0.00    -0.390 OA
ATOM     23  H3  UNL     1      -3.400   2.019  -1.775  1.00  0.00     0.210 HD
ENDBRANCH   3  22
TORSDOF 6
