REMARK  7 active torsions:
REMARK  status: ('A' for Active; 'I' for Inactive)
REMARK    1  A    between atoms: C2_2  and  O1_3 
REMARK    2  A    between atoms: O1_3  and  C3_4 
REMARK    3  A    between atoms: C3_4  and  C4_5 
REMARK    4  A    between atoms: C6_8  and  O2_9 
REMARK    5  A    between atoms: C6_8  and  O3_11 
REMARK    6  A    between atoms: C9_14  and  C10_15 
REMARK    7  A    between atoms: C10_15  and  O4_16 
ROOT
HETATM    1  C4  UNL     1       1.503   0.616  -0.330  1.00  0.00     0.131 A 
HETATM    2  N1  UNL     1       0.643   1.737  -0.616  1.00  0.00    -0.173 NA
HETATM    3  C5  UNL     1      -0.493   1.989   0.165  1.00  0.00     0.190 C 
HETATM    4  C6  UNL     1      -1.652   0.977  -0.053  1.00  0.00     0.182 C 
HETATM    5  C8  UNL     1      -0.850  -0.250   0.195  1.00  0.00     0.104 C 
HETATM    6  C9  UNL     1      -1.179  -1.582  -0.284  1.00  0.00     0.014 C 
HETATM    7  C11 UNL     1      -0.902  -2.564   0.867  1.00  0.00     0.014 C 
HETATM    8  C12 UNL     1       0.237  -2.173   1.727  1.00  0.00     0.004 C 
HETATM    9  C13 UNL     1       1.283  -1.291   1.229  1.00  0.00     0.044 C 
HETATM   10  C14 UNL     1       1.293  -0.789  -0.156  1.00  0.00     0.124 A 
HETATM   11  O5  UNL     1       1.149  -1.874  -0.993  1.00  0.00    -0.374 OA
HETATM   12  C15 UNL     1      -0.195  -2.129  -1.351  1.00  0.00     0.181 C 
HETATM   13  C16 UNL     1       0.292   0.044  -0.703  1.00  0.00     0.153 A 
HETATM   14  O6  UNL     1       0.280   0.944  -1.692  1.00  0.00    -0.285 OA
ENDROOT
BRANCH   1  15
HETATM   15  C3  UNL     1       2.700   0.780  -1.290  1.00  0.00     0.208 C 
BRANCH  15  16
HETATM   16  O1  UNL     1       3.335   2.028  -1.024  1.00  0.00    -0.362 OA
BRANCH  16  17
HETATM   17  C2  UNL     1       3.876   2.327   0.215  1.00  0.00     0.124 C 
HETATM   18  C1  UNL     1       5.096   1.953   0.558  1.00  0.00     0.037 C 
ENDBRANCH  16  17
ENDBRANCH  15  16
ENDBRANCH   1  15
BRANCH   4  19
HETATM   19  O2  UNL     1      -2.198   1.075  -1.300  1.00  0.00    -0.364 OA
ATOM     20  H2  UNL     1      -2.907   0.456  -1.433  1.00  0.00     0.213 HD
ENDBRANCH   4  19
BRANCH   4  21
HETATM   21  O3  UNL     1      -2.547   1.220   0.977  1.00  0.00    -0.358 OA
HETATM   22  C7  UNL     1      -3.121   2.458   0.962  1.00  0.00     0.205 C 
ENDBRANCH   4  21
BRANCH   6  23
HETATM   23  C10 UNL     1      -2.546  -1.809  -0.823  1.00  0.00     0.176 C 
BRANCH  23  24
HETATM   24  O4  UNL     1      -3.559  -1.565   0.081  1.00  0.00    -0.400 OA
ATOM     25  H4  UNL     1      -4.432  -1.710  -0.263  1.00  0.00     0.209 HD
ENDBRANCH  23  24
ENDBRANCH   6  23
TORSDOF 7
