REMARK  5 active torsions:
REMARK  status: ('A' for Active; 'I' for Inactive)
REMARK    1  A    between atoms: C3_3  and  C4_4 
REMARK    2  A    between atoms: C4_4  and  C6_7 
REMARK    3  A    between atoms: C6_7  and  C9_10 
REMARK    4  A    between atoms: C9_10  and  O1_11 
REMARK    5  A    between atoms: C9_10  and  C10_13 
ROOT
HETATM    1  C1  UNL     1      -3.734  -0.859  -1.861  1.00  0.00     0.112 C 
HETATM    2  C2  UNL     1      -2.807  -0.428  -0.795  1.00  0.00    -0.109 C 
HETATM    3  C3  UNL     1      -2.054  -0.090   0.090  1.00  0.00    -0.080 C 
ENDROOT
BRANCH   3   4
HETATM    4  C4  UNL     1      -1.143   0.299   1.180  1.00  0.00     0.106 C 
HETATM    5  C5  UNL     1      -1.527   1.666   1.704  1.00  0.00     0.048 C 
HETATM    6 CL1  UNL     1      -1.258  -0.847   2.508  1.00  0.00    -0.105 Cl
BRANCH   4   7
HETATM    7  C6  UNL     1       0.261   0.290   0.618  1.00  0.00     0.018 C 
HETATM    8  C7  UNL     1       1.292   0.669   1.626  1.00  0.00     0.021 C 
HETATM    9  C8  UNL     1       0.372   1.269  -0.544  1.00  0.00     0.021 C 
BRANCH   7  10
HETATM   10  C9  UNL     1       0.521  -1.084   0.049  1.00  0.00     0.206 C 
BRANCH  10  11
HETATM   11  O1  UNL     1       0.417  -2.090   1.010  1.00  0.00    -0.386 OA
ATOM     12  H1  UNL     1       0.581  -2.955   0.652  1.00  0.00     0.210 HD
ENDBRANCH  10  11
BRANCH  10  13
HETATM   13  C10 UNL     1       1.949  -1.179  -0.469  1.00  0.00     0.187 C 
HETATM   14  N1  UNL     1       2.196  -1.409  -1.673  1.00  0.00    -0.228 N 
HETATM   15  O2  UNL     1       3.483  -1.484  -2.083  1.00  0.00    -0.147 OA
ATOM     16  H1  UNL     1       1.435  -1.539  -2.339  1.00  0.00     0.197 HD
HETATM   17  S1  UNL     1       4.366  -0.823  -0.721  1.00  0.00     0.335 S 
HETATM   18  O3  UNL     1       4.497   0.668  -1.004  1.00  0.00    -0.194 OA
HETATM   19  O4  UNL     1       3.037  -1.014   0.375  1.00  0.00    -0.211 OA
ENDBRANCH  10  13
ENDBRANCH   7  10
ENDBRANCH   4   7
ENDBRANCH   3   4
TORSDOF 5
