REMARK  7 active torsions:
REMARK  status: ('A' for Active; 'I' for Inactive)
REMARK    1  A    between atoms: C2_2  and  O2_4 
REMARK    2  A    between atoms: O2_4  and  C3_5 
REMARK    3  A    between atoms: C5_7  and  O3_8 
REMARK    4  A    between atoms: C5_7  and  C13_22 
REMARK    5  A    between atoms: O3_8  and  C6_9 
REMARK    6  A    between atoms: C9_13  and  C10_14 
REMARK    7  A    between atoms: C12_17  and  N1_18 
ROOT
HETATM    1  C3  UNL     1       1.560  -0.068  -0.117  1.00  0.00     0.142 C 
HETATM    2  C4  UNL     1       0.496  -1.133  -0.386  1.00  0.00     0.072 C 
HETATM    3  C5  UNL     1      -0.727  -0.492   0.224  1.00  0.00     0.082 C 
HETATM    4  C8  UNL     1      -0.102   0.045   1.524  1.00  0.00     0.050 C 
HETATM    5  C9  UNL     1       0.933   0.938   0.820  1.00  0.00     0.058 C 
ENDROOT
BRANCH   1   6
HETATM    6  O2  UNL     1       2.753  -0.606   0.356  1.00  0.00    -0.316 OA
BRANCH   6   7
HETATM    7  C2  UNL     1       3.968  -0.461  -0.296  1.00  0.00     0.255 C 
HETATM    8  C1  UNL     1       5.240  -1.037   0.214  1.00  0.00     0.126 C 
HETATM    9  O1  UNL     1       3.968   0.194  -1.368  1.00  0.00    -0.266 OA
ENDBRANCH   6   7
ENDBRANCH   1   6
BRANCH   5  10
HETATM   10  C10 UNL     1       0.032   1.808  -0.008  1.00  0.00     0.120 C 
HETATM   11  F1  UNL     1       0.691   2.472  -1.006  1.00  0.00    -0.242 F 
HETATM   12  C11 UNL     1      -1.007   2.590   0.710  1.00  0.00     0.078 C 
HETATM   13  C12 UNL     1      -2.064   1.675   0.102  1.00  0.00     0.196 C 
HETATM   14  C13 UNL     1      -0.997   0.781  -0.506  1.00  0.00     0.091 C 
BRANCH  13  15
HETATM   15  N1  UNL     1      -2.830   2.300  -0.966  1.00  0.00    -0.074 N 
ATOM     16  H13 UNL     1      -3.250   3.173  -0.646  1.00  0.00     0.274 HD
ATOM     17  H12 UNL     1      -2.210   2.665  -1.689  1.00  0.00     0.274 HD
ATOM     18  H11 UNL     1      -3.537   1.688  -1.373  1.00  0.00     0.274 HD
ENDBRANCH  13  15
ENDBRANCH   5  10
BRANCH   3  19
HETATM   19  O3  UNL     1      -1.789  -1.323   0.449  1.00  0.00    -0.310 OA
BRANCH  19  20
HETATM   20  C6  UNL     1      -2.488  -2.060  -0.461  1.00  0.00     0.255 C 
HETATM   21  C7  UNL     1      -3.610  -2.897  -0.002  1.00  0.00     0.126 C 
HETATM   22  O4  UNL     1      -2.137  -1.990  -1.665  1.00  0.00    -0.266 OA
ENDBRANCH  19  20
ENDBRANCH   3  19
TORSDOF 7
