REMARK  6 active torsions:
REMARK  status: ('A' for Active; 'I' for Inactive)
REMARK    1  A    between atoms: C2_2  and  C3_3 
REMARK    2  A    between atoms: C2_2  and  C5_9 
REMARK    3  A    between atoms: C3_3  and  O1_4 
REMARK    4  A    between atoms: C3_3  and  C4_6 
REMARK    5  A    between atoms: C4_6  and  O2_7 
REMARK    6  A    between atoms: C7_12  and  O4_14 
ROOT
HETATM    1  C5  UNL     1       0.518  -0.366   0.650  1.00  0.00     0.139 C 
HETATM    2  O3  UNL     1      -0.060   0.919   0.808  1.00  0.00    -0.375 OA
HETATM    3  C6  UNL     1      -0.906   0.601  -0.222  1.00  0.00     0.166 C 
HETATM    4  C7  UNL     1      -2.298   1.140  -0.159  1.00  0.00     0.081 C 
HETATM    5  C8  UNL     1      -3.002   0.748  -1.447  1.00  0.00     0.049 C 
HETATM    6  C9  UNL     1      -3.107   0.655   0.990  1.00  0.00     0.040 C 
HETATM    7  C10 UNL     1      -2.337  -0.182   1.970  1.00  0.00     0.004 C 
HETATM    8  C11 UNL     1      -1.690  -1.310   1.211  1.00  0.00     0.014 C 
HETATM    9  C12 UNL     1      -0.766  -0.833   0.126  1.00  0.00     0.012 C 
HETATM   10  C13 UNL     1      -0.805  -1.741  -1.054  1.00  0.00     0.020 C 
ENDROOT
BRANCH   1  11
HETATM   11  C2  UNL     1       1.703  -0.255  -0.250  1.00  0.00     0.042 C 
HETATM   12  C1  UNL     1       2.416  -1.535  -0.508  1.00  0.00     0.015 C 
BRANCH  11  13
HETATM   13  C3  UNL     1       2.677   0.678   0.456  1.00  0.00     0.148 C 
BRANCH  13  14
HETATM   14  O1  UNL     1       3.062   0.068   1.644  1.00  0.00    -0.393 OA
ATOM     15  H1  UNL     1       3.670   0.650   2.085  1.00  0.00     0.210 HD
ENDBRANCH  13  14
BRANCH  13  16
HETATM   16  C4  UNL     1       3.905   0.942  -0.373  1.00  0.00     0.196 C 
BRANCH  16  17
HETATM   17  O2  UNL     1       3.625   1.548  -1.578  1.00  0.00    -0.398 OA
ATOM     18  H2  UNL     1       4.400   1.715  -2.101  1.00  0.00     0.209 HD
ENDBRANCH  16  17
ENDBRANCH  13  16
ENDBRANCH  11  13
ENDBRANCH   1  11
BRANCH   4  19
HETATM   19  O4  UNL     1      -2.199   2.544  -0.145  1.00  0.00    -0.388 OA
ATOM     20  H4  UNL     1      -3.084   2.887  -0.105  1.00  0.00     0.210 HD
ENDBRANCH   4  19
TORSDOF 6
