REMARK  12 active torsions:
REMARK  status: ('A' for Active; 'I' for Inactive)
REMARK    1  A    between atoms: N2_3  and  C2_5 
REMARK    2  A    between atoms: C2_5  and  N3_6 
REMARK    3  A    between atoms: C3_7  and  C4_8 
REMARK    4  A    between atoms: C4_8  and  N6_14 
REMARK    5  A    between atoms: N4_9  and  N5_11 
REMARK    6  A    between atoms: N6_14  and  N7_16 
REMARK    7  A    between atoms: C6_22  and  N9_23 
REMARK    8  A    between atoms: N9_23  and  C7_25 
REMARK    9  A    between atoms: C7_25  and  C8_26 
REMARK   10  A    between atoms: C8_26  and  O1_27 
REMARK   11  A    between atoms: C8_26  and  C9_29 
REMARK   12  A    between atoms: C9_29  and  O2_30 
ROOT
HETATM    1  N1  UNL     1      -1.603   2.991   2.559  1.00  0.00    -0.172 NA
HETATM    2  C1  UNL     1      -2.428   2.768   1.776  1.00  0.00     0.182 C 
HETATM    3  N2  UNL     1      -3.426   2.499   0.825  1.00  0.00    -0.289 N 
ATOM      4  H2  UNL     1      -4.297   3.029   0.866  1.00  0.00     0.178 HD
ENDROOT
BRANCH   3   5
HETATM    5  C2  UNL     1      -3.286   1.611  -0.096  1.00  0.00     0.202 C 
BRANCH   5   6
HETATM    6  N3  UNL     1      -2.104   0.829  -0.223  1.00  0.00    -0.273 N 
HETATM    7  C3  UNL     1      -1.989  -0.486   0.034  1.00  0.00     0.163 A 
HETATM    8  N8  UNL     1      -0.692  -0.788  -0.226  1.00  0.00    -0.333 N 
HETATM    9  C5  UNL     1      -0.039   0.314  -0.628  1.00  0.00     0.123 A 
ATOM     10  H8  UNL     1      -0.275  -1.714  -0.130  1.00  0.00     0.168 HD
HETATM   11  C6  UNL     1       1.272   0.596  -1.018  1.00  0.00     0.133 A 
HETATM   12  C11 UNL     1      -0.927   1.354  -0.632  1.00  0.00     0.146 A 
HETATM   13  N10 UNL     1       1.640   1.828  -1.377  1.00  0.00    -0.337 N 
HETATM   14  C10 UNL     1       0.739   2.859  -1.376  1.00  0.00     0.183 A 
ATOM     15  H10 UNL     1       2.605   2.004  -1.656  1.00  0.00     0.168 HD
HETATM   16  N11 UNL     1      -0.517   2.580  -1.000  1.00  0.00    -0.336 N 
ATOM     17  H11 UNL     1      -1.198   3.339  -0.993  1.00  0.00     0.168 HD
BRANCH   7  18
HETATM   18  C4  UNL     1      -3.018  -1.412   0.492  1.00  0.00     0.179 C 
HETATM   19  N4  UNL     1      -3.992  -0.999   1.232  1.00  0.00    -0.288 N 
ATOM     20  H4  UNL     1      -4.023  -0.012   1.486  1.00  0.00     0.188 HD
BRANCH  19  21
HETATM   21  N5  UNL     1      -5.000  -1.833   1.699  1.00  0.00    -0.343 N 
ATOM     22  H52 UNL     1      -4.953  -2.817   1.435  1.00  0.00     0.176 HD
ATOM     23  H51 UNL     1      -5.770  -1.507   2.284  1.00  0.00     0.176 HD
ENDBRANCH  19  21
BRANCH  18  24
HETATM   24  N6  UNL     1      -2.971  -2.787   0.136  1.00  0.00    -0.288 N 
ATOM     25  H6  UNL     1      -2.066  -3.248   0.044  1.00  0.00     0.188 HD
BRANCH  24  26
HETATM   26  N7  UNL     1      -4.136  -3.520  -0.090  1.00  0.00    -0.343 N 
ATOM     27  H72 UNL     1      -5.033  -3.044   0.006  1.00  0.00     0.176 HD
ATOM     28  H71 UNL     1      -4.102  -4.507  -0.346  1.00  0.00     0.176 HD
ENDBRANCH  24  26
ENDBRANCH  18  24
ENDBRANCH   7  18
BRANCH  11  29
HETATM   29  N9  UNL     1       2.111  -0.358  -1.021  1.00  0.00    -0.372 N 
ATOM     30  H9  UNL     1       1.767  -1.275  -0.735  1.00  0.00     0.161 HD
BRANCH  29  31
HETATM   31  C7  UNL     1       3.483  -0.273  -1.384  1.00  0.00     0.155 C 
BRANCH  31  32
HETATM   32  C8  UNL     1       4.310  -0.276  -0.114  1.00  0.00     0.159 C 
BRANCH  32  33
HETATM   33  O1  UNL     1       5.657  -0.193  -0.370  1.00  0.00    -0.392 OA
ATOM     34  H1  UNL     1       6.175  -0.195   0.426  1.00  0.00     0.210 HD
ENDBRANCH  32  33
BRANCH  32  35
HETATM   35  C9  UNL     1       3.902   0.773   0.867  1.00  0.00     0.197 C 
BRANCH  35  36
HETATM   36  O2  UNL     1       4.628   0.556   2.047  1.00  0.00    -0.398 OA
ATOM     37  H2  UNL     1       4.368   1.223   2.671  1.00  0.00     0.209 HD
ENDBRANCH  35  36
ENDBRANCH  32  35
ENDBRANCH  31  32
ENDBRANCH  29  31
ENDBRANCH  11  29
ENDBRANCH   5   6
ENDBRANCH   3   5
TORSDOF 12
