REMARK  13 active torsions:
REMARK  status: ('A' for Active; 'I' for Inactive)
REMARK    1  A    between atoms: C2_2  and  C3_3 
REMARK    2  A    between atoms: C3_3  and  O1_4 
REMARK    3  A    between atoms: O1_4  and  C4_5 
REMARK       I    between atoms: C4_5  and  N1_7 
REMARK    4  A    between atoms: N2_10  and  C7_11 
REMARK    5  A    between atoms: C7_11  and  C8_12 
REMARK    6  A    between atoms: C8_12  and  C9_13 
REMARK    7  A    between atoms: C9_13  and  N3_14 
REMARK    8  A    between atoms: N3_14  and  C10_15 
REMARK    9  A    between atoms: N3_14  and  C26_36 
REMARK   10  A    between atoms: C10_15  and  C11_16 
REMARK   11  A    between atoms: C11_16  and  N4_17 
REMARK   12  A    between atoms: C17_26  and  N6_27 
REMARK   13  A    between atoms: C26_36  and  C27_37 
ROOT
HETATM    1  N3  UNL     1       0.579  -0.685   0.399  1.00  0.00    -0.372 N 
ENDROOT
BRANCH   1   2
HETATM    2  C9  UNL     1       0.735   0.130  -0.736  1.00  0.00     0.065 C 
BRANCH   2   3
HETATM    3  C8  UNL     1       2.176   0.467  -1.070  1.00  0.00     0.075 C 
BRANCH   3   4
HETATM    4  C7  UNL     1       2.846   1.274  -0.031  1.00  0.00     0.277 C 
BRANCH   4   5
HETATM    5  N2  UNL     1       4.241   1.601  -0.274  1.00  0.00     0.091 N 
HETATM    6  C6  UNL     1       4.745   2.539   0.660  1.00  0.00     0.292 C 
HETATM    7  C5  UNL     1       6.134   2.243   1.125  1.00  0.00     0.158 C 
HETATM    8  N1  UNL     1       6.975   1.762   0.059  1.00  0.00    -0.325 N 
HETATM    9  C4  UNL     1       8.340   2.124  -0.007  1.00  0.00     0.363 C 
HETATM   10  C33 UNL     1       6.430   0.884  -0.972  1.00  0.00     0.158 C 
HETATM   11  O2  UNL     1       8.878   2.892   0.858  1.00  0.00    -0.238 OA
HETATM   12  C32 UNL     1       5.035   0.428  -0.510  1.00  0.00     0.292 C 
BRANCH   9  13
HETATM   13  O1  UNL     1       9.202   1.670  -1.021  1.00  0.00    -0.300 OA
BRANCH  13  14
HETATM   14  C3  UNL     1      10.568   2.070  -1.032  1.00  0.00     0.207 C 
BRANCH  14  15
HETATM   15  C2  UNL     1      11.233   1.435  -2.196  1.00  0.00    -0.011 C 
HETATM   16  C1  UNL     1      12.253   0.623  -2.001  1.00  0.00     0.009 C 
ENDBRANCH  14  15
ENDBRANCH  13  14
ENDBRANCH   9  13
ENDBRANCH   4   5
ENDBRANCH   3   4
ENDBRANCH   2   3
ENDBRANCH   1   2
BRANCH   1  17
HETATM   17  C10 UNL     1      -0.721  -0.915   0.854  1.00  0.00     0.083 C 
BRANCH  17  18
HETATM   18  C11 UNL     1      -1.446   0.316   1.446  1.00  0.00     0.175 C 
BRANCH  18  19
HETATM   19  N4  UNL     1      -2.750  -0.005   1.927  1.00  0.00    -0.332 N 
HETATM   20  C12 UNL     1      -2.954  -0.740   3.135  1.00  0.00     0.077 C 
HETATM   21  N5  UNL     1      -2.092  -1.535   3.592  1.00  0.00    -0.389 N 
HETATM   22  C13 UNL     1      -4.270  -0.505   3.847  1.00  0.00     0.081 C 
ATOM     23  H52 UNL     1      -1.206  -1.693   3.113  1.00  0.00     0.157 HD
ATOM     24  H51 UNL     1      -2.238  -2.060   4.454  1.00  0.00     0.157 HD
HETATM   25  C14 UNL     1      -5.345  -0.874   2.865  1.00  0.00     0.048 C 
HETATM   26  C15 UNL     1      -5.202  -0.042   1.646  1.00  0.00    -0.029 A 
HETATM   27  C16 UNL     1      -6.360   0.309   0.941  1.00  0.00     0.038 A 
HETATM   28  C25 UNL     1      -3.932   0.324   1.214  1.00  0.00     0.042 A 
HETATM   29  C17 UNL     1      -6.305   1.031  -0.213  1.00  0.00     0.030 A 
HETATM   30  C23 UNL     1      -5.031   1.400  -0.649  1.00  0.00     0.031 A 
HETATM   31  C24 UNL     1      -3.884   1.058   0.041  1.00  0.00     0.032 A 
BRANCH  29  32
HETATM   32  N6  UNL     1      -7.456   1.360  -0.975  1.00  0.00    -0.381 N 
HETATM   33  C18 UNL     1      -8.619   0.515  -0.923  1.00  0.00     0.123 C 
HETATM   34  C19 UNL     1      -9.918   1.271  -0.814  1.00  0.00     0.020 C 
HETATM   35  C20 UNL     1      -9.701   2.756  -0.863  1.00  0.00     0.003 C 
HETATM   36  C21 UNL     1      -8.845   3.086  -2.042  1.00  0.00     0.020 C 
HETATM   37  C22 UNL     1      -7.445   2.542  -1.799  1.00  0.00     0.123 C 
ENDBRANCH  29  32
ENDBRANCH  18  19
ENDBRANCH  17  18
ENDBRANCH   1  17
BRANCH   1  38
HETATM   38  C26 UNL     1       1.432  -1.832   0.463  1.00  0.00     0.131 C 
BRANCH  38  39
HETATM   39  C27 UNL     1       1.274  -2.903  -0.523  1.00  0.00     0.007 C 
HETATM   40  C28 UNL     1       2.333  -3.979  -0.223  1.00  0.00     0.034 C 
HETATM   41  C29 UNL     1       1.921  -4.747   0.993  1.00  0.00     0.232 C 
HETATM   42  N7  UNL     1       0.662  -5.458   0.764  1.00  0.00    -0.075 N 
HETATM   43  C30 UNL     1      -0.409  -4.498   0.517  1.00  0.00     0.232 C 
ATOM     44  H72 UNL     1       0.741  -6.146   0.015  1.00  0.00     0.277 HD
ATOM     45  H71 UNL     1       0.437  -6.096   1.528  1.00  0.00     0.277 HD
HETATM   46  C31 UNL     1       0.001  -3.652  -0.648  1.00  0.00     0.034 C 
ENDBRANCH  38  39
ENDBRANCH   1  38
TORSDOF 13
