REMARK  3 active torsions:
REMARK  status: ('A' for Active; 'I' for Inactive)
REMARK    1  A    between atoms: C2_2  and  C4_4 
REMARK    2  A    between atoms: C7_7  and  O1_8 
REMARK    3  A    between atoms: O1_8  and  C8_9 
ROOT
HETATM    1  C4  UNL     1      -0.899  -0.395  -0.465  1.00  0.00    -0.009 C 
HETATM    2  C5  UNL     1      -0.696  -1.412   0.629  1.00  0.00     0.007 C 
HETATM    3  C6  UNL     1       0.486  -2.197   0.144  1.00  0.00     0.033 C 
HETATM    4  C7  UNL     1       1.383  -1.140  -0.426  1.00  0.00     0.133 C 
HETATM    5  C9  UNL     1       0.381  -0.327  -1.252  1.00  0.00     0.037 C 
ENDROOT
BRANCH   4   6
HETATM    6  O1  UNL     1       1.949  -0.290   0.507  1.00  0.00    -0.307 OA
BRANCH   6   7
HETATM    7  C8  UNL     1       3.302  -0.035   0.472  1.00  0.00     0.333 C 
HETATM    8  O2  UNL     1       3.963  -0.601  -0.424  1.00  0.00    -0.251 OA
HETATM    9  S1  UNL     1       4.170   1.033   1.601  1.00  0.00     0.022 SA
ENDBRANCH   6   7
ENDBRANCH   4   6
BRANCH   1  10
HETATM   10  C2  UNL     1      -1.236   0.927   0.193  1.00  0.00    -0.019 C 
HETATM   11  C1  UNL     1      -1.460   2.019  -0.829  1.00  0.00     0.010 C 
HETATM   12  C3  UNL     1      -2.531   0.738   0.963  1.00  0.00     0.010 C 
ENDBRANCH   1  10
TORSDOF 3
