REMARK  2 active torsions:
REMARK  status: ('A' for Active; 'I' for Inactive)
REMARK    1  A    between atoms: N1_2  and  C2_3 
REMARK    2  A    between atoms: N1_2  and  C4_6 
ROOT
HETATM    1  C2  UNL     1       3.044   0.918  -0.595  1.00  0.00     0.395 C 
HETATM    2  C3  UNL     1       4.337   0.361  -1.070  1.00  0.00     0.089 C 
HETATM    3  N2  UNL     1       5.341  -0.090  -1.427  1.00  0.00    -0.195 NA
ENDROOT
BRANCH   1   4
HETATM    4  N1  UNL     1       2.223  -0.181  -0.268  1.00  0.00     0.105 N 
HETATM    5  C1  UNL     1       2.597  -0.967   0.858  1.00  0.00     0.312 C 
BRANCH   4   6
HETATM    6  C4  UNL     1       0.760   0.128  -0.281  1.00  0.00     0.246 C 
HETATM    7  C5  UNL     1       0.585   0.907   0.938  1.00  0.00     0.040 C 
HETATM    8  C6  UNL     1      -0.596   1.939   0.964  1.00  0.00     0.002 C 
HETATM    9  C7  UNL     1      -1.647   1.191   0.388  1.00  0.00     0.000 C 
HETATM   10  C8  UNL     1      -3.021   1.033   0.067  1.00  0.00     0.004 C 
HETATM   11  C9  UNL     1      -3.009  -0.352  -0.671  1.00  0.00     0.027 C 
HETATM   12  C10 UNL     1      -2.354  -1.442   0.053  1.00  0.00    -0.027 C 
HETATM   13  C11 UNL     1      -0.948  -1.831  -0.053  1.00  0.00    -0.006 C 
HETATM   14  C12 UNL     1       0.080  -1.051  -0.751  1.00  0.00     0.008 C 
ENDBRANCH   4   6
ENDBRANCH   1   4
TORSDOF 2
