REMARK  10 active torsions:
REMARK  status: ('A' for Active; 'I' for Inactive)
REMARK    1  A    between atoms: N1_1  and  N2_4 
REMARK    2  A    between atoms: N3_6  and  N4_8 
REMARK    3  A    between atoms: C1_10  and  N5_11 
REMARK    4  A    between atoms: N5_11  and  C2_13 
REMARK    5  A    between atoms: C2_13  and  C3_14 
REMARK    6  A    between atoms: C3_14  and  C4_15 
REMARK    7  A    between atoms: C4_15  and  N6_16 
REMARK    8  A    between atoms: N6_16  and  C5_18 
REMARK    9  A    between atoms: C6_19  and  O1_20 
REMARK   10  A    between atoms: C9_24  and  N7_25 
ROOT
HETATM    1  C3  UNL     1       0.929  -0.099  -0.227  1.00  0.00     0.039 C 
ENDROOT
BRANCH   1   2
HETATM    2  C2  UNL     1       2.162   0.708   0.094  1.00  0.00     0.122 C 
BRANCH   2   3
HETATM    3  N5  UNL     1       3.328  -0.159  -0.029  1.00  0.00    -0.385 N 
ATOM      4  H5  UNL     1       3.191  -1.134  -0.295  1.00  0.00     0.160 HD
BRANCH   3   5
HETATM    5  C1  UNL     1       4.642   0.307   0.208  1.00  0.00     0.194 C 
HETATM    6  N4  UNL     1       5.426  -0.365   0.962  1.00  0.00    -0.281 N 
ATOM      7  H4  UNL     1       5.060  -1.226   1.367  1.00  0.00     0.189 HD
BRANCH   6   8
HETATM    8  N3  UNL     1       6.724  -0.023   1.273  1.00  0.00    -0.228 N 
HETATM    9  N2  UNL     1       7.713  -0.285   0.541  1.00  0.00    -0.235 N 
ATOM     10  H2  UNL     1       8.645   0.001   0.840  1.00  0.00     0.209 HD
ATOM     11  H3  UNL     1       6.893   0.472   2.149  1.00  0.00     0.210 HD
BRANCH   9  12
HETATM   12  N1  UNL     1       7.560  -0.960  -0.674  1.00  0.00    -0.330 N 
ATOM     13  H12 UNL     1       6.621  -1.239  -0.958  1.00  0.00     0.178 HD
ATOM     14  H11 UNL     1       8.362  -1.172  -1.268  1.00  0.00     0.178 HD
ENDBRANCH   9  12
ENDBRANCH   6   8
ENDBRANCH   3   5
ENDBRANCH   2   3
ENDBRANCH   1   2
BRANCH   1  15
HETATM   15  C4  UNL     1      -0.330   0.742  -0.119  1.00  0.00     0.116 C 
BRANCH  15  16
HETATM   16  N6  UNL     1      -1.448  -0.101  -0.438  1.00  0.00    -0.412 N 
ATOM     17  H6  UNL     1      -1.330  -1.081  -0.695  1.00  0.00     0.153 HD
BRANCH  16  18
HETATM   18  C5  UNL     1      -2.730   0.511  -0.374  1.00  0.00     0.134 C 
HETATM   19  C6  UNL     1      -3.131   0.950   0.999  1.00  0.00     0.142 C 
HETATM   20  C7  UNL     1      -4.523   0.357   1.259  1.00  0.00     0.036 C 
HETATM   21  C8  UNL     1      -5.023   0.090  -0.132  1.00  0.00     0.036 C 
HETATM   22  C9  UNL     1      -3.799  -0.458  -0.838  1.00  0.00     0.180 C 
BRANCH  19  23
HETATM   23  O1  UNL     1      -2.302   0.549   2.016  1.00  0.00    -0.393 OA
ATOM     24  H1  UNL     1      -2.557   0.828   2.888  1.00  0.00     0.210 HD
ENDBRANCH  19  23
BRANCH  22  25
HETATM   25  N7  UNL     1      -3.529  -1.826  -0.562  1.00  0.00    -0.148 N 
HETATM   26  O2  UNL     1      -3.437  -2.635  -1.529  1.00  0.00    -0.536 OA
HETATM   27  O3  UNL     1      -3.353  -2.376   0.670  1.00  0.00    -0.536 OA
ENDBRANCH  22  25
ENDBRANCH  16  18
ENDBRANCH  15  16
ENDBRANCH   1  15
TORSDOF 10
