REMARK  12 active torsions:
REMARK  status: ('A' for Active; 'I' for Inactive)
REMARK    1  A    between atoms: C1_2  and  C2_4 
REMARK    2  A    between atoms: N2_7  and  C5_8 
REMARK    3  A    between atoms: C8_11  and  S1_12 
REMARK    4  A    between atoms: S1_12  and  N3_15 
REMARK    5  A    between atoms: N3_15  and  C9_17 
REMARK    6  A    between atoms: C10_20  and  S2_21 
REMARK    7  A    between atoms: S2_21  and  C11_22 
REMARK    8  A    between atoms: C11_22  and  C12_23 
REMARK    9  A    between atoms: N5_25  and  C14_26 
REMARK   10  A    between atoms: C14_26  and  C15_27 
REMARK       I    between atoms: C15_27  and  N6_29 
REMARK   11  A    between atoms: N6_29  and  C16_31 
REMARK   12  A    between atoms: C21_43  and  C22_44 
ROOT
HETATM    1  C9  UNL     1      -0.248  -0.894  -0.141  1.00  0.00     0.129 A 
HETATM    2  N4  UNL     1       0.157   0.302  -0.636  1.00  0.00    -0.322 N 
ATOM      3  H4  UNL     1      -0.232   1.154  -0.233  1.00  0.00     0.169 HD
HETATM    4  C10 UNL     1       1.056   0.413  -1.643  1.00  0.00     0.146 A 
HETATM    5  N9  UNL     1       1.541  -0.737  -2.144  1.00  0.00    -0.346 N 
ATOM      6  H9  UNL     1       2.220  -0.676  -2.903  1.00  0.00     0.167 HD
HETATM    7  C20 UNL     1       1.195  -1.951  -1.716  1.00  0.00     0.106 A 
HETATM    8  C21 UNL     1       0.264  -2.048  -0.674  1.00  0.00     0.034 A 
ENDROOT
BRANCH   1   9
HETATM    9  N3  UNL     1      -1.096  -0.980   0.823  1.00  0.00    -0.265 N 
ATOM     10  H3  UNL     1      -1.360  -1.910   1.149  1.00  0.00     0.180 HD
BRANCH   9  11
HETATM   11  S1  UNL     1      -1.808   0.376   1.592  1.00  0.00     0.264 S 
HETATM   12  O2  UNL     1      -1.046   1.648   1.279  1.00  0.00    -0.200 OA
HETATM   13  O3  UNL     1      -1.698   0.176   3.077  1.00  0.00    -0.200 OA
BRANCH  11  14
HETATM   14  C8  UNL     1      -3.495   0.566   1.212  1.00  0.00     0.080 A 
HETATM   15  C7  UNL     1      -4.493  -0.017   1.967  1.00  0.00     0.027 A 
HETATM   16  C6  UNL     1      -5.829   0.155   1.636  1.00  0.00     0.033 A 
HETATM   17  C5  UNL     1      -6.177   0.913   0.543  1.00  0.00     0.056 A 
HETATM   18  C29 UNL     1      -5.161   1.483  -0.193  1.00  0.00     0.033 A 
HETATM   19  C28 UNL     1      -3.821   1.334   0.107  1.00  0.00     0.027 A 
BRANCH  17  20
HETATM   20  N2  UNL     1      -7.560   1.081   0.214  1.00  0.00    -0.267 N 
HETATM   21  C4  UNL     1      -8.502   0.139   0.038  1.00  0.00     0.119 A 
HETATM   22  C3  UNL     1      -9.711   0.728  -0.269  1.00  0.00     0.055 A 
HETATM   23  C2  UNL     1      -9.462   2.085  -0.273  1.00  0.00     0.115 A 
HETATM   24  N10 UNL     1      -8.171   2.243   0.020  1.00  0.00    -0.289 N 
ATOM     25  H10 UNL     1      -7.708   3.149   0.087  1.00  0.00     0.188 HD
BRANCH  23  26
HETATM   26  C1  UNL     1     -10.477   3.094  -0.554  1.00  0.00     0.282 C 
HETATM   27  N1  UNL     1     -10.163   4.481  -0.544  1.00  0.00    -0.056 NA
HETATM   28  O1  UNL     1     -11.660   2.785  -0.814  1.00  0.00    -0.269 OA
ENDBRANCH  23  26
ENDBRANCH  17  20
ENDBRANCH  11  14
ENDBRANCH   9  11
ENDBRANCH   1   9
BRANCH   8  29
HETATM   29  C22 UNL     1      -0.169  -3.333  -0.168  1.00  0.00    -0.021 A 
HETATM   30  C23 UNL     1      -1.507  -3.606  -0.060  1.00  0.00     0.012 A 
HETATM   31  C24 UNL     1      -1.974  -4.815   0.429  1.00  0.00     0.001 A 
HETATM   32  C25 UNL     1      -1.044  -5.751   0.810  1.00  0.00     0.000 A 
HETATM   33  C26 UNL     1       0.319  -5.512   0.715  1.00  0.00     0.001 A 
HETATM   34  C27 UNL     1       0.734  -4.286   0.220  1.00  0.00     0.012 A 
ENDBRANCH   8  29
BRANCH   4  35
HETATM   35  S2  UNL     1       1.552   2.028  -2.260  1.00  0.00    -0.088 SA
BRANCH  35  36
HETATM   36  C11 UNL     1       2.994   2.639  -1.373  1.00  0.00     0.142 C 
BRANCH  36  37
HETATM   37  C12 UNL     1       4.182   1.805  -1.666  1.00  0.00     0.054 A 
HETATM   38  C13 UNL     1       4.600   0.687  -0.984  1.00  0.00     0.139 A 
HETATM   39  N5  UNL     1       5.715   0.242  -1.580  1.00  0.00    -0.278 N 
HETATM   40  N7  UNL     1       6.000   1.049  -2.609  1.00  0.00    -0.240 N 
HETATM   41  N8  UNL     1       5.088   1.982  -2.663  1.00  0.00    -0.288 N 
ATOM     42  H7  UNL     1       6.794   0.952  -3.242  1.00  0.00     0.208 HD
ATOM     43  H8  UNL     1       5.060   2.733  -3.352  1.00  0.00     0.188 HD
BRANCH  39  44
HETATM   44  C14 UNL     1       6.490  -0.915  -1.184  1.00  0.00     0.252 C 
BRANCH  44  45
HETATM   45  C15 UNL     1       7.563  -0.542  -0.192  1.00  0.00     0.243 C 
HETATM   46  O4  UNL     1       8.317  -1.463   0.239  1.00  0.00    -0.271 OA
HETATM   47  N6  UNL     1       7.702   0.802   0.228  1.00  0.00    -0.306 N 
ATOM     48  H6  UNL     1       7.058   1.491  -0.162  1.00  0.00     0.171 HD
BRANCH  47  49
HETATM   49  C16 UNL     1       8.679   1.259   1.158  1.00  0.00     0.149 A 
HETATM   50  C17 UNL     1       9.656   0.568   1.824  1.00  0.00     0.058 A 
HETATM   51  C18 UNL     1      10.355   1.468   2.622  1.00  0.00     0.029 A 
HETATM   52  C19 UNL     1       9.757   2.669   2.393  1.00  0.00     0.144 A 
HETATM   53  O5  UNL     1       8.788   2.527   1.542  1.00  0.00    -0.306 OA
ENDBRANCH  47  49
ENDBRANCH  44  45
ENDBRANCH  39  44
ENDBRANCH  36  37
ENDBRANCH  35  36
ENDBRANCH   4  35
TORSDOF 12
