REMARK  7 active torsions:
REMARK  status: ('A' for Active; 'I' for Inactive)
REMARK    1  A    between atoms: C2_2  and  C19_27 
REMARK    2  A    between atoms: C3_3  and  C4_4 
REMARK    3  A    between atoms: C4_4  and  C5_5 
REMARK    4  A    between atoms: C7_7  and  C9_9 
REMARK    5  A    between atoms: C9_9  and  O1_10 
REMARK    6  A    between atoms: C13_17  and  O4_18 
REMARK    7  A    between atoms: C16_22  and  C18_24 
ROOT
HETATM    1  C5  UNL     1      -0.250   0.265   0.568  1.00  0.00     0.052 C 
HETATM    2  C6  UNL     1      -1.312   1.295   0.296  1.00  0.00     0.003 C 
HETATM    3  C7  UNL     1      -1.325   2.489   0.783  1.00  0.00    -0.050 C 
HETATM    4  C8  UNL     1      -2.451   3.407   0.426  1.00  0.00     0.046 C 
HETATM    5  C10 UNL     1      -2.370   0.831  -0.627  1.00  0.00     0.192 C 
HETATM    6  O2  UNL     1      -3.031   1.596  -1.351  1.00  0.00    -0.287 OA
HETATM    7  C11 UNL     1      -2.653  -0.579  -0.697  1.00  0.00     0.056 A 
HETATM    8  C12 UNL     1      -1.943  -1.463   0.086  1.00  0.00     0.090 A 
HETATM    9  O3  UNL     1      -2.372  -2.672  -0.133  1.00  0.00    -0.290 OA
HETATM   10  C13 UNL     1      -3.326  -2.635  -1.017  1.00  0.00     0.190 A 
HETATM   11  C14 UNL     1      -3.567  -1.350  -1.426  1.00  0.00     0.013 A 
HETATM   12  C15 UNL     1      -4.518  -0.780  -2.385  1.00  0.00     0.054 C 
HETATM   13  C16 UNL     1      -0.870  -1.015   1.007  1.00  0.00     0.103 C 
HETATM   14  C17 UNL     1       0.041  -2.157   1.294  1.00  0.00     0.035 C 
ENDROOT
BRANCH   1  15
HETATM   15  C4  UNL     1       0.536   0.201  -0.708  1.00  0.00     0.038 C 
BRANCH  15  16
HETATM   16  C3  UNL     1       1.681  -0.722  -0.759  1.00  0.00    -0.023 C 
HETATM   17  C2  UNL     1       2.946  -0.282  -0.864  1.00  0.00    -0.084 C 
HETATM   18  C1  UNL     1       3.178   1.171  -0.931  1.00  0.00     0.043 C 
BRANCH  17  19
HETATM   19  C19 UNL     1       4.075  -1.216  -0.914  1.00  0.00     0.005 C 
HETATM   20  C20 UNL     1       4.889  -1.090  -2.185  1.00  0.00     0.014 C 
HETATM   21  C21 UNL     1       5.038  -0.971   0.251  1.00  0.00     0.014 C 
ENDBRANCH  17  19
ENDBRANCH  15  16
ENDBRANCH   1  15
BRANCH  13  22
HETATM   22  C18 UNL     1      -1.592  -0.738   2.310  1.00  0.00     0.189 C 
HETATM   23  O5  UNL     1      -1.289  -1.318   3.384  1.00  0.00    -0.647 OA
HETATM   24  O6  UNL     1      -2.619   0.178   2.331  1.00  0.00    -0.647 OA
ENDBRANCH  13  22
BRANCH   3  25
HETATM   25  C9  UNL     1      -0.299   3.055   1.668  1.00  0.00     0.198 C 
BRANCH  25  26
HETATM   26  O1  UNL     1      -0.858   3.440   2.910  1.00  0.00    -0.397 OA
ATOM     27  H1  UNL     1      -0.194   3.806   3.483  1.00  0.00     0.209 HD
ENDBRANCH  25  26
ENDBRANCH   3  25
BRANCH  10  28
HETATM   28  O4  UNL     1      -4.024  -3.733  -1.499  1.00  0.00    -0.340 OA
ATOM     29  H4  UNL     1      -4.721  -3.706  -2.144  1.00  0.00     0.220 HD
ENDBRANCH  10  28
TORSDOF 7
