REMARK  2 active torsions:
REMARK  status: ('A' for Active; 'I' for Inactive)
REMARK    1  A    between atoms: C2_3  and  N2_4 
REMARK    2  A    between atoms: N2_4  and  C3_6 
ROOT
HETATM    1  C3  UNL     1      -1.454  -1.075   0.063  1.00  0.00     0.694 A 
HETATM    2  N3  UNL     1      -2.001  -1.670   1.045  1.00  0.00    -0.112 N 
ATOM      3  H3  UNL     1      -1.510  -2.429   1.517  1.00  0.00     0.197 HD
HETATM    4  S1  UNL     1      -3.560  -1.199   1.576  1.00  0.00     0.278 S 
HETATM    5  O1  UNL     1      -4.527  -2.350   1.572  1.00  0.00    -0.200 OA
HETATM    6  O2  UNL     1      -3.483  -0.649   2.984  1.00  0.00    -0.200 OA
HETATM    7  C4  UNL     1      -4.106   0.107   0.566  1.00  0.00     0.107 A 
HETATM    8  C5  UNL     1      -5.316   0.663   0.778  1.00  0.00     0.028 A 
HETATM    9  C6  UNL     1      -5.781   1.696   0.001  1.00  0.00     0.002 A 
HETATM   10  C7  UNL     1      -4.992   2.186  -1.031  1.00  0.00     0.002 A 
HETATM   11  C8  UNL     1      -3.773   1.605  -1.223  1.00  0.00     0.031 A 
HETATM   12  C9  UNL     1      -3.284   0.551  -0.440  1.00  0.00     0.072 A 
HETATM   13  N4  UNL     1      -2.018  -0.015  -0.677  1.00  0.00    -0.190 N 
ATOM     14  H4  UNL     1      -1.466   0.371  -1.443  1.00  0.00     0.184 HD
ENDROOT
BRANCH   1  15
HETATM   15  N2  UNL     1      -0.137  -1.537  -0.318  1.00  0.00    -0.176 N 
ATOM     16  H2  UNL     1      -0.043  -2.440  -0.784  1.00  0.00     0.186 HD
BRANCH  15  17
HETATM   17  C2  UNL     1       1.011  -0.780  -0.065  1.00  0.00     0.123 A 
HETATM   18  N1  UNL     1       2.225  -1.202  -0.410  1.00  0.00    -0.336 N 
HETATM   19  C1  UNL     1       2.489  -2.446  -1.046  1.00  0.00     0.158 C 
HETATM   20  C17 UNL     1       3.336  -0.426  -0.152  1.00  0.00     0.045 A 
HETATM   21  C12 UNL     1       3.234   0.796   0.463  1.00  0.00    -0.009 A 
HETATM   22  C16 UNL     1       4.601  -0.839  -0.502  1.00  0.00     0.030 A 
HETATM   23  C11 UNL     1       1.997   1.246   0.825  1.00  0.00     0.017 A 
HETATM   24  C13 UNL     1       4.342   1.592   0.728  1.00  0.00     0.014 A 
HETATM   25  C10 UNL     1       0.898   0.451   0.556  1.00  0.00     0.050 A 
HETATM   26  C14 UNL     1       5.583   1.166   0.375  1.00  0.00     0.001 A 
HETATM   27  C15 UNL     1       5.721  -0.044  -0.238  1.00  0.00     0.002 A 
ENDBRANCH  15  17
ENDBRANCH   1  15
TORSDOF 2
