REMARK  3 active torsions:
REMARK  status: ('A' for Active; 'I' for Inactive)
REMARK    1  A    between atoms: C5_8  and  C6_9 
REMARK    2  A    between atoms: C7_10  and  C8_11 
REMARK    3  A    between atoms: C10_13  and  C11_14 
ROOT
HETATM    1  C6  UNL     1       1.213   0.028   0.604  1.00  0.00    -0.042 C 
HETATM    2  C7  UNL     1       0.086   0.292   0.945  1.00  0.00    -0.042 C 
ENDROOT
BRANCH   2   3
HETATM    3  C8  UNL     1      -1.246   0.626   1.365  1.00  0.00     0.090 A 
HETATM    4  C9  UNL     1      -2.320   0.272   0.547  1.00  0.00     0.069 A 
HETATM    5  C10 UNL     1      -3.612   0.564   0.894  1.00  0.00     0.046 A 
HETATM    6  N2  UNL     1      -3.803   1.207   2.059  1.00  0.00    -0.352 N 
HETATM    7  C17 UNL     1      -2.806   1.566   2.874  1.00  0.00     0.181 A 
ATOM      8  H2  UNL     1      -4.758   1.433   2.336  1.00  0.00     0.166 HD
HETATM    9  N3  UNL     1      -1.544   1.265   2.506  1.00  0.00    -0.345 N 
ATOM     10  H3  UNL     1      -0.780   1.536   3.125  1.00  0.00     0.167 HD
BRANCH   5  11
HETATM   11  C11 UNL     1      -4.751   0.207   0.059  1.00  0.00    -0.009 A 
HETATM   12  C12 UNL     1      -4.626  -0.451  -1.143  1.00  0.00     0.013 A 
HETATM   13  C13 UNL     1      -5.737  -0.768  -1.899  1.00  0.00     0.001 A 
HETATM   14  C14 UNL     1      -6.980  -0.434  -1.466  1.00  0.00     0.000 A 
HETATM   15  C15 UNL     1      -7.143   0.224  -0.267  1.00  0.00     0.001 A 
HETATM   16  C16 UNL     1      -6.044   0.544   0.492  1.00  0.00     0.013 A 
ENDBRANCH   5  11
ENDBRANCH   2   3
BRANCH   1  17
HETATM   17  C5  UNL     1       2.579  -0.275   0.211  1.00  0.00     0.087 A 
HETATM   18  N1  UNL     1       3.582   0.585   0.438  1.00  0.00    -0.347 N 
HETATM   19  C4  UNL     1       4.867   0.327   0.080  1.00  0.00     0.060 A 
ATOM     20  H1  UNL     1       3.372   1.470   0.899  1.00  0.00     0.167 HD
HETATM   21  C3  UNL     1       5.847   1.252   0.343  1.00  0.00     0.037 A 
HETATM   22  C20 UNL     1       5.206  -0.846  -0.540  1.00  0.00     0.062 A 
HETATM   23  C2  UNL     1       7.146   0.978  -0.025  1.00  0.00     0.077 A 
HETATM   24  C1  UNL     1       7.483  -0.204  -0.649  1.00  0.00     0.245 A 
HETATM   25  O1  UNL     1       8.685  -0.454  -0.987  1.00  0.00    -0.268 OA
HETATM   26  N4  UNL     1       6.484  -1.069  -0.879  1.00  0.00    -0.322 N 
ATOM     27  H4  UNL     1       6.710  -1.950  -1.340  1.00  0.00     0.169 HD
HETATM   28  C19 UNL     1       4.198  -1.762  -0.793  1.00  0.00     0.035 A 
HETATM   29  C18 UNL     1       2.904  -1.464  -0.415  1.00  0.00     0.041 A 
ENDBRANCH   1  17
TORSDOF 3
