REMARK  6 active torsions:
REMARK  status: ('A' for Active; 'I' for Inactive)
REMARK    1  A    between atoms: C2_2  and  S1_3 
REMARK    2  A    between atoms: C2_2  and  C12_17 
REMARK    3  A    between atoms: S1_3  and  C3_4 
REMARK    4  A    between atoms: C3_4  and  N2_11 
REMARK    5  A    between atoms: N1_5  and  C4_7 
REMARK    6  A    between atoms: N2_11  and  C8_13 
ROOT
HETATM    1  C3  UNL     1      -0.011   0.143  -0.302  1.00  0.00     0.138 C 
HETATM    2  N1  UNL     1       0.831  -0.791  -0.163  1.00  0.00    -0.363 N 
ATOM      3  H1  UNL     1       1.779  -0.463   0.020  1.00  0.00     0.162 HD
ENDROOT
BRANCH   1   4
HETATM    4  S1  UNL     1       0.607   1.821  -0.155  1.00  0.00    -0.079 SA
BRANCH   4   5
HETATM    5  C2  UNL     1       2.385   1.855   0.173  1.00  0.00     0.152 C 
HETATM    6  C1  UNL     1       3.194   1.325  -0.990  1.00  0.00     0.033 C 
BRANCH   5   7
HETATM    7  C12 UNL     1       2.778   3.266   0.411  1.00  0.00     0.187 C 
HETATM    8  O1  UNL     1       3.263   3.636   1.510  1.00  0.00    -0.647 OA
HETATM    9  O2  UNL     1       2.633   4.253  -0.557  1.00  0.00    -0.647 OA
ENDBRANCH   5   7
ENDBRANCH   4   5
ENDBRANCH   1   4
BRANCH   1  10
HETATM   10  N2  UNL     1      -1.384  -0.006  -0.560  1.00  0.00    -0.363 N 
ATOM     11  H2  UNL     1      -1.633  -0.670  -1.293  1.00  0.00     0.162 HD
BRANCH  10  12
HETATM   12  C8  UNL     1      -2.466   0.655   0.076  1.00  0.00     0.021 C 
HETATM   13  C9  UNL     1      -3.804   0.198  -0.493  1.00  0.00     0.037 C 
HETATM   14  C10 UNL     1      -2.369   2.139  -0.219  1.00  0.00     0.037 C 
HETATM   15  C11 UNL     1      -2.515   0.493   1.574  1.00  0.00     0.037 C 
ENDBRANCH  10  12
ENDBRANCH   1  10
BRANCH   2  16
HETATM   16  C4  UNL     1       0.720  -2.181  -0.210  1.00  0.00     0.021 C 
HETATM   17  C5  UNL     1      -0.412  -2.659   0.669  1.00  0.00     0.037 C 
HETATM   18  C6  UNL     1       0.549  -2.798  -1.568  1.00  0.00     0.037 C 
HETATM   19  C7  UNL     1       1.996  -2.791   0.386  1.00  0.00     0.037 C 
ENDBRANCH   2  16
TORSDOF 6
