REMARK  3 active torsions:
REMARK  status: ('A' for Active; 'I' for Inactive)
REMARK    1  A    between atoms: C2_2  and  C3_3 
REMARK    2  A    between atoms: C7_8  and  O2_9 
REMARK    3  A    between atoms: C9_14  and  O5_15 
ROOT
HETATM    1  C3  UNL     1      -1.355  -0.251  -0.192  1.00  0.00     0.176 C 
HETATM    2  O1  UNL     1      -0.920  -1.107   0.834  1.00  0.00    -0.376 OA
HETATM    3  C4  UNL     1       0.401  -1.410   0.566  1.00  0.00     0.237 C 
HETATM    4  C5  UNL     1       1.159  -0.163   0.208  1.00  0.00     0.191 C 
HETATM    5  C6  UNL     1       2.468  -0.189   0.990  1.00  0.00     0.104 C 
HETATM    6  C7  UNL     1       3.466   0.105  -0.115  1.00  0.00     0.147 C 
HETATM    7  C8  UNL     1       2.779  -0.668  -1.249  1.00  0.00     0.203 C 
HETATM    8  O3  UNL     1       1.477  -0.207  -1.121  1.00  0.00    -0.350 OA
HETATM    9  O4  UNL     1       0.508   1.003   0.587  1.00  0.00    -0.320 OA
HETATM   10  C9  UNL     1      -0.777   1.104   0.094  1.00  0.00     0.291 C 
ENDROOT
BRANCH   6  11
HETATM   11  O2  UNL     1       4.710  -0.396   0.173  1.00  0.00    -0.393 OA
ATOM     12  H2  UNL     1       5.335  -0.212  -0.519  1.00  0.00     0.210 HD
ENDBRANCH   6  11
BRANCH  10  13
HETATM   13  O5  UNL     1      -1.556   1.695   1.099  1.00  0.00    -0.363 OA
HETATM   14  C10 UNL     1      -2.155   2.873   0.645  1.00  0.00     0.204 C 
ENDBRANCH  10  13
BRANCH   1  15
HETATM   15  C2  UNL     1      -2.880  -0.237  -0.216  1.00  0.00     0.032 C 
HETATM   16  C1  UNL     1      -3.314  -1.676  -0.475  1.00  0.00     0.007 C 
ENDBRANCH   1  15
TORSDOF 3
