REMARK  2 active torsions:
REMARK  status: ('A' for Active; 'I' for Inactive)
REMARK    1  A    between atoms: O1_1  and  C1_3 
REMARK    2  A    between atoms: C1_3  and  O2_4 
ROOT
HETATM    1  C1  UNL     1       3.135  -0.057  -0.039  1.00  0.00     0.184 C 
HETATM    2  C2  UNL     1       2.356   0.970  -0.797  1.00  0.00     0.097 C 
HETATM    3  C3  UNL     1       2.743   2.368  -0.454  1.00  0.00    -0.025 C 
HETATM    4  C4  UNL     1       2.075   3.114   0.421  1.00  0.00    -0.020 C 
HETATM    5  C5  UNL     1       0.870   2.632   1.154  1.00  0.00     0.100 C 
HETATM    6  S1  UNL     1      -0.660   3.017   0.236  1.00  0.00    -0.165 SA
HETATM    7  C6  UNL     1      -1.780   1.587   0.497  1.00  0.00     0.075 C 
HETATM    8  C7  UNL     1      -2.980   1.654  -0.389  1.00  0.00     0.029 C 
HETATM    9  C8  UNL     1      -3.125   0.352  -1.160  1.00  0.00     0.114 C 
HETATM   10  N1  UNL     1      -3.811  -0.662  -0.458  1.00  0.00    -0.421 N 
ATOM     11  H1  UNL     1      -4.827  -0.744  -0.486  1.00  0.00     0.153 HD
HETATM   12  C9  UNL     1      -3.000  -1.569   0.296  1.00  0.00     0.113 C 
HETATM   13  C10 UNL     1      -2.019  -2.347  -0.501  1.00  0.00     0.021 C 
HETATM   14  C11 UNL     1      -0.786  -2.622   0.363  1.00  0.00     0.028 C 
HETATM   15  C12 UNL     1       0.487  -2.471  -0.423  1.00  0.00     0.168 C 
HETATM   16  O3  UNL     1       1.022  -1.197  -0.282  1.00  0.00    -0.386 OA
HETATM   17  C13 UNL     1       2.226  -1.198   0.402  1.00  0.00     0.235 C 
ENDROOT
BRANCH   1  18
HETATM   18  O1  UNL     1       4.162  -0.569  -0.857  1.00  0.00    -0.363 OA
ATOM     19  H1  UNL     1       3.737  -0.955  -1.614  1.00  0.00     0.213 HD
ENDBRANCH   1  18
BRANCH   1  20
HETATM   20  O2  UNL     1       3.761   0.512   1.076  1.00  0.00    -0.363 OA
ATOM     21  H2  UNL     1       3.069   0.857   1.627  1.00  0.00     0.213 HD
ENDBRANCH   1  20
TORSDOF 2
