REMARK  6 active torsions:
REMARK  status: ('A' for Active; 'I' for Inactive)
REMARK    1  A    between atoms: C6_6  and  C8_8 
REMARK    2  A    between atoms: C8_8  and  O1_9 
REMARK    3  A    between atoms: C14_16  and  C15_17 
REMARK    4  A    between atoms: C15_17  and  O3_22 
REMARK    5  A    between atoms: N1_18  and  O2_20 
REMARK    6  A    between atoms: O3_22  and  C16_23 
ROOT
HETATM    1  C1  UNL     1      -0.180  -3.404   0.338  1.00  0.00     0.011 C 
HETATM    2  C2  UNL     1      -0.416  -2.041   0.955  1.00  0.00    -0.006 C 
HETATM    3  C3  UNL     1      -1.829  -2.054   1.452  1.00  0.00     0.005 C 
HETATM    4  C4  UNL     1      -2.440  -0.673   1.536  1.00  0.00     0.006 C 
HETATM    5  C5  UNL     1      -2.321  -0.138   0.152  1.00  0.00     0.005 C 
HETATM    6  C6  UNL     1      -3.336   0.869  -0.187  1.00  0.00    -0.018 C 
HETATM    7  C7  UNL     1      -3.775   1.763   0.966  1.00  0.00     0.018 C 
HETATM    8  C9  UNL     1      -3.042   1.733  -1.363  1.00  0.00     0.012 C 
HETATM    9  C10 UNL     1      -1.599   2.069  -1.564  1.00  0.00     0.002 C 
HETATM   10  C11 UNL     1      -0.794   0.812  -1.461  1.00  0.00     0.010 C 
HETATM   11  C12 UNL     1      -0.876   0.264  -0.030  1.00  0.00    -0.028 C 
HETATM   12  C13 UNL     1      -0.395   1.259   0.982  1.00  0.00     0.016 C 
HETATM   13  C14 UNL     1       0.019  -0.943   0.079  1.00  0.00     0.074 C 
ENDROOT
BRANCH  13  14
HETATM   14  C15 UNL     1       1.460  -0.587   0.248  1.00  0.00     0.143 C 
HETATM   15  N1  UNL     1       2.361  -1.243   0.830  1.00  0.00    -0.251 N 
ATOM     16  H1  UNL     1       3.253  -0.750   0.790  1.00  0.00     0.196 HD
BRANCH  15  17
HETATM   17  O2  UNL     1       2.483  -2.380   1.474  1.00  0.00    -0.288 OA
ATOM     18  H2  UNL     1       3.164  -2.876   1.914  1.00  0.00     0.244 HD
ENDBRANCH  15  17
BRANCH  14  19
HETATM   19  O3  UNL     1       1.957   0.615  -0.282  1.00  0.00    -0.332 OA
BRANCH  19  20
HETATM   20  C16 UNL     1       3.298   0.963  -0.374  1.00  0.00     0.134 C 
HETATM   21  C17 UNL     1       4.128   0.037  -1.196  1.00  0.00     0.058 C 
HETATM   22  C18 UNL     1       5.342  -0.513  -0.572  1.00  0.00     0.170 C 
HETATM   23  O4  UNL     1       5.849   0.134   0.514  1.00  0.00    -0.391 OA
HETATM   24  C19 UNL     1       5.446   1.429   0.699  1.00  0.00     0.170 C 
HETATM   25  C20 UNL     1       3.932   1.380   0.925  1.00  0.00     0.058 C 
ENDBRANCH  19  20
ENDBRANCH  14  19
ENDBRANCH  13  14
BRANCH   6  26
HETATM   26  C8  UNL     1      -4.620   0.095  -0.553  1.00  0.00     0.173 C 
BRANCH  26  27
HETATM   27  O1  UNL     1      -4.410  -0.744  -1.626  1.00  0.00    -0.400 OA
ATOM     28  H1  UNL     1      -5.200  -1.220  -1.851  1.00  0.00     0.209 HD
ENDBRANCH  26  27
ENDBRANCH   6  26
TORSDOF 6
