REMARK  14 active torsions:
REMARK  status: ('A' for Active; 'I' for Inactive)
REMARK    1  A    between atoms: C2_2  and  C3_3 
REMARK    2  A    between atoms: C2_2  and  C4_7 
REMARK    3  A    between atoms: C3_3  and  S1_4 
REMARK       I    between atoms: C4_7  and  N1_9 
REMARK    4  A    between atoms: N1_9  and  C5_11 
REMARK    5  A    between atoms: C5_11  and  O4_12 
REMARK    6  A    between atoms: C5_11  and  N2_14 
REMARK    7  A    between atoms: N2_14  and  C6_16 
REMARK    8  A    between atoms: C6_16  and  C7_17 
REMARK    9  A    between atoms: C6_16  and  C10_24 
REMARK   10  A    between atoms: C8_18  and  C9_19 
REMARK   11  A    between atoms: C9_19  and  O5_20 
REMARK   12  A    between atoms: C9_19  and  O6_22 
REMARK   13  A    between atoms: C10_24  and  C11_25 
REMARK   14  A    between atoms: C11_25  and  C12_26 
ROOT
HETATM    1  C6  UNL     1      -0.678   1.410  -0.175  1.00  0.00     0.103 C 
ENDROOT
BRANCH   1   2
HETATM    2  N2  UNL     1       0.621   1.017   0.058  1.00  0.00    -0.373 N 
ATOM      3  H2  UNL     1       1.191   1.657   0.611  1.00  0.00     0.158 HD
BRANCH   2   4
HETATM    4  C5  UNL     1       1.249  -0.147  -0.369  1.00  0.00     0.325 C 
BRANCH   4   5
HETATM    5  N1  UNL     1       2.642  -0.218   0.150  1.00  0.00    -0.318 N 
HETATM    6  C4  UNL     1       3.293  -1.422   0.465  1.00  0.00     0.225 C 
HETATM    7  O3  UNL     1       2.664  -2.526   0.314  1.00  0.00    -0.273 OA
ATOM      8  H1  UNL     1       3.152   0.655   0.284  1.00  0.00     0.166 HD
BRANCH   6   9
HETATM    9  C2  UNL     1       4.684  -1.508   0.966  1.00  0.00     0.088 C 
HETATM   10  C1  UNL     1       4.971  -2.966   1.412  1.00  0.00     0.021 C 
BRANCH   9  11
HETATM   11  C3  UNL     1       5.661  -1.280  -0.152  1.00  0.00     0.170 C 
BRANCH  11  12
HETATM   12  S1  UNL     1       5.608   0.306  -0.866  1.00  0.00     0.251 S 
HETATM   13  O1  UNL     1       6.765   0.439  -1.844  1.00  0.00    -0.212 OA
HETATM   14  O2  UNL     1       5.824   1.336   0.215  1.00  0.00    -0.212 OA
ENDBRANCH  11  12
ENDBRANCH   9  11
ENDBRANCH   6   9
ENDBRANCH   4   5
BRANCH   4  15
HETATM   15  O4  UNL     1       1.479  -0.186  -1.789  1.00  0.00    -0.360 OA
ATOM     16  H4  UNL     1       0.590  -0.141  -2.120  1.00  0.00     0.214 HD
ENDBRANCH   4  15
ENDBRANCH   2   4
ENDBRANCH   1   2
BRANCH   1  17
HETATM   17  C7  UNL     1      -0.808   2.933  -0.297  1.00  0.00    -0.002 C 
HETATM   18  C8  UNL     1      -0.969   3.676   0.766  1.00  0.00     0.030 C 
BRANCH  18  19
HETATM   19  C9  UNL     1      -1.110   5.131   0.838  1.00  0.00     0.278 C 
BRANCH  19  20
HETATM   20  O5  UNL     1      -2.040   5.634  -0.068  1.00  0.00    -0.368 OA
ATOM     21  H5  UNL     1      -2.132   6.578  -0.021  1.00  0.00     0.213 HD
ENDBRANCH  19  20
BRANCH  19  22
HETATM   22  O6  UNL     1       0.088   5.823   0.687  1.00  0.00    -0.368 OA
ATOM     23  H6  UNL     1      -0.004   6.767   0.734  1.00  0.00     0.213 HD
ENDBRANCH  19  22
ENDBRANCH  18  19
ENDBRANCH   1  17
BRANCH   1  24
HETATM   24  C10 UNL     1      -1.501   0.869  -1.282  1.00  0.00     0.029 C 
BRANCH  24  25
HETATM   25  C11 UNL     1      -1.816  -0.566  -1.304  1.00  0.00     0.007 C 
BRANCH  25  26
HETATM   26  C12 UNL     1      -2.536  -1.027  -0.018  1.00  0.00    -0.014 C 
HETATM   27  C13 UNL     1      -3.775  -0.260   0.102  1.00  0.00     0.004 C 
HETATM   28  C14 UNL     1      -5.048  -0.998   0.320  1.00  0.00     0.000 C 
HETATM   29  C15 UNL     1      -4.886  -2.360   0.907  1.00  0.00     0.000 C 
HETATM   30  C16 UNL     1      -3.964  -3.123   0.004  1.00  0.00     0.000 C 
HETATM   31  C17 UNL     1      -2.617  -2.511  -0.097  1.00  0.00     0.004 C 
ENDBRANCH  25  26
ENDBRANCH  24  25
ENDBRANCH   1  24
TORSDOF 14
