REMARK  5 active torsions:
REMARK  status: ('A' for Active; 'I' for Inactive)
REMARK    1  A    between atoms: C2_2  and  C3_3 
REMARK    2  A    between atoms: C3_3  and  C4_4 
REMARK    3  A    between atoms: C6_12  and  C7_13 
REMARK    4  A    between atoms: C7_13  and  O2_14 
REMARK    5  A    between atoms: C7_13  and  N3_16 
REMARK       I    between atoms: N4_22  and  C13_23 
ROOT
HETATM    1  N3  UNL     1       0.463  -0.811   0.967  1.00  0.00    -0.297 N 
HETATM    2  C8  UNL     1      -0.029  -2.233   0.701  1.00  0.00     0.135 C 
HETATM    3  C9  UNL     1      -1.212  -1.987  -0.171  1.00  0.00     0.039 C 
HETATM    4  C10 UNL     1      -1.708  -0.586   0.129  1.00  0.00     0.046 C 
HETATM    5  C11 UNL     1      -3.071  -0.636   0.791  1.00  0.00     0.039 C 
HETATM    6  C12 UNL     1      -4.097  -0.895  -0.278  1.00  0.00     0.127 C 
HETATM    7  N4  UNL     1      -4.112   0.328  -1.075  1.00  0.00    -0.356 N 
HETATM    8  C13 UNL     1      -5.356   0.918  -1.420  1.00  0.00     0.183 C 
HETATM    9  N5  UNL     1      -5.645   1.236  -2.630  1.00  0.00    -0.374 N 
ATOM     10  H51 UNL     1      -6.539   1.660  -2.878  1.00  0.00     0.158 HD
ATOM     11  H52 UNL     1      -4.976   1.066  -3.381  1.00  0.00     0.158 HD
HETATM   12  N6  UNL     1      -6.292   1.156  -0.370  1.00  0.00    -0.064 NA
HETATM   13  C14 UNL     1      -2.904   0.942  -1.513  1.00  0.00     0.127 C 
HETATM   14  C15 UNL     1      -1.652   0.280  -1.077  1.00  0.00     0.039 C 
HETATM   15  C16 UNL     1      -0.767  -0.158   1.212  1.00  0.00     0.234 C 
HETATM   16  O3  UNL     1      -1.062   0.618   2.131  1.00  0.00    -0.272 OA
ENDROOT
BRANCH   1  17
HETATM   17  C7  UNL     1       1.821  -0.554   0.988  1.00  0.00     0.161 C 
BRANCH  17  18
HETATM   18  C6  UNL     1       2.643   0.618   1.052  1.00  0.00     0.092 A 
HETATM   19  C4  UNL     1       4.024   0.622   1.150  1.00  0.00     0.094 A 
HETATM   20  O1  UNL     1       4.415   1.901   1.169  1.00  0.00    -0.240 OA
HETATM   21  N1  UNL     1       3.418   2.674   1.089  1.00  0.00    -0.244 N 
HETATM   22  C5  UNL     1       2.260   1.947   1.010  1.00  0.00     0.136 A 
ATOM     23  H1  UNL     1       3.469   3.693   1.084  1.00  0.00     0.196 HD
HETATM   24  N2  UNL     1       1.098   2.471   0.881  1.00  0.00    -0.383 N 
ATOM     25  H22 UNL     1       0.816   3.451   0.850  1.00  0.00     0.157 HD
ATOM     26  H21 UNL     1       0.236   1.930   0.822  1.00  0.00     0.157 HD
BRANCH  19  27
HETATM   27  C3  UNL     1       5.007  -0.481   1.220  1.00  0.00     0.068 C 
BRANCH  27  28
HETATM   28  C2  UNL     1       5.396  -0.918  -0.165  1.00  0.00     0.002 C 
HETATM   29  C1  UNL     1       6.060   0.250  -0.923  1.00  0.00     0.005 C 
ENDBRANCH  27  28
ENDBRANCH  19  27
ENDBRANCH  17  18
BRANCH  17  30
HETATM   30  O2  UNL     1       2.528  -1.668   0.935  1.00  0.00    -0.345 OA
ATOM     31  H2  UNL     1       1.983  -2.445   0.893  1.00  0.00     0.219 HD
ENDBRANCH  17  30
ENDBRANCH   1  17
TORSDOF 5
