REMARK  12 active torsions:
REMARK  status: ('A' for Active; 'I' for Inactive)
REMARK    1  A    between atoms: C2_2  and  C3_3 
REMARK    2  A    between atoms: C3_3  and  N1_6 
REMARK       I    between atoms: N1_6  and  C6_8 
REMARK    3  A    between atoms: C6_8  and  C7_10 
REMARK    4  A    between atoms: C7_10  and  C8_11 
REMARK    5  A    between atoms: C8_11  and  C9_12 
REMARK    6  A    between atoms: C9_12  and  C10_13 
REMARK    7  A    between atoms: C10_13  and  C11_14 
REMARK    8  A    between atoms: C11_14  and  C12_15 
REMARK       I    between atoms: C12_15  and  N2_17 
REMARK    9  A    between atoms: N2_17  and  C13_19 
REMARK   10  A    between atoms: C14_20  and  O3_21 
REMARK   11  A    between atoms: C19_29  and  C20_30 
REMARK   12  A    between atoms: C20_30  and  C21_31 
ROOT
HETATM    1  C13 UNL     1      -2.050  -1.541  -1.393  1.00  0.00     0.151 C 
HETATM    2  C14 UNL     1      -2.826  -2.850  -1.640  1.00  0.00     0.283 C 
HETATM    3  O4  UNL     1      -3.956  -2.499  -2.382  1.00  0.00    -0.351 OA
HETATM    4  C16 UNL     1      -3.826  -1.202  -2.785  1.00  0.00     0.158 C 
HETATM    5  C17 UNL     1      -3.219  -0.586  -1.513  1.00  0.00     0.082 C 
HETATM    6  C18 UNL     1      -2.899   0.814  -1.818  1.00  0.00     0.066 C 
HETATM    7  N3  UNL     1      -3.194   1.659  -0.741  1.00  0.00    -0.389 N 
ATOM      8  H3  UNL     1      -2.440   2.108  -0.220  1.00  0.00     0.159 HD
HETATM    9  C19 UNL     1      -4.550   1.889  -0.376  1.00  0.00     0.173 C 
HETATM   10  C24 UNL     1      -5.570   1.210  -1.130  1.00  0.00     0.242 C 
HETATM   11  O5  UNL     1      -6.706   1.777  -0.925  1.00  0.00    -0.271 OA
HETATM   12  N4  UNL     1      -5.785   0.123  -2.035  1.00  0.00    -0.348 N 
HETATM   13  C25 UNL     1      -7.067  -0.566  -1.811  1.00  0.00     0.153 C 
HETATM   14  C26 UNL     1      -5.045  -0.443  -3.106  1.00  0.00     0.112 C 
HETATM   15  C27 UNL     1      -5.957  -1.424  -3.875  1.00  0.00     0.035 C 
ENDROOT
BRANCH   1  16
HETATM   16  N2  UNL     1      -1.414  -1.525  -0.114  1.00  0.00    -0.351 N 
HETATM   17  C12 UNL     1      -0.004  -1.423  -0.032  1.00  0.00     0.218 C 
HETATM   18  O2  UNL     1       0.663  -1.352  -1.087  1.00  0.00    -0.274 OA
ATOM     19  H2  UNL     1      -1.973  -1.587   0.737  1.00  0.00     0.163 HD
BRANCH  17  20
HETATM   20  C11 UNL     1       0.691  -1.401   1.275  1.00  0.00     0.103 C 
BRANCH  20  21
HETATM   21  C10 UNL     1       2.198  -1.333   1.102  1.00  0.00     0.009 C 
BRANCH  21  22
HETATM   22  C9  UNL     1       2.897  -1.304   2.435  1.00  0.00     0.001 C 
BRANCH  22  23
HETATM   23  C8  UNL     1       4.391  -1.265   2.311  1.00  0.00     0.009 C 
BRANCH  23  24
HETATM   24  C7  UNL     1       4.810  -0.031   1.553  1.00  0.00     0.103 C 
BRANCH  24  25
HETATM   25  C6  UNL     1       6.317   0.024   1.444  1.00  0.00     0.218 C 
HETATM   26  N1  UNL     1       6.905   1.098   0.744  1.00  0.00    -0.353 N 
ATOM     27  H1  UNL     1       6.319   1.819   0.322  1.00  0.00     0.163 HD
HETATM   28  O1  UNL     1       6.979  -0.895   1.983  1.00  0.00    -0.274 OA
BRANCH  26  29
HETATM   29  C3  UNL     1       8.343   1.169   0.629  1.00  0.00     0.025 C 
HETATM   30  C4  UNL     1       8.893   1.385   2.031  1.00  0.00     0.038 C 
HETATM   31  C5  UNL     1       8.944  -0.034  -0.030  1.00  0.00     0.038 C 
BRANCH  29  32
HETATM   32  C2  UNL     1       8.744   2.400  -0.173  1.00  0.00     0.026 C 
HETATM   33  C1  UNL     1      10.264   2.466  -0.152  1.00  0.00     0.007 C 
ENDBRANCH  29  32
ENDBRANCH  26  29
ENDBRANCH  24  25
ENDBRANCH  23  24
ENDBRANCH  22  23
ENDBRANCH  21  22
ENDBRANCH  20  21
ENDBRANCH  17  20
ENDBRANCH   1  16
BRANCH   2  34
HETATM   34  O3  UNL     1      -2.039  -3.794  -2.248  1.00  0.00    -0.364 OA
HETATM   35  C15 UNL     1      -1.926  -4.889  -1.391  1.00  0.00     0.204 C 
ENDBRANCH   2  34
BRANCH   9  36
HETATM   36  C20 UNL     1      -4.639   1.551   1.089  1.00  0.00     0.038 C 
BRANCH  36  37
HETATM   37  C21 UNL     1      -5.953   1.725   1.749  1.00  0.00    -0.020 C 
HETATM   38  C22 UNL     1      -6.510   3.112   1.751  1.00  0.00     0.009 C 
HETATM   39  C23 UNL     1      -5.753   1.287   3.215  1.00  0.00     0.009 C 
ENDBRANCH  36  37
ENDBRANCH   9  36
TORSDOF 12
