REMARK  13 active torsions:
REMARK  status: ('A' for Active; 'I' for Inactive)
REMARK    1  A    between atoms: C4_4  and  C5_5 
REMARK    2  A    between atoms: C6_6  and  O1_7 
REMARK    3  A    between atoms: N2_13  and  C8_14 
REMARK    4  A    between atoms: C8_14  and  C9_15 
REMARK    5  A    between atoms: C9_15  and  C10_16 
REMARK    6  A    between atoms: N3_22  and  C15_23 
REMARK    7  A    between atoms: C17_25  and  O4_26 
REMARK    8  A    between atoms: O4_26  and  C18_27 
REMARK    9  A    between atoms: C18_27  and  C19_28 
REMARK   10  A    between atoms: C19_28  and  C20_29 
REMARK   11  A    between atoms: C20_29  and  C21_30 
REMARK   12  A    between atoms: C21_30  and  C22_31 
REMARK   13  A    between atoms: C22_31  and  O6_33 
ROOT
HETATM    1  C1  UNL     1      -1.327  -2.119  -1.436  1.00  0.00     0.044 C 
HETATM    2  C2  UNL     1      -1.310  -1.811  -0.111  1.00  0.00     0.040 A 
HETATM    3  C3  UNL     1      -2.451  -1.388   0.557  1.00  0.00    -0.007 A 
HETATM    4  C4  UNL     1      -3.669  -1.228   0.038  1.00  0.00     0.035 C 
HETATM    5  C13 UNL     1      -2.065  -1.171   1.861  1.00  0.00     0.031 A 
HETATM    6  C14 UNL     1      -0.730  -1.463   1.943  1.00  0.00     0.098 A 
HETATM    7  N3  UNL     1      -0.272  -1.857   0.720  1.00  0.00    -0.322 N 
ENDROOT
BRANCH   7   8
HETATM    8  C15 UNL     1       1.080  -2.213   0.422  1.00  0.00     0.047 A 
HETATM    9  C16 UNL     1       2.063  -1.240   0.376  1.00  0.00     0.067 A 
HETATM   10  C17 UNL     1       3.373  -1.514   0.107  1.00  0.00     0.076 A 
HETATM   11  C24 UNL     1       3.729  -2.817  -0.130  1.00  0.00    -0.028 A 
HETATM   12  C25 UNL     1       5.165  -3.143  -0.425  1.00  0.00     0.051 C 
HETATM   13  C26 UNL     1       2.780  -3.844  -0.099  1.00  0.00     0.018 A 
HETATM   14  C27 UNL     1       1.443  -3.507   0.184  1.00  0.00    -0.034 A 
HETATM   15  C28 UNL     1       0.453  -4.606   0.223  1.00  0.00     0.050 C 
BRANCH  10  16
HETATM   16  O4  UNL     1       4.359  -0.535   0.064  1.00  0.00    -0.351 OA
BRANCH  16  17
HETATM   17  C18 UNL     1       4.051   0.830   0.301  1.00  0.00     0.175 C 
BRANCH  17  18
HETATM   18  C19 UNL     1       5.287   1.688   0.210  1.00  0.00     0.027 C 
BRANCH  18  19
HETATM   19  C20 UNL     1       5.919   1.592  -1.150  1.00  0.00     0.012 C 
BRANCH  19  20
HETATM   20  C21 UNL     1       7.162   2.463  -1.224  1.00  0.00     0.111 C 
BRANCH  20  21
HETATM   21  C22 UNL     1       7.752   2.343  -2.568  1.00  0.00     0.258 C 
HETATM   22  O5  UNL     1       7.214   1.610  -3.418  1.00  0.00    -0.265 OA
BRANCH  21  23
HETATM   23  O6  UNL     1       8.897   3.039  -2.887  1.00  0.00    -0.326 OA
HETATM   24  C23 UNL     1       9.421   2.885  -4.202  1.00  0.00     0.213 C 
ENDBRANCH  21  23
ENDBRANCH  20  21
ENDBRANCH  19  20
ENDBRANCH  18  19
ENDBRANCH  17  18
ENDBRANCH  16  17
ENDBRANCH  10  16
ENDBRANCH   7   8
BRANCH   4  25
HETATM   25  C5  UNL     1      -4.795  -0.775   0.841  1.00  0.00     0.084 A 
HETATM   26  C6  UNL     1      -5.736  -1.664   1.296  1.00  0.00     0.160 A 
HETATM   27  N1  UNL     1      -6.767  -1.200   2.033  1.00  0.00    -0.288 N 
HETATM   28  C7  UNL     1      -6.881   0.108   2.322  1.00  0.00     0.331 A 
ATOM     29  H1  UNL     1      -7.472  -1.853   2.377  1.00  0.00     0.172 HD
HETATM   30  O2  UNL     1      -7.888   0.455   3.025  1.00  0.00    -0.246 OA
HETATM   31  N2  UNL     1      -5.971   1.031   1.892  1.00  0.00    -0.265 N 
HETATM   32  C12 UNL     1      -4.944   0.582   1.161  1.00  0.00     0.266 A 
HETATM   33  O3  UNL     1      -4.036   1.336   0.712  1.00  0.00    -0.267 OA
BRANCH  26  34
HETATM   34  O1  UNL     1      -5.576  -3.012   0.972  1.00  0.00    -0.345 OA
ATOM     35  H1  UNL     1      -6.227  -3.627   1.287  1.00  0.00     0.219 HD
ENDBRANCH  26  34
BRANCH  31  36
HETATM   36  C8  UNL     1      -6.085   2.400   2.254  1.00  0.00     0.137 C 
BRANCH  36  37
HETATM   37  C9  UNL     1      -6.966   3.298   1.503  1.00  0.00     0.020 C 
BRANCH  37  38
HETATM   38  C10 UNL     1      -6.797   3.517   0.060  1.00  0.00    -0.003 C 
HETATM   39  C11 UNL     1      -6.992   2.364  -0.859  1.00  0.00     0.005 C 
ENDBRANCH  37  38
ENDBRANCH  36  37
ENDBRANCH  31  36
ENDBRANCH   4  25
TORSDOF 13
