REMARK  10 active torsions:
REMARK  status: ('A' for Active; 'I' for Inactive)
REMARK    1  A    between atoms: C4_4  and  C5_5 
REMARK    2  A    between atoms: C5_5  and  C6_6 
REMARK    3  A    between atoms: C8_8  and  C9_9 
REMARK    4  A    between atoms: C10_12  and  C11_13 
REMARK    5  A    between atoms: C14_19  and  C15_20 
REMARK    6  A    between atoms: C15_20  and  C16_21 
REMARK    7  A    between atoms: C20_28  and  C21_29 
REMARK    8  A    between atoms: C26_36  and  C27_37 
REMARK    9  A    between atoms: C27_37  and  C28_38 
REMARK   10  A    between atoms: C31_43  and  O6_44 
ROOT
HETATM    1  C1  UNL     1      -4.497  -0.391   4.776  1.00  0.00     0.017 C 
HETATM    2  C2  UNL     1      -4.569  -1.025   3.739  1.00  0.00    -0.090 C 
HETATM    3  C3  UNL     1      -4.631  -1.760   2.535  1.00  0.00     0.060 C 
HETATM    4  C4  UNL     1      -3.530  -2.214   1.942  1.00  0.00    -0.013 C 
ENDROOT
BRANCH   4   5
HETATM    5  C5  UNL     1      -3.548  -2.986   0.686  1.00  0.00     0.070 C 
BRANCH   5   6
HETATM    6  C6  UNL     1      -2.769  -2.282  -0.423  1.00  0.00    -0.007 C 
HETATM    7  C7  UNL     1      -1.767  -3.008  -0.860  1.00  0.00     0.002 C 
HETATM    8  C8  UNL     1      -0.775  -2.686  -1.924  1.00  0.00     0.133 C 
HETATM    9  C10 UNL     1       0.563  -2.595  -1.295  1.00  0.00     0.102 C 
HETATM   10  N1  UNL     1       1.606  -2.259  -2.275  1.00  0.00    -0.354 N 
HETATM   11  C13 UNL     1       2.432  -1.141  -2.213  1.00  0.00     0.240 C 
ATOM     12  H1  UNL     1       1.734  -2.895  -3.062  1.00  0.00     0.163 HD
HETATM   13  O3  UNL     1       2.956  -0.655  -3.249  1.00  0.00    -0.271 OA
HETATM   14  C14 UNL     1       2.771  -0.418  -0.926  1.00  0.00     0.177 C 
HETATM   15  N2  UNL     1       2.270   0.925  -1.036  1.00  0.00    -0.343 N 
HETATM   16  C19 UNL     1       1.853   1.841  -0.088  1.00  0.00     0.265 C 
ATOM     17  H2  UNL     1       2.211   1.267  -1.995  1.00  0.00     0.163 HD
HETATM   18  O4  UNL     1       2.245   3.049  -0.321  1.00  0.00    -0.266 OA
HETATM   19  C20 UNL     1       1.065   1.734   1.120  1.00  0.00     0.086 C 
HETATM   20  N3  UNL     1      -0.183   1.073   1.180  1.00  0.00    -0.315 N 
HETATM   21  C24 UNL     1      -0.346   0.152   2.350  1.00  0.00     0.159 C 
HETATM   22  C25 UNL     1      -1.333   1.089   0.368  1.00  0.00     0.274 C 
HETATM   23  O5  UNL     1      -2.443   1.100   1.039  1.00  0.00    -0.266 OA
HETATM   24  C26 UNL     1      -1.593   1.096  -1.052  1.00  0.00     0.099 C 
HETATM   25  N4  UNL     1      -2.605   0.103  -1.484  1.00  0.00    -0.332 N 
HETATM   26  C31 UNL     1      -3.204  -0.970  -0.877  1.00  0.00     0.146 C 
ATOM     27  H4  UNL     1      -2.925   0.250  -2.441  1.00  0.00     0.168 HD
BRANCH   8  28
HETATM   28  C9  UNL     1      -0.939  -3.592  -3.076  1.00  0.00     0.182 C 
HETATM   29  O1  UNL     1      -0.837  -3.151  -4.284  1.00  0.00    -0.647 OA
HETATM   30  O2  UNL     1      -1.206  -4.947  -3.025  1.00  0.00    -0.647 OA
ENDBRANCH   8  28
BRANCH   9  31
HETATM   31  C11 UNL     1       1.052  -3.680  -0.439  1.00  0.00     0.022 C 
HETATM   32  C12 UNL     1       1.232  -5.032  -1.010  1.00  0.00     0.007 C 
ENDBRANCH   9  31
BRANCH  14  33
HETATM   33  C15 UNL     1       4.296  -0.473  -0.909  1.00  0.00     0.038 C 
BRANCH  33  34
HETATM   34  C16 UNL     1       4.928   0.161   0.270  1.00  0.00    -0.020 C 
HETATM   35  C17 UNL     1       4.551  -0.438   1.589  1.00  0.00     0.009 C 
HETATM   36  C18 UNL     1       6.435   0.037   0.123  1.00  0.00     0.009 C 
ENDBRANCH  33  34
ENDBRANCH  14  33
BRANCH  19  37
HETATM   37  C21 UNL     1       1.157   2.987   2.007  1.00  0.00     0.033 C 
HETATM   38  C22 UNL     1       0.356   2.898   3.257  1.00  0.00     0.016 C 
HETATM   39  C23 UNL     1       0.753   4.254   1.293  1.00  0.00     0.016 C 
ENDBRANCH  19  37
BRANCH  24  40
HETATM   40  C27 UNL     1      -1.797   2.359  -1.778  1.00  0.00     0.012 C 
BRANCH  40  41
HETATM   41  C28 UNL     1      -2.905   3.266  -1.476  1.00  0.00     0.002 C 
HETATM   42  C29 UNL     1      -2.741   4.442  -2.483  1.00  0.00     0.013 C 
HETATM   43  C30 UNL     1      -3.049   3.899  -0.160  1.00  0.00     0.013 C 
ENDBRANCH  40  41
ENDBRANCH  24  40
BRANCH  26  44
HETATM   44  O6  UNL     1      -4.481  -0.795  -0.641  1.00  0.00    -0.346 OA
ATOM     45  H6  UNL     1      -4.765   0.062  -0.937  1.00  0.00     0.219 HD
ENDBRANCH  26  44
ENDBRANCH   5   6
ENDBRANCH   4   5
TORSDOF 10
