REMARK  13 active torsions:
REMARK  status: ('A' for Active; 'I' for Inactive)
REMARK    1  A    between atoms: C2_2  and  C3_3 
REMARK    2  A    between atoms: C3_3  and  C5_5 
REMARK    3  A    between atoms: C6_8  and  O1_9 
REMARK    4  A    between atoms: C7_11  and  C8_12 
REMARK    5  A    between atoms: C8_12  and  C9_13 
REMARK    6  A    between atoms: C13_20  and  C14_21 
REMARK    7  A    between atoms: C14_21  and  C15_22 
REMARK    8  A    between atoms: C15_22  and  C16_23 
REMARK    9  A    between atoms: C16_23  and  N3_24 
REMARK   10  A    between atoms: C18_31  and  O3_32 
REMARK   11  A    between atoms: C19_34  and  C20_35 
REMARK   12  A    between atoms: C20_35  and  C21_36 
REMARK   13  A    between atoms: C25_41  and  C26_42 
ROOT
HETATM    1  C5  UNL     1      -3.457   2.425  -0.786  1.00  0.00     0.179 C 
HETATM    2  N1  UNL     1      -2.057   2.603  -0.987  1.00  0.00    -0.359 N 
ATOM      3  H1  UNL     1      -1.696   2.144  -1.823  1.00  0.00     0.162 HD
HETATM    4  C6  UNL     1      -1.098   3.282  -0.259  1.00  0.00     0.135 C 
HETATM    5  C7  UNL     1      -0.718   3.276   1.150  1.00  0.00     0.159 C 
HETATM    6  N2  UNL     1       0.738   3.345   1.264  1.00  0.00    -0.347 N 
ATOM      7  H2  UNL     1       1.133   4.285   1.299  1.00  0.00     0.163 HD
HETATM    8  C12 UNL     1       1.646   2.316   1.330  1.00  0.00     0.241 C 
HETATM    9  O2  UNL     1       2.630   2.452   2.141  1.00  0.00    -0.271 OA
HETATM   10  C13 UNL     1       1.685   1.019   0.590  1.00  0.00     0.175 C 
HETATM   11  N6  UNL     1       2.539   0.071   1.286  1.00  0.00    -0.356 N 
ATOM     12  H6  UNL     1       3.537   0.247   1.167  1.00  0.00     0.162 HD
HETATM   13  C18 UNL     1       2.253  -1.021   2.076  1.00  0.00     0.158 C 
HETATM   14  C19 UNL     1       1.747  -2.379   1.800  1.00  0.00     0.058 C 
HETATM   15  N7  UNL     1       1.276  -2.665   0.504  1.00  0.00    -0.273 NA
HETATM   16  C24 UNL     1       2.175  -3.334  -0.387  1.00  0.00     0.118 C 
HETATM   17  C25 UNL     1      -0.009  -3.268   0.354  1.00  0.00     0.133 C 
HETATM   18  C28 UNL     1      -1.158  -2.353   0.343  1.00  0.00     0.155 C 
HETATM   19  O4  UNL     1      -1.483  -1.850   1.414  1.00  0.00    -0.295 OA
HETATM   20  C29 UNL     1      -1.982  -1.960  -0.827  1.00  0.00     0.038 C 
HETATM   21  C30 UNL     1      -1.495  -2.425  -2.147  1.00  0.00     0.019 C 
HETATM   22  C31 UNL     1      -2.352  -3.603  -2.557  1.00  0.00     0.001 C 
HETATM   23  C32 UNL     1      -3.635  -3.435  -1.810  1.00  0.00     0.001 C 
HETATM   24  C33 UNL     1      -3.399  -2.445  -0.692  1.00  0.00     0.019 C 
HETATM   25  C34 UNL     1      -2.067  -0.421  -0.846  1.00  0.00     0.140 C 
HETATM   26  N8  UNL     1      -3.142   0.036  -1.654  1.00  0.00    -0.358 N 
ATOM     27  H8  UNL     1      -3.349  -0.516  -2.486  1.00  0.00     0.162 HD
HETATM   28  C35 UNL     1      -3.950   1.161  -1.435  1.00  0.00     0.240 C 
HETATM   29  O5  UNL     1      -5.165   1.084  -1.813  1.00  0.00    -0.271 OA
ENDROOT
BRANCH  10  30
HETATM   30  C14 UNL     1       2.367   1.408  -0.732  1.00  0.00     0.036 C 
BRANCH  30  31
HETATM   31  C15 UNL     1       2.550   0.307  -1.691  1.00  0.00     0.022 C 
BRANCH  31  32
HETATM   32  C16 UNL     1       3.238   0.924  -2.922  1.00  0.00     0.122 C 
BRANCH  32  33
HETATM   33  N3  UNL     1       4.517   1.489  -2.494  1.00  0.00    -0.367 N 
HETATM   34  C17 UNL     1       5.354   2.000  -3.309  1.00  0.00     0.196 C 
HETATM   35  N4  UNL     1       5.098   2.056  -4.700  1.00  0.00    -0.067 NA
HETATM   36  N5  UNL     1       6.569   2.522  -2.787  1.00  0.00    -0.067 NA
ATOM     37  H3  UNL     1       4.750   1.474  -1.501  1.00  0.00     0.161 HD
ENDBRANCH  32  33
ENDBRANCH  31  32
ENDBRANCH  30  31
ENDBRANCH  10  30
BRANCH  13  38
HETATM   38  O3  UNL     1       2.461  -0.861   3.351  1.00  0.00    -0.345 OA
ATOM     39  H3  UNL     1       2.264  -1.614   3.896  1.00  0.00     0.219 HD
ENDBRANCH  13  38
BRANCH   5  40
HETATM   40  C8  UNL     1      -1.334   2.238   2.014  1.00  0.00     0.037 C 
BRANCH  40  41
HETATM   41  C9  UNL     1      -0.827   2.383   3.457  1.00  0.00    -0.020 C 
HETATM   42  C10 UNL     1      -1.165   3.728   4.033  1.00  0.00     0.009 C 
HETATM   43  C11 UNL     1      -1.674   1.368   4.251  1.00  0.00     0.009 C 
ENDBRANCH  40  41
ENDBRANCH   5  40
BRANCH  14  44
HETATM   44  C20 UNL     1       2.587  -3.385   2.475  1.00  0.00     0.005 C 
BRANCH  44  45
HETATM   45  C21 UNL     1       4.007  -3.567   2.199  1.00  0.00     0.002 C 
HETATM   46  C22 UNL     1       4.958  -2.429   2.445  1.00  0.00     0.013 C 
HETATM   47  C23 UNL     1       4.552  -4.676   3.144  1.00  0.00     0.013 C 
ENDBRANCH  44  45
ENDBRANCH  14  44
BRANCH   4  48
HETATM   48  O1  UNL     1      -0.373   4.102  -0.964  1.00  0.00    -0.348 OA
ATOM     49  H1  UNL     1       0.286   4.569  -0.464  1.00  0.00     0.219 HD
ENDBRANCH   4  48
BRANCH  17  50
HETATM   50  C26 UNL     1      -0.240  -4.450   1.305  1.00  0.00     0.023 C 
HETATM   51  C27 UNL     1      -1.610  -5.059   1.087  1.00  0.00     0.007 C 
ENDBRANCH  17  50
BRANCH   1  52
HETATM   52  C3  UNL     1      -4.296   3.529  -1.387  1.00  0.00     0.013 C 
HETATM   53  C4  UNL     1      -3.988   4.882  -0.781  1.00  0.00     0.012 C 
BRANCH  52  54
HETATM   54  C2  UNL     1      -4.117   3.656  -2.873  1.00  0.00     0.002 C 
HETATM   55  C1  UNL     1      -5.072   4.711  -3.390  1.00  0.00     0.005 C 
ENDBRANCH  52  54
ENDBRANCH   1  52
TORSDOF 13
