REMARK  14 active torsions:
REMARK  status: ('A' for Active; 'I' for Inactive)
REMARK    1  A    between atoms: C2_2  and  C3_3 
REMARK    2  A    between atoms: C4_8  and  C5_9 
REMARK    3  A    between atoms: C8_12  and  C9_13 
REMARK    4  A    between atoms: C9_13  and  C10_14 
REMARK    5  A    between atoms: C11_17  and  O1_18 
REMARK    6  A    between atoms: C12_20  and  C13_21 
REMARK    7  A    between atoms: C17_26  and  O2_27 
REMARK    8  A    between atoms: C18_29  and  C19_30 
REMARK    9  A    between atoms: C19_30  and  C20_31 
REMARK   10  A    between atoms: C20_31  and  C21_32 
REMARK   11  A    between atoms: C21_32  and  N5_33 
REMARK   12  A    between atoms: C24_44  and  O3_45 
REMARK   13  A    between atoms: C25_47  and  C26_48 
REMARK   14  A    between atoms: C26_48  and  C27_49 
ROOT
HETATM    1  C10 UNL     1      -1.817  -0.184   0.783  1.00  0.00     0.180 C 
HETATM    2  N3  UNL     1      -1.240  -1.489   0.795  1.00  0.00    -0.359 N 
ATOM      3  H3  UNL     1      -1.944  -2.212   0.646  1.00  0.00     0.162 HD
HETATM    4  C11 UNL     1       0.014  -2.031   0.954  1.00  0.00     0.136 C 
HETATM    5  C12 UNL     1       1.286  -2.060   0.201  1.00  0.00     0.163 C 
HETATM    6  N4  UNL     1       1.336  -1.480  -1.088  1.00  0.00    -0.355 N 
HETATM    7  C16 UNL     1       0.100  -1.756  -1.880  1.00  0.00     0.152 C 
HETATM    8  C17 UNL     1       2.309  -0.731  -1.746  1.00  0.00     0.137 C 
HETATM    9  C18 UNL     1       3.433   0.119  -1.434  1.00  0.00     0.158 C 
HETATM   10  N8  UNL     1       3.203   1.540  -1.769  1.00  0.00    -0.355 N 
ATOM     11  H8  UNL     1       4.008   2.113  -2.021  1.00  0.00     0.162 HD
HETATM   12  C23 UNL     1       1.915   2.152  -1.758  1.00  0.00     0.174 C 
HETATM   13  S1  UNL     1       1.710   3.293  -2.962  1.00  0.00    -0.041 SA
HETATM   14  N9  UNL     1       0.802   1.927  -0.919  1.00  0.00    -0.316 N 
ATOM     15  H9  UNL     1       0.045   1.500  -1.452  1.00  0.00     0.170 HD
HETATM   16  C24 UNL     1       0.418   2.100   0.379  1.00  0.00     0.141 C 
HETATM   17  C25 UNL     1      -0.492   2.961   1.174  1.00  0.00     0.159 C 
HETATM   18  N10 UNL     1      -1.365   2.085   2.000  1.00  0.00    -0.347 N 
ATOM     19  H10 UNL     1      -1.954   2.559   2.685  1.00  0.00     0.163 HD
HETATM   20  C30 UNL     1      -1.476   0.706   1.954  1.00  0.00     0.241 C 
HETATM   21  O4  UNL     1      -1.277   0.027   3.018  1.00  0.00    -0.271 OA
ENDROOT
BRANCH   1  22
HETATM   22  C9  UNL     1      -3.344  -0.181   0.848  1.00  0.00     0.077 C 
BRANCH  22  23
HETATM   23  C8  UNL     1      -4.076  -0.854  -0.202  1.00  0.00    -0.007 A 
HETATM   24  C3  UNL     1      -4.254  -0.394  -1.492  1.00  0.00     0.034 A 
HETATM   25  N1  UNL     1      -5.012  -1.341  -2.118  1.00  0.00    -0.304 N 
HETATM   26  N2  UNL     1      -5.292  -2.312  -1.300  1.00  0.00    -0.304 N 
ATOM     27  H1  UNL     1      -5.316  -1.294  -3.091  1.00  0.00     0.186 HD
HETATM   28  C4  UNL     1      -4.745  -2.070  -0.104  1.00  0.00     0.037 A 
ATOM     29  H2  UNL     1      -5.846  -3.135  -1.535  1.00  0.00     0.186 HD
BRANCH  24  30
HETATM   30  C2  UNL     1      -3.796   0.857  -2.157  1.00  0.00     0.055 C 
HETATM   31  C1  UNL     1      -4.676   2.007  -1.689  1.00  0.00     0.011 C 
ENDBRANCH  24  30
BRANCH  28  32
HETATM   32  C5  UNL     1      -4.904  -2.961   1.082  1.00  0.00     0.029 C 
HETATM   33  C6  UNL     1      -5.562  -4.275   0.660  1.00  0.00     0.016 C 
HETATM   34  C7  UNL     1      -5.736  -2.244   2.101  1.00  0.00     0.016 C 
ENDBRANCH  28  32
ENDBRANCH  22  23
ENDBRANCH   1  22
BRANCH   4  35
HETATM   35  O1  UNL     1       0.172  -2.719   2.055  1.00  0.00    -0.348 OA
ATOM     36  H1  UNL     1       1.038  -3.093   2.165  1.00  0.00     0.219 HD
ENDBRANCH   4  35
BRANCH   5  37
HETATM   37  C13 UNL     1       1.786  -3.520   0.186  1.00  0.00     0.008 C 
HETATM   38  C14 UNL     1       3.055  -3.725  -0.536  1.00  0.00     0.012 C 
HETATM   39  C15 UNL     1       0.766  -4.497  -0.262  1.00  0.00     0.012 C 
ENDBRANCH   5  37
BRANCH  17  40
HETATM   40  C26 UNL     1      -1.227   4.024   0.475  1.00  0.00     0.037 C 
BRANCH  40  41
HETATM   41  C27 UNL     1      -2.102   4.808   1.390  1.00  0.00    -0.020 C 
HETATM   42  C28 UNL     1      -2.810   5.875   0.558  1.00  0.00     0.009 C 
HETATM   43  C29 UNL     1      -1.262   5.569   2.403  1.00  0.00     0.009 C 
ENDBRANCH  40  41
ENDBRANCH  17  40
BRANCH  16  44
HETATM   44  O3  UNL     1       0.945   1.323   1.286  1.00  0.00    -0.348 OA
ATOM     45  H3  UNL     1       0.678   1.443   2.190  1.00  0.00     0.219 HD
ENDBRANCH  16  44
BRANCH   8  46
HETATM   46  O2  UNL     1       2.172  -0.817  -3.062  1.00  0.00    -0.348 OA
ATOM     47  H2  UNL     1       2.836  -0.306  -3.511  1.00  0.00     0.219 HD
ENDBRANCH   8  46
BRANCH   9  48
HETATM   48  C19 UNL     1       4.124  -0.013  -0.116  1.00  0.00     0.035 C 
BRANCH  48  49
HETATM   49  C20 UNL     1       5.294   0.954   0.013  1.00  0.00     0.022 C 
BRANCH  49  50
HETATM   50  C21 UNL     1       6.380   0.729  -1.008  1.00  0.00     0.122 C 
BRANCH  50  51
HETATM   51  N5  UNL     1       6.897  -0.596  -0.868  1.00  0.00    -0.367 N 
HETATM   52  C22 UNL     1       7.795  -0.992  -0.044  1.00  0.00     0.196 C 
HETATM   53  N6  UNL     1       8.377  -0.067   0.851  1.00  0.00    -0.067 NA
HETATM   54  N7  UNL     1       8.244  -2.338   0.019  1.00  0.00    -0.067 NA
ATOM     55  H5  UNL     1       6.509  -1.304  -1.492  1.00  0.00     0.161 HD
ENDBRANCH  50  51
ENDBRANCH  49  50
ENDBRANCH  48  49
ENDBRANCH   9  48
TORSDOF 14
