REMARK  11 active torsions:
REMARK  status: ('A' for Active; 'I' for Inactive)
REMARK    1  A    between atoms: N1_1  and  C1_4 
REMARK    2  A    between atoms: C3_8  and  C4_9 
REMARK    3  A    between atoms: C4_9  and  N3_10 
REMARK    4  A    between atoms: C4_9  and  C16_25 
REMARK       I    between atoms: N3_10  and  C5_12 
REMARK    5  A    between atoms: C5_12  and  O2_14 
REMARK    6  A    between atoms: O2_14  and  C6_15 
REMARK       I    between atoms: C16_25  and  N4_27 
REMARK    7  A    between atoms: N4_27  and  C17_29 
REMARK    8  A    between atoms: C17_29  and  C18_30 
REMARK    9  A    between atoms: C17_29  and  C19_32 
REMARK   10  A    between atoms: C19_32  and  C20_33 
REMARK       I    between atoms: C20_33  and  N5_35 
REMARK   11  A    between atoms: N5_35  and  C21_37 
ROOT
HETATM    1  C4  UNL     1       1.145  -3.285   1.961  1.00  0.00     0.230 C 
ENDROOT
BRANCH   1   2
HETATM    2  C3  UNL     1       0.810  -4.189   0.883  1.00  0.00     0.074 A 
HETATM    3  C2  UNL     1       0.243  -5.460   1.012  1.00  0.00     0.134 A 
HETATM    4  N2  UNL     1       0.145  -5.930  -0.266  1.00  0.00    -0.200 N 
HETATM    5  C1  UNL     1       0.615  -5.016  -1.106  1.00  0.00     0.676 A 
ATOM      6  H2  UNL     1      -0.230  -6.840  -0.533  1.00  0.00     0.183 HD
HETATM    7  N6  UNL     1       1.027  -3.942  -0.428  1.00  0.00    -0.192 N 
ATOM      8  H6  UNL     1       1.430  -3.094  -0.825  1.00  0.00     0.184 HD
BRANCH   5   9
HETATM    9  N1  UNL     1       0.646  -5.157  -2.404  1.00  0.00    -0.234 N 
ATOM     10  H12 UNL     1       0.331  -5.977  -2.922  1.00  0.00     0.174 HD
ATOM     11  H11 UNL     1       1.007  -4.455  -3.049  1.00  0.00     0.174 HD
ENDBRANCH   5   9
ENDBRANCH   1   2
BRANCH   1  12
HETATM   12  N3  UNL     1       2.403  -2.666   1.845  1.00  0.00    -0.318 N 
HETATM   13  C5  UNL     1       3.034  -1.475   1.840  1.00  0.00     0.361 C 
HETATM   14  O1  UNL     1       2.404  -0.373   1.944  1.00  0.00    -0.238 OA
ATOM     15  H3  UNL     1       3.104  -3.396   1.715  1.00  0.00     0.166 HD
BRANCH  13  16
HETATM   16  O2  UNL     1       4.429  -1.265   1.711  1.00  0.00    -0.298 OA
BRANCH  16  17
HETATM   17  C6  UNL     1       4.917   0.057   1.583  1.00  0.00     0.142 C 
HETATM   18  C7  UNL     1       5.364   0.043   0.086  1.00  0.00     0.016 C 
HETATM   19  C8  UNL     1       6.445  -0.965  -0.130  1.00  0.00     0.012 C 
HETATM   20  C12 UNL     1       5.788   1.377  -0.386  1.00  0.00     0.012 C 
HETATM   21  C9  UNL     1       7.672  -0.529   0.674  1.00  0.00    -0.013 C 
HETATM   22  C10 UNL     1       8.155   0.833   0.204  1.00  0.00     0.009 C 
HETATM   23  C15 UNL     1       7.275  -0.546   2.123  1.00  0.00     0.012 C 
HETATM   24  C11 UNL     1       7.010   1.793   0.406  1.00  0.00    -0.013 C 
HETATM   25  C13 UNL     1       6.638   1.775   1.873  1.00  0.00     0.012 C 
HETATM   26  C14 UNL     1       6.124   0.415   2.339  1.00  0.00     0.016 C 
ENDBRANCH  16  17
ENDBRANCH  13  16
ENDBRANCH   1  12
BRANCH   1  27
HETATM   27  C16 UNL     1       0.037  -2.269   2.161  1.00  0.00     0.247 C 
HETATM   28  O3  UNL     1       0.218  -1.494   3.134  1.00  0.00    -0.271 OA
HETATM   29  N4  UNL     1      -1.074  -2.179   1.348  1.00  0.00    -0.348 N 
ATOM     30  H4  UNL     1      -1.050  -2.847   0.578  1.00  0.00     0.163 HD
BRANCH  29  31
HETATM   31  C17 UNL     1      -2.233  -1.380   1.333  1.00  0.00     0.154 C 
BRANCH  31  32
HETATM   32  C18 UNL     1      -2.177  -0.185   2.175  1.00  0.00     0.256 C 
HETATM   33  O4  UNL     1      -1.321   0.563   2.485  1.00  0.00    -0.305 OA
ENDBRANCH  31  32
BRANCH  31  34
HETATM   34  C19 UNL     1      -2.487  -0.967  -0.123  1.00  0.00     0.135 C 
BRANCH  34  35
HETATM   35  C20 UNL     1      -3.720  -0.128  -0.192  1.00  0.00     0.220 C 
HETATM   36  O5  UNL     1      -4.574  -0.085   0.698  1.00  0.00    -0.274 OA
HETATM   37  N5  UNL     1      -3.890   0.680  -1.366  1.00  0.00    -0.352 N 
ATOM     38  H5  UNL     1      -3.180   0.605  -2.094  1.00  0.00     0.163 HD
BRANCH  37  39
HETATM   39  C21 UNL     1      -4.979   1.584  -1.596  1.00  0.00     0.034 C 
HETATM   40  C22 UNL     1      -4.960   2.627  -0.503  1.00  0.00     0.035 C 
HETATM   41  C23 UNL     1      -5.955   3.729  -0.802  1.00  0.00    -0.012 C 
HETATM   42  C24 UNL     1      -5.746   4.348  -2.147  1.00  0.00     0.009 C 
HETATM   43  C28 UNL     1      -7.340   3.081  -0.813  1.00  0.00     0.009 C 
HETATM   44  C25 UNL     1      -5.809   3.300  -3.204  1.00  0.00    -0.012 C 
HETATM   45  C26 UNL     1      -7.156   2.597  -3.203  1.00  0.00     0.009 C 
HETATM   46  C30 UNL     1      -4.753   2.272  -2.950  1.00  0.00     0.035 C 
HETATM   47  C27 UNL     1      -7.373   2.000  -1.839  1.00  0.00    -0.012 C 
HETATM   48  C29 UNL     1      -6.306   0.927  -1.620  1.00  0.00     0.035 C 
ENDBRANCH  37  39
ENDBRANCH  34  35
ENDBRANCH  31  34
ENDBRANCH  29  31
ENDBRANCH   1  27
TORSDOF 11
