REMARK  13 active torsions:
REMARK  status: ('A' for Active; 'I' for Inactive)
REMARK    1  A    between atoms: N1_1  and  C1_5 
REMARK    2  A    between atoms: C1_5  and  C2_6 
REMARK    3  A    between atoms: C6_10  and  C7_11 
REMARK    4  A    between atoms: C7_11  and  N2_12 
REMARK    5  A    between atoms: N2_12  and  C8_14 
REMARK    6  A    between atoms: C10_21  and  N5_22 
REMARK    7  A    between atoms: N5_22  and  C11_24 
REMARK    8  A    between atoms: C11_24  and  C12_25 
REMARK    9  A    between atoms: C12_25  and  C13_26 
REMARK   10  A    between atoms: C21_38  and  N8_39 
REMARK   11  A    between atoms: N8_39  and  C22_40 
REMARK   12  A    between atoms: C22_40  and  C23_41 
REMARK   13  A    between atoms: C22_40  and  C29_47 
ROOT
HETATM    1  C8  UNL     1      -1.103   0.428   0.978  1.00  0.00     0.165 C 
HETATM    2  N3  UNL     1      -0.405   1.570   1.078  1.00  0.00    -0.290 N 
ATOM      3  H3  UNL     1      -0.958   2.423   1.162  1.00  0.00     0.172 HD
HETATM    4  C9  UNL     1       0.952   1.738   1.082  1.00  0.00     0.340 C 
HETATM    5  O1  UNL     1       1.386   2.902   1.261  1.00  0.00    -0.246 OA
HETATM    6  N4  UNL     1       1.899   0.797   0.914  1.00  0.00    -0.141 N 
ATOM      7  H4  UNL     1       2.816   1.114   0.599  1.00  0.00     0.189 HD
HETATM    8  C10 UNL     1       1.745  -0.543   1.126  1.00  0.00     0.684 C 
HETATM    9  N7  UNL     1       0.623  -1.278   1.109  1.00  0.00    -0.161 N 
ATOM     10  H7  UNL     1       0.729  -2.254   1.387  1.00  0.00     0.187 HD
HETATM   11  C21 UNL     1      -0.645  -0.893   0.768  1.00  0.00     0.232 C 
ENDROOT
BRANCH   1  12
HETATM   12  N2  UNL     1      -2.367   0.562   1.092  1.00  0.00    -0.368 N 
ATOM     13  H2  UNL     1      -2.904  -0.302   1.017  1.00  0.00     0.161 HD
BRANCH  12  14
HETATM   14  C7  UNL     1      -3.135   1.731   1.307  1.00  0.00     0.160 C 
BRANCH  14  15
HETATM   15  C6  UNL     1      -3.399   2.540   0.089  1.00  0.00    -0.040 A 
HETATM   16  C5  UNL     1      -2.975   2.218  -1.176  1.00  0.00     0.009 A 
HETATM   17  C4  UNL     1      -3.269   3.029  -2.253  1.00  0.00     0.001 A 
HETATM   18  C3  UNL     1      -3.998   4.189  -2.101  1.00  0.00     0.009 A 
HETATM   19  C2  UNL     1      -4.430   4.520  -0.826  1.00  0.00    -0.033 A 
HETATM   20  C35 UNL     1      -4.128   3.699   0.241  1.00  0.00     0.017 A 
BRANCH  19  21
HETATM   21  C1  UNL     1      -5.223   5.775  -0.658  1.00  0.00     0.268 C 
BRANCH  21  22
HETATM   22  N1  UNL     1      -4.321   6.881  -0.396  1.00  0.00    -0.075 N 
ATOM     23  H13 UNL     1      -3.709   6.701   0.400  1.00  0.00     0.274 HD
ATOM     24  H12 UNL     1      -3.602   6.971  -1.113  1.00  0.00     0.274 HD
ATOM     25  H11 UNL     1      -4.862   7.738  -0.281  1.00  0.00     0.274 HD
ENDBRANCH  21  22
ENDBRANCH  19  21
ENDBRANCH  14  15
ENDBRANCH  12  14
ENDBRANCH   1  12
BRANCH  11  26
HETATM   26  N8  UNL     1      -1.405  -1.655   0.288  1.00  0.00    -0.411 NA
BRANCH  26  27
HETATM   27  C22 UNL     1      -2.304  -2.492  -0.262  1.00  0.00     0.231 C 
BRANCH  27  28
HETATM   28  C23 UNL     1      -3.455  -2.800   0.676  1.00  0.00    -0.018 A 
HETATM   29  C24 UNL     1      -4.749  -2.784   0.213  1.00  0.00     0.011 A 
HETATM   30  C25 UNL     1      -5.804  -3.071   1.086  1.00  0.00     0.001 A 
HETATM   31  C26 UNL     1      -5.570  -3.371   2.409  1.00  0.00     0.000 A 
HETATM   32  C27 UNL     1      -4.276  -3.388   2.878  1.00  0.00     0.001 A 
HETATM   33  C28 UNL     1      -3.236  -3.102   2.003  1.00  0.00     0.011 A 
ENDBRANCH  27  28
BRANCH  27  34
HETATM   34  C29 UNL     1      -1.782  -3.785  -0.804  1.00  0.00    -0.018 A 
HETATM   35  C30 UNL     1      -0.882  -4.576  -0.104  1.00  0.00     0.011 A 
HETATM   36  C31 UNL     1      -0.410  -5.778  -0.632  1.00  0.00     0.001 A 
HETATM   37  C32 UNL     1      -0.819  -6.218  -1.857  1.00  0.00     0.000 A 
HETATM   38  C33 UNL     1      -1.720  -5.445  -2.579  1.00  0.00     0.001 A 
HETATM   39  C34 UNL     1      -2.169  -4.263  -2.035  1.00  0.00     0.011 A 
ENDBRANCH  27  34
ENDBRANCH  26  27
ENDBRANCH  11  26
BRANCH   8  40
HETATM   40  N5  UNL     1       2.819  -1.178   1.373  1.00  0.00    -0.226 N 
ATOM     41  H5  UNL     1       2.713  -2.180   1.534  1.00  0.00     0.177 HD
BRANCH  40  42
HETATM   42  C11 UNL     1       4.145  -0.678   1.455  1.00  0.00     0.142 C 
BRANCH  42  43
HETATM   43  C12 UNL     1       4.817  -0.906   0.104  1.00  0.00     0.061 C 
BRANCH  43  44
HETATM   44  C13 UNL     1       6.228  -0.416   0.098  1.00  0.00    -0.029 A 
HETATM   45  C14 UNL     1       7.374  -1.196   0.182  1.00  0.00     0.096 A 
HETATM   46  N6  UNL     1       8.420  -0.379   0.146  1.00  0.00    -0.365 N 
HETATM   47  C15 UNL     1       8.017   0.905   0.042  1.00  0.00     0.042 A 
ATOM     48  H6  UNL     1       9.394  -0.680   0.191  1.00  0.00     0.165 HD
HETATM   49  C16 UNL     1       8.736   2.084  -0.029  1.00  0.00     0.030 A 
HETATM   50  C20 UNL     1       6.643   0.886   0.012  1.00  0.00    -0.002 A 
HETATM   51  C17 UNL     1       8.018   3.269  -0.133  1.00  0.00     0.002 A 
HETATM   52  C18 UNL     1       6.644   3.279  -0.166  1.00  0.00     0.001 A 
HETATM   53  C19 UNL     1       5.966   2.091  -0.093  1.00  0.00     0.014 A 
ENDBRANCH  43  44
ENDBRANCH  42  43
ENDBRANCH  40  42
ENDBRANCH   8  40
TORSDOF 13
