REMARK  10 active torsions:
REMARK  status: ('A' for Active; 'I' for Inactive)
REMARK    1  A    between atoms: C2_2  and  C3_3 
REMARK    2  A    between atoms: C3_3  and  S1_4 
REMARK    3  A    between atoms: S1_4  and  C4_6 
REMARK    4  A    between atoms: C4_6  and  C5_7 
REMARK    5  A    between atoms: C10_12  and  C11_13 
REMARK    6  A    between atoms: C12_14  and  C13_15 
REMARK    7  A    between atoms: C13_15  and  C14_16 
REMARK    8  A    between atoms: C14_16  and  C15_17 
REMARK    9  A    between atoms: N1_24  and  S2_25 
REMARK   10  A    between atoms: S2_25  and  C22_28 
REMARK       I    between atoms: C22_28  and  N2_30 
ROOT
HETATM    1  C5  UNL     1      -0.308   1.359  -0.345  1.00  0.00    -0.027 A 
HETATM    2  C6  UNL     1       1.003   1.672  -0.181  1.00  0.00     0.017 A 
HETATM    3  C7  UNL     1       1.928   0.786   0.395  1.00  0.00    -0.045 A 
HETATM    4  C8  UNL     1       1.500  -0.449   0.812  1.00  0.00    -0.050 A 
HETATM    5  C9  UNL     1       0.185  -0.801   0.663  1.00  0.00     0.029 A 
HETATM    6  C10 UNL     1      -0.708   0.089   0.092  1.00  0.00     0.025 A 
HETATM    7  C19 UNL     1       2.663  -1.210   1.401  1.00  0.00     0.045 C 
HETATM    8  C20 UNL     1       3.602  -0.086   1.800  1.00  0.00     0.013 C 
HETATM    9  C21 UNL     1       5.050  -0.476   1.581  1.00  0.00     0.113 C 
HETATM   10  N1  UNL     1       5.230  -0.519   0.162  1.00  0.00    -0.201 NA
HETATM   11  C24 UNL     1       4.207   0.280  -0.444  1.00  0.00     0.117 C 
HETATM   12  C25 UNL     1       3.371   0.883   0.668  1.00  0.00     0.039 C 
ENDROOT
BRANCH   6  13
HETATM   13  C11 UNL     1      -2.079  -0.256  -0.073  1.00  0.00    -0.066 C 
HETATM   14  C12 UNL     1      -3.257  -0.575  -0.206  1.00  0.00    -0.101 C 
BRANCH  14  15
HETATM   15  C13 UNL     1      -4.655  -0.977  -0.354  1.00  0.00     0.095 C 
BRANCH  15  16
HETATM   16  C14 UNL     1      -4.841  -2.327   0.301  1.00  0.00     0.020 C 
BRANCH  16  17
HETATM   17  C15 UNL     1      -6.249  -2.823   0.199  1.00  0.00    -0.051 C 
HETATM   18  C16 UNL     1      -6.286  -4.187   0.900  1.00  0.00     0.014 C 
HETATM   19  C17 UNL     1      -7.254  -1.947   0.878  1.00  0.00     0.014 C 
HETATM   20  C18 UNL     1      -6.650  -3.096  -1.245  1.00  0.00     0.014 C 
ENDBRANCH  16  17
ENDBRANCH  15  16
ENDBRANCH  14  15
ENDBRANCH   6  13
BRANCH   1  21
HETATM   21  C4  UNL     1      -1.336   2.233  -0.954  1.00  0.00     0.148 C 
BRANCH  21  22
HETATM   22  S1  UNL     1      -0.616   3.781  -1.398  1.00  0.00     0.019 S 
HETATM   23  O1  UNL     1       0.030   4.562  -0.044  1.00  0.00    -0.258 OA
BRANCH  22  24
HETATM   24  C3  UNL     1      -1.847   4.846  -2.153  1.00  0.00     0.108 C 
BRANCH  24  25
HETATM   25  C2  UNL     1      -2.969   5.162  -1.199  1.00  0.00     0.008 C 
HETATM   26  C1  UNL     1      -2.389   5.865   0.006  1.00  0.00     0.006 C 
ENDBRANCH  24  25
ENDBRANCH  22  24
ENDBRANCH  21  22
ENDBRANCH   1  21
BRANCH  10  27
HETATM   27  S2  UNL     1       6.822  -0.024  -0.285  1.00  0.00     0.298 S 
HETATM   28  O2  UNL     1       6.974  -0.072  -1.775  1.00  0.00    -0.201 OA
HETATM   29  O3  UNL     1       7.063   1.407   0.132  1.00  0.00    -0.201 OA
BRANCH  27  30
HETATM   30  C22 UNL     1       7.972  -1.107   0.415  1.00  0.00     0.351 C 
HETATM   31  O4  UNL     1       8.442  -0.855   1.575  1.00  0.00    -0.254 OA
HETATM   32  N2  UNL     1       8.393  -2.264  -0.288  1.00  0.00    -0.351 N 
HETATM   33  C23 UNL     1       9.367  -3.186   0.301  1.00  0.00     0.150 C 
ATOM     34  H2  UNL     1       8.013  -2.457  -1.215  1.00  0.00     0.162 HD
ENDBRANCH  27  30
ENDBRANCH  10  27
TORSDOF 10
