REMARK  15 active torsions:
REMARK  status: ('A' for Active; 'I' for Inactive)
REMARK    1  A    between atoms: C2_2  and  C3_3 
REMARK    2  A    between atoms: C3_3  and  C4_4 
REMARK    3  A    between atoms: C4_4  and  O1_5 
REMARK    4  A    between atoms: C4_4  and  C15_32 
REMARK    5  A    between atoms: O1_5  and  C5_6 
REMARK    6  A    between atoms: C8_15  and  O2_16 
REMARK    7  A    between atoms: O2_16  and  C9_17 
REMARK    8  A    between atoms: C10_19  and  C11_20 
REMARK    9  A    between atoms: C11_20  and  O4_21 
REMARK   10  A    between atoms: C13_24  and  O5_25 
REMARK   11  A    between atoms: C14_27  and  N3_28 
REMARK   12  A    between atoms: C16_34  and  N4_35 
REMARK   13  A    between atoms: N4_35  and  C17_37 
REMARK   14  A    between atoms: C18_40  and  N6_41 
REMARK   15  A    between atoms: C19_51  and  O6_52 
ROOT
HETATM    1  O1  UNL     1      -0.355  -1.058   0.392  1.00  0.00    -0.346 OA
ENDROOT
BRANCH   1   2
HETATM    2  C4  UNL     1       0.536  -1.127  -0.669  1.00  0.00     0.168 C 
BRANCH   2   3
HETATM    3  C3  UNL     1      -0.001  -0.493  -1.907  1.00  0.00     0.037 C 
BRANCH   3   4
HETATM    4  C2  UNL     1       0.771  -0.491  -3.166  1.00  0.00    -0.002 C 
HETATM    5  C1  UNL     1      -0.087   0.156  -4.298  1.00  0.00     0.005 C 
ENDBRANCH   3   4
ENDBRANCH   2   3
BRANCH   2   6
HETATM    6  C15 UNL     1       1.838  -0.593  -0.282  1.00  0.00     0.066 A 
HETATM    7  S1  UNL     1       3.094   0.111  -1.264  1.00  0.00    -0.051 SA
HETATM    8  C16 UNL     1       4.267   0.375  -0.085  1.00  0.00     0.166 A 
HETATM    9  N10 UNL     1       3.671  -0.077   1.026  1.00  0.00    -0.316 N 
HETATM   10  C19 UNL     1       2.472  -0.556   0.938  1.00  0.00     0.158 A 
ATOM     11  H10 UNL     1       4.153  -0.044   1.924  1.00  0.00     0.170 HD
BRANCH   8  12
HETATM   12  N4  UNL     1       5.447   0.881  -0.226  1.00  0.00    -0.169 N 
ATOM     13  H4  UNL     1       5.714   1.160  -1.170  1.00  0.00     0.186 HD
BRANCH  12  14
HETATM   14  C17 UNL     1       6.392   1.085   0.776  1.00  0.00     0.695 C 
HETATM   15  N5  UNL     1       6.252   1.869   1.802  1.00  0.00    -0.181 N 
HETATM   16  C18 UNL     1       7.332   1.974   2.759  1.00  0.00     0.409 C 
ATOM     17  H5  UNL     1       5.393   2.403   1.931  1.00  0.00     0.181 HD
HETATM   18  N7  UNL     1       8.572   2.057   2.005  1.00  0.00    -0.071 NA
HETATM   19  N8  UNL     1       8.811   0.905   1.249  1.00  0.00    -0.013 NA
HETATM   20  N9  UNL     1       7.634   0.385   0.699  1.00  0.00    -0.119 N 
ATOM     21  H9  UNL     1       7.664  -0.520   0.230  1.00  0.00     0.202 HD
BRANCH  16  22
HETATM   22  N6  UNL     1       7.159   3.208   3.480  1.00  0.00    -0.042 N 
ATOM     23  H63 UNL     1       7.093   4.020   2.866  1.00  0.00     0.278 HD
ATOM     24  H62 UNL     1       6.238   3.290   3.911  1.00  0.00     0.278 HD
ATOM     25  H61 UNL     1       7.920   3.282   4.155  1.00  0.00     0.278 HD
ENDBRANCH  16  22
ENDBRANCH  12  14
ENDBRANCH   8  12
BRANCH  10  26
HETATM   26  O6  UNL     1       1.805  -1.041   2.110  1.00  0.00    -0.345 OA
ATOM     27  H6  UNL     1       2.243  -1.015   2.953  1.00  0.00     0.219 HD
ENDBRANCH  10  26
ENDBRANCH   2   6
ENDBRANCH   1   2
BRANCH   1  28
HETATM   28  C5  UNL     1      -1.120  -2.191   0.552  1.00  0.00     0.354 C 
HETATM   29  N1  UNL     1      -0.781  -3.088   1.622  1.00  0.00    -0.022 N 
HETATM   30  C6  UNL     1      -1.460  -4.369   1.478  1.00  0.00     0.466 C 
ATOM     31  H12 UNL     1       0.229  -3.207   1.704  1.00  0.00     0.282 HD
ATOM     32  H11 UNL     1      -0.964  -2.668   2.533  1.00  0.00     0.282 HD
HETATM   33  N2  UNL     1      -2.899  -4.180   1.498  1.00  0.00    -0.049 N 
HETATM   34  C7  UNL     1      -3.227  -2.778   1.671  1.00  0.00     0.270 C 
ATOM     35  H22 UNL     1      -3.344  -4.574   0.669  1.00  0.00     0.279 HD
ATOM     36  H21 UNL     1      -3.348  -4.764   2.204  1.00  0.00     0.279 HD
HETATM   37  C8  UNL     1      -2.599  -1.989   0.531  1.00  0.00     0.206 C 
BRANCH  37  38
HETATM   38  O2  UNL     1      -2.988  -0.641   0.631  1.00  0.00    -0.348 OA
BRANCH  38  39
HETATM   39  C9  UNL     1      -3.820  -0.218  -0.372  1.00  0.00     0.293 C 
HETATM   40  O3  UNL     1      -3.261   0.791  -1.086  1.00  0.00    -0.352 OA
HETATM   41  C10 UNL     1      -3.309   2.056  -0.585  1.00  0.00     0.150 C 
HETATM   42  C12 UNL     1      -4.736   2.532  -0.529  1.00  0.00     0.068 C 
HETATM   43  C13 UNL     1      -5.653   1.362  -0.685  1.00  0.00     0.156 C 
HETATM   44  C14 UNL     1      -5.194   0.178   0.142  1.00  0.00     0.266 C 
BRANCH  41  45
HETATM   45  C11 UNL     1      -2.513   2.943  -1.564  1.00  0.00     0.196 C 
BRANCH  45  46
HETATM   46  O4  UNL     1      -2.592   4.241  -1.024  1.00  0.00    -0.398 OA
ATOM     47  H4  UNL     1      -2.102   4.787  -1.627  1.00  0.00     0.209 HD
ENDBRANCH  45  46
ENDBRANCH  41  45
BRANCH  43  48
HETATM   48  O5  UNL     1      -5.664   0.955  -2.040  1.00  0.00    -0.393 OA
ATOM     49  H5  UNL     1      -6.247   0.211  -2.139  1.00  0.00     0.210 HD
ENDBRANCH  43  48
BRANCH  44  50
HETATM   50  N3  UNL     1      -6.170  -0.878  -0.061  1.00  0.00    -0.068 N 
ATOM     51  H33 UNL     1      -6.208  -1.166  -1.039  1.00  0.00     0.275 HD
ATOM     52  H32 UNL     1      -5.858  -1.757   0.352  1.00  0.00     0.275 HD
ATOM     53  H31 UNL     1      -7.092  -0.612   0.284  1.00  0.00     0.275 HD
ENDBRANCH  44  50
ENDBRANCH  38  39
ENDBRANCH  37  38
ENDBRANCH   1  28
TORSDOF 15
