REMARK  11 active torsions:
REMARK  status: ('A' for Active; 'I' for Inactive)
REMARK    1  A    between atoms: N1_2  and  C1_4 
REMARK    2  A    between atoms: C4_7  and  O3_8 
REMARK    3  A    between atoms: C5_10  and  C6_11 
REMARK    4  A    between atoms: C6_11  and  N2_12 
REMARK    5  A    between atoms: C6_11  and  C15_33 
REMARK    6  A    between atoms: N2_12  and  C7_14 
REMARK    7  A    between atoms: C7_14  and  C8_15 
REMARK    8  A    between atoms: C8_15  and  O4_16 
REMARK    9  A    between atoms: C8_15  and  C9_18 
REMARK   10  A    between atoms: C10_23  and  C11_24 
REMARK   11  A    between atoms: C14_27  and  O5_28 
ROOT
HETATM    1  C6  UNL     1      -2.458   1.656   0.234  1.00  0.00     0.092 C 
ENDROOT
BRANCH   1   2
HETATM    2  C5  UNL     1      -3.094   0.298   0.402  1.00  0.00     0.030 A 
HETATM    3  C4  UNL     1      -3.599  -0.146   1.607  1.00  0.00     0.078 A 
HETATM    4  C3  UNL     1      -4.193  -1.394   1.735  1.00  0.00     0.040 A 
HETATM    5  C2  UNL     1      -4.295  -2.228   0.659  1.00  0.00     0.039 A 
HETATM    6  C1  UNL     1      -3.800  -1.807  -0.542  1.00  0.00     0.103 A 
HETATM    7  C16 UNL     1      -3.213  -0.570  -0.665  1.00  0.00     0.052 A 
BRANCH   3   8
HETATM    8  O3  UNL     1      -3.551   0.610   2.765  1.00  0.00    -0.360 OA
ATOM      9  H3  UNL     1      -3.144   1.464   2.677  1.00  0.00     0.217 HD
ENDBRANCH   3   8
BRANCH   6  10
HETATM   10  N1  UNL     1      -3.903  -2.669  -1.660  1.00  0.00    -0.116 N 
HETATM   11  O1  UNL     1      -4.439  -3.804  -1.563  1.00  0.00    -0.532 OA
HETATM   12  O2  UNL     1      -3.405  -2.244  -2.866  1.00  0.00    -0.532 OA
ENDBRANCH   6  10
ENDBRANCH   1   2
BRANCH   1  13
HETATM   13  N2  UNL     1      -1.193   1.783   0.774  1.00  0.00    -0.363 N 
ATOM     14  H2  UNL     1      -1.020   2.613   1.340  1.00  0.00     0.165 HD
BRANCH  13  15
HETATM   15  C7  UNL     1      -0.142   0.907   0.628  1.00  0.00     0.101 C 
BRANCH  15  16
HETATM   16  C8  UNL     1       0.529   0.808  -0.712  1.00  0.00     0.232 C 
BRANCH  16  17
HETATM   17  O4  UNL     1       1.097   2.044  -1.083  1.00  0.00    -0.382 OA
ATOM     18  H4  UNL     1       1.521   1.981  -1.931  1.00  0.00     0.211 HD
ENDBRANCH  16  17
BRANCH  16  19
HETATM   19  C9  UNL     1       1.739  -0.106  -0.619  1.00  0.00     0.174 A 
HETATM   20  N3  UNL     1       1.858  -1.325  -1.183  1.00  0.00    -0.279 N 
HETATM   21  N4  UNL     1       3.069  -1.749  -0.839  1.00  0.00    -0.276 N 
ATOM     22  H3  UNL     1       1.167  -1.816  -1.751  1.00  0.00     0.189 HD
HETATM   23  C10 UNL     1       3.688  -0.827  -0.086  1.00  0.00     0.191 A 
ATOM     24  H4  UNL     1       3.471  -2.647  -1.109  1.00  0.00     0.189 HD
HETATM   25  O6  UNL     1       2.846   0.166   0.029  1.00  0.00    -0.273 OA
BRANCH  23  26
HETATM   26  C11 UNL     1       5.034  -0.954   0.472  1.00  0.00     0.087 A 
HETATM   27  C12 UNL     1       5.655  -0.002   1.248  1.00  0.00     0.038 A 
HETATM   28  C13 UNL     1       6.923  -0.446   1.608  1.00  0.00     0.058 A 
HETATM   29  C14 UNL     1       7.037  -1.687   1.024  1.00  0.00     0.140 A 
HETATM   30  N5  UNL     1       5.891  -1.977   0.344  1.00  0.00    -0.334 N 
ATOM     31  H5  UNL     1       5.714  -2.835  -0.178  1.00  0.00     0.168 HD
BRANCH  29  32
HETATM   32  O5  UNL     1       8.126  -2.557   1.082  1.00  0.00    -0.346 OA
ATOM     33  H5  UNL     1       8.205  -3.414   0.679  1.00  0.00     0.219 HD
ENDBRANCH  29  32
ENDBRANCH  23  26
ENDBRANCH  16  19
ENDBRANCH  15  16
ENDBRANCH  13  15
ENDBRANCH   1  13
BRANCH   1  34
HETATM   34  C15 UNL     1      -2.825   2.312  -1.033  1.00  0.00     0.165 A 
HETATM   35  N6  UNL     1      -2.161   2.401  -2.183  1.00  0.00    -0.267 N 
HETATM   36  N7  UNL     1      -2.858   3.068  -3.064  1.00  0.00    -0.227 N 
ATOM     37  H6  UNL     1      -1.237   2.004  -2.353  1.00  0.00     0.190 HD
HETATM   38  N8  UNL     1      -3.992   3.427  -2.504  1.00  0.00    -0.227 N 
ATOM     39  H7  UNL     1      -2.572   3.275  -4.021  1.00  0.00     0.210 HD
HETATM   40  N9  UNL     1      -3.999   2.982  -1.272  1.00  0.00    -0.267 N 
ATOM     41  H8  UNL     1      -4.738   3.960  -2.952  1.00  0.00     0.210 HD
ATOM     42  H9  UNL     1      -4.754   3.112  -0.599  1.00  0.00     0.190 HD
ENDBRANCH   1  34
TORSDOF 11
