REMARK  8 active torsions:
REMARK  status: ('A' for Active; 'I' for Inactive)
REMARK    1  A    between atoms: C2_2  and  O1_3 
REMARK    2  A    between atoms: C2_2  and  C3_5 
REMARK    3  A    between atoms: C6_9  and  O3_10 
REMARK    4  A    between atoms: C7_12  and  O4_13 
REMARK    5  A    between atoms: O4_13  and  C8_14 
REMARK    6  A    between atoms: C8_14  and  C9_15 
REMARK    7  A    between atoms: C9_15  and  C10_16 
REMARK    8  A    between atoms: C9_15  and  N1_18 
ROOT
HETATM    1  C3  UNL     1      -2.198  -0.278   0.588  1.00  0.00     0.181 C 
HETATM    2  O2  UNL     1      -3.355   0.439   0.252  1.00  0.00    -0.373 OA
HETATM    3  C4  UNL     1      -3.198   0.899  -1.046  1.00  0.00     0.149 C 
HETATM    4  C5  UNL     1      -3.558   2.376  -1.068  1.00  0.00     0.042 C 
HETATM    5  C6  UNL     1      -1.813   0.635  -1.506  1.00  0.00     0.178 C 
HETATM    6  C7  UNL     1      -1.077   0.200  -0.248  1.00  0.00     0.184 C 
ENDROOT
BRANCH   6   7
HETATM    7  O4  UNL     1      -0.119  -0.720  -0.442  1.00  0.00    -0.378 OA
BRANCH   7   8
HETATM    8  C8  UNL     1       1.178  -0.396  -0.278  1.00  0.00     0.206 C 
BRANCH   8   9
HETATM    9  C9  UNL     1       1.660   0.099   1.011  1.00  0.00     0.277 C 
BRANCH   9  10
HETATM   10  C10 UNL     1       1.388  -0.988   2.070  1.00  0.00     0.260 C 
HETATM   11  F1  UNL     1       1.853  -0.553   3.308  1.00  0.00    -0.253 F 
ENDBRANCH   9  10
BRANCH   9  12
HETATM   12  N1  UNL     1       3.039   0.468   1.058  1.00  0.00     0.124 N 
HETATM   13  C11 UNL     1       4.003  -0.528   0.826  1.00  0.00     0.302 C 
HETATM   14  C12 UNL     1       4.532  -0.254  -0.542  1.00  0.00     0.264 C 
HETATM   15  N2  UNL     1       4.323   1.145  -0.727  1.00  0.00    -0.047 N 
HETATM   16  C13 UNL     1       3.458   1.596   0.354  1.00  0.00     0.503 C 
ATOM     17  H22 UNL     1       5.193   1.674  -0.791  1.00  0.00     0.279 HD
ATOM     18  H21 UNL     1       3.961   1.376  -1.652  1.00  0.00     0.279 HD
ENDBRANCH   9  12
ENDBRANCH   8   9
ENDBRANCH   7   8
ENDBRANCH   6   7
BRANCH   1  19
HETATM   19  C2  UNL     1      -2.564  -1.723   0.517  1.00  0.00     0.145 C 
HETATM   20  C1  UNL     1      -3.422  -2.077  -0.657  1.00  0.00     0.042 C 
BRANCH  19  21
HETATM   21  O1  UNL     1      -1.547  -2.620   0.741  1.00  0.00    -0.393 OA
ATOM     22  H1  UNL     1      -1.002  -2.395   1.486  1.00  0.00     0.210 HD
ENDBRANCH  19  21
ENDBRANCH   1  19
BRANCH   5  23
HETATM   23  O3  UNL     1      -1.263   1.896  -1.864  1.00  0.00    -0.390 OA
ATOM     24  H3  UNL     1      -0.376   1.727  -2.159  1.00  0.00     0.210 HD
ENDBRANCH   5  23
TORSDOF 8
