REMARK  3 active torsions:
REMARK  status: ('A' for Active; 'I' for Inactive)
REMARK    1  A    between atoms: C2_2  and  C4_4 
REMARK    2  A    between atoms: C4_4  and  N1_5 
REMARK    3  A    between atoms: C4_4  and  C5_9 
ROOT
HETATM    1  C4  UNL     1      -1.095  -0.917  -0.329  1.00  0.00     0.215 C 
ENDROOT
BRANCH   1   2
HETATM    2  C2  UNL     1      -2.214  -0.042  -0.043  1.00  0.00    -0.063 C 
HETATM    3  C1  UNL     1      -3.060  -0.321   0.931  1.00  0.00     0.016 C 
HETATM    4  C3  UNL     1      -2.470   1.194  -0.811  1.00  0.00     0.044 C 
ENDBRANCH   1   2
BRANCH   1   5
HETATM    5  N1  UNL     1      -1.145  -2.154   0.485  1.00  0.00    -0.071 N 
ATOM      6  H13 UNL     1      -1.206  -1.942   1.481  1.00  0.00     0.275 HD
ATOM      7  H12 UNL     1      -2.035  -2.639   0.371  1.00  0.00     0.275 HD
ATOM      8  H11 UNL     1      -0.357  -2.770   0.284  1.00  0.00     0.275 HD
ENDBRANCH   1   5
BRANCH   1   9
HETATM    9  C5  UNL     1       0.280  -0.410  -0.181  1.00  0.00     0.020 C 
HETATM   10  C6  UNL     1       0.649   0.067   1.187  1.00  0.00     0.007 C 
HETATM   11  C7  UNL     1       2.138  -0.138   1.330  1.00  0.00     0.000 C 
HETATM   12  C8  UNL     1       2.887   0.373   0.170  1.00  0.00     0.000 C 
HETATM   13  C9  UNL     1       2.168   1.049  -0.927  1.00  0.00     0.000 C 
HETATM   14  C10 UNL     1       0.753   0.612  -1.162  1.00  0.00     0.007 C 
ENDBRANCH   1   9
TORSDOF 3
