REMARK  10 active torsions:
REMARK  status: ('A' for Active; 'I' for Inactive)
REMARK    1  A    between atoms: C2_2  and  C3_3 
REMARK    2  A    between atoms: C3_3  and  C4_4 
REMARK    3  A    between atoms: C3_3  and  N1_6 
REMARK    4  A    between atoms: N1_6  and  C6_7 
REMARK    5  A    between atoms: N1_6  and  C8_9 
REMARK    6  A    between atoms: C8_9  and  C9_10 
REMARK    7  A    between atoms: C9_10  and  C10_11 
REMARK    8  A    between atoms: C10_11  and  N2_12 
REMARK    9  A    between atoms: N2_12  and  C11_14 
REMARK   10  A    between atoms: C12_17  and  N4_18 
REMARK       I    between atoms: N4_18  and  C13_20 
ROOT
HETATM    1  C11 UNL     1       2.347   0.503  -0.406  1.00  0.00     0.680 A 
HETATM    2  N3  UNL     1       3.039  -0.509   0.149  1.00  0.00    -0.176 N 
ATOM      3  H3  UNL     1       2.522  -1.363   0.359  1.00  0.00     0.186 HD
HETATM    4  C12 UNL     1       4.341  -0.499   0.450  1.00  0.00     0.136 A 
HETATM    5  C15 UNL     1       5.036   0.679   0.159  1.00  0.00     0.037 A 
HETATM    6  C16 UNL     1       6.387   0.738   0.454  1.00  0.00     0.036 A 
HETATM    7  C17 UNL     1       7.096   1.885   0.175  1.00  0.00     0.012 A 
HETATM    8 BR1  UNL     1       8.968   2.031   0.541  1.00  0.00    -0.051 Br
HETATM    9  C18 UNL     1       6.434   2.956  -0.396  1.00  0.00     0.021 A 
HETATM   10  C19 UNL     1       5.091   2.861  -0.673  1.00  0.00     0.032 A 
HETATM   11  C20 UNL     1       4.359   1.719  -0.403  1.00  0.00     0.063 A 
HETATM   12  N5  UNL     1       3.034   1.618  -0.677  1.00  0.00    -0.191 N 
ATOM     13  H5  UNL     1       2.551   2.411  -1.099  1.00  0.00     0.184 HD
ENDROOT
BRANCH   1  14
HETATM   14  N2  UNL     1       1.093   0.392  -0.655  1.00  0.00    -0.226 N 
ATOM     15  H2  UNL     1       0.673  -0.502  -0.400  1.00  0.00     0.177 HD
BRANCH  14  16
HETATM   16  C10 UNL     1       0.214   1.332  -1.232  1.00  0.00     0.143 C 
BRANCH  16  17
HETATM   17  C9  UNL     1      -1.028   1.618  -0.425  1.00  0.00     0.065 C 
BRANCH  17  18
HETATM   18  C8  UNL     1      -1.833   0.375  -0.227  1.00  0.00     0.065 C 
BRANCH  18  19
HETATM   19  N1  UNL     1      -3.050   0.509   0.469  1.00  0.00    -0.370 N 
BRANCH  19  20
HETATM   20  C3  UNL     1      -3.747  -0.666   0.747  1.00  0.00     0.087 C 
BRANCH  20  21
HETATM   21  C2  UNL     1      -3.498  -1.781  -0.199  1.00  0.00     0.021 C 
HETATM   22  C1  UNL     1      -4.167  -1.751  -1.519  1.00  0.00     0.007 C 
ENDBRANCH  20  21
BRANCH  20  23
HETATM   23  C4  UNL     1      -5.221  -0.536   1.055  1.00  0.00     0.021 C 
HETATM   24  C5  UNL     1      -5.664  -1.864   1.698  1.00  0.00     0.007 C 
ENDBRANCH  20  23
ENDBRANCH  19  20
BRANCH  19  25
HETATM   25  C6  UNL     1      -3.731   1.738   0.438  1.00  0.00     0.059 C 
HETATM   26  C7  UNL     1      -4.684   1.978  -0.697  1.00  0.00     0.055 C 
ENDBRANCH  19  25
ENDBRANCH  18  19
ENDBRANCH  17  18
ENDBRANCH  16  17
ENDBRANCH  14  16
ENDBRANCH   1  14
BRANCH   4  27
HETATM   27  N4  UNL     1       5.012  -1.457   0.948  1.00  0.00    -0.312 N 
HETATM   28  C13 UNL     1       4.605  -2.750   1.312  1.00  0.00     0.219 C 
HETATM   29  C14 UNL     1       5.070  -3.941   0.546  1.00  0.00     0.117 C 
HETATM   30  O1  UNL     1       3.845  -2.884   2.291  1.00  0.00    -0.274 OA
ATOM     31  H4  UNL     1       5.999  -1.255   1.108  1.00  0.00     0.170 HD
ENDBRANCH   4  27
TORSDOF 10
