REMARK  13 active torsions:
REMARK  status: ('A' for Active; 'I' for Inactive)
REMARK    1  A    between atoms: C5_5  and  C6_6 
REMARK    2  A    between atoms: C6_6  and  C7_7 
REMARK    3  A    between atoms: C8_10  and  O1_11 
REMARK    4  A    between atoms: C10_14  and  C11_15 
REMARK    5  A    between atoms: C11_15  and  C12_16 
REMARK    6  A    between atoms: C13_17  and  C14_18 
REMARK    7  A    between atoms: C16_20  and  C17_21 
REMARK    8  A    between atoms: C18_22  and  C19_23 
REMARK    9  A    between atoms: C25_32  and  C26_33 
REMARK   10  A    between atoms: C26_33  and  C27_34 
REMARK   11  A    between atoms: C27_34  and  N3_35 
REMARK   12  A    between atoms: N3_35  and  N4_37 
REMARK   13  A    between atoms: N4_37  and  N5_38 
ROOT
HETATM    1  C14 UNL     1      -2.135  -0.258   0.050  1.00  0.00    -0.012 A 
HETATM    2  C15 UNL     1      -3.372   0.204  -0.376  1.00  0.00     0.042 A 
HETATM    3  C16 UNL     1      -4.364  -0.778  -0.059  1.00  0.00     0.033 A 
HETATM    4  N2  UNL     1      -3.677  -1.828   0.561  1.00  0.00    -0.359 N 
ATOM      5  H2  UNL     1      -4.103  -2.687   0.908  1.00  0.00     0.166 HD
HETATM    6  C25 UNL     1      -2.374  -1.529   0.627  1.00  0.00     0.021 A 
ENDROOT
BRANCH   1   7
HETATM    7  C13 UNL     1      -0.937   0.558  -0.165  1.00  0.00     0.010 C 
HETATM    8  C12 UNL     1      -0.106   1.073   0.878  1.00  0.00    -0.021 C 
BRANCH   8   9
HETATM    9  C11 UNL     1       0.889   0.346   1.673  1.00  0.00     0.068 C 
BRANCH   9  10
HETATM   10  C10 UNL     1       2.050  -0.149   0.861  1.00  0.00    -0.022 A 
HETATM   11  C9  UNL     1       3.092   0.677   0.425  1.00  0.00     0.052 A 
HETATM   12  C8  UNL     1       3.610   1.951   0.413  1.00  0.00     0.153 A 
HETATM   13  C29 UNL     1       3.995  -0.073  -0.292  1.00  0.00     0.074 A 
HETATM   14  N1  UNL     1       4.756   1.978  -0.268  1.00  0.00    -0.334 N 
HETATM   15  C7  UNL     1       5.011   0.752  -0.709  1.00  0.00     0.062 A 
ATOM     16  H1  UNL     1       5.338   2.801  -0.424  1.00  0.00     0.168 HD
HETATM   17  N6  UNL     1       3.523  -1.355  -0.303  1.00  0.00    -0.363 N 
HETATM   18  C28 UNL     1       2.350  -1.386   0.396  1.00  0.00     0.097 A 
ATOM     19  H6  UNL     1       3.970  -2.152  -0.756  1.00  0.00     0.165 HD
BRANCH  12  20
HETATM   20  O1  UNL     1       2.983   3.041   1.046  1.00  0.00    -0.345 OA
ATOM     21  H1  UNL     1       2.166   3.022   1.531  1.00  0.00     0.219 HD
ENDBRANCH  12  20
BRANCH  15  22
HETATM   22  C6  UNL     1       6.154   0.281  -1.505  1.00  0.00     0.043 C 
BRANCH  22  23
HETATM   23  C5  UNL     1       7.358   0.213  -1.009  1.00  0.00    -0.034 A 
HETATM   24  C4  UNL     1       7.638   0.575   0.290  1.00  0.00     0.012 A 
HETATM   25  C3  UNL     1       8.934   0.489   0.784  1.00  0.00     0.011 A 
HETATM   26  C2  UNL     1       9.988   0.042   0.009  1.00  0.00    -0.046 A 
HETATM   27  C1  UNL     1      11.221  -0.040   0.483  1.00  0.00     0.023 C 
HETATM   28  C31 UNL     1       9.696  -0.320  -1.295  1.00  0.00     0.011 A 
HETATM   29  C30 UNL     1       8.400  -0.233  -1.786  1.00  0.00     0.012 A 
ENDBRANCH  22  23
ENDBRANCH  15  22
ENDBRANCH   9  10
ENDBRANCH   8   9
ENDBRANCH   1   7
BRANCH   6  30
HETATM   30  C26 UNL     1      -1.476  -2.502   1.321  1.00  0.00     0.080 C 
BRANCH  30  31
HETATM   31  C27 UNL     1      -1.642  -2.351   2.837  1.00  0.00     0.161 C 
BRANCH  31  32
HETATM   32  N3  UNL     1      -3.036  -2.644   3.193  1.00  0.00    -0.252 N 
ATOM     33  H3  UNL     1      -3.744  -2.760   2.468  1.00  0.00     0.196 HD
BRANCH  32  34
HETATM   34  N4  UNL     1      -3.332  -2.746   4.380  1.00  0.00    -0.249 NA
BRANCH  34  35
HETATM   35  N5  UNL     1      -3.547  -2.615   5.602  1.00  0.00    -0.261 N 
ATOM     36  H52 UNL     1      -3.178  -1.665   5.568  1.00  0.00     0.193 HD
ATOM     37  H51 UNL     1      -3.793  -2.700   6.588  1.00  0.00     0.193 HD
ENDBRANCH  34  35
ENDBRANCH  32  34
ENDBRANCH  31  32
ENDBRANCH  30  31
ENDBRANCH   6  30
BRANCH   3  38
HETATM   38  C17 UNL     1      -5.693  -0.697  -0.312  1.00  0.00     0.032 C 
HETATM   39  C18 UNL     1      -6.170   0.481  -0.960  1.00  0.00     0.040 C 
BRANCH  39  40
HETATM   40  C19 UNL     1      -7.426   0.766  -1.300  1.00  0.00     0.082 A 
HETATM   41  O2  UNL     1      -7.771   1.904  -1.908  1.00  0.00    -0.311 OA
HETATM   42  C20 UNL     1      -9.031   1.992  -2.153  1.00  0.00     0.067 A 
HETATM   43  C21 UNL     1      -9.653   3.016  -2.750  1.00  0.00     0.051 C 
HETATM   44  C22 UNL     1      -9.615   0.843  -1.690  1.00  0.00     0.046 A 
HETATM   45  C23 UNL     1      -8.584   0.065  -1.146  1.00  0.00    -0.025 A 
HETATM   46  C24 UNL     1      -8.755  -1.266  -0.528  1.00  0.00     0.051 C 
ENDBRANCH  39  40
ENDBRANCH   3  38
TORSDOF 13
