REMARK  11 active torsions:
REMARK  status: ('A' for Active; 'I' for Inactive)
REMARK    1  A    between atoms: C1_2  and  C2_4 
REMARK    2  A    between atoms: C2_4  and  C3_5 
REMARK    3  A    between atoms: C3_5  and  C4_6 
REMARK    4  A    between atoms: C4_6  and  C5_7 
REMARK    5  A    between atoms: C5_7  and  C6_8 
REMARK    6  A    between atoms: C6_8  and  O3_9 
REMARK    7  A    between atoms: O3_9  and  C7_10 
REMARK    8  A    between atoms: C11_15  and  C12_16 
REMARK    9  A    between atoms: C17_21  and  C18_22 
REMARK   10  A    between atoms: C19_28  and  C20_29 
REMARK   11  A    between atoms: C20_29  and  C21_30 
ROOT
HETATM    1  C12 UNL     1      -2.482  -1.052   0.250  1.00  0.00     0.023 A 
HETATM    2  C13 UNL     1      -3.105  -2.283   0.562  1.00  0.00     0.026 A 
HETATM    3  C14 UNL     1      -4.418  -2.437   0.260  1.00  0.00     0.004 A 
HETATM    4  C15 UNL     1      -5.101  -1.408  -0.334  1.00  0.00     0.032 A 
HETATM    5  C16 UNL     1      -4.466  -0.223  -0.626  1.00  0.00     0.072 A 
HETATM    6  C17 UNL     1      -4.914   0.930  -1.228  1.00  0.00     0.145 A 
HETATM    7  N1  UNL     1      -3.905   1.743  -1.282  1.00  0.00    -0.340 N 
ATOM      8  H1  UNL     1      -3.948   2.680  -1.683  1.00  0.00     0.167 HD
HETATM    9  C19 UNL     1      -2.762   1.189  -0.731  1.00  0.00     0.097 A 
HETATM   10  N2  UNL     1      -3.135  -0.032  -0.332  1.00  0.00    -0.302 N 
ENDROOT
BRANCH   1  11
HETATM   11  C11 UNL     1      -1.027  -0.964   0.572  1.00  0.00     0.041 C 
HETATM   12  C10 UNL     1      -0.914  -1.506   1.986  1.00  0.00     0.011 C 
HETATM   13  C9  UNL     1       0.075  -2.591   2.143  1.00  0.00     0.006 C 
HETATM   14  C8  UNL     1       1.401  -2.079   1.544  1.00  0.00     0.074 C 
HETATM   15  C7  UNL     1       1.158  -2.144   0.048  1.00  0.00     0.205 C 
HETATM   16  F1  UNL     1       1.500  -3.447  -0.310  1.00  0.00    -0.212 F 
HETATM   17  C22 UNL     1      -0.280  -1.981  -0.292  1.00  0.00     0.084 C 
BRANCH  15  18
HETATM   18  O3  UNL     1       2.016  -1.337  -0.689  1.00  0.00    -0.351 OA
BRANCH  18  19
HETATM   19  C6  UNL     1       3.340  -1.583  -0.409  1.00  0.00     0.171 C 
BRANCH  19  20
HETATM   20  C5  UNL     1       4.183  -0.669  -1.267  1.00  0.00     0.026 C 
BRANCH  20  21
HETATM   21  C4  UNL     1       3.901   0.787  -1.004  1.00  0.00     0.002 C 
BRANCH  21  22
HETATM   22  C3  UNL     1       4.165   1.195   0.402  1.00  0.00     0.010 C 
BRANCH  22  23
HETATM   23  C2  UNL     1       3.874   2.637   0.651  1.00  0.00     0.113 C 
BRANCH  23  24
HETATM   24  C1  UNL     1       4.674   3.590  -0.127  1.00  0.00     0.172 C 
HETATM   25  O1  UNL     1       4.311   4.819  -0.011  1.00  0.00    -0.648 OA
HETATM   26  O2  UNL     1       5.742   3.301  -0.941  1.00  0.00    -0.648 OA
ENDBRANCH  23  24
ENDBRANCH  22  23
ENDBRANCH  21  22
ENDBRANCH  20  21
ENDBRANCH  19  20
ENDBRANCH  18  19
ENDBRANCH  15  18
ENDBRANCH   1  11
BRANCH   9  27
HETATM   27  C20 UNL     1      -1.482   1.868  -0.685  1.00  0.00     0.194 C 
BRANCH  27  28
HETATM   28  C21 UNL     1      -1.321   2.876   0.439  1.00  0.00     0.394 C 
HETATM   29  F5  UNL     1      -1.440   2.443   1.696  1.00  0.00    -0.171 F 
HETATM   30  F6  UNL     1      -0.060   3.486   0.334  1.00  0.00    -0.171 F 
HETATM   31  F7  UNL     1      -2.216   3.927   0.168  1.00  0.00    -0.171 F 
ENDBRANCH  27  28
ENDBRANCH   9  27
BRANCH   6  32
HETATM   32  C18 UNL     1      -6.334   1.090  -1.693  1.00  0.00     0.434 C 
HETATM   33  F2  UNL     1      -6.515   2.333  -2.258  1.00  0.00    -0.165 F 
HETATM   34  F3  UNL     1      -6.569   0.133  -2.670  1.00  0.00    -0.165 F 
HETATM   35  F4  UNL     1      -7.129   0.901  -0.584  1.00  0.00    -0.165 F 
ENDBRANCH   6  32
TORSDOF 11
