REMARK  11 active torsions:
REMARK  status: ('A' for Active; 'I' for Inactive)
REMARK    1  A    between atoms: C2_2  and  O1_3 
REMARK    2  A    between atoms: C2_2  and  C3_5 
REMARK    3  A    between atoms: C3_5  and  O2_6 
REMARK    4  A    between atoms: C4_8  and  S1_9 
REMARK    5  A    between atoms: S1_9  and  N1_12 
REMARK    6  A    between atoms: N1_12  and  C5_14 
REMARK       I    between atoms: N2_17  and  C8_18 
REMARK       I    between atoms: C8_18  and  N3_20 
REMARK    7  A    between atoms: N3_20  and  C9_21 
REMARK    8  A    between atoms: N3_20  and  C19_36 
REMARK    9  A    between atoms: C9_21  and  C10_22 
REMARK   10  A    between atoms: C17_29  and  O6_30 
REMARK   11  A    between atoms: C17_29  and  C18_32 
ROOT
HETATM    1  C5  UNL     1       3.398  -0.116   1.253  1.00  0.00     0.112 C 
HETATM    2  C6  UNL     1       3.320  -0.657   2.636  1.00  0.00     0.047 C 
HETATM    3  C7  UNL     1       1.927  -0.552   3.042  1.00  0.00     0.129 C 
HETATM    4  N2  UNL     1       1.108  -0.549   1.818  1.00  0.00    -0.332 N 
HETATM    5  C8  UNL     1      -0.234  -0.999   1.867  1.00  0.00     0.325 C 
HETATM    6  O5  UNL     1      -0.522  -1.475   3.041  1.00  0.00    -0.247 OA
HETATM    7  N3  UNL     1      -1.235  -0.995   0.857  1.00  0.00    -0.303 N 
HETATM    8  C29 UNL     1       1.965  -0.087   0.786  1.00  0.00     0.153 C 
ENDROOT
BRANCH   7   9
HETATM    9  C9  UNL     1      -1.148  -0.379  -0.413  1.00  0.00     0.078 C 
BRANCH   9  10
HETATM   10  C10 UNL     1      -1.303   1.074  -0.591  1.00  0.00     0.072 C 
HETATM   11  C11 UNL     1      -2.598   1.618  -0.091  1.00  0.00    -0.002 C 
HETATM   12  C12 UNL     1      -2.415   3.070   0.425  1.00  0.00     0.006 C 
HETATM   13  C15 UNL     1      -3.643   1.872  -1.163  1.00  0.00     0.010 C 
HETATM   14  C13 UNL     1      -2.675   3.977  -0.724  1.00  0.00     0.005 C 
HETATM   15  C14 UNL     1      -3.026   3.042  -1.876  1.00  0.00    -0.011 C 
HETATM   16  C16 UNL     1      -1.760   2.657  -2.530  1.00  0.00     0.052 C 
HETATM   17  C17 UNL     1      -1.135   1.369  -2.084  1.00  0.00     0.164 C 
BRANCH  17  18
HETATM   18  O6  UNL     1      -1.722   0.338  -2.838  1.00  0.00    -0.380 OA
ATOM     19  H6  UNL     1      -1.618   0.521  -3.764  1.00  0.00     0.211 HD
ENDBRANCH  17  18
BRANCH  17  20
HETATM   20  C18 UNL     1       0.304   1.452  -2.533  1.00  0.00     0.419 C 
HETATM   21  F1  UNL     1       1.014   2.424  -1.857  1.00  0.00    -0.168 F 
HETATM   22  F2  UNL     1       0.952   0.265  -2.682  1.00  0.00    -0.168 F 
HETATM   23  F3  UNL     1       0.274   1.974  -3.870  1.00  0.00    -0.168 F 
ENDBRANCH  17  20
ENDBRANCH   9  10
ENDBRANCH   7   9
BRANCH   7  24
HETATM   24  C19 UNL     1      -2.378  -1.895   1.130  1.00  0.00     0.042 C 
HETATM   25  C20 UNL     1      -3.304  -1.999  -0.063  1.00  0.00     0.036 C 
HETATM   26  C21 UNL     1      -4.397  -3.037   0.142  1.00  0.00    -0.012 C 
HETATM   27  C22 UNL     1      -5.197  -2.690   1.346  1.00  0.00     0.009 C 
HETATM   28  C26 UNL     1      -3.776  -4.418   0.249  1.00  0.00     0.009 C 
HETATM   29  C23 UNL     1      -4.222  -2.684   2.521  1.00  0.00    -0.012 C 
HETATM   30  C24 UNL     1      -3.585  -4.024   2.670  1.00  0.00     0.009 C 
HETATM   31  C28 UNL     1      -3.207  -1.552   2.301  1.00  0.00     0.036 C 
HETATM   32  C25 UNL     1      -2.819  -4.346   1.413  1.00  0.00    -0.012 C 
HETATM   33  C27 UNL     1      -1.763  -3.298   1.252  1.00  0.00     0.036 C 
ENDBRANCH   7  24
BRANCH   1  34
HETATM   34  N1  UNL     1       4.233  -1.019   0.479  1.00  0.00    -0.310 N 
ATOM     35  H1  UNL     1       4.090  -2.019   0.340  1.00  0.00     0.172 HD
BRANCH  34  36
HETATM   36  S1  UNL     1       5.534  -0.043  -0.166  1.00  0.00     0.251 S 
HETATM   37  O3  UNL     1       6.516  -0.941  -0.863  1.00  0.00    -0.201 OA
HETATM   38  O4  UNL     1       6.170   0.694   0.998  1.00  0.00    -0.201 OA
BRANCH  36  39
HETATM   39  C4  UNL     1       4.885   1.181  -1.232  1.00  0.00     0.165 C 
HETATM   40  C3  UNL     1       5.662   2.047  -1.824  1.00  0.00     0.084 C 
BRANCH  40  41
HETATM   41  C2  UNL     1       7.132   2.127  -1.689  1.00  0.00     0.171 C 
HETATM   42  C1  UNL     1       7.570   3.590  -1.651  1.00  0.00     0.046 C 
BRANCH  41  43
HETATM   43  O1  UNL     1       7.816   1.462  -2.693  1.00  0.00    -0.389 OA
ATOM     44  H1  UNL     1       7.544   0.552  -2.717  1.00  0.00     0.210 HD
ENDBRANCH  41  43
ENDBRANCH  40  41
BRANCH  40  45
HETATM   45  O2  UNL     1       5.051   2.983  -2.672  1.00  0.00    -0.362 OA
ATOM     46  H2  UNL     1       4.106   2.932  -2.759  1.00  0.00     0.217 HD
ENDBRANCH  40  45
ENDBRANCH  36  39
ENDBRANCH  34  36
ENDBRANCH   1  34
TORSDOF 11
