REMARK  12 active torsions:
REMARK  status: ('A' for Active; 'I' for Inactive)
REMARK    1  A    between atoms: C2_2  and  N1_3 
REMARK       I    between atoms: N1_3  and  C3_4 
REMARK    2  A    between atoms: N1_3  and  C5_7 
REMARK    3  A    between atoms: C5_7  and  O2_8 
REMARK    4  A    between atoms: C5_7  and  N2_10 
REMARK    5  A    between atoms: N2_10  and  C6_12 
REMARK    6  A    between atoms: C7_13  and  C8_14 
REMARK    7  A    between atoms: C8_14  and  N3_15 
REMARK    8  A    between atoms: N3_15  and  C9_17 
REMARK    9  A    between atoms: C9_17  and  C10_19 
REMARK   10  A    between atoms: C16_29  and  C17_30 
REMARK   11  A    between atoms: C17_30  and  O3_33 
REMARK   12  A    between atoms: C21_37  and  O4_38 
ROOT
HETATM    1  C6  UNL     1      -1.381  -0.826  -0.537  1.00  0.00     0.124 C 
HETATM    2  C7  UNL     1       0.078  -0.589  -0.399  1.00  0.00     0.033 C 
HETATM    3  C15 UNL     1       0.810  -1.840  -0.827  1.00  0.00     0.047 C 
HETATM    4  C16 UNL     1       0.571  -2.795   0.364  1.00  0.00    -0.030 C 
HETATM    5  C20 UNL     1      -0.704  -2.943   0.654  1.00  0.00     0.024 C 
HETATM    6 BR2  UNL     1      -1.291  -4.079   2.097  1.00  0.00    -0.053 Br
HETATM    7  C21 UNL     1      -1.757  -2.220  -0.160  1.00  0.00     0.181 C 
ENDROOT
BRANCH   2   8
HETATM    8  C8  UNL     1       0.557   0.629  -1.157  1.00  0.00     0.127 C 
BRANCH   8   9
HETATM    9  N3  UNL     1       1.975   0.808  -0.986  1.00  0.00    -0.379 N 
ATOM     10  H3  UNL     1       2.514   0.158  -0.414  1.00  0.00     0.160 HD
BRANCH   9  11
HETATM   11  C9  UNL     1       2.611   1.903  -1.626  1.00  0.00     0.125 C 
HETATM   12  S1  UNL     1       1.728   2.951  -2.553  1.00  0.00    -0.058 SA
BRANCH  11  13
HETATM   13  C10 UNL     1       4.024   2.178  -1.524  1.00  0.00     0.092 A 
HETATM   14  N4  UNL     1       4.734   2.373  -2.645  1.00  0.00    -0.361 N 
HETATM   15  C11 UNL     1       6.073   2.636  -2.586  1.00  0.00     0.107 A 
ATOM     16  H4  UNL     1       4.269   2.324  -3.552  1.00  0.00     0.165 HD
HETATM   17  C12 UNL     1       6.721   2.707  -1.393  1.00  0.00     0.028 A 
HETATM   18 BR1  UNL     1       8.598   3.079  -1.381  1.00  0.00    -0.050 Br
HETATM   19  C13 UNL     1       6.033   2.514  -0.222  1.00  0.00     0.046 A 
HETATM   20  C14 UNL     1       4.667   2.247  -0.317  1.00  0.00     0.065 A 
HETATM   21 CL1  UNL     1       3.791   2.002   1.165  1.00  0.00    -0.082 Cl
ENDBRANCH  11  13
ENDBRANCH   9  11
ENDBRANCH   8   9
ENDBRANCH   2   8
BRANCH   1  22
HETATM   22  N2  UNL     1      -2.173   0.076   0.303  1.00  0.00    -0.348 N 
ATOM     23  H2  UNL     1      -2.094   0.037   1.319  1.00  0.00     0.163 HD
BRANCH  22  24
HETATM   24  C5  UNL     1      -3.054   1.008  -0.316  1.00  0.00     0.222 C 
BRANCH  24  25
HETATM   25  N1  UNL     1      -3.882   1.940   0.302  1.00  0.00    -0.284 N 
HETATM   26  C3  UNL     1      -3.989   2.118   1.684  1.00  0.00     0.222 C 
HETATM   27  C4  UNL     1      -4.919   3.159   2.272  1.00  0.00     0.117 C 
HETATM   28  O1  UNL     1      -3.353   1.463   2.538  1.00  0.00    -0.273 OA
BRANCH  25  29
HETATM   29  C2  UNL     1      -4.716   2.812  -0.536  1.00  0.00     0.131 C 
HETATM   30  C1  UNL     1      -6.057   2.208  -0.814  1.00  0.00     0.027 C 
ENDBRANCH  25  29
ENDBRANCH  24  25
BRANCH  24  31
HETATM   31  O2  UNL     1      -3.106   1.005  -1.615  1.00  0.00    -0.332 OA
ATOM     32  H2  UNL     1      -2.541   0.369  -2.037  1.00  0.00     0.220 HD
ENDBRANCH  24  31
ENDBRANCH  22  24
ENDBRANCH   1  22
BRANCH   7  33
HETATM   33  O4  UNL     1      -1.962  -2.965  -1.334  1.00  0.00    -0.388 OA
ATOM     34  H4  UNL     1      -2.201  -3.852  -1.094  1.00  0.00     0.210 HD
ENDBRANCH   7  33
BRANCH   4  35
HETATM   35  C17 UNL     1       1.710  -3.405   1.010  1.00  0.00     0.075 C 
HETATM   36  C18 UNL     1       2.423  -4.254  -0.072  1.00  0.00     0.050 C 
HETATM   37  C19 UNL     1       1.548  -4.283   2.185  1.00  0.00     0.050 C 
BRANCH  35  38
HETATM   38  O3  UNL     1       2.689  -2.433   1.365  1.00  0.00    -0.386 OA
ATOM     39  H3  UNL     1       3.438  -2.834   1.790  1.00  0.00     0.211 HD
ENDBRANCH  35  38
ENDBRANCH   4  35
TORSDOF 12
