REMARK  8 active torsions:
REMARK  status: ('A' for Active; 'I' for Inactive)
REMARK    1  A    between atoms: C8_10  and  N2_11 
REMARK    2  A    between atoms: N2_11  and  N3_13 
REMARK    3  A    between atoms: N3_13  and  C9_15 
REMARK    4  A    between atoms: C9_15  and  C10_21 
REMARK    5  A    between atoms: N4_16  and  N5_18 
REMARK    6  A    between atoms: C10_21  and  N6_22 
REMARK    7  A    between atoms: C10_21  and  C11_26 
REMARK    8  A    between atoms: C11_26  and  S1_27 
ROOT
HETATM    1  N3  UNL     1      -0.698  -0.035   0.395  1.00  0.00    -0.286 N 
ATOM      2  H3  UNL     1      -1.091   0.869   0.657  1.00  0.00     0.188 HD
ENDROOT
BRANCH   1   3
HETATM    3  N2  UNL     1       0.539  -0.208   0.060  1.00  0.00    -0.296 N 
ATOM      4  H2  UNL     1       0.577  -1.172  -0.271  1.00  0.00     0.187 HD
BRANCH   3   5
HETATM    5  C8  UNL     1       1.673   0.192  -0.060  1.00  0.00     0.083 A 
HETATM    6  C2  UNL     1       2.679  -0.607  -0.551  1.00  0.00    -0.013 A 
HETATM    7  C1  UNL     1       2.551  -1.836  -1.014  1.00  0.00     0.026 C 
HETATM    8  C3  UNL     1       4.031  -0.126  -0.568  1.00  0.00     0.037 A 
HETATM    9  C4  UNL     1       4.322   1.111  -0.112  1.00  0.00     0.006 A 
HETATM   10  C5  UNL     1       5.724   1.586  -0.182  1.00  0.00     0.068 C 
HETATM   11  N1  UNL     1       3.338   1.880   0.361  1.00  0.00    -0.359 N 
HETATM   12  C6  UNL     1       2.035   1.475   0.405  1.00  0.00     0.052 A 
ATOM     13  H1  UNL     1       3.570   2.812   0.705  1.00  0.00     0.166 HD
HETATM   14  C7  UNL     1       1.146   2.303   0.881  1.00  0.00     0.045 C 
ENDBRANCH   3   5
ENDBRANCH   1   3
BRANCH   1  15
HETATM   15  C9  UNL     1      -1.546  -1.393   0.354  1.00  0.00     0.142 C 
HETATM   16  N4  UNL     1      -1.025  -2.205   1.028  1.00  0.00    -0.293 N 
ATOM     17  H4  UNL     1      -0.193  -1.751   1.406  1.00  0.00     0.187 HD
BRANCH  16  18
HETATM   18  N5  UNL     1      -1.014  -3.412   1.517  1.00  0.00    -0.344 N 
ATOM     19  H52 UNL     1      -1.854  -3.835   1.121  1.00  0.00     0.176 HD
ATOM     20  H51 UNL     1      -0.562  -4.116   2.101  1.00  0.00     0.176 HD
ENDBRANCH  16  18
BRANCH  15  21
HETATM   21  C10 UNL     1      -2.721  -1.338  -0.497  1.00  0.00     0.262 C 
BRANCH  21  22
HETATM   22  N6  UNL     1      -3.498  -2.629  -0.454  1.00  0.00    -0.067 N 
ATOM     23  H63 UNL     1      -2.907  -3.427  -0.686  1.00  0.00     0.275 HD
ATOM     24  H62 UNL     1      -3.742  -2.885   0.503  1.00  0.00     0.275 HD
ATOM     25  H61 UNL     1      -4.324  -2.590  -1.052  1.00  0.00     0.275 HD
ENDBRANCH  21  22
BRANCH  21  26
HETATM   26  C11 UNL     1      -3.714  -0.260  -0.328  1.00  0.00     0.114 C 
BRANCH  26  27
HETATM   27  S1  UNL     1      -3.219   1.422  -0.604  1.00  0.00    -0.171 SA
HETATM   28  C12 UNL     1      -4.553   2.571  -0.153  1.00  0.00     0.089 C 
ENDBRANCH  26  27
ENDBRANCH  21  26
ENDBRANCH  15  21
ENDBRANCH   1  15
TORSDOF 8
