REMARK  5 active torsions:
REMARK  status: ('A' for Active; 'I' for Inactive)
REMARK    1  A    between atoms: C7_8  and  C8_9 
REMARK    2  A    between atoms: C8_9  and  C9_10 
REMARK    3  A    between atoms: C9_10  and  C10_11 
REMARK    4  A    between atoms: C16_17  and  N2_18 
REMARK    5  A    between atoms: N3_21  and  C17_22 
ROOT
HETATM    1  C1  UNL     1      -4.007   1.388  -0.492  1.00  0.00     0.045 C 
HETATM    2  C2  UNL     1      -2.784   0.894  -0.547  1.00  0.00     0.070 A 
HETATM    3  C3  UNL     1      -1.790   1.600  -1.200  1.00  0.00     0.078 A 
HETATM    4  C4  UNL     1      -2.118   2.867  -1.811  1.00  0.00     0.102 C 
HETATM    5  N1  UNL     1      -2.404   3.893  -2.301  1.00  0.00    -0.191 NA
HETATM    6  C5  UNL     1      -0.483   1.128  -1.290  1.00  0.00    -0.025 A 
HETATM    7  C6  UNL     1       0.523   1.956  -2.000  1.00  0.00     0.050 C 
HETATM    8  C7  UNL     1      -0.139  -0.079  -0.720  1.00  0.00     0.013 A 
HETATM    9  C16 UNL     1      -1.196  -0.754  -0.067  1.00  0.00     0.133 A 
HETATM   10  N3  UNL     1      -2.454  -0.279   0.009  1.00  0.00    -0.130 N 
ENDROOT
BRANCH  10  11
HETATM   11  C17 UNL     1      -3.482  -1.019   0.690  1.00  0.00     0.706 A 
HETATM   12  N4  UNL     1      -4.181  -2.090   0.325  1.00  0.00    -0.185 N 
HETATM   13  C18 UNL     1      -5.053  -2.445   1.299  1.00  0.00     0.215 A 
ATOM     14  H4  UNL     1      -4.075  -2.577  -0.565  1.00  0.00     0.185 HD
HETATM   15  N5  UNL     1      -4.871  -1.554   2.289  1.00  0.00    -0.281 N 
HETATM   16  N6  UNL     1      -3.922  -0.695   1.916  1.00  0.00    -0.130 N 
ATOM     17  H5  UNL     1      -5.374  -1.538   3.176  1.00  0.00     0.188 HD
ATOM     18  H6  UNL     1      -3.583   0.087   2.476  1.00  0.00     0.205 HD
ENDBRANCH  10  11
BRANCH   8  19
HETATM   19  C8  UNL     1       1.052  -0.630  -0.751  1.00  0.00    -0.006 C 
BRANCH  19  20
HETATM   20  C9  UNL     1       2.341  -0.321  -1.287  1.00  0.00     0.066 C 
BRANCH  20  21
HETATM   21  C10 UNL     1       3.316  -0.197  -0.136  1.00  0.00    -0.055 A 
HETATM   22  C11 UNL     1       3.949  -1.335   0.305  1.00  0.00     0.007 A 
HETATM   23  C12 UNL     1       4.860  -1.344   1.348  1.00  0.00     0.001 A 
HETATM   24  C13 UNL     1       5.127  -0.148   1.955  1.00  0.00     0.000 A 
HETATM   25  C14 UNL     1       4.498   1.001   1.523  1.00  0.00     0.001 A 
HETATM   26  C15 UNL     1       3.580   0.989   0.466  1.00  0.00     0.007 A 
ENDBRANCH  20  21
ENDBRANCH  19  20
ENDBRANCH   8  19
BRANCH   9  27
HETATM   27  N2  UNL     1      -1.022  -1.876   0.502  1.00  0.00    -0.384 N 
ATOM     28  H22 UNL     1      -0.069  -2.236   0.444  1.00  0.00     0.157 HD
ATOM     29  H21 UNL     1      -1.784  -2.363   0.973  1.00  0.00     0.157 HD
ENDBRANCH   9  27
TORSDOF 5
