REMARK  4 active torsions:
REMARK  status: ('A' for Active; 'I' for Inactive)
REMARK    1  A    between atoms: C2_2  and  C3_3 
REMARK    2  A    between atoms: C3_3  and  N1_4 
REMARK    3  A    between atoms: N1_4  and  C4_7 
REMARK    4  A    between atoms: C4_7  and  C5_8 
ROOT
HETATM    1  C4  UNL     1       0.080  -0.753   1.311  1.00  0.00     0.237 C 
ENDROOT
BRANCH   1   2
HETATM    2  N1  UNL     1       1.210  -1.217   0.559  1.00  0.00    -0.072 N 
ATOM      3  H12 UNL     1       0.946  -1.461  -0.396  1.00  0.00     0.277 HD
ATOM      4  H11 UNL     1       1.517  -2.135   0.879  1.00  0.00     0.277 HD
BRANCH   2   5
HETATM    5  C3  UNL     1       2.302  -0.257   0.578  1.00  0.00     0.259 C 
BRANCH   5   6
HETATM    6  C2  UNL     1       3.453  -0.857  -0.128  1.00  0.00    -0.010 C 
HETATM    7  C1  UNL     1       4.070  -0.423  -1.185  1.00  0.00     0.008 C 
ENDBRANCH   5   6
ENDBRANCH   2   5
ENDBRANCH   1   2
BRANCH   1   8
HETATM    8  C5  UNL     1      -0.563   0.417   0.621  1.00  0.00     0.016 C 
HETATM    9  C6  UNL     1      -1.774   0.906   1.447  1.00  0.00     0.011 C 
HETATM   10  C7  UNL     1      -2.827   0.817   0.394  1.00  0.00    -0.013 C 
HETATM   11  C8  UNL     1      -2.562  -0.559  -0.210  1.00  0.00     0.010 C 
HETATM   12  C10 UNL     1      -2.131   1.350  -0.856  1.00  0.00     0.010 C 
HETATM   13  C9  UNL     1      -1.249   0.103  -0.651  1.00  0.00    -0.008 C 
ENDBRANCH   1   8
TORSDOF 4
