REMARK  5 active torsions:
REMARK  status: ('A' for Active; 'I' for Inactive)
REMARK    1  A    between atoms: C2_2  and  C3_3 
REMARK    2  A    between atoms: C3_3  and  O1_4 
REMARK    3  A    between atoms: O1_4  and  C4_5 
REMARK    4  A    between atoms: C4_5  and  C5_6 
REMARK    5  A    between atoms: C5_6  and  C6_7 
ROOT
HETATM    1  C6  UNL     1      -1.843  -0.299   0.347  1.00  0.00    -0.040 A 
HETATM    2  C7  UNL     1      -2.491   0.708   1.025  1.00  0.00     0.025 A 
HETATM    3  C8  UNL     1      -3.102   1.510   0.087  1.00  0.00     0.088 A 
HETATM    4  N1  UNL     1      -2.860   1.042  -1.149  1.00  0.00    -0.375 N 
ATOM      5  H1  UNL     1      -3.189   1.439  -2.029  1.00  0.00     0.164 HD
HETATM    6  C9  UNL     1      -2.096  -0.056  -0.994  1.00  0.00     0.094 A 
ENDROOT
BRANCH   1   7
HETATM    7  C5  UNL     1      -1.034  -1.430   0.842  1.00  0.00     0.066 C 
BRANCH   7   8
HETATM    8  C4  UNL     1       0.429  -1.074   0.959  1.00  0.00     0.172 C 
BRANCH   8   9
HETATM    9  O1  UNL     1       0.921  -0.705  -0.295  1.00  0.00    -0.387 OA
BRANCH   9  10
HETATM   10  C3  UNL     1       2.280  -0.391  -0.103  1.00  0.00     0.194 C 
BRANCH  10  11
HETATM   11  C2  UNL     1       2.925   0.020  -1.367  1.00  0.00    -0.011 C 
HETATM   12  C1  UNL     1       3.461   1.221  -1.461  1.00  0.00     0.009 C 
ENDBRANCH  10  11
ENDBRANCH   9  10
ENDBRANCH   8   9
ENDBRANCH   7   8
ENDBRANCH   1   7
TORSDOF 5
