REMARK  7 active torsions:
REMARK  status: ('A' for Active; 'I' for Inactive)
REMARK    1  A    between atoms: N1_1  and  C1_4 
REMARK    2  A    between atoms: C2_7  and  N3_8 
REMARK    3  A    between atoms: N3_8  and  C3_10 
REMARK    4  A    between atoms: C5_19  and  N8_20 
REMARK    5  A    between atoms: N8_20  and  C6_22 
REMARK    6  A    between atoms: C6_22  and  N9_23 
REMARK    7  A    between atoms: C8_27  and  N11_28 
ROOT
HETATM    1  C1  UNL     1      -1.550   2.389   0.032  1.00  0.00     0.679 A 
HETATM    2  N2  UNL     1      -2.519   1.517   0.284  1.00  0.00    -0.173 N 
ATOM      3  H2  UNL     1      -3.495   1.812   0.299  1.00  0.00     0.186 HD
HETATM    4  C2  UNL     1      -2.183   0.237   0.519  1.00  0.00     0.179 A 
HETATM    5  C4  UNL     1      -0.853  -0.166   0.500  1.00  0.00     0.205 A 
HETATM    6  F1  UNL     1      -0.517  -1.455   0.737  1.00  0.00    -0.198 F 
HETATM    7  C5  UNL     1       0.140   0.751   0.237  1.00  0.00     0.161 A 
HETATM    8  N13 UNL     1      -0.245   2.019   0.008  1.00  0.00    -0.174 N 
ATOM      9  H13 UNL     1       0.465   2.724  -0.190  1.00  0.00     0.186 HD
ENDROOT
BRANCH   7  10
HETATM   10  N8  UNL     1       1.395   0.490   0.194  1.00  0.00    -0.355 N 
ATOM     11  H8  UNL     1       2.012   1.275  -0.013  1.00  0.00     0.162 HD
BRANCH  10  12
HETATM   12  C6  UNL     1       2.027  -0.769   0.402  1.00  0.00     0.273 C 
BRANCH  12  13
HETATM   13  N9  UNL     1       3.484  -0.637   0.302  1.00  0.00    -0.267 N 
HETATM   14  C7  UNL     1       4.329  -0.361   1.311  1.00  0.00     0.205 A 
HETATM   15  N10 UNL     1       5.566  -0.333   0.779  1.00  0.00    -0.317 N 
HETATM   16  C8  UNL     1       5.498  -0.586  -0.542  1.00  0.00     0.265 A 
ATOM     17  H10 UNL     1       6.424  -0.148   1.298  1.00  0.00     0.169 HD
HETATM   18  N12 UNL     1       4.193  -0.768  -0.796  1.00  0.00    -0.261 N 
ATOM     19  H12 UNL     1       3.805  -0.979  -1.715  1.00  0.00     0.190 HD
BRANCH  16  20
HETATM   20  N11 UNL     1       6.603  -0.638  -1.433  1.00  0.00    -0.078 N 
HETATM   21  O1  UNL     1       7.758  -0.440  -1.013  1.00  0.00    -0.529 OA
HETATM   22  O2  UNL     1       6.422  -0.905  -2.766  1.00  0.00    -0.529 OA
ENDBRANCH  16  20
ENDBRANCH  12  13
ENDBRANCH  10  12
ENDBRANCH   7  10
BRANCH   4  23
HETATM   23  N3  UNL     1      -3.201  -0.696   0.787  1.00  0.00    -0.171 N 
ATOM     24  H3  UNL     1      -3.150  -1.270   1.629  1.00  0.00     0.186 HD
BRANCH  23  25
HETATM   25  C3  UNL     1      -4.213  -0.836  -0.031  1.00  0.00     0.709 A 
HETATM   26  N4  UNL     1      -4.437  -0.168  -1.174  1.00  0.00    -0.117 N 
HETATM   27  N5  UNL     1      -5.570  -0.626  -1.675  1.00  0.00     0.006 NA
ATOM     28  H4  UNL     1      -3.844   0.556  -1.579  1.00  0.00     0.202 HD
HETATM   29  N6  UNL     1      -6.074  -1.561  -0.891  1.00  0.00     0.006 NA
HETATM   30  N7  UNL     1      -5.236  -1.688   0.121  1.00  0.00    -0.117 N 
ATOM     31  H7  UNL     1      -5.350  -2.336   0.900  1.00  0.00     0.202 HD
ENDBRANCH  23  25
ENDBRANCH   4  23
BRANCH   1  32
HETATM   32  N1  UNL     1      -1.896   3.631  -0.195  1.00  0.00    -0.234 N 
ATOM     33  H12 UNL     1      -2.877   3.909  -0.177  1.00  0.00     0.174 HD
ATOM     34  H11 UNL     1      -1.152   4.301  -0.389  1.00  0.00     0.174 HD
ENDBRANCH   1  32
TORSDOF 7
