REMARK  4 active torsions:
REMARK  status: ('A' for Active; 'I' for Inactive)
REMARK    1  A    between atoms: C5_14  and  N6_15 
REMARK    2  A    between atoms: N6_15  and  C6_17 
REMARK    3  A    between atoms: C6_17  and  O2_18 
REMARK    4  A    between atoms: C6_17  and  N7_20 
REMARK       I    between atoms: N7_20  and  C7_22 
REMARK       I    between atoms: C7_22  and  N8_23 
REMARK       I    between atoms: C7_22  and  N9_27 
ROOT
HETATM    1  N6  UNL     1       0.210  -0.635   0.560  1.00  0.00    -0.343 N 
ATOM      2  H6  UNL     1       0.112  -1.399   1.228  1.00  0.00     0.164 HD
ENDROOT
BRANCH   1   3
HETATM    3  C5  UNL     1       1.521  -0.292   0.130  1.00  0.00     0.103 A 
HETATM    4  C1  UNL     1       2.258   0.640   0.825  1.00  0.00     0.148 A 
HETATM    5  N1  UNL     1       1.685   1.244   1.978  1.00  0.00    -0.080 NA
HETATM    6  N2  UNL     1       3.512   0.999   0.451  1.00  0.00    -0.308 N 
HETATM    7  C2  UNL     1       4.082   0.449  -0.628  1.00  0.00     0.277 A 
ATOM      8  H2  UNL     1       4.024   1.693   0.996  1.00  0.00     0.170 HD
HETATM    9  O1  UNL     1       5.244   0.775  -0.985  1.00  0.00    -0.266 OA
HETATM   10  C3  UNL     1       3.373  -0.494  -1.357  1.00  0.00     0.144 A 
HETATM   11  N3  UNL     1       3.664  -1.219  -2.471  1.00  0.00    -0.277 N 
HETATM   12  C4  UNL     1       2.100  -0.873  -0.993  1.00  0.00     0.109 A 
HETATM   13  N4  UNL     1       2.610  -1.983  -2.743  1.00  0.00    -0.021 NA
ATOM     14  H3  UNL     1       4.534  -1.183  -3.002  1.00  0.00     0.184 HD
HETATM   15  N5  UNL     1       1.652  -1.782  -1.852  1.00  0.00    -0.280 N 
ATOM     16  H5  UNL     1       0.741  -2.239  -1.829  1.00  0.00     0.184 HD
ENDBRANCH   1   3
BRANCH   1  17
HETATM   17  C6  UNL     1      -0.995   0.031   0.110  1.00  0.00     0.325 C 
BRANCH  17  18
HETATM   18  O2  UNL     1      -0.964   1.365   0.442  1.00  0.00    -0.360 OA
ATOM     19  H2  UNL     1      -1.754   1.802   0.147  1.00  0.00     0.214 HD
ENDBRANCH  17  18
BRANCH  17  20
HETATM   20  N7  UNL     1      -2.123  -0.692   0.548  1.00  0.00    -0.332 N 
HETATM   21  C7  UNL     1      -3.407  -0.223   0.199  1.00  0.00     0.479 C 
HETATM   22  N8  UNL     1      -3.657  -0.136  -1.218  1.00  0.00    -0.033 N 
HETATM   23  N9  UNL     1      -3.756   1.016   0.805  1.00  0.00    -0.033 N 
ATOM     24  H83 UNL     1      -2.940   0.432  -1.668  1.00  0.00     0.278 HD
ATOM     25  H82 UNL     1      -3.477  -1.036  -1.664  1.00  0.00     0.278 HD
ATOM     26  H81 UNL     1      -4.585   0.203  -1.470  1.00  0.00     0.278 HD
ATOM     27  H93 UNL     1      -3.659   0.958   1.819  1.00  0.00     0.278 HD
ATOM     28  H92 UNL     1      -3.050   1.724   0.604  1.00  0.00     0.278 HD
ATOM     29  H91 UNL     1      -4.684   1.355   0.553  1.00  0.00     0.278 HD
ATOM     30  H7  UNL     1      -2.013  -1.538   1.107  1.00  0.00     0.161 HD
ENDBRANCH  17  20
ENDBRANCH   1  17
TORSDOF 4
