REMARK  6 active torsions:
REMARK  status: ('A' for Active; 'I' for Inactive)
REMARK    1  A    between atoms: C2_2  and  N1_3 
REMARK    2  A    between atoms: C4_7  and  O1_8 
REMARK    3  A    between atoms: C4_7  and  O2_10 
REMARK    4  A    between atoms: N3_12  and  C6_13 
REMARK       I    between atoms: N4_16  and  C9_17 
REMARK    5  A    between atoms: C9_17  and  O4_19 
REMARK    6  A    between atoms: O4_19  and  C10_20 
ROOT
HETATM    1  N1  UNL     1      -4.332  -0.389  -0.068  1.00  0.00    -0.273 N 
HETATM    2  N2  UNL     1      -4.094   0.637  -0.971  1.00  0.00    -0.277 N 
ATOM      3  H2  UNL     1      -4.830   1.137  -1.470  1.00  0.00     0.189 HD
HETATM    4  C3  UNL     1      -2.817   0.891  -1.110  1.00  0.00     0.183 A 
HETATM    5  C4  UNL     1      -2.324   1.919  -1.998  1.00  0.00     0.225 C 
HETATM    6  N3  UNL     1      -2.129  -0.010  -0.251  1.00  0.00    -0.306 N 
HETATM    7  C15 UNL     1      -3.099  -0.850   0.439  1.00  0.00     0.158 A 
HETATM    8  C16 UNL     1      -2.960  -1.729   1.361  1.00  0.00     0.170 C 
HETATM    9  C17 UNL     1      -4.114  -2.396   2.048  1.00  0.00     0.115 C 
HETATM   10  N5  UNL     1      -4.976  -2.941   2.641  1.00  0.00    -0.190 NA
HETATM   11  C18 UNL     1      -1.762  -2.306   1.955  1.00  0.00     0.115 C 
HETATM   12  N6  UNL     1      -0.826  -2.806   2.466  1.00  0.00    -0.190 NA
ENDROOT
BRANCH   1  13
HETATM   13  C2  UNL     1      -5.706  -0.857   0.116  1.00  0.00     0.146 C 
HETATM   14  C1  UNL     1      -5.940  -2.143  -0.640  1.00  0.00     0.028 C 
ENDBRANCH   1  13
BRANCH   6  15
HETATM   15  C6  UNL     1      -0.732  -0.092  -0.075  1.00  0.00     0.096 C 
HETATM   16  C7  UNL     1      -0.020   1.107   0.501  1.00  0.00     0.045 C 
HETATM   17  C8  UNL     1       1.319   0.520   1.054  1.00  0.00     0.130 C 
HETATM   18  N4  UNL     1       2.064   0.167  -0.122  1.00  0.00    -0.328 N 
HETATM   19  C9  UNL     1       3.478  -0.061  -0.048  1.00  0.00     0.363 C 
HETATM   20  C13 UNL     1       1.427   0.050  -1.393  1.00  0.00     0.130 C 
HETATM   21  O3  UNL     1       4.143  -0.374  -1.066  1.00  0.00    -0.238 OA
HETATM   22  C14 UNL     1       0.062  -0.521  -1.306  1.00  0.00     0.045 C 
BRANCH  19  23
HETATM   23  O4  UNL     1       4.179   0.052   1.142  1.00  0.00    -0.299 OA
BRANCH  23  24
HETATM   24  C10 UNL     1       5.572  -0.159   1.249  1.00  0.00     0.125 C 
HETATM   25  C11 UNL     1       6.284   1.127   1.669  1.00  0.00     0.040 C 
HETATM   26  C12 UNL     1       5.955  -1.220   2.234  1.00  0.00     0.040 C 
ENDBRANCH  23  24
ENDBRANCH  19  23
ENDBRANCH   6  15
BRANCH   5  27
HETATM   27  O1  UNL     1      -3.280   2.563  -2.637  1.00  0.00    -0.338 OA
ATOM     28  H1  UNL     1      -2.956   3.239  -3.221  1.00  0.00     0.220 HD
ENDBRANCH   5  27
BRANCH   5  29
HETATM   29  O2  UNL     1      -1.105   2.356  -2.310  1.00  0.00    -0.333 OA
HETATM   30  C5  UNL     1      -0.771   3.387  -3.211  1.00  0.00     0.212 C 
ENDBRANCH   5  29
TORSDOF 6
