REMARK  8 active torsions:
REMARK  status: ('A' for Active; 'I' for Inactive)
REMARK    1  A    between atoms: C2_2  and  C3_3 
REMARK    2  A    between atoms: C5_5  and  O1_6 
REMARK    3  A    between atoms: C8_10  and  O2_11 
REMARK    4  A    between atoms: C10_13  and  C11_14 
REMARK    5  A    between atoms: C12_18  and  O4_19 
REMARK    6  A    between atoms: O4_19  and  C13_20 
REMARK    7  A    between atoms: C16_23  and  C17_24 
REMARK    8  A    between atoms: C18_25  and  O5_26 
ROOT
HETATM    1  C11 UNL     1      -2.361  -0.910   0.699  1.00  0.00     0.180 C 
HETATM    2  N1  UNL     1      -2.014  -1.656   1.691  1.00  0.00    -0.239 N 
ATOM      3  H1  UNL     1      -2.674  -2.212   2.235  1.00  0.00     0.197 HD
HETATM    4  O3  UNL     1      -0.679  -1.625   1.936  1.00  0.00    -0.217 OA
HETATM    5  C12 UNL     1      -0.055  -0.989   0.827  1.00  0.00     0.451 C 
HETATM    6  O7  UNL     1      -1.179  -0.347   0.257  1.00  0.00    -0.276 OA
ENDROOT
BRANCH   5   7
HETATM    7  O4  UNL     1       0.906  -0.076   1.223  1.00  0.00    -0.295 OA
BRANCH   7   8
HETATM    8  C13 UNL     1       2.238  -0.034   0.849  1.00  0.00     0.074 A 
HETATM    9  C14 UNL     1       3.046   0.974   1.368  1.00  0.00     0.038 A 
HETATM   10  C15 UNL     1       4.381   1.071   1.036  1.00  0.00     0.015 A 
HETATM   11  C16 UNL     1       4.993   0.181   0.176  1.00  0.00    -0.016 A 
HETATM   12  C21 UNL     1       4.196  -0.820  -0.341  1.00  0.00     0.015 A 
HETATM   13  C22 UNL     1       2.844  -0.924  -0.010  1.00  0.00     0.038 A 
BRANCH  11  14
HETATM   14  C17 UNL     1       6.408   0.292  -0.161  1.00  0.00     0.093 A 
HETATM   15  C18 UNL     1       6.918   1.155  -1.105  1.00  0.00     0.159 A 
HETATM   16  N2  UNL     1       8.247   1.213  -1.375  1.00  0.00    -0.313 N 
HETATM   17  C19 UNL     1       9.098   0.411  -0.709  1.00  0.00     0.180 A 
ATOM     18  H2  UNL     1       8.599   1.861  -2.079  1.00  0.00     0.170 HD
HETATM   19  S1  UNL     1      10.705   0.513  -1.065  1.00  0.00    -0.040 SA
HETATM   20  N3  UNL     1       8.624  -0.438   0.215  1.00  0.00    -0.299 N 
HETATM   21  C20 UNL     1       7.306  -0.517   0.504  1.00  0.00     0.263 A 
ATOM     22  H3  UNL     1       9.277  -1.042   0.714  1.00  0.00     0.171 HD
HETATM   23  O6  UNL     1       6.880  -1.327   1.381  1.00  0.00    -0.267 OA
BRANCH  15  24
HETATM   24  O5  UNL     1       6.046   1.985  -1.795  1.00  0.00    -0.345 OA
ATOM     25  H5  UNL     1       6.398   2.580  -2.446  1.00  0.00     0.219 HD
ENDBRANCH  15  24
ENDBRANCH  11  14
ENDBRANCH   7   8
ENDBRANCH   5   7
BRANCH   1  26
HETATM   26  C10 UNL     1      -3.740  -0.738   0.195  1.00  0.00     0.060 A 
HETATM   27  C3  UNL     1      -4.063   0.067  -0.870  1.00  0.00    -0.038 A 
HETATM   28  C4  UNL     1      -5.390   0.171  -1.332  1.00  0.00     0.048 A 
HETATM   29  C5  UNL     1      -6.395  -0.531  -0.724  1.00  0.00     0.110 A 
HETATM   30  C7  UNL     1      -6.080  -1.335   0.340  1.00  0.00     0.183 A 
HETATM   31  F1  UNL     1      -7.060  -2.031   0.945  1.00  0.00    -0.200 F 
HETATM   32  C8  UNL     1      -4.755  -1.438   0.799  1.00  0.00     0.124 A 
BRANCH  27  33
HETATM   33  C2  UNL     1      -3.028   0.851  -1.552  1.00  0.00     0.035 C 
HETATM   34  C1  UNL     1      -2.600   2.095  -0.804  1.00  0.00     0.010 C 
ENDBRANCH  27  33
BRANCH  29  35
HETATM   35  O1  UNL     1      -7.689  -0.399  -1.212  1.00  0.00    -0.353 OA
HETATM   36  C6  UNL     1      -8.021   0.421  -2.299  1.00  0.00     0.210 C 
ENDBRANCH  29  35
BRANCH  32  37
HETATM   37  O2  UNL     1      -4.537  -2.275   1.882  1.00  0.00    -0.352 OA
HETATM   38  C9  UNL     1      -4.692  -1.787   3.226  1.00  0.00     0.210 C 
ENDBRANCH  32  37
ENDBRANCH   1  26
TORSDOF 8
