REMARK  7 active torsions:
REMARK  status: ('A' for Active; 'I' for Inactive)
REMARK    1  A    between atoms: C2_2  and  O1_4 
REMARK    2  A    between atoms: C2_2  and  C4_6 
REMARK    3  A    between atoms: C4_6  and  C5_8 
REMARK    4  A    between atoms: C5_8  and  N1_9 
REMARK    5  A    between atoms: C8_12  and  N2_13 
REMARK    6  A    between atoms: C9_14  and  C10_15 
REMARK    7  A    between atoms: C20_30  and  O2_31 
ROOT
HETATM    1  N2  UNL     1      -2.179  -0.670   0.747  1.00  0.00    -0.319 N 
HETATM    2  C9  UNL     1      -3.273  -0.094   0.240  1.00  0.00     0.060 A 
HETATM    3  C16 UNL     1      -4.350  -0.552   1.030  1.00  0.00     0.026 A 
HETATM    4  C17 UNL     1      -5.702  -0.531   1.245  1.00  0.00     0.058 A 
HETATM    5  C18 UNL     1      -5.995  -1.362   2.336  1.00  0.00     0.104 A 
HETATM    6 CL1  UNL     1      -7.570  -1.690   3.030  1.00  0.00    -0.065 Cl
HETATM    7  N3  UNL     1      -4.856  -1.882   2.782  1.00  0.00    -0.343 N 
ATOM      8  H3  UNL     1      -4.752  -2.525   3.567  1.00  0.00     0.167 HD
HETATM    9  C19 UNL     1      -3.859  -1.401   2.001  1.00  0.00     0.097 A 
HETATM   10  C20 UNL     1      -2.504  -1.463   1.810  1.00  0.00     0.171 A 
ENDROOT
BRANCH   1  11
HETATM   11  C8  UNL     1      -0.821  -0.507   0.324  1.00  0.00     0.096 C 
HETATM   12  C7  UNL     1      -0.253   0.855   0.662  1.00  0.00     0.056 C 
HETATM   13  C6  UNL     1       1.113   1.053   0.060  1.00  0.00     0.274 C 
HETATM   14  N1  UNL     1       2.028  -0.012   0.505  1.00  0.00     0.091 N 
HETATM   15  C22 UNL     1       1.461  -1.301   0.234  1.00  0.00     0.274 C 
HETATM   16  C21 UNL     1       0.140  -1.483   1.017  1.00  0.00     0.056 C 
BRANCH  14  17
HETATM   17  C5  UNL     1       3.285   0.237  -0.093  1.00  0.00     0.312 C 
BRANCH  17  18
HETATM   18  C4  UNL     1       4.363  -0.744   0.237  1.00  0.00     0.231 C 
HETATM   19  F1  UNL     1       4.641  -0.722   1.582  1.00  0.00    -0.244 F 
BRANCH  18  20
HETATM   20  C2  UNL     1       5.634  -0.327  -0.484  1.00  0.00     0.083 C 
HETATM   21  C1  UNL     1       5.323  -0.353  -1.970  1.00  0.00     0.048 C 
HETATM   22  C3  UNL     1       6.124   1.020  -0.062  1.00  0.00     0.048 C 
BRANCH  20  23
HETATM   23  O1  UNL     1       6.621  -1.294  -0.228  1.00  0.00    -0.388 OA
ATOM     24  H1  UNL     1       6.816  -1.278   0.702  1.00  0.00     0.210 HD
ENDBRANCH  20  23
ENDBRANCH  18  20
ENDBRANCH  17  18
ENDBRANCH  14  17
ENDBRANCH   1  11
BRANCH   2  25
HETATM   25  C10 UNL     1      -3.458   0.893  -0.816  1.00  0.00    -0.005 A 
HETATM   26  C11 UNL     1      -4.578   1.737  -0.811  1.00  0.00     0.017 A 
HETATM   27  C12 UNL     1      -4.843   2.618  -1.834  1.00  0.00     0.046 A 
HETATM   28  C13 UNL     1      -4.001   2.695  -2.906  1.00  0.00     0.154 A 
HETATM   29  F2  UNL     1      -4.253   3.566  -3.928  1.00  0.00    -0.203 F 
HETATM   30  C14 UNL     1      -2.889   1.900  -2.972  1.00  0.00     0.155 A 
HETATM   31  F3  UNL     1      -2.046   1.976  -4.042  1.00  0.00    -0.203 F 
HETATM   32  C15 UNL     1      -2.646   1.012  -1.916  1.00  0.00     0.059 A 
ENDBRANCH   2  25
BRANCH  10  33
HETATM   33  O2  UNL     1      -1.680  -2.235   2.619  1.00  0.00    -0.344 OA
ATOM     34  H2  UNL     1      -1.906  -2.787   3.359  1.00  0.00     0.219 HD
ENDBRANCH  10  33
TORSDOF 7
