REMARK  7 active torsions:
REMARK  status: ('A' for Active; 'I' for Inactive)
REMARK    1  A    between atoms: C5_8  and  C6_9 
REMARK    2  A    between atoms: C9_13  and  O1_14 
REMARK    3  A    between atoms: O1_14  and  C10_15 
REMARK    4  A    between atoms: C10_15  and  C11_16 
REMARK    5  A    between atoms: C14_19  and  C15_20 
REMARK    6  A    between atoms: C18_26  and  C19_27 
REMARK    7  A    between atoms: C21_31  and  N4_32 
ROOT
HETATM    1  N1  UNL     1      -6.797   1.409  -2.786  1.00  0.00    -0.191 NA
HETATM    2  C1  UNL     1      -5.998   0.587  -2.513  1.00  0.00     0.102 C 
HETATM    3  C2  UNL     1      -5.048  -0.433  -2.187  1.00  0.00     0.072 A 
HETATM    4  C3  UNL     1      -5.037  -1.761  -2.557  1.00  0.00     0.112 A 
HETATM    5  N2  UNL     1      -3.944  -2.291  -2.007  1.00  0.00    -0.363 N 
ATOM      6  H2  UNL     1      -3.670  -3.268  -2.109  1.00  0.00     0.165 HD
HETATM    7  C4  UNL     1      -3.254  -1.395  -1.310  1.00  0.00     0.053 A 
HETATM    8  C5  UNL     1      -2.080  -1.452  -0.582  1.00  0.00     0.011 A 
HETATM    9  C9  UNL     1      -1.590  -0.308   0.037  1.00  0.00     0.089 A 
HETATM   10  C18 UNL     1      -2.220   0.880  -0.009  1.00  0.00     0.012 A 
HETATM   11  C23 UNL     1      -3.435   0.917  -0.767  1.00  0.00     0.030 A 
HETATM   12  C24 UNL     1      -3.921  -0.198  -1.397  1.00  0.00     0.014 A 
ENDROOT
BRANCH   8  13
HETATM   13  C6  UNL     1      -1.399  -2.771  -0.480  1.00  0.00     0.060 A 
HETATM   14  C7  UNL     1      -2.007  -3.805   0.486  1.00  0.00     0.050 A 
HETATM   15  C8  UNL     1      -0.840  -3.007   0.984  1.00  0.00     0.179 A 
HETATM   16  F1  UNL     1       0.355  -3.660   1.087  1.00  0.00    -0.249 F 
ENDBRANCH   8  13
BRANCH  10  17
HETATM   17  C19 UNL     1      -1.883   2.048   0.758  1.00  0.00     0.009 A 
HETATM   18  C20 UNL     1      -2.987   2.569   1.511  1.00  0.00     0.120 A 
HETATM   19  N3  UNL     1      -2.864   3.643   2.288  1.00  0.00    -0.201 N 
HETATM   20  C21 UNL     1      -1.690   4.282   2.395  1.00  0.00     0.675 A 
ATOM     21  H3  UNL     1      -3.672   3.984   2.808  1.00  0.00     0.183 HD
HETATM   22  N5  UNL     1      -0.643   3.827   1.709  1.00  0.00    -0.201 N 
HETATM   23  C22 UNL     1      -0.752   2.745   0.922  1.00  0.00     0.120 A 
ATOM     24  H5  UNL     1       0.254   4.307   1.783  1.00  0.00     0.183 HD
BRANCH  20  25
HETATM   25  N4  UNL     1      -1.582   5.339   3.171  1.00  0.00    -0.234 N 
ATOM     26  H42 UNL     1      -2.384   5.687   3.696  1.00  0.00     0.174 HD
ATOM     27  H41 UNL     1      -0.689   5.825   3.252  1.00  0.00     0.174 HD
ENDBRANCH  20  25
ENDBRANCH  10  17
BRANCH   9  28
HETATM   28  O1  UNL     1      -0.341  -0.447   0.710  1.00  0.00    -0.349 OA
BRANCH  28  29
HETATM   29  C10 UNL     1       0.692  -0.383  -0.275  1.00  0.00     0.180 C 
BRANCH  29  30
HETATM   30  C11 UNL     1       2.107  -0.533   0.098  1.00  0.00     0.010 C 
HETATM   31  C12 UNL     1       2.866  -0.423  -1.246  1.00  0.00     0.007 C 
HETATM   32  C13 UNL     1       4.312  -0.394  -1.172  1.00  0.00     0.014 C 
HETATM   33  C14 UNL     1       4.943   0.284   0.011  1.00  0.00     0.093 C 
HETATM   34  C16 UNL     1       4.106   0.217   1.241  1.00  0.00     0.014 C 
HETATM   35  C17 UNL     1       2.631   0.588   0.934  1.00  0.00     0.007 C 
BRANCH  33  36
HETATM   36  C15 UNL     1       6.236  -0.496   0.257  1.00  0.00     0.391 C 
HETATM   37  F2  UNL     1       7.045  -0.444  -0.872  1.00  0.00    -0.171 F 
HETATM   38  F3  UNL     1       6.919   0.098   1.294  1.00  0.00    -0.171 F 
HETATM   39  F4  UNL     1       5.938  -1.790   0.617  1.00  0.00    -0.171 F 
ENDBRANCH  33  36
ENDBRANCH  29  30
ENDBRANCH  28  29
ENDBRANCH   9  28
TORSDOF 7
