REMARK  15 active torsions:
REMARK  status: ('A' for Active; 'I' for Inactive)
REMARK    1  A    between atoms: O1_2  and  C2_3 
REMARK    2  A    between atoms: C2_3  and  C3_5 
REMARK    3  A    between atoms: C3_5  and  N1_6 
REMARK    4  A    between atoms: C3_5  and  C28_43 
REMARK       I    between atoms: N1_6  and  C4_8 
REMARK    5  A    between atoms: C4_8  and  C5_10 
REMARK    6  A    between atoms: N2_11  and  C6_12 
REMARK    7  A    between atoms: C6_12  and  C7_13 
REMARK    8  A    between atoms: C7_13  and  C8_15 
REMARK    9  A    between atoms: C8_15  and  C9_16 
REMARK   10  A    between atoms: C8_15  and  N3_23 
REMARK   11  A    between atoms: C9_16  and  C10_17 
REMARK       I    between atoms: N3_23  and  C15_25 
REMARK   12  A    between atoms: C15_25  and  O7_27 
REMARK   13  A    between atoms: O7_27  and  C16_28 
REMARK   14  A    between atoms: C16_28  and  C17_29 
REMARK   15  A    between atoms: N4_37  and  C23_38 
ROOT
HETATM    1  C5  UNL     1      -2.107  -1.013  -0.230  1.00  0.00     0.289 C 
HETATM    2  N2  UNL     1      -0.689  -0.759  -0.116  1.00  0.00    -0.297 N 
HETATM    3  C22 UNL     1      -0.936   0.330  -1.077  1.00  0.00     0.325 C 
HETATM    4  O9  UNL     1      -0.469   1.477  -1.239  1.00  0.00    -0.247 OA
HETATM    5  N4  UNL     1      -1.879  -0.576  -1.630  1.00  0.00    -0.299 N 
ENDROOT
BRANCH   2   6
HETATM    6  C6  UNL     1       0.548  -1.047   0.534  1.00  0.00     0.210 C 
BRANCH   6   7
HETATM    7  C7  UNL     1       1.546  -1.602  -0.437  1.00  0.00     0.167 C 
HETATM    8  O4  UNL     1       1.118  -1.925  -1.524  1.00  0.00    -0.294 OA
BRANCH   7   9
HETATM    9  C8  UNL     1       2.928  -1.674  -0.001  1.00  0.00     0.158 C 
BRANCH   9  10
HETATM   10  C9  UNL     1       3.254  -2.565   1.116  1.00  0.00     0.040 C 
BRANCH  10  11
HETATM   11  C10 UNL     1       2.971  -4.041   0.900  1.00  0.00     0.012 C 
HETATM   12  C11 UNL     1       3.444  -4.760   2.126  1.00  0.00     0.009 C 
HETATM   13  C12 UNL     1       4.075  -6.091   1.906  1.00  0.00     0.027 C 
HETATM   14  C13 UNL     1       4.870  -6.047   0.599  1.00  0.00     0.167 C 
HETATM   15  O5  UNL     1       3.910  -5.831  -0.407  1.00  0.00    -0.391 OA
HETATM   16  C14 UNL     1       3.569  -4.475  -0.385  1.00  0.00     0.172 C 
ENDBRANCH  10  11
ENDBRANCH   9  10
BRANCH   9  17
HETATM   17  N3  UNL     1       3.523  -0.342   0.126  1.00  0.00    -0.325 N 
HETATM   18  C15 UNL     1       4.871  -0.022   0.026  1.00  0.00     0.361 C 
HETATM   19  O6  UNL     1       5.809  -0.858  -0.189  1.00  0.00    -0.238 OA
ATOM     20  H3  UNL     1       2.882   0.430   0.306  1.00  0.00     0.165 HD
BRANCH  18  21
HETATM   21  O7  UNL     1       5.285   1.320   0.166  1.00  0.00    -0.301 OA
BRANCH  21  22
HETATM   22  C16 UNL     1       6.667   1.617   0.130  1.00  0.00     0.212 C 
BRANCH  22  23
HETATM   23  C17 UNL     1       6.944   3.073   0.034  1.00  0.00     0.145 C 
HETATM   24  C18 UNL     1       8.482   3.294   0.130  1.00  0.00     0.034 C 
HETATM   25  C19 UNL     1       8.730   4.644  -0.466  1.00  0.00     0.005 C 
HETATM   26  C20 UNL     1       7.913   5.650   0.304  1.00  0.00     0.026 C 
HETATM   27  C21 UNL     1       6.526   5.208   0.614  1.00  0.00     0.168 C 
HETATM   28  O8  UNL     1       6.420   3.865   1.027  1.00  0.00    -0.384 OA
ENDBRANCH  22  23
ENDBRANCH  21  22
ENDBRANCH  18  21
ENDBRANCH   9  17
ENDBRANCH   7   9
ENDBRANCH   6   7
ENDBRANCH   2   6
BRANCH   1  29
HETATM   29  C4  UNL     1      -2.845   0.053   0.510  1.00  0.00     0.261 C 
HETATM   30  N1  UNL     1      -4.207   0.035   0.824  1.00  0.00    -0.344 N 
ATOM     31  H1  UNL     1      -4.791  -0.764   0.576  1.00  0.00     0.163 HD
HETATM   32  O3  UNL     1      -2.201   1.078   0.897  1.00  0.00    -0.269 OA
BRANCH  30  33
HETATM   33  C3  UNL     1      -4.762   1.170   1.504  1.00  0.00     0.188 C 
BRANCH  33  34
HETATM   34  C2  UNL     1      -5.110   0.951   2.920  1.00  0.00     0.281 C 
HETATM   35  O2  UNL     1      -4.933  -0.157   3.509  1.00  0.00    -0.263 OA
BRANCH  34  36
HETATM   36  O1  UNL     1      -5.653   2.001   3.639  1.00  0.00    -0.325 OA
HETATM   37  C1  UNL     1      -6.026   1.909   4.991  1.00  0.00     0.213 C 
ENDBRANCH  34  36
ENDBRANCH  33  34
BRANCH  33  38
HETATM   38  C28 UNL     1      -5.927   1.822   0.825  1.00  0.00     0.018 C 
HETATM   39  C29 UNL     1      -7.191   0.998   0.873  1.00  0.00     0.007 C 
HETATM   40  C30 UNL     1      -8.354   1.821   0.405  1.00  0.00     0.000 C 
HETATM   41  C31 UNL     1      -8.134   2.388  -0.979  1.00  0.00     0.000 C 
HETATM   42  C32 UNL     1      -6.753   2.979  -1.171  1.00  0.00     0.000 C 
HETATM   43  C33 UNL     1      -5.654   2.107  -0.662  1.00  0.00     0.007 C 
ENDBRANCH  33  38
ENDBRANCH  30  33
ENDBRANCH   1  29
BRANCH   5  44
HETATM   44  C23 UNL     1      -2.377  -0.919  -2.899  1.00  0.00     0.091 C 
HETATM   45  C24 UNL     1      -2.218  -2.388  -3.249  1.00  0.00     0.025 C 
HETATM   46  C25 UNL     1      -3.183  -2.547  -4.402  1.00  0.00     0.002 C 
HETATM   47  C26 UNL     1      -4.217  -1.449  -4.256  1.00  0.00     0.002 C 
HETATM   48  C27 UNL     1      -3.883  -0.790  -2.907  1.00  0.00     0.025 C 
ENDBRANCH   5  44
TORSDOF 15
