REMARK  4 active torsions:
REMARK  status: ('A' for Active; 'I' for Inactive)
REMARK       I    between atoms: N1_2  and  C2_4 
REMARK       I    between atoms: C2_4  and  N4_13 
REMARK    1  A    between atoms: N2_5  and  C3_7 
REMARK    2  A    between atoms: C3_7  and  N3_9 
REMARK    3  A    between atoms: C5_14  and  C6_15 
REMARK    4  A    between atoms: C10_22  and  C11_23 
ROOT
HETATM    1  C1  UNL     1       1.497  -1.122   2.361  1.00  0.00     0.136 C 
HETATM    2  N1  UNL     1       1.085  -0.184   1.630  1.00  0.00    -0.212 N 
ATOM      3  H1  UNL     1       0.719   0.618   2.143  1.00  0.00     0.182 HD
HETATM    4  C2  UNL     1       1.040  -0.046   0.249  1.00  0.00     0.679 C 
HETATM    5  N2  UNL     1       2.157   0.112  -0.421  1.00  0.00    -0.197 N 
ATOM      6  H2  UNL     1       2.133   0.214  -1.436  1.00  0.00     0.180 HD
HETATM    7  N4  UNL     1      -0.123  -0.056  -0.552  1.00  0.00    -0.182 N 
HETATM    8  C5  UNL     1      -0.866   1.092  -0.959  1.00  0.00     0.208 A 
HETATM    9  N5  UNL     1      -1.954   0.580  -1.811  1.00  0.00    -0.337 N 
ATOM     10  H5  UNL     1      -2.667   1.157  -2.258  1.00  0.00     0.164 HD
HETATM   11  C9  UNL     1      -1.868  -0.808  -1.918  1.00  0.00     0.243 A 
HETATM   12  O1  UNL     1      -2.612  -1.556  -2.571  1.00  0.00    -0.271 OA
HETATM   13  C10 UNL     1      -0.718  -1.239  -1.106  1.00  0.00     0.199 A 
ENDROOT
BRANCH   8  14
HETATM   14  C6  UNL     1      -1.514   1.915   0.086  1.00  0.00     0.021 C 
HETATM   15  C7  UNL     1      -0.646   2.546   1.108  1.00  0.00     0.013 C 
HETATM   16  C8  UNL     1      -2.254   3.037  -0.669  1.00  0.00     0.013 C 
ENDBRANCH   8  14
BRANCH  13  17
HETATM   17  C11 UNL     1      -1.127  -2.285  -0.123  1.00  0.00     0.010 C 
HETATM   18  C12 UNL     1      -2.143  -1.805   0.885  1.00  0.00     0.012 C 
HETATM   19  C13 UNL     1      -1.792  -3.466  -0.832  1.00  0.00     0.012 C 
ENDBRANCH  13  17
BRANCH   5  20
HETATM   20  C3  UNL     1       3.413   0.142   0.274  1.00  0.00     0.293 C 
HETATM   21  C4  UNL     1       4.521   0.278  -0.788  1.00  0.00     0.063 C 
BRANCH  20  22
HETATM   22  N3  UNL     1       3.498   1.289   1.153  1.00  0.00    -0.058 N 
ATOM     23  H33 UNL     1       3.327   2.160   0.650  1.00  0.00     0.276 HD
ATOM     24  H32 UNL     1       2.710   1.325   1.800  1.00  0.00     0.276 HD
ATOM     25  H31 UNL     1       4.390   1.310   1.647  1.00  0.00     0.276 HD
ENDBRANCH  20  22
ENDBRANCH   5  20
TORSDOF 4
