REMARK  8 active torsions:
REMARK  status: ('A' for Active; 'I' for Inactive)
REMARK    1  A    between atoms: C2_2  and  O2_4 
REMARK    2  A    between atoms: O2_4  and  C3_5 
REMARK    3  A    between atoms: C12_15  and  C13_16 
REMARK    4  A    between atoms: C13_16  and  O4_17 
REMARK    5  A    between atoms: O4_17  and  N1_18 
REMARK    6  A    between atoms: C26_33  and  O5_35 
REMARK    7  A    between atoms: O5_35  and  C28_36 
REMARK    8  A    between atoms: C31_40  and  C32_41 
ROOT
HETATM    1  C3  UNL     1      -2.011  -1.543  -1.081  1.00  0.00     0.171 C 
HETATM    2  C4  UNL     1      -0.720  -1.390  -0.412  1.00  0.00     0.027 C 
HETATM    3  C5  UNL     1       0.317  -2.410  -0.755  1.00  0.00     0.008 C 
HETATM    4  C6  UNL     1       1.712  -1.922  -0.628  1.00  0.00     0.006 C 
HETATM    5  C7  UNL     1       1.893  -0.711   0.251  1.00  0.00    -0.001 C 
HETATM    6  C8  UNL     1       3.310  -0.283   0.144  1.00  0.00    -0.005 C 
HETATM    7  C9  UNL     1       4.053  -0.968  -1.022  1.00  0.00     0.008 C 
HETATM    8  C10 UNL     1       5.494  -0.566  -0.935  1.00  0.00     0.042 C 
HETATM    9  C11 UNL     1       5.826   0.277   0.261  1.00  0.00     0.103 A 
HETATM   10  O3  UNL     1       7.197   0.616   0.245  1.00  0.00    -0.360 OA
HETATM   11  C12 UNL     1       6.576   0.048   1.380  1.00  0.00     0.117 A 
HETATM   12  C14 UNL     1       6.257   0.978   2.463  1.00  0.00     0.044 C 
HETATM   13  C15 UNL     1       5.034   1.723   1.937  1.00  0.00     0.016 C 
HETATM   14  C16 UNL     1       4.980   1.494   0.440  1.00  0.00    -0.005 C 
HETATM   15  C17 UNL     1       5.607   2.612  -0.362  1.00  0.00     0.019 C 
HETATM   16  C18 UNL     1       3.567   1.172  -0.034  1.00  0.00     0.001 C 
HETATM   17  C19 UNL     1       2.554   2.062   0.600  1.00  0.00     0.007 C 
HETATM   18  C20 UNL     1       1.273   1.720  -0.166  1.00  0.00     0.011 C 
HETATM   19  C21 UNL     1       0.835   0.324   0.193  1.00  0.00    -0.032 C 
HETATM   20  C22 UNL     1       0.171   0.484   1.569  1.00  0.00     0.016 C 
HETATM   21  C23 UNL     1      -0.215  -0.033  -0.834  1.00  0.00    -0.028 C 
HETATM   22  C24 UNL     1       0.298  -0.013  -2.226  1.00  0.00     0.016 C 
HETATM   23  C25 UNL     1      -1.478   0.788  -0.782  1.00  0.00     0.051 C 
HETATM   24  C26 UNL     1      -2.640  -0.128  -1.054  1.00  0.00     0.088 C 
HETATM   25  C27 UNL     1      -3.259   0.071  -2.425  1.00  0.00     0.049 C 
ENDROOT
BRANCH  24  26
HETATM   26  O5  UNL     1      -3.628  -0.212  -0.115  1.00  0.00    -0.347 OA
BRANCH  26  27
HETATM   27  C28 UNL     1      -4.608   0.754  -0.150  1.00  0.00     0.272 C 
HETATM   28  C29 UNL     1      -5.831   0.054  -0.860  1.00  0.00     0.115 C 
HETATM   29  C30 UNL     1      -6.981   0.341  -0.042  1.00  0.00     0.046 C 
HETATM   30 CL1  UNL     1      -8.625  -0.129  -0.488  1.00  0.00    -0.086 Cl
HETATM   31  C31 UNL     1      -6.563   0.915   1.068  1.00  0.00     0.075 C 
HETATM   32  O6  UNL     1      -5.186   1.028   1.063  1.00  0.00    -0.322 OA
BRANCH  31  33
HETATM   33  C32 UNL     1      -7.485   1.306   2.149  1.00  0.00    -0.001 C 
HETATM   34  C33 UNL     1      -6.937   2.369   3.063  1.00  0.00     0.021 C 
HETATM   35  C34 UNL     1      -7.686   0.005   2.958  1.00  0.00     0.021 C 
HETATM   36  C35 UNL     1      -8.839   1.761   1.665  1.00  0.00     0.021 C 
ENDBRANCH  31  33
ENDBRANCH  26  27
ENDBRANCH  24  26
BRANCH   1  37
HETATM   37  O2  UNL     1      -1.984  -2.052  -2.405  1.00  0.00    -0.313 OA
BRANCH  37  38
HETATM   38  C2  UNL     1      -2.637  -3.213  -2.739  1.00  0.00     0.255 C 
HETATM   39  C1  UNL     1      -2.646  -3.746  -4.126  1.00  0.00     0.126 C 
HETATM   40  O1  UNL     1      -3.286  -3.817  -1.895  1.00  0.00    -0.266 OA
ENDBRANCH  37  38
ENDBRANCH   1  37
BRANCH  11  41
HETATM   41  C13 UNL     1       7.219  -1.330   1.616  1.00  0.00     0.241 C 
BRANCH  41  42
HETATM   42  O4  UNL     1       8.594  -1.081   1.533  1.00  0.00    -0.284 OA
BRANCH  42  43
HETATM   43  N1  UNL     1       9.101  -1.776   0.446  1.00  0.00    -0.311 N 
ATOM     44  H12 UNL     1       8.552  -2.366  -0.179  1.00  0.00     0.184 HD
ATOM     45  H11 UNL     1      10.103  -1.595   0.386  1.00  0.00     0.184 HD
ENDBRANCH  42  43
ENDBRANCH  41  42
ENDBRANCH  11  41
TORSDOF 8
