REMARK  4 active torsions:
REMARK  status: ('A' for Active; 'I' for Inactive)
REMARK    1  A    between atoms: N1_1  and  C1_5 
REMARK    2  A    between atoms: C1_5  and  C2_6 
REMARK    3  A    between atoms: C2_6  and  S1_7 
REMARK    4  A    between atoms: S1_7  and  N2_10 
ROOT
HETATM    1  S1  UNL     1       0.467  -0.762  -0.927  1.00  0.00     0.213 S 
HETATM    2  O1  UNL     1       0.974   0.067  -2.102  1.00  0.00    -0.211 OA
HETATM    3  O2  UNL     1      -0.338  -1.875  -1.604  1.00  0.00    -0.211 OA
ENDROOT
BRANCH   1   4
HETATM    4  C2  UNL     1       1.735  -1.530  -0.045  1.00  0.00     0.196 C 
BRANCH   4   5
HETATM    5  C1  UNL     1       2.710  -0.717   0.696  1.00  0.00     0.137 C 
HETATM    6  C9  UNL     1       2.343   0.485   1.449  1.00  0.00     0.040 C 
HETATM    7  C10 UNL     1       2.899   1.403   0.356  1.00  0.00     0.005 C 
HETATM    8  C11 UNL     1       3.526   0.173  -0.257  1.00  0.00     0.040 C 
BRANCH   5   9
HETATM    9  N1  UNL     1       3.700  -1.580   1.382  1.00  0.00    -0.069 N 
ATOM     10  H13 UNL     1       3.248  -2.269   1.983  1.00  0.00     0.275 HD
ATOM     11  H12 UNL     1       4.158  -2.220   0.733  1.00  0.00     0.275 HD
ATOM     12  H11 UNL     1       4.377  -1.016   1.896  1.00  0.00     0.275 HD
ENDBRANCH   5   9
ENDBRANCH   4   5
ENDBRANCH   1   4
BRANCH   1  13
HETATM   13  N2  UNL     1      -0.634   0.183  -0.071  1.00  0.00    -0.211 NA
HETATM   14  C3  UNL     1      -1.407  -0.507   0.920  1.00  0.00     0.107 C 
HETATM   15  C4  UNL     1      -2.666  -1.126   0.400  1.00  0.00     0.015 C 
HETATM   16  C5  UNL     1      -3.672  -0.148  -0.113  1.00  0.00     0.001 C 
HETATM   17  C6  UNL     1      -3.489   1.250   0.390  1.00  0.00     0.001 C 
HETATM   18  C7  UNL     1      -2.319   1.958  -0.226  1.00  0.00     0.015 C 
HETATM   19  C8  UNL     1      -1.382   1.020  -0.947  1.00  0.00     0.107 C 
ENDBRANCH   1  13
TORSDOF 4
