REMARK  2 active torsions:
REMARK  status: ('A' for Active; 'I' for Inactive)
REMARK    1  A    between atoms: N2_15  and  C12_16 
REMARK    2  A    between atoms: C12_16  and  C13_17 
ROOT
HETATM    1  C1  UNL     1      -3.094  -1.498  -0.721  1.00  0.00     0.082 C 
HETATM    2  C2  UNL     1      -3.843  -0.486   0.139  1.00  0.00     0.211 C 
HETATM    3  O1  UNL     1      -3.639   0.820  -0.212  1.00  0.00    -0.386 OA
HETATM    4  C3  UNL     1      -3.141   1.632   0.799  1.00  0.00     0.168 C 
HETATM    5  C4  UNL     1      -1.755   2.193   0.433  1.00  0.00     0.031 C 
HETATM    6  C5  UNL     1      -1.097   1.105  -0.335  1.00  0.00    -0.003 C 
HETATM    7  C6  UNL     1       0.064   1.559  -1.225  1.00  0.00     0.041 C 
HETATM    8  C7  UNL     1       0.814   0.264  -1.487  1.00  0.00     0.225 C 
HETATM    9  C8  UNL     1      -0.101  -0.935  -1.602  1.00  0.00     0.061 C 
HETATM   10  C9  UNL     1      -0.683  -1.290  -0.269  1.00  0.00     0.089 C 
HETATM   11  N1  UNL     1      -1.888  -1.955  -0.189  1.00  0.00    -0.395 N 
ATOM     12  H1  UNL     1      -1.899  -2.852   0.297  1.00  0.00     0.159 HD
HETATM   13  C10 UNL     1      -0.544   0.005   0.534  1.00  0.00     0.041 C 
HETATM   14  C11 UNL     1       0.936   0.167   0.823  1.00  0.00     0.280 C 
HETATM   15  N2  UNL     1       1.736   0.175  -0.366  1.00  0.00     0.094 N 
ENDROOT
BRANCH  15  16
HETATM   16  C12 UNL     1       2.689  -0.843  -0.506  1.00  0.00     0.277 C 
BRANCH  16  17
HETATM   17  C13 UNL     1       3.748  -0.908   0.512  1.00  0.00     0.014 A 
HETATM   18  C14 UNL     1       4.666   0.355   0.617  1.00  0.00     0.007 A 
HETATM   19  C15 UNL     1       3.861  -0.164   1.754  1.00  0.00     0.007 A 
ENDBRANCH  16  17
ENDBRANCH  15  16
TORSDOF 2
