REMARK  22 active torsions:
REMARK  status: ('A' for Active; 'I' for Inactive)
REMARK    1  A    between atoms: C2_2  and  C3_3 
REMARK    2  A    between atoms: C3_3  and  C4_4 
REMARK    3  A    between atoms: C4_4  and  C5_5 
REMARK    4  A    between atoms: C5_5  and  C6_6 
REMARK    5  A    between atoms: C6_6  and  C7_7 
REMARK    6  A    between atoms: C6_6  and  C23_40 
REMARK    7  A    between atoms: C7_7  and  N1_8 
REMARK    8  A    between atoms: C9_12  and  C10_13 
REMARK    9  A    between atoms: C12_17  and  O3_18 
REMARK   10  A    between atoms: C13_20  and  C14_21 
REMARK   11  A    between atoms: C14_21  and  C15_22 
REMARK   12  A    between atoms: C15_22  and  C16_23 
REMARK   13  A    between atoms: C17_28  and  O6_29 
REMARK   14  A    between atoms: C18_31  and  C19_32 
REMARK   15  A    between atoms: C19_32  and  C20_33 
REMARK   16  A    between atoms: C20_33  and  C21_34 
REMARK   17  A    between atoms: C21_34  and  N4_35 
REMARK   18  A    between atoms: C23_40  and  O7_41 
REMARK   19  A    between atoms: C23_40  and  C24_43 
REMARK   20  A    between atoms: C24_43  and  C25_44 
REMARK   21  A    between atoms: C25_44  and  C26_45 
REMARK   22  A    between atoms: C26_45  and  C27_46 
ROOT
HETATM    1  N1  UNL     1       0.173   0.189  -0.423  1.00  0.00    -0.272 N 
HETATM    2  O1  UNL     1       0.429  -0.958  -0.954  1.00  0.00    -0.196 OA
HETATM    3  C8  UNL     1       0.215  -2.210  -1.212  1.00  0.00     0.327 C 
HETATM    4  O2  UNL     1       1.066  -2.828  -1.974  1.00  0.00    -0.256 OA
HETATM    5  C9  UNL     1      -0.904  -3.057  -0.740  1.00  0.00     0.088 C 
HETATM    6  N2  UNL     1      -2.128  -2.911  -1.483  1.00  0.00    -0.334 N 
ATOM      7  H2  UNL     1      -2.457  -3.786  -1.890  1.00  0.00     0.168 HD
HETATM    8  C12 UNL     1      -2.960  -1.828  -1.765  1.00  0.00     0.163 C 
HETATM    9  C13 UNL     1      -3.856  -0.999  -0.985  1.00  0.00     0.062 C 
HETATM   10  N3  UNL     1      -3.331  -0.020  -0.089  1.00  0.00    -0.339 N 
ATOM     11  H3  UNL     1      -4.027   0.280   0.594  1.00  0.00     0.167 HD
HETATM   12  C17 UNL     1      -2.128   0.624   0.091  1.00  0.00     0.141 C 
HETATM   13  C18 UNL     1      -1.011   0.866  -0.796  1.00  0.00     0.183 C 
ENDROOT
BRANCH   1  14
HETATM   14  C7  UNL     1       0.664   0.431   0.919  1.00  0.00     0.158 C 
BRANCH  14  15
HETATM   15  C6  UNL     1       2.091  -0.061   1.052  1.00  0.00     0.034 C 
BRANCH  15  16
HETATM   16  C5  UNL     1       2.779   0.081   2.315  1.00  0.00     0.009 C 
BRANCH  16  17
HETATM   17  C4  UNL     1       2.400  -0.524   3.578  1.00  0.00     0.004 C 
BRANCH  17  18
HETATM   18  C3  UNL     1       1.087  -0.154   4.161  1.00  0.00     0.026 C 
BRANCH  18  19
HETATM   19  C2  UNL     1       1.054   1.326   4.369  1.00  0.00    -0.037 C 
HETATM   20  C1  UNL     1       0.863   1.850   5.597  1.00  0.00     0.007 C 
ENDBRANCH  18  19
ENDBRANCH  17  18
ENDBRANCH  16  17
ENDBRANCH  15  16
BRANCH  15  21
HETATM   21  C23 UNL     1       2.938   0.582  -0.055  1.00  0.00     0.123 C 
BRANCH  21  22
HETATM   22  O7  UNL     1       3.148   1.906   0.231  1.00  0.00    -0.395 OA
ATOM     23  H7  UNL     1       3.672   2.304  -0.454  1.00  0.00     0.210 HD
ENDBRANCH  21  22
BRANCH  21  24
HETATM   24  C24 UNL     1       4.204  -0.172  -0.335  1.00  0.00     0.032 C 
BRANCH  24  25
HETATM   25  C25 UNL     1       5.001   0.509  -1.435  1.00  0.00     0.008 C 
BRANCH  25  26
HETATM   26  C26 UNL     1       6.294  -0.165  -1.735  1.00  0.00     0.079 C 
BRANCH  26  27
HETATM   27  C27 UNL     1       6.235  -1.571  -2.211  1.00  0.00     0.240 C 
HETATM   28  C28 UNL     1       5.454  -1.738  -3.485  1.00  0.00     0.090 C 
HETATM   29  F1  UNL     1       7.569  -1.901  -2.573  1.00  0.00    -0.207 F 
HETATM   30  F2  UNL     1       5.891  -2.490  -1.272  1.00  0.00    -0.207 F 
ENDBRANCH  26  27
ENDBRANCH  25  26
ENDBRANCH  24  25
ENDBRANCH  21  24
ENDBRANCH  15  21
ENDBRANCH  14  15
ENDBRANCH   1  14
BRANCH  13  31
HETATM   31  C19 UNL     1      -0.777   2.331  -1.126  1.00  0.00     0.037 C 
BRANCH  31  32
HETATM   32  C20 UNL     1      -2.105   2.952  -1.484  1.00  0.00     0.022 C 
BRANCH  32  33
HETATM   33  C21 UNL     1      -1.808   4.406  -1.816  1.00  0.00     0.122 C 
BRANCH  33  34
HETATM   34  N4  UNL     1      -1.194   5.082  -0.728  1.00  0.00    -0.367 N 
HETATM   35  C22 UNL     1      -1.770   5.461   0.325  1.00  0.00     0.196 C 
HETATM   36  N5  UNL     1      -1.012   6.125   1.323  1.00  0.00    -0.067 NA
HETATM   37  N6  UNL     1      -3.154   5.242   0.536  1.00  0.00    -0.067 NA
ATOM     38  H4  UNL     1      -0.196   5.278  -0.807  1.00  0.00     0.161 HD
ENDBRANCH  33  34
ENDBRANCH  32  33
ENDBRANCH  31  32
ENDBRANCH  13  31
BRANCH  12  39
HETATM   39  O6  UNL     1      -1.947   1.118   1.286  1.00  0.00    -0.348 OA
ATOM     40  H6  UNL     1      -1.117   1.563   1.410  1.00  0.00     0.219 HD
ENDBRANCH  12  39
BRANCH   5  41
HETATM   41  C10 UNL     1      -1.059  -3.098   0.763  1.00  0.00     0.059 C 
HETATM   42  C11 UNL     1      -2.187  -4.016   1.122  1.00  0.00     0.011 C 
ENDBRANCH   5  41
BRANCH   9  43
HETATM   43  C14 UNL     1      -5.021  -1.678  -0.303  1.00  0.00     0.072 C 
BRANCH  43  44
HETATM   44  C15 UNL     1      -6.010  -2.382  -1.159  1.00  0.00     0.119 C 
BRANCH  44  45
HETATM   45  C16 UNL     1      -5.550  -3.518  -1.952  1.00  0.00     0.172 C 
HETATM   46  O4  UNL     1      -5.422  -3.573  -3.196  1.00  0.00    -0.648 OA
HETATM   47  O5  UNL     1      -5.212  -4.688  -1.238  1.00  0.00    -0.648 OA
ENDBRANCH  44  45
ENDBRANCH  43  44
ENDBRANCH   9  43
BRANCH   8  48
HETATM   48  O3  UNL     1      -2.930  -1.473  -3.039  1.00  0.00    -0.345 OA
ATOM     49  H3  UNL     1      -3.497  -0.735  -3.231  1.00  0.00     0.219 HD
ENDBRANCH   8  48
TORSDOF 22
