REMARK  2 active torsions:
REMARK  status: ('A' for Active; 'I' for Inactive)
REMARK    1  A    between atoms: C2_2  and  N1_4 
REMARK       I    between atoms: N1_4  and  C4_6 
REMARK       I    between atoms: C4_6  and  N2_8 
REMARK    2  A    between atoms: N2_8  and  N3_10 
ROOT
HETATM    1  N1  UNL     1       0.025  -0.411  -0.019  1.00  0.00    -0.338 N 
ATOM      2  H1  UNL     1      -0.011  -1.336  -0.448  1.00  0.00     0.164 HD
HETATM    3  C4  UNL     1       1.291   0.212   0.202  1.00  0.00     0.336 C 
HETATM    4  O1  UNL     1       1.302   1.348   0.730  1.00  0.00    -0.246 OA
HETATM    5  N2  UNL     1       2.511  -0.421  -0.160  1.00  0.00    -0.237 N 
ATOM      6  H2  UNL     1       2.508  -1.345  -0.591  1.00  0.00     0.193 HD
ENDROOT
BRANCH   1   7
HETATM    7  C2  UNL     1      -1.199   0.244   0.353  1.00  0.00     0.078 C 
HETATM    8  C1  UNL     1      -1.960  -0.536   1.416  1.00  0.00     0.032 C 
HETATM    9  C3  UNL     1      -2.123   0.471  -0.807  1.00  0.00     0.032 C 
ENDBRANCH   1   7
BRANCH   5  10
HETATM   10  N3  UNL     1       3.712   0.243   0.084  1.00  0.00    -0.245 N 
HETATM   11  N4  UNL     1       4.794  -0.427   0.255  1.00  0.00    -0.331 N 
ATOM     12  H42 UNL     1       4.757  -1.445   0.209  1.00  0.00     0.178 HD
ATOM     13  H41 UNL     1       5.673   0.059   0.434  1.00  0.00     0.178 HD
ATOM     14  H3  UNL     1       3.731   1.262   0.127  1.00  0.00     0.208 HD
ENDBRANCH   5  10
TORSDOF 2
