REMARK  14 active torsions:
REMARK  status: ('A' for Active; 'I' for Inactive)
REMARK    1  A    between atoms: C4_8  and  N4_9 
REMARK    2  A    between atoms: C7_24  and  N10_25 
REMARK    3  A    between atoms: N10_25  and  C8_26 
REMARK    4  A    between atoms: C10_28  and  N11_29 
REMARK    5  A    between atoms: C11_33  and  O1_34 
REMARK    6  A    between atoms: O1_34  and  S1_35 
REMARK    7  A    between atoms: S1_35  and  O3_37 
REMARK    8  A    between atoms: S1_35  and  C15_45 
REMARK    9  A    between atoms: O3_37  and  C12_38 
REMARK   10  A    between atoms: C12_38  and  C13_39 
REMARK   11  A    between atoms: C13_39  and  O4_40 
REMARK   12  A    between atoms: C13_39  and  C14_42 
REMARK   13  A    between atoms: C14_42  and  O5_43 
REMARK   14  A    between atoms: C18_50  and  O6_51 
ROOT
HETATM    1  N1  UNL     1      -4.976   0.053  -3.395  1.00  0.00    -0.191 NA
HETATM    2  C1  UNL     1      -5.045   0.081  -2.262  1.00  0.00     0.106 C 
HETATM    3  C2  UNL     1      -5.152   0.137  -0.855  1.00  0.00     0.128 C 
HETATM    4  C3  UNL     1      -6.323  -0.413  -0.308  1.00  0.00     0.156 C 
HETATM    5  N2  UNL     1      -7.144  -1.194  -1.150  1.00  0.00    -0.080 NA
HETATM    6  N3  UNL     1      -6.780  -0.288   0.952  1.00  0.00    -0.177 N 
ATOM      7  H3  UNL     1      -7.704  -0.684   1.124  1.00  0.00     0.185 HD
HETATM    8  C4  UNL     1      -6.201   0.275   1.997  1.00  0.00     0.677 C 
HETATM    9  N5  UNL     1      -5.098   1.038   2.054  1.00  0.00    -0.185 N 
ATOM     10  H5  UNL     1      -4.835   1.384   2.977  1.00  0.00     0.184 HD
HETATM   11  C5  UNL     1      -4.291   1.402   1.019  1.00  0.00     0.137 C 
HETATM   12  C6  UNL     1      -3.579   2.617   1.203  1.00  0.00     0.168 A 
HETATM   13  N6  UNL     1      -2.732   3.211   0.360  1.00  0.00    -0.267 N 
ATOM     14  H6  UNL     1      -2.467   2.876  -0.566  1.00  0.00     0.190 HD
HETATM   15  N7  UNL     1      -2.301   4.312   0.946  1.00  0.00    -0.227 N 
ATOM     16  H7  UNL     1      -1.639   4.971   0.536  1.00  0.00     0.210 HD
HETATM   17  N8  UNL     1      -2.848   4.435   2.134  1.00  0.00    -0.227 N 
ATOM     18  H8  UNL     1      -2.693   5.190   2.802  1.00  0.00     0.210 HD
HETATM   19  N9  UNL     1      -3.634   3.393   2.293  1.00  0.00    -0.267 N 
ATOM     20  H9  UNL     1      -4.200   3.204   3.121  1.00  0.00     0.190 HD
HETATM   21  C7  UNL     1      -4.070   0.738  -0.178  1.00  0.00     0.155 C 
ENDROOT
BRANCH  21  22
HETATM   22  N10 UNL     1      -2.986   0.641  -0.629  1.00  0.00    -0.438 NA
BRANCH  22  23
HETATM   23  C8  UNL     1      -1.748   0.530  -1.146  1.00  0.00     0.168 C 
HETATM   24  C9  UNL     1      -1.621  -0.771  -1.965  1.00  0.00     0.075 C 
HETATM   25  C10 UNL     1      -0.168  -1.037  -2.146  1.00  0.00     0.216 C 
HETATM   26  C11 UNL     1       0.402  -0.620  -0.836  1.00  0.00     0.175 C 
HETATM   27  C19 UNL     1      -0.584   0.305  -0.194  1.00  0.00     0.074 C 
BRANCH  25  28
HETATM   28  N11 UNL     1       0.298  -0.244  -3.271  1.00  0.00    -0.072 N 
ATOM     29 3H11 UNL     1      -0.242  -0.409  -4.120  1.00  0.00     0.274 HD
ATOM     30 2H11 UNL     1       0.089   0.749  -3.167  1.00  0.00     0.274 HD
ATOM     31 1H11 UNL     1       1.294  -0.426  -3.395  1.00  0.00     0.274 HD
ENDBRANCH  25  28
BRANCH  26  32
HETATM   32  O1  UNL     1       1.631  -0.065  -0.886  1.00  0.00    -0.274 OA
BRANCH  32  33
HETATM   33  S1  UNL     1       2.753  -0.767   0.336  1.00  0.00     0.231 S 
HETATM   34  O2  UNL     1       3.917  -0.422  -1.519  1.00  0.00    -0.207 OA
BRANCH  33  35
HETATM   35  O3  UNL     1       4.215   0.360   0.789  1.00  0.00    -0.279 OA
BRANCH  35  36
HETATM   36  C12 UNL     1       3.743   1.549   1.268  1.00  0.00     0.223 C 
BRANCH  36  37
HETATM   37  C13 UNL     1       4.948   2.398   1.618  1.00  0.00     0.166 C 
BRANCH  37  38
HETATM   38  O4  UNL     1       5.754   1.790   2.589  1.00  0.00    -0.391 OA
ATOM     39  H4  UNL     1       6.510   2.322   2.808  1.00  0.00     0.210 HD
ENDBRANCH  37  38
BRANCH  37  40
HETATM   40  C14 UNL     1       5.816   2.658   0.414  1.00  0.00     0.198 C 
BRANCH  40  41
HETATM   41  O5  UNL     1       6.348   1.471  -0.087  1.00  0.00    -0.398 OA
ATOM     42  H5  UNL     1       6.895   1.635  -0.846  1.00  0.00     0.209 HD
ENDBRANCH  40  41
ENDBRANCH  37  40
ENDBRANCH  36  37
ENDBRANCH  35  36
ENDBRANCH  33  35
BRANCH  33  43
HETATM   43  C15 UNL     1       3.485  -2.594  -0.068  1.00  0.00     0.158 A 
HETATM   44  C16 UNL     1       2.812  -3.500  -0.821  1.00  0.00     0.131 A 
HETATM   45  N12 UNL     1       3.359  -4.722  -1.004  1.00  0.00    -0.369 N 
HETATM   46  C17 UNL     1       4.544  -5.016  -0.446  1.00  0.00     0.143 A 
ATOM     47  H12 UNL     1       2.872  -5.420  -1.566  1.00  0.00     0.164 HD
HETATM   48  C18 UNL     1       5.226  -4.098   0.316  1.00  0.00     0.156 A 
HETATM   49  N13 UNL     1       4.657  -2.903   0.475  1.00  0.00    -0.325 N 
ATOM     50  H13 UNL     1       5.140  -2.200   1.034  1.00  0.00     0.169 HD
BRANCH  48  51
HETATM   51  O6  UNL     1       6.431  -4.401   0.882  1.00  0.00    -0.345 OA
ATOM     52  H6  UNL     1       6.902  -3.766   1.409  1.00  0.00     0.219 HD
ENDBRANCH  48  51
ENDBRANCH  33  43
ENDBRANCH  32  33
ENDBRANCH  26  32
ENDBRANCH  22  23
ENDBRANCH  21  22
BRANCH   8  53
HETATM   53  N4  UNL     1      -6.801   0.049   3.141  1.00  0.00    -0.234 N 
ATOM     54  H42 UNL     1      -7.639  -0.531   3.098  1.00  0.00     0.174 HD
ATOM     55  H41 UNL     1      -6.354   0.484   3.948  1.00  0.00     0.174 HD
ENDBRANCH   8  53
TORSDOF 14
