REMARK  4 active torsions:
REMARK  status: ('A' for Active; 'I' for Inactive)
REMARK    1  A    between atoms: C4_4  and  C5_5 
REMARK    2  A    between atoms: C5_5  and  C6_6 
REMARK    3  A    between atoms: C6_6  and  C7_7 
REMARK    4  A    between atoms: C7_7  and  O1_8 
ROOT
HETATM    1  C7  UNL     1       1.218   0.401   1.216  1.00  0.00     0.046 C 
HETATM    2  C8  UNL     1       0.214  -0.615   0.994  1.00  0.00    -0.042 C 
HETATM    3  C9  UNL     1       0.582  -2.043   0.877  1.00  0.00     0.038 C 
HETATM    4  C10 UNL     1      -0.506  -2.741   0.034  1.00  0.00     0.010 C 
HETATM    5  C11 UNL     1      -1.580  -1.737   0.024  1.00  0.00     0.003 C 
HETATM    6  C12 UNL     1      -2.534  -1.795  -1.116  1.00  0.00    -0.008 C 
HETATM    7  C13 UNL     1      -2.994  -3.277  -1.138  1.00  0.00     0.011 C 
HETATM    8  C14 UNL     1      -3.681  -0.864  -0.789  1.00  0.00     0.004 A 
HETATM    9  C15 UNL     1      -4.004   0.374  -1.373  1.00  0.00     0.000 A 
HETATM   10  C16 UNL     1      -3.429   1.679  -1.663  1.00  0.00     0.006 C 
HETATM   11  C17 UNL     1      -3.775   2.435  -0.366  1.00  0.00     0.006 C 
HETATM   12  C18 UNL     1      -4.074   1.326   0.653  1.00  0.00    -0.005 C 
HETATM   13  C19 UNL     1      -3.347   1.659   1.908  1.00  0.00     0.006 C 
HETATM   14  C20 UNL     1      -2.117   0.726   1.825  1.00  0.00     0.007 C 
HETATM   15  C21 UNL     1      -1.925   0.598   0.302  1.00  0.00     0.008 C 
HETATM   16  C22 UNL     1      -0.859  -0.406  -0.034  1.00  0.00    -0.010 C 
HETATM   17  C23 UNL     1      -0.146  -0.156  -1.318  1.00  0.00     0.021 C 
HETATM   18  C24 UNL     1      -3.324   0.211   0.013  1.00  0.00    -0.024 A 
ENDROOT
BRANCH   1  19
HETATM   19  C6  UNL     1       2.371   0.723   0.389  1.00  0.00     0.068 C 
BRANCH  19  20
HETATM   20  C5  UNL     1       3.578  -0.185   0.459  1.00  0.00     0.034 C 
BRANCH  20  21
HETATM   21  C4  UNL     1       4.666   0.351  -0.450  1.00  0.00    -0.024 C 
HETATM   22  C2  UNL     1       5.818   0.677   0.059  1.00  0.00    -0.091 C 
HETATM   23  C1  UNL     1       6.890   1.206  -0.847  1.00  0.00     0.042 C 
HETATM   24  C3  UNL     1       6.113   0.545   1.505  1.00  0.00     0.042 C 
ENDBRANCH  20  21
ENDBRANCH  19  20
ENDBRANCH   1  19
BRANCH   1  25
HETATM   25  O1  UNL     1       1.694   0.390   2.567  1.00  0.00    -0.365 OA
ATOM     26  H1  UNL     1       0.941   0.180   3.107  1.00  0.00     0.217 HD
ENDBRANCH   1  25
TORSDOF 4
