REMARK  3 active torsions:
REMARK  status: ('A' for Active; 'I' for Inactive)
REMARK    1  A    between atoms: C2_2  and  N1_4 
REMARK    2  A    between atoms: C6_12  and  N4_13 
REMARK    3  A    between atoms: C8_15  and  N5_16 
ROOT
HETATM    1  N1  UNL     1      -3.336  -0.164   0.790  1.00  0.00    -0.267 N 
HETATM    2  C4  UNL     1      -3.293  -0.451   2.132  1.00  0.00     0.333 A 
HETATM    3  O1  UNL     1      -4.353  -0.535   2.832  1.00  0.00    -0.246 OA
HETATM    4  N2  UNL     1      -2.066  -0.618   2.572  1.00  0.00    -0.292 N 
ATOM      5  H2  UNL     1      -1.798  -0.837   3.532  1.00  0.00     0.172 HD
HETATM    6  C5  UNL     1      -1.237  -0.452   1.551  1.00  0.00     0.140 A 
HETATM    7  N3  UNL     1       0.085  -0.503   1.409  1.00  0.00    -0.324 N 
ATOM      8  H3  UNL     1       0.646  -0.713   2.235  1.00  0.00     0.169 HD
HETATM    9  C6  UNL     1       0.727  -0.297   0.253  1.00  0.00     0.146 A 
HETATM   10  C12 UNL     1      -0.002  -0.015  -0.868  1.00  0.00     0.186 A 
HETATM   11  F2  UNL     1       0.585   0.201  -2.059  1.00  0.00    -0.200 F 
HETATM   12  C13 UNL     1      -1.397   0.047  -0.761  1.00  0.00     0.119 A 
HETATM   13  N6  UNL     1      -2.099   0.344  -1.953  1.00  0.00    -0.096 NA
HETATM   14  C14 UNL     1      -2.025  -0.166   0.423  1.00  0.00     0.115 A 
ENDROOT
BRANCH   9  15
HETATM   15  N4  UNL     1       2.169  -0.373   0.200  1.00  0.00    -0.359 N 
HETATM   16  C7  UNL     1       2.893  -1.297  -0.623  1.00  0.00     0.160 C 
HETATM   17  C8  UNL     1       4.272  -0.702  -0.668  1.00  0.00     0.242 C 
HETATM   18  C9  UNL     1       4.428   0.044   0.615  1.00  0.00     0.145 C 
HETATM   19  C10 UNL     1       5.341   1.231   0.392  1.00  0.00     0.056 C 
HETATM   20  F1  UNL     1       4.970  -0.728   1.628  1.00  0.00    -0.239 F 
HETATM   21  C11 UNL     1       3.034   0.470   0.967  1.00  0.00     0.170 C 
BRANCH  17  22
HETATM   22  N5  UNL     1       4.378   0.212  -1.781  1.00  0.00    -0.070 N 
ATOM     23  H53 UNL     1       4.123  -0.230  -2.664  1.00  0.00     0.274 HD
ATOM     24  H52 UNL     1       3.653   0.929  -1.758  1.00  0.00     0.274 HD
ATOM     25  H51 UNL     1       5.314   0.616  -1.812  1.00  0.00     0.274 HD
ENDBRANCH  17  22
ENDBRANCH   9  15
BRANCH   1  26
HETATM   26  C2  UNL     1      -4.507   0.074  -0.009  1.00  0.00    -0.008 C 
HETATM   27  C1  UNL     1      -4.721   1.476  -0.481  1.00  0.00     0.063 C 
HETATM   28  C3  UNL     1      -4.864  -1.012  -0.986  1.00  0.00     0.063 C 
ENDBRANCH   1  26
TORSDOF 3
