REMARK  3 active torsions:
REMARK  status: ('A' for Active; 'I' for Inactive)
REMARK    1  A    between atoms: C2_2  and  N1_5 
REMARK       I    between atoms: N1_5  and  C5_7 
REMARK    2  A    between atoms: C5_7  and  C6_9 
REMARK    3  A    between atoms: C6_9  and  N2_10 
ROOT
HETATM    1  N1  UNL     1      -0.641  -0.548   0.209  1.00  0.00    -0.352 N 
ATOM      2  H1  UNL     1      -0.428  -1.438  -0.241  1.00  0.00     0.163 HD
HETATM    3  C5  UNL     1       0.396   0.035   0.940  1.00  0.00     0.236 C 
HETATM    4  O1  UNL     1       0.209   1.126   1.518  1.00  0.00    -0.272 OA
ENDROOT
BRANCH   3   5
HETATM    5  C6  UNL     1       1.716  -0.613   1.052  1.00  0.00     0.233 C 
BRANCH   5   6
HETATM    6  N2  UNL     1       2.716  -0.094   0.146  1.00  0.00    -0.327 N 
HETATM    7  C7  UNL     1       2.998  -0.512  -1.091  1.00  0.00     0.110 A 
HETATM    8  C8  UNL     1       4.022   0.225  -1.634  1.00  0.00     0.107 A 
HETATM    9  N3  UNL     1       4.371   1.125  -0.686  1.00  0.00    -0.345 N 
HETATM   10  C9  UNL     1       3.584   0.930   0.380  1.00  0.00     0.156 A 
ATOM     11  H3  UNL     1       5.105   1.829  -0.769  1.00  0.00     0.167 HD
HETATM   12 BR1  UNL     1       3.694   1.960   1.986  1.00  0.00    -0.010 Br
ENDBRANCH   5   6
ENDBRANCH   3   5
BRANCH   1  13
HETATM   13  C2  UNL     1      -1.961  -0.047   0.017  1.00  0.00     0.022 C 
HETATM   14  C1  UNL     1      -2.731  -1.060  -0.847  1.00  0.00     0.037 C 
HETATM   15  C3  UNL     1      -2.009   1.258  -0.759  1.00  0.00     0.037 C 
HETATM   16  C4  UNL     1      -2.741   0.075   1.307  1.00  0.00     0.037 C 
ENDBRANCH   1  13
TORSDOF 3
