REMARK  2 active torsions:
REMARK  status: ('A' for Active; 'I' for Inactive)
REMARK    1  A    between atoms: O1_2  and  C2_3 
REMARK    2  A    between atoms: C2_3  and  C3_5 
ROOT
HETATM    1  C3  UNL     1       0.456   0.290   0.151  1.00  0.00     0.117 A 
HETATM    2  N1  UNL     1       0.418   1.565   0.616  1.00  0.00    -0.317 N 
ATOM      3  H1  UNL     1       1.289   2.034   0.864  1.00  0.00     0.169 HD
HETATM    4  C4  UNL     1      -0.746   2.220   0.756  1.00  0.00     0.264 A 
HETATM    5  O3  UNL     1      -0.782   3.400   1.186  1.00  0.00    -0.267 OA
HETATM    6  C5  UNL     1      -1.950   1.616   0.430  1.00  0.00     0.085 A 
HETATM    7 BR1  UNL     1      -3.621   2.511   0.615  1.00  0.00    -0.045 Br
HETATM    8  C6  UNL     1      -1.958   0.336  -0.040  1.00  0.00    -0.031 A 
HETATM    9  C7  UNL     1      -3.198  -0.393  -0.415  1.00  0.00     0.050 C 
HETATM   10  C8  UNL     1      -0.732  -0.320  -0.176  1.00  0.00    -0.022 A 
HETATM   11  C9  UNL     1      -0.685  -1.708  -0.682  1.00  0.00     0.051 C 
ENDROOT
BRANCH   1  12
HETATM   12  C2  UNL     1       1.728  -0.394   0.009  1.00  0.00     0.310 C 
HETATM   13  O2  UNL     1       1.878  -1.563  -0.407  1.00  0.00    -0.258 OA
BRANCH  12  14
HETATM   14  O1  UNL     1       2.923   0.264   0.354  1.00  0.00    -0.321 OA
HETATM   15  C1  UNL     1       4.186  -0.367   0.231  1.00  0.00     0.213 C 
ENDBRANCH  12  14
ENDBRANCH   1  12
TORSDOF 2
