REMARK  6 active torsions:
REMARK  status: ('A' for Active; 'I' for Inactive)
REMARK    1  A    between atoms: N1_2  and  C2_4 
REMARK    2  A    between atoms: C5_9  and  C6_10 
REMARK    3  A    between atoms: C6_10  and  C7_12 
REMARK    4  A    between atoms: C8_17  and  N5_18 
REMARK    5  A    between atoms: N5_18  and  C9_20 
REMARK    6  A    between atoms: C9_20  and  C10_21 
ROOT
HETATM    1  C2  UNL     1      -0.677   1.501  -0.179  1.00  0.00     0.146 A 
HETATM    2  N2  UNL     1      -1.967   1.836  -0.208  1.00  0.00    -0.341 N 
ATOM      3  H2  UNL     1      -2.194   2.813  -0.396  1.00  0.00     0.167 HD
HETATM    4  C3  UNL     1      -2.996   0.987  -0.009  1.00  0.00     0.035 A 
HETATM    5  C4  UNL     1      -4.368   1.520  -0.007  1.00  0.00     0.070 C 
HETATM    6  C5  UNL     1      -2.701  -0.365   0.250  1.00  0.00     0.079 A 
HETATM    7  N4  UNL     1      -1.385  -0.672   0.276  1.00  0.00    -0.336 N 
ATOM      8  H4  UNL     1      -1.134  -1.643   0.465  1.00  0.00     0.168 HD
HETATM    9  C8  UNL     1      -0.377   0.199   0.073  1.00  0.00     0.150 A 
ENDROOT
BRANCH   9  10
HETATM   10  N5  UNL     1       0.807  -0.228   0.138  1.00  0.00    -0.348 N 
ATOM     11  H5  UNL     1       0.877  -1.227   0.333  1.00  0.00     0.167 HD
BRANCH  10  12
HETATM   12  C9  UNL     1       2.051   0.415  -0.008  1.00  0.00     0.101 C 
BRANCH  12  13
HETATM   13  C10 UNL     1       3.171  -0.591   0.089  1.00  0.00    -0.013 A 
HETATM   14  C11 UNL     1       2.893  -1.919   0.215  1.00  0.00     0.032 A 
HETATM   15  C12 UNL     1       3.924  -2.835   0.282  1.00  0.00     0.011 A 
HETATM   16 BR1  UNL     1       3.564  -4.699   0.452  1.00  0.00    -0.051 Br
HETATM   17  C13 UNL     1       5.220  -2.405   0.225  1.00  0.00     0.019 A 
HETATM   18  C14 UNL     1       5.475  -1.059   0.099  1.00  0.00     0.009 A 
HETATM   19  C15 UNL     1       4.459  -0.138   0.029  1.00  0.00    -0.050 A 
HETATM   20  C16 UNL     1       4.782   1.313  -0.100  1.00  0.00     0.049 C 
ENDBRANCH  12  13
ENDBRANCH  10  12
ENDBRANCH   9  10
BRANCH   1  21
HETATM   21  N1  UNL     1       0.265   2.364  -0.411  1.00  0.00    -0.378 N 
HETATM   22  C1  UNL     1      -0.106   3.734  -0.708  1.00  0.00     0.148 C 
ATOM     23  H1  UNL     1       1.245   2.084  -0.385  1.00  0.00     0.160 HD
ENDBRANCH   1  21
BRANCH   6  24
HETATM   24  C6  UNL     1      -3.728  -1.393   0.350  1.00  0.00     0.085 C 
HETATM   25  N3  UNL     1      -5.067  -0.953   0.187  1.00  0.00    -0.102 NA
BRANCH  24  26
HETATM   26  C7  UNL     1      -3.494  -2.627   1.136  1.00  0.00     0.227 C 
HETATM   27 CL1  UNL     1      -5.037  -3.605   1.061  1.00  0.00    -0.102 Cl
HETATM   28 CL2  UNL     1      -2.323  -3.773   0.348  1.00  0.00    -0.102 Cl
ENDBRANCH  24  26
ENDBRANCH   6  24
TORSDOF 6
