REMARK  12 active torsions:
REMARK  status: ('A' for Active; 'I' for Inactive)
REMARK    1  A    between atoms: C2_2  and  C3_3 
REMARK    2  A    between atoms: C3_3  and  N1_4 
REMARK       I    between atoms: N1_4  and  C4_6 
REMARK    3  A    between atoms: C4_6  and  C5_8 
REMARK    4  A    between atoms: C5_8  and  C6_9 
REMARK    5  A    between atoms: C5_8  and  N3_26 
REMARK    6  A    between atoms: C6_9  and  C7_10 
REMARK    7  A    between atoms: C7_10  and  C9_12 
REMARK    8  A    between atoms: C9_12  and  N2_13 
REMARK    9  A    between atoms: C13_17  and  C14_18 
REMARK   10  A    between atoms: C14_18  and  O2_19 
REMARK       I    between atoms: N3_26  and  C20_28 
REMARK   11  A    between atoms: C20_28  and  O4_30 
REMARK   12  A    between atoms: O4_30  and  C21_31 
ROOT
HETATM    1  C5  UNL     1      -2.460  -0.802  -1.783  1.00  0.00     0.179 C 
ENDROOT
BRANCH   1   2
HETATM    2  C4  UNL     1      -2.996  -2.143  -1.407  1.00  0.00     0.240 C 
HETATM    3  N1  UNL     1      -2.172  -3.296  -1.402  1.00  0.00    -0.359 N 
ATOM      4  H1  UNL     1      -1.191  -3.212  -1.668  1.00  0.00     0.162 HD
HETATM    5  O1  UNL     1      -4.206  -2.279  -1.081  1.00  0.00    -0.271 OA
BRANCH   3   6
HETATM    6  C3  UNL     1      -2.691  -4.574  -1.031  1.00  0.00     0.122 C 
BRANCH   6   7
HETATM    7  C2  UNL     1      -3.219  -4.681   0.360  1.00  0.00     0.015 C 
HETATM    8  C1  UNL     1      -3.716  -6.106   0.552  1.00  0.00     0.006 C 
ENDBRANCH   6   7
ENDBRANCH   3   6
ENDBRANCH   1   2
BRANCH   1   9
HETATM    9  C6  UNL     1      -1.201  -0.488  -0.977  1.00  0.00     0.044 C 
BRANCH   9  10
HETATM   10  C7  UNL     1      -0.699   0.862  -1.406  1.00  0.00     0.022 C 
HETATM   11  C8  UNL     1      -0.356   0.896  -2.860  1.00  0.00     0.015 C 
BRANCH  10  12
HETATM   12  C9  UNL     1       0.321   1.443  -0.502  1.00  0.00     0.067 C 
BRANCH  12  13
HETATM   13  N2  UNL     1       1.526   0.760  -0.282  1.00  0.00    -0.373 N 
HETATM   14  C10 UNL     1       2.491   0.657  -1.299  1.00  0.00     0.067 C 
HETATM   15  C11 UNL     1       3.715   1.535  -1.045  1.00  0.00     0.079 C 
HETATM   16  C12 UNL     1       4.348   0.980   0.174  1.00  0.00    -0.071 C 
HETATM   17  C13 UNL     1       5.644   0.898   0.254  1.00  0.00     0.040 C 
HETATM   18  C18 UNL     1       3.455   0.546   1.266  1.00  0.00     0.055 C 
HETATM   19  C19 UNL     1       2.071   1.089   0.986  1.00  0.00     0.131 C 
BRANCH  17  20
HETATM   20  C14 UNL     1       6.426   0.385   1.360  1.00  0.00     0.067 C 
HETATM   21  C15 UNL     1       7.759   0.383   1.267  1.00  0.00    -0.054 C 
HETATM   22  C16 UNL     1       8.445   0.900   0.049  1.00  0.00     0.046 C 
HETATM   23  C17 UNL     1       8.547  -0.137   2.397  1.00  0.00     0.046 C 
BRANCH  20  24
HETATM   24  O2  UNL     1       5.840  -0.108   2.517  1.00  0.00    -0.360 OA
ATOM     25  H2  UNL     1       6.353  -0.444   3.242  1.00  0.00     0.217 HD
ENDBRANCH  20  24
ENDBRANCH  17  20
ENDBRANCH  12  13
ENDBRANCH  10  12
ENDBRANCH   9  10
ENDBRANCH   1   9
BRANCH   1  26
HETATM   26  N3  UNL     1      -3.472   0.201  -1.713  1.00  0.00    -0.324 N 
HETATM   27  C20 UNL     1      -3.931   0.773  -0.519  1.00  0.00     0.362 C 
HETATM   28  O3  UNL     1      -3.472   0.422   0.586  1.00  0.00    -0.238 OA
ATOM     29  H3  UNL     1      -3.888   0.522  -2.587  1.00  0.00     0.165 HD
BRANCH  27  30
HETATM   30  O4  UNL     1      -4.909   1.744  -0.540  1.00  0.00    -0.294 OA
BRANCH  30  31
HETATM   31  C21 UNL     1      -5.437   2.379   0.587  1.00  0.00     0.061 C 
HETATM   32  C22 UNL     1      -6.094   1.424   1.554  1.00  0.00     0.046 C 
HETATM   33  C23 UNL     1      -6.521   3.332   0.089  1.00  0.00     0.046 C 
HETATM   34  C24 UNL     1      -4.425   3.176   1.353  1.00  0.00     0.046 C 
ENDBRANCH  30  31
ENDBRANCH  27  30
ENDBRANCH   1  26
TORSDOF 12
