REMARK  11 active torsions:
REMARK  status: ('A' for Active; 'I' for Inactive)
REMARK    1  A    between atoms: C2_3  and  C3_4 
REMARK    2  A    between atoms: C3_4  and  C6_7 
REMARK    3  A    between atoms: C6_7  and  N2_8 
REMARK       I    between atoms: N2_8  and  C7_10 
REMARK       I    between atoms: C7_10  and  N3_12 
REMARK    4  A    between atoms: N4_15  and  C10_16 
REMARK    5  A    between atoms: C10_16  and  C11_17 
REMARK    6  A    between atoms: C11_17  and  O2_18 
REMARK    7  A    between atoms: C11_17  and  C12_20 
REMARK    8  A    between atoms: C12_20  and  C13_21 
REMARK    9  A    between atoms: N5_28  and  C19_30 
REMARK   10  A    between atoms: C19_30  and  N6_32 
REMARK   11  A    between atoms: N6_32  and  C21_34 
ROOT
HETATM    1  C1  UNL     1      10.391  -3.048   0.826  1.00  0.00     0.227 C 
HETATM    2  N1  UNL     1       9.642  -2.295   0.355  1.00  0.00    -0.445 NA
HETATM    3  C2  UNL     1       8.723  -1.382  -0.198  1.00  0.00     0.167 C 
ENDROOT
BRANCH   3   4
HETATM    4  C3  UNL     1       8.987  -0.044   0.483  1.00  0.00     0.029 C 
HETATM    5  C4  UNL     1      10.480   0.321   0.148  1.00  0.00     0.027 C 
HETATM    6  C5  UNL     1       8.950  -0.103   1.965  1.00  0.00     0.027 C 
BRANCH   4   7
HETATM    7  C6  UNL     1       8.177   1.002  -0.199  1.00  0.00     0.081 C 
BRANCH   7   8
HETATM    8  N2  UNL     1       6.777   0.876  -0.263  1.00  0.00    -0.321 N 
HETATM    9  C7  UNL     1       5.835   0.878   0.782  1.00  0.00     0.322 C 
HETATM   10  O1  UNL     1       6.110   1.010   1.990  1.00  0.00    -0.247 OA
HETATM   11  N3  UNL     1       4.422   0.719   0.496  1.00  0.00    -0.324 N 
HETATM   12  C8  UNL     1       3.499   0.723   1.579  1.00  0.00     0.148 C 
HETATM   13  C26 UNL     1       4.051   0.567  -0.897  1.00  0.00     0.230 C 
HETATM   14  C9  UNL     1       2.147   1.280   1.288  1.00  0.00     0.146 C 
HETATM   15  N4  UNL     1       1.770   1.248  -0.099  1.00  0.00    -0.347 N 
HETATM   16  C25 UNL     1       2.579   0.572  -1.077  1.00  0.00     0.237 C 
HETATM   17  O4  UNL     1       2.003   0.016  -2.040  1.00  0.00    -0.272 OA
ATOM     18  H2  UNL     1       6.390   0.768  -1.201  1.00  0.00     0.169 HD
BRANCH  15  19
HETATM   19  C10 UNL     1       0.550   1.917  -0.500  1.00  0.00     0.157 C 
BRANCH  19  20
HETATM   20  C11 UNL     1      -0.657   1.006  -0.446  1.00  0.00     0.140 C 
BRANCH  20  21
HETATM   21  O2  UNL     1      -0.857   0.535   0.825  1.00  0.00    -0.394 OA
ATOM     22  H2  UNL     1      -1.615  -0.037   0.859  1.00  0.00     0.210 HD
ENDBRANCH  20  21
BRANCH  20  23
HETATM   23  C12 UNL     1      -1.830   1.816  -0.955  1.00  0.00     0.072 C 
BRANCH  23  24
HETATM   24  C13 UNL     1      -3.098   1.052  -0.963  1.00  0.00    -0.053 A 
HETATM   25  C14 UNL     1      -3.513   0.303  -2.057  1.00  0.00     0.017 A 
HETATM   26  C15 UNL     1      -4.677  -0.403  -2.079  1.00  0.00    -0.025 A 
HETATM   27  C16 UNL     1      -5.094  -1.195  -3.264  1.00  0.00     0.051 C 
HETATM   28  C17 UNL     1      -5.507  -0.399  -0.981  1.00  0.00     0.112 A 
HETATM   29  O3  UNL     1      -6.643  -0.960  -0.721  1.00  0.00    -0.276 OA
HETATM   30  C23 UNL     1      -5.125   0.339   0.133  1.00  0.00     0.070 A 
HETATM   31  C18 UNL     1      -7.068  -0.663   0.487  1.00  0.00     0.230 A 
HETATM   32  N5  UNL     1      -8.141  -1.044   1.059  1.00  0.00    -0.312 N 
HETATM   33  N7  UNL     1      -6.118   0.149   1.020  1.00  0.00    -0.319 N 
ATOM     34  H5  UNL     1      -8.334  -0.726   2.009  1.00  0.00     0.170 HD
ATOM     35  H7  UNL     1      -6.153   0.555   1.955  1.00  0.00     0.169 HD
HETATM   36  C24 UNL     1      -3.938   1.048   0.130  1.00  0.00     0.039 A 
BRANCH  32  37
HETATM   37  C19 UNL     1      -9.070  -1.891   0.421  1.00  0.00     0.075 C 
HETATM   38  C20 UNL     1      -8.708  -3.320   0.238  1.00  0.00     0.089 C 
BRANCH  37  39
HETATM   39  N6  UNL     1     -10.223  -1.491  -0.014  1.00  0.00    -0.380 N 
ATOM     40  H6  UNL     1     -10.864  -2.140  -0.470  1.00  0.00     0.160 HD
BRANCH  39  41
HETATM   41  C21 UNL     1     -10.579  -0.096   0.164  1.00  0.00     0.116 C 
HETATM   42  C22 UNL     1     -10.924   0.151   1.614  1.00  0.00     0.026 C 
ENDBRANCH  39  41
ENDBRANCH  37  39
ENDBRANCH  32  37
ENDBRANCH  23  24
ENDBRANCH  20  23
ENDBRANCH  19  20
ENDBRANCH  15  19
ENDBRANCH   7   8
ENDBRANCH   4   7
ENDBRANCH   3   4
TORSDOF 11
