REMARK  4 active torsions:
REMARK  status: ('A' for Active; 'I' for Inactive)
REMARK    1  A    between atoms: C2_2  and  C4_4 
REMARK    2  A    between atoms: C4_4  and  C5_5 
REMARK    3  A    between atoms: C6_7  and  N1_8 
REMARK    4  A    between atoms: C8_13  and  C9_14 
ROOT
HETATM    1  C5  UNL     1       0.083   0.856   0.396  1.00  0.00     0.011 A 
HETATM    2  S1  UNL     1      -0.181   2.178  -0.612  1.00  0.00    -0.057 SA
HETATM    3  C6  UNL     1      -1.706   1.708  -1.226  1.00  0.00     0.144 A 
HETATM    4  N2  UNL     1      -1.958   0.532  -0.601  1.00  0.00    -0.333 N 
HETATM    5  C7  UNL     1      -3.300  -0.051  -0.839  1.00  0.00     0.158 C 
HETATM    6  C8  UNL     1      -1.052   0.087   0.229  1.00  0.00     0.044 A 
ENDROOT
BRANCH   1   7
HETATM    7  C4  UNL     1       1.329   0.470   1.147  1.00  0.00     0.052 C 
BRANCH   7   8
HETATM    8  C2  UNL     1       2.496   0.756   0.223  1.00  0.00    -0.018 C 
HETATM    9  C1  UNL     1       2.403   0.128  -1.126  1.00  0.00     0.010 C 
HETATM   10  C3  UNL     1       3.732   0.094   0.890  1.00  0.00     0.010 C 
ENDBRANCH   7   8
ENDBRANCH   1   7
BRANCH   6  11
HETATM   11  C9  UNL     1      -1.175  -1.111   1.164  1.00  0.00     0.129 C 
HETATM   12  C10 UNL     1      -1.595  -2.401   0.540  1.00  0.00     0.033 C 
HETATM   13 CL1  UNL     1      -2.590  -0.654   2.287  1.00  0.00    -0.119 Cl
ENDBRANCH   6  11
BRANCH   3  14
HETATM   14  N1  UNL     1      -2.457   2.289  -2.125  1.00  0.00    -0.379 N 
ATOM     15  H12 UNL     1      -2.267   3.174  -2.595  1.00  0.00     0.158 HD
ATOM     16  H11 UNL     1      -3.367   2.009  -2.491  1.00  0.00     0.158 HD
ENDBRANCH   3  14
TORSDOF 4
