REMARK  11 active torsions:
REMARK  status: ('A' for Active; 'I' for Inactive)
REMARK    1  A    between atoms: C2_2  and  O1_3 
REMARK    2  A    between atoms: C2_2  and  C3_5 
REMARK    3  A    between atoms: C3_5  and  O2_6 
REMARK    4  A    between atoms: C3_5  and  C4_8 
REMARK    5  A    between atoms: C4_8  and  N1_10 
REMARK    6  A    between atoms: C7_14  and  N2_15 
REMARK    7  A    between atoms: C8_19  and  C9_20 
REMARK       I    between atoms: C9_20  and  N5_22 
REMARK    8  A    between atoms: N5_22  and  N6_24 
REMARK    9  A    between atoms: N7_26  and  C10_28 
REMARK   10  A    between atoms: C13_43  and  N14_44 
REMARK   11  A    between atoms: N16_50  and  O5_51 
ROOT
HETATM    1  N1  UNL     1      -4.177  -0.964  -0.586  1.00  0.00    -0.210 N 
HETATM    2  C5  UNL     1      -2.923  -0.522  -0.365  1.00  0.00     0.283 A 
HETATM    3  O3  UNL     1      -2.201  -0.671   0.656  1.00  0.00    -0.265 OA
HETATM    4  C6  UNL     1      -2.488   0.167  -1.478  1.00  0.00     0.130 A 
HETATM    5  C7  UNL     1      -1.301   0.809  -1.763  1.00  0.00     0.178 A 
HETATM    6  N13 UNL     1      -1.218   1.395  -2.986  1.00  0.00    -0.173 N 
ATOM      7  H13 UNL     1      -0.358   1.881  -3.241  1.00  0.00     0.186 HD
HETATM    8  C13 UNL     1      -2.228   1.358  -3.873  1.00  0.00     0.679 A 
HETATM    9  N15 UNL     1      -3.373   0.722  -3.559  1.00  0.00    -0.172 N 
ATOM     10  H15 UNL     1      -4.132   0.701  -4.240  1.00  0.00     0.186 HD
HETATM   11  C14 UNL     1      -3.543   0.107  -2.358  1.00  0.00     0.186 A 
HETATM   12  N16 UNL     1      -4.556  -0.585  -1.793  1.00  0.00    -0.138 N 
ENDROOT
BRANCH   5  13
HETATM   13  N2  UNL     1      -0.216   0.866  -0.849  1.00  0.00    -0.160 N 
HETATM   14  N3  UNL     1      -0.097   1.466   0.323  1.00  0.00     0.004 NA
HETATM   15  N4  UNL     1       1.103   1.258   0.844  1.00  0.00    -0.262 N 
HETATM   16  C8  UNL     1       1.775   0.502  -0.018  1.00  0.00     0.205 A 
ATOM     17  H4  UNL     1       1.446   1.611   1.737  1.00  0.00     0.186 HD
HETATM   18  N12 UNL     1       0.953   0.272  -1.047  1.00  0.00    -0.258 N 
ATOM     19  H12 UNL     1       1.192  -0.283  -1.869  1.00  0.00     0.190 HD
BRANCH  16  20
HETATM   20  C9  UNL     1       3.164   0.033   0.173  1.00  0.00     0.307 C 
HETATM   21  O4  UNL     1       3.719  -0.687  -0.712  1.00  0.00    -0.262 OA
HETATM   22  N5  UNL     1       3.903   0.364   1.323  1.00  0.00    -0.249 N 
ATOM     23  H5  UNL     1       3.480   0.942   2.050  1.00  0.00     0.192 HD
BRANCH  22  24
HETATM   24  N6  UNL     1       5.202  -0.091   1.473  1.00  0.00    -0.238 N 
HETATM   25  N7  UNL     1       6.198   0.645   1.165  1.00  0.00    -0.268 N 
ATOM     26  H7  UNL     1       6.022   1.582   0.803  1.00  0.00     0.190 HD
ATOM     27  H6  UNL     1       5.366  -1.030   1.836  1.00  0.00     0.208 HD
BRANCH  25  28
HETATM   28  C10 UNL     1       7.538   0.211   1.306  1.00  0.00     0.178 A 
HETATM   29  N8  UNL     1       7.991  -1.052   1.304  1.00  0.00    -0.172 N 
HETATM   30  C11 UNL     1       9.318  -0.998   1.465  1.00  0.00     0.678 A 
ATOM     31  H8  UNL     1       7.428  -1.896   1.199  1.00  0.00     0.186 HD
HETATM   32  N9  UNL     1      10.090  -2.040   1.511  1.00  0.00    -0.234 N 
HETATM   33  N10 UNL     1       9.751   0.266   1.573  1.00  0.00    -0.175 N 
ATOM     34  H92 UNL     1       9.761  -3.002   1.429  1.00  0.00     0.174 HD
ATOM     35  H91 UNL     1      11.102  -1.999   1.634  1.00  0.00     0.174 HD
HETATM   36  C12 UNL     1       8.642   1.018   1.473  1.00  0.00     0.177 A 
ATOM     37  H10 UNL     1      10.711   0.586   1.703  1.00  0.00     0.185 HD
HETATM   38  N11 UNL     1       8.665   2.449   1.539  1.00  0.00    -0.078 NA
ENDBRANCH  25  28
ENDBRANCH  22  24
ENDBRANCH  16  20
ENDBRANCH   5  13
BRANCH   8  39
HETATM   39  N14 UNL     1      -2.131   1.928  -5.045  1.00  0.00    -0.234 N 
ATOM     40 2H14 UNL     1      -1.264   2.410  -5.283  1.00  0.00     0.174 HD
ATOM     41 1H14 UNL     1      -2.897   1.900  -5.718  1.00  0.00     0.174 HD
ENDBRANCH   8  39
BRANCH   1  42
HETATM   42  C4  UNL     1      -4.940  -1.715   0.344  1.00  0.00     0.217 C 
HETATM   43  S1  UNL     1      -5.352  -3.307  -0.446  1.00  0.00    -0.065 SA
BRANCH  42  44
HETATM   44  C3  UNL     1      -6.185  -1.130   0.870  1.00  0.00     0.182 C 
BRANCH  44  45
HETATM   45  C2  UNL     1      -6.042   0.198   1.563  1.00  0.00     0.145 C 
HETATM   46  C1  UNL     1      -5.076   0.233   2.688  1.00  0.00     0.042 C 
BRANCH  45  47
HETATM   47  O1  UNL     1      -5.769   1.218   0.653  1.00  0.00    -0.393 OA
ATOM     48  H1  UNL     1      -6.388   1.196  -0.068  1.00  0.00     0.210 HD
ENDBRANCH  45  47
ENDBRANCH  44  45
BRANCH  44  49
HETATM   49  O2  UNL     1      -7.235  -1.023  -0.023  1.00  0.00    -0.390 OA
ATOM     50  H2  UNL     1      -7.325  -1.861  -0.461  1.00  0.00     0.210 HD
ENDBRANCH  44  49
ENDBRANCH  42  44
ENDBRANCH   1  42
BRANCH  12  51
HETATM   51  O5  UNL     1      -5.739  -0.801  -2.458  1.00  0.00    -0.266 OA
ATOM     52  H5  UNL     1      -6.012  -0.528  -3.326  1.00  0.00     0.247 HD
ENDBRANCH  12  51
TORSDOF 11
