REMARK  6 active torsions:
REMARK  status: ('A' for Active; 'I' for Inactive)
REMARK    1  A    between atoms: C2_2  and  C5_6 
REMARK    2  A    between atoms: C5_6  and  C6_7 
REMARK    3  A    between atoms: C8_9  and  C9_10 
REMARK    4  A    between atoms: C11_13  and  N2_14 
REMARK    5  A    between atoms: C12_20  and  C13_21 
REMARK    6  A    between atoms: C13_21  and  C14_22 
ROOT
HETATM    1  C1  UNL     1      -1.252  -4.407   0.555  1.00  0.00     0.035 C 
HETATM    2  C2  UNL     1      -0.933  -3.029  -0.186  1.00  0.00     0.060 C 
HETATM    3  C3  UNL     1      -1.919  -3.114  -1.347  1.00  0.00     0.035 C 
HETATM    4  C4  UNL     1       0.363  -3.279  -0.726  1.00  0.00     0.072 C 
HETATM    5  N1  UNL     1       1.405  -3.514  -1.175  1.00  0.00    -0.196 NA
ENDROOT
BRANCH   2   6
HETATM    6  C5  UNL     1      -1.216  -2.056   0.814  1.00  0.00     0.009 C 
BRANCH   6   7
HETATM    7  C6  UNL     1      -1.117  -0.573   0.644  1.00  0.00    -0.024 A 
HETATM    8  C7  UNL     1      -2.230   0.128   0.249  1.00  0.00     0.033 A 
HETATM    9  C8  UNL     1      -2.151   1.472   0.154  1.00  0.00     0.033 A 
HETATM   10  S2  UNL     1      -0.549   1.800   0.605  1.00  0.00    -0.092 SA
HETATM   11  C12 UNL     1      -0.016   0.167   0.906  1.00  0.00    -0.006 A 
BRANCH   9  12
HETATM   12  C9  UNL     1      -3.205   2.447  -0.255  1.00  0.00     0.058 A 
HETATM   13  C10 UNL     1      -4.461   2.012  -0.588  1.00  0.00     0.084 A 
HETATM   14  S1  UNL     1      -5.263   3.461  -0.968  1.00  0.00    -0.064 SA
HETATM   15  C11 UNL     1      -3.976   4.536  -0.688  1.00  0.00     0.142 A 
HETATM   16  N3  UNL     1      -2.978   3.742  -0.313  1.00  0.00    -0.335 N 
ATOM     17  H3  UNL     1      -2.063   4.125  -0.077  1.00  0.00     0.168 HD
BRANCH  15  18
HETATM   18  N2  UNL     1      -3.933   5.846  -0.803  1.00  0.00    -0.380 N 
ATOM     19  H22 UNL     1      -4.699   6.455  -1.091  1.00  0.00     0.158 HD
ATOM     20  H21 UNL     1      -3.161   6.491  -0.635  1.00  0.00     0.158 HD
ENDBRANCH  15  18
ENDBRANCH   9  12
BRANCH  11  21
HETATM   21  C13 UNL     1       1.394  -0.074   1.271  1.00  0.00     0.051 C 
BRANCH  21  22
HETATM   22  C14 UNL     1       2.341  -0.040   0.101  1.00  0.00    -0.007 C 
HETATM   23  C15 UNL     1       2.320   1.340  -0.565  1.00  0.00     0.032 C 
HETATM   24  C16 UNL     1       3.538   1.332  -1.491  1.00  0.00     0.232 C 
HETATM   25  N4  UNL     1       4.730   1.410  -0.674  1.00  0.00    -0.075 N 
HETATM   26  C17 UNL     1       4.585   0.781   0.610  1.00  0.00     0.232 C 
ATOM     27  H42 UNL     1       5.535   1.032  -1.173  1.00  0.00     0.277 HD
ATOM     28  H41 UNL     1       5.034   2.378  -0.570  1.00  0.00     0.277 HD
HETATM   29  C18 UNL     1       3.708  -0.433   0.567  1.00  0.00     0.032 C 
ENDBRANCH  21  22
ENDBRANCH  11  21
ENDBRANCH   6   7
ENDBRANCH   2   6
TORSDOF 6
