REMARK  6 active torsions:
REMARK  status: ('A' for Active; 'I' for Inactive)
REMARK    1  A    between atoms: C2_2  and  O1_4 
REMARK    2  A    between atoms: O1_4  and  C4_5 
REMARK    3  A    between atoms: C6_9  and  C7_10 
REMARK    4  A    between atoms: C7_10  and  C8_11 
REMARK    5  A    between atoms: N3_16  and  C11_17 
REMARK    6  A    between atoms: C20_26  and  N4_27 
ROOT
HETATM    1  C4  UNL     1       2.794  -1.272   0.349  1.00  0.00     0.226 A 
HETATM    2  N1  UNL     1       2.322  -0.321  -0.523  1.00  0.00    -0.318 N 
ATOM      3  H1  UNL     1       2.938   0.059  -1.241  1.00  0.00     0.169 HD
HETATM    4  C5  UNL     1       1.057   0.109  -0.435  1.00  0.00     0.092 A 
HETATM    5  C6  UNL     1       0.332   1.044  -1.171  1.00  0.00     0.055 A 
HETATM    6  N2  UNL     1      -0.867   1.045  -0.622  1.00  0.00    -0.299 N 
ATOM      7  H2  UNL     1      -1.632   1.637  -0.948  1.00  0.00     0.187 HD
HETATM    8  N3  UNL     1      -0.981   0.204   0.392  1.00  0.00    -0.278 N 
HETATM    9  C19 UNL     1       0.197  -0.404   0.547  1.00  0.00     0.124 A 
HETATM   10  C20 UNL     1       0.685  -1.363   1.422  1.00  0.00     0.133 A 
HETATM   11  N5  UNL     1       1.974  -1.761   1.285  1.00  0.00    -0.306 N 
ATOM     12  H5  UNL     1       2.335  -2.467   1.926  1.00  0.00     0.171 HD
ENDROOT
BRANCH   8  13
HETATM   13  C11 UNL     1      -2.161  -0.024   1.199  1.00  0.00     0.131 C 
HETATM   14  C12 UNL     1      -3.099  -1.073   0.661  1.00  0.00     0.031 C 
HETATM   15  C13 UNL     1      -4.420  -1.073   1.384  1.00  0.00     0.002 C 
HETATM   16  C14 UNL     1      -5.444  -0.128   0.913  1.00  0.00     0.000 C 
HETATM   17  C15 UNL     1      -5.345   0.350  -0.485  1.00  0.00     0.004 C 
HETATM   18  C16 UNL     1      -4.258   1.302  -0.810  1.00  0.00     0.027 C 
HETATM   19  C17 UNL     1      -3.515   1.954   0.262  1.00  0.00    -0.029 C 
HETATM   20  C18 UNL     1      -2.827   1.322   1.342  1.00  0.00    -0.004 C 
ENDBRANCH   8  13
BRANCH   5  21
HETATM   21  C7  UNL     1       0.884   1.824  -2.317  1.00  0.00     0.065 C 
BRANCH  21  22
HETATM   22  C8  UNL     1       1.765   2.915  -1.783  1.00  0.00    -0.009 A 
HETATM   23  C9  UNL     1       2.461   3.863  -2.677  1.00  0.00     0.005 A 
HETATM   24  C10 UNL     1       3.227   2.749  -1.972  1.00  0.00     0.005 A 
ENDBRANCH  21  22
ENDBRANCH   5  21
BRANCH  10  25
HETATM   25  N4  UNL     1      -0.074  -1.851   2.330  1.00  0.00    -0.383 N 
ATOM     26  H42 UNL     1      -1.044  -1.552   2.433  1.00  0.00     0.157 HD
ATOM     27  H41 UNL     1       0.285  -2.556   2.974  1.00  0.00     0.157 HD
ENDBRANCH  10  25
BRANCH   1  28
HETATM   28  O1  UNL     1       4.100  -1.695   0.235  1.00  0.00    -0.317 OA
BRANCH  28  29
HETATM   29  C2  UNL     1       4.693  -2.633   1.038  1.00  0.00     0.123 C 
HETATM   30  C1  UNL     1       5.822  -1.895   1.797  1.00  0.00     0.040 C 
HETATM   31  C3  UNL     1       5.314  -3.779   0.251  1.00  0.00     0.040 C 
ENDBRANCH  28  29
ENDBRANCH   1  28
TORSDOF 6
