REMARK  7 active torsions:
REMARK  status: ('A' for Active; 'I' for Inactive)
REMARK    1  A    between atoms: C9_9  and  O1_10 
REMARK    2  A    between atoms: N1_12  and  C10_13 
REMARK    3  A    between atoms: C10_13  and  C11_14 
REMARK    4  A    between atoms: C11_14  and  C12_15 
REMARK    5  A    between atoms: C12_15  and  C13_16 
REMARK    6  A    between atoms: C13_16  and  N2_17 
REMARK    7  A    between atoms: C20_24  and  O2_25 
ROOT
HETATM    1  C1  UNL     1      -6.608  -0.488   0.278  1.00  0.00     0.032 C 
HETATM    2  C2  UNL     1      -5.259  -0.498   0.970  1.00  0.00     0.079 C 
HETATM    3  C3  UNL     1      -4.473  -1.728   0.688  1.00  0.00     0.038 C 
HETATM    4  C4  UNL     1      -3.455  -1.547  -0.413  1.00  0.00    -0.012 C 
HETATM    5  C5  UNL     1      -2.594  -2.806  -0.487  1.00  0.00     0.020 C 
HETATM    6  C6  UNL     1      -4.201  -1.446  -1.725  1.00  0.00     0.020 C 
HETATM    7  C7  UNL     1      -2.604  -0.360  -0.165  1.00  0.00     0.032 A 
HETATM    8  C8  UNL     1      -3.176   0.750   0.401  1.00  0.00     0.091 A 
HETATM    9  C9  UNL     1      -2.168   1.698   0.520  1.00  0.00     0.172 A 
HETATM   10  N1  UNL     1      -1.018   1.197   0.046  1.00  0.00    -0.306 N 
HETATM   11  C20 UNL     1      -1.273  -0.052  -0.372  1.00  0.00     0.153 A 
HETATM   12  N3  UNL     1      -4.555   0.737   0.721  1.00  0.00    -0.382 N 
ATOM     13  H3  UNL     1      -5.062   1.620   0.777  1.00  0.00     0.160 HD
ENDROOT
BRANCH  10  14
HETATM   14  C10 UNL     1       0.223   1.953   0.025  1.00  0.00     0.133 C 
BRANCH  14  15
HETATM   15  C11 UNL     1       1.055   1.785   1.247  1.00  0.00     0.022 C 
BRANCH  15  16
HETATM   16  C12 UNL     1       2.301   2.662   1.079  1.00  0.00     0.032 C 
BRANCH  16  17
HETATM   17  C13 UNL     1       3.080   2.254  -0.142  1.00  0.00     0.272 C 
BRANCH  17  18
HETATM   18  N2  UNL     1       3.471   0.867   0.012  1.00  0.00     0.088 N 
HETATM   19  C14 UNL     1       4.112   0.363  -1.188  1.00  0.00     0.272 C 
HETATM   20  C15 UNL     1       3.669  -1.078  -1.332  1.00  0.00     0.030 C 
HETATM   21  C16 UNL     1       4.088  -1.789  -0.044  1.00  0.00     0.002 C 
HETATM   22  C17 UNL     1       5.478  -1.353   0.292  1.00  0.00     0.002 C 
HETATM   23  C18 UNL     1       5.601  -0.014   0.924  1.00  0.00     0.030 C 
HETATM   24  C19 UNL     1       4.307   0.706   1.179  1.00  0.00     0.272 C 
ENDBRANCH  17  18
ENDBRANCH  16  17
ENDBRANCH  15  16
ENDBRANCH  14  15
ENDBRANCH  10  14
BRANCH   9  25
HETATM   25  O1  UNL     1      -2.400   2.975   1.068  1.00  0.00    -0.344 OA
ATOM     26  H1  UNL     1      -1.711   3.623   1.149  1.00  0.00     0.219 HD
ENDBRANCH   9  25
BRANCH  11  27
HETATM   27  O2  UNL     1      -0.356  -0.908  -0.924  1.00  0.00    -0.345 OA
ATOM     28  H2  UNL     1       0.559  -0.696  -1.066  1.00  0.00     0.219 HD
ENDBRANCH  11  27
TORSDOF 7
