REMARK  12 active torsions:
REMARK  status: ('A' for Active; 'I' for Inactive)
REMARK       I    between atoms: C2_2  and  N1_4 
REMARK    1  A    between atoms: N1_4  and  C3_6 
REMARK    2  A    between atoms: C4_7  and  O2_8 
REMARK    3  A    between atoms: O2_8  and  C5_9 
REMARK    4  A    between atoms: C9_13  and  N2_14 
REMARK    5  A    between atoms: C13_22  and  S1_23 
REMARK    6  A    between atoms: S1_23  and  C14_24 
REMARK    7  A    between atoms: C15_26  and  C16_27 
REMARK    8  A    between atoms: C16_27  and  O5_28 
REMARK    9  A    between atoms: C17_30  and  O6_31 
REMARK   10  A    between atoms: C18_33  and  C19_34 
REMARK   11  A    between atoms: C19_34  and  O7_35 
REMARK   12  A    between atoms: C20_37  and  O8_38 
ROOT
HETATM    1  C3  UNL     1      -1.048  -0.234   1.148  1.00  0.00     0.169 C 
HETATM    2  C4  UNL     1      -2.034   0.116   0.072  1.00  0.00     0.286 C 
HETATM    3  O3  UNL     1      -1.469   0.277  -1.165  1.00  0.00    -0.348 OA
HETATM    4  C10 UNL     1      -0.113   0.255  -1.272  1.00  0.00     0.072 C 
HETATM    5  C11 UNL     1       0.381  -1.128  -1.626  1.00  0.00     0.047 C 
HETATM    6  C12 UNL     1       0.173   1.124  -2.515  1.00  0.00     0.047 C 
HETATM    7  C13 UNL     1       0.671   0.836  -0.165  1.00  0.00     0.114 C 
HETATM    8  C20 UNL     1      -0.066   0.936   1.162  1.00  0.00     0.162 C 
ENDROOT
BRANCH   7   9
HETATM    9  S1  UNL     1       2.219  -0.037   0.198  1.00  0.00    -0.126 SA
BRANCH   9  10
HETATM   10  C14 UNL     1       3.413   0.092  -1.124  1.00  0.00     0.192 C 
HETATM   11  O4  UNL     1       3.885   1.381  -1.322  1.00  0.00    -0.365 OA
HETATM   12  C15 UNL     1       5.041   1.510  -0.563  1.00  0.00     0.175 C 
HETATM   13  C17 UNL     1       5.683   0.170  -0.427  1.00  0.00     0.158 C 
HETATM   14  C18 UNL     1       4.622  -0.780  -0.907  1.00  0.00     0.080 C 
BRANCH  12  15
HETATM   15  C16 UNL     1       5.980   2.420  -1.346  1.00  0.00     0.198 C 
BRANCH  15  16
HETATM   16  O5  UNL     1       5.398   3.671  -1.553  1.00  0.00    -0.398 OA
ATOM     17  H5  UNL     1       5.983   4.238  -2.041  1.00  0.00     0.209 HD
ENDBRANCH  15  16
ENDBRANCH  12  15
BRANCH  13  18
HETATM   18  O6  UNL     1       5.930  -0.065   0.931  1.00  0.00    -0.392 OA
ATOM     19  H6  UNL     1       6.339  -0.918   1.018  1.00  0.00     0.210 HD
ENDBRANCH  13  18
BRANCH  14  20
HETATM   20  C19 UNL     1       5.122  -1.399  -2.208  1.00  0.00     0.174 C 
BRANCH  20  21
HETATM   21  O7  UNL     1       6.235  -2.179  -1.885  1.00  0.00    -0.400 OA
ATOM     22  H7  UNL     1       6.546  -2.565  -2.695  1.00  0.00     0.209 HD
ENDBRANCH  20  21
ENDBRANCH  14  20
ENDBRANCH   9  10
ENDBRANCH   7   9
BRANCH   8  23
HETATM   23  O8  UNL     1       0.808   0.876   2.227  1.00  0.00    -0.392 OA
ATOM     24  H8  UNL     1       1.419   1.604   2.236  1.00  0.00     0.210 HD
ENDBRANCH   8  23
BRANCH   1  25
HETATM   25  N1  UNL     1      -1.703  -0.391   2.412  1.00  0.00    -0.349 N 
HETATM   26  C2  UNL     1      -1.566  -1.597   3.141  1.00  0.00     0.214 C 
HETATM   27  C1  UNL     1      -2.258  -1.719   4.442  1.00  0.00     0.117 C 
HETATM   28  O1  UNL     1      -0.879  -2.520   2.686  1.00  0.00    -0.274 OA
ATOM     29  H1  UNL     1      -2.270   0.369   2.788  1.00  0.00     0.163 HD
ENDBRANCH   1  25
BRANCH   2  30
HETATM   30  O2  UNL     1      -3.105  -0.726  -0.052  1.00  0.00    -0.352 OA
BRANCH  30  31
HETATM   31  C5  UNL     1      -4.352  -0.156   0.130  1.00  0.00     0.155 C 
HETATM   32  C6  UNL     1      -5.184  -0.152  -1.110  1.00  0.00     0.034 C 
HETATM   33  C7  UNL     1      -6.575   0.127  -0.589  1.00  0.00     0.005 C 
HETATM   34  C8  UNL     1      -6.620  -0.803   0.615  1.00  0.00     0.035 C 
HETATM   35  C9  UNL     1      -5.199  -0.711   1.196  1.00  0.00     0.212 C 
BRANCH  35  36
HETATM   36  N2  UNL     1      -5.322   0.164   2.351  1.00  0.00    -0.073 N 
ATOM     37  H23 UNL     1      -4.402   0.415   2.714  1.00  0.00     0.274 HD
ATOM     38  H22 UNL     1      -5.652   1.088   2.071  1.00  0.00     0.274 HD
ATOM     39  H21 UNL     1      -5.910  -0.221   3.091  1.00  0.00     0.274 HD
ENDBRANCH  35  36
ENDBRANCH  30  31
ENDBRANCH   2  30
TORSDOF 12
