REMARK  1 active torsions:
REMARK  status: ('A' for Active; 'I' for Inactive)
REMARK    1  A    between atoms: C2_2  and  N1_4 
ROOT
HETATM    1  N1  UNL     1       0.150   0.079   0.250  1.00  0.00     0.119 N 
HETATM    2  C4  UNL     1       1.164   0.967  -0.203  1.00  0.00     0.302 C 
HETATM    3  C5  UNL     1       2.435   0.279   0.222  1.00  0.00     0.264 C 
HETATM    4  N2  UNL     1       2.076  -0.979   0.812  1.00  0.00    -0.047 N 
ATOM      5  H21 UNL     1       2.233  -1.014   1.819  1.00  0.00     0.279 HD
ATOM      6  H22 UNL     1       2.707  -1.740   0.560  1.00  0.00     0.279 HD
HETATM    7  C6  UNL     1       0.703  -1.225   0.437  1.00  0.00     0.503 C 
ENDROOT
BRANCH   1   8
HETATM    8  C2  UNL     1      -1.074   0.118  -0.484  1.00  0.00     0.217 C 
HETATM    9  C1  UNL     1      -1.766   1.445  -0.229  1.00  0.00     0.042 C 
HETATM   10  C3  UNL     1      -1.987  -0.983  -0.006  1.00  0.00     0.042 C 
ENDBRANCH   1   8
TORSDOF 1
