REMARK  2 active torsions:
REMARK  status: ('A' for Active; 'I' for Inactive)
REMARK       I    between atoms: C1_4  and  N3_6 
REMARK    1  A    between atoms: N3_6  and  C2_8 
REMARK    2  A    between atoms: N7_14  and  N8_15 
ROOT
HETATM    1  C2  UNL     1       0.142   1.182  -1.100  1.00  0.00     0.735 A 
HETATM    2  N4  UNL     1      -0.445   1.909  -2.088  1.00  0.00    -0.116 N 
ATOM      3  H4  UNL     1       0.026   2.407  -2.843  1.00  0.00     0.207 HD
HETATM    4  N5  UNL     1      -1.744   1.842  -1.875  1.00  0.00    -0.210 N 
ATOM      5  H5  UNL     1      -2.454   2.290  -2.454  1.00  0.00     0.206 HD
HETATM    6  N6  UNL     1      -1.995   1.111  -0.804  1.00  0.00     0.034 NA
HETATM    7  N7  UNL     1      -0.832   0.698  -0.318  1.00  0.00     0.013 N 
ENDROOT
BRANCH   1   8
HETATM    8  N3  UNL     1       1.422   0.996  -0.950  1.00  0.00    -0.160 N 
HETATM    9  C1  UNL     1       1.926   0.224   0.110  1.00  0.00     0.200 C 
HETATM   10  N1  UNL     1       2.267   0.725   1.258  1.00  0.00    -0.373 N 
HETATM   11  N2  UNL     1       2.083  -1.186  -0.066  1.00  0.00    -0.063 NA
ATOM     12  H12 UNL     1       2.633   0.164   2.028  1.00  0.00     0.158 HD
ATOM     13  H11 UNL     1       2.155   1.731   1.384  1.00  0.00     0.158 HD
ATOM     14  H3  UNL     1       2.071   1.419  -1.614  1.00  0.00     0.187 HD
ENDBRANCH   1   8
BRANCH   7  15
HETATM   15  N8  UNL     1      -0.719  -0.105   0.822  1.00  0.00    -0.095 N 
HETATM   16  C3  UNL     1      -1.556  -1.056   1.019  1.00  0.00     0.728 A 
HETATM   17  N9  UNL     1      -1.888  -2.054   1.875  1.00  0.00    -0.115 N 
HETATM   18  N10 UNL     1      -2.620  -1.865   0.769  1.00  0.00    -0.115 N 
ATOM     19  H9  UNL     1      -1.710  -2.572   2.735  1.00  0.00     0.206 HD
ATOM     20  H10 UNL     1      -3.404  -2.133   0.174  1.00  0.00     0.206 HD
ATOM     21  H8  UNL     1       0.028   0.066   1.495  1.00  0.00     0.208 HD
ENDBRANCH   7  15
TORSDOF 2
