REMARK  1 active torsions:
REMARK  status: ('A' for Active; 'I' for Inactive)
REMARK    1  A    between atoms: C1_2  and  C2_5 
ROOT
HETATM    1  C2  UNL     1      -0.458   0.156   0.032  1.00  0.00     0.207 A 
HETATM    2  N1  UNL     1       0.249   1.297   0.106  1.00  0.00    -0.279 N 
ATOM      3  H1  UNL     1      -0.153   2.229   0.210  1.00  0.00     0.188 HD
HETATM    4  N2  UNL     1       1.554   1.031   0.024  1.00  0.00    -0.275 N 
ATOM      5  H2  UNL     1       2.311   1.714   0.053  1.00  0.00     0.189 HD
HETATM    6  C3  UNL     1       1.689  -0.296  -0.104  1.00  0.00     0.192 A 
HETATM    7  S1  UNL     1       3.120  -1.106  -0.241  1.00  0.00    -0.039 SA
HETATM    8  N3  UNL     1       0.466  -0.815  -0.098  1.00  0.00    -0.313 N 
ATOM      9  H3  UNL     1       0.256  -1.810  -0.180  1.00  0.00     0.170 HD
ENDROOT
BRANCH   1  10
HETATM   10  C1  UNL     1      -1.935   0.023   0.091  1.00  0.00     0.450 C 
HETATM   11  F1  UNL     1      -2.271  -1.313  -0.049  1.00  0.00    -0.163 F 
HETATM   12  F2  UNL     1      -2.530   0.694  -0.954  1.00  0.00    -0.163 F 
HETATM   13  F3  UNL     1      -2.435   0.450   1.322  1.00  0.00    -0.163 F 
ENDBRANCH   1  10
TORSDOF 1
