REMARK  2 active torsions:
REMARK  status: ('A' for Active; 'I' for Inactive)
REMARK    1  A    between atoms: C7_10  and  O1_11 
REMARK    2  A    between atoms: C7_10  and  C8_13 
ROOT
HETATM    1  N1  UNL     1       0.661  -2.015   0.993  1.00  0.00    -0.403 N 
ATOM      2  H11 UNL     1       1.293  -1.742   1.746  1.00  0.00     0.155 HD
ATOM      3  H12 UNL     1       0.202  -2.902   0.786  1.00  0.00     0.155 HD
HETATM    4  C1  UNL     1       0.435  -1.024   0.182  1.00  0.00     0.020 C 
HETATM    5  C2  UNL     1      -0.487  -1.423  -0.917  1.00  0.00     0.055 C 
HETATM    6  C3  UNL     1      -1.872  -1.049  -0.428  1.00  0.00     0.006 C 
HETATM    7  C4  UNL     1      -1.955   0.382   0.028  1.00  0.00     0.000 C 
HETATM    8  C5  UNL     1      -0.945   1.283  -0.583  1.00  0.00     0.004 C 
HETATM    9  C6  UNL     1       0.300   1.464   0.228  1.00  0.00     0.050 C 
HETATM   10  C7  UNL     1       1.094   0.250   0.479  1.00  0.00     0.154 C 
ENDROOT
BRANCH  10  11
HETATM   11  O1  UNL     1       1.428   0.222   1.853  1.00  0.00    -0.378 OA
ATOM     12  H1  UNL     1       1.855   1.048   2.046  1.00  0.00     0.211 HD
ENDBRANCH  10  11
BRANCH  10  13
HETATM   13  C8  UNL     1       2.428   0.245  -0.280  1.00  0.00     0.392 C 
HETATM   14  F1  UNL     1       2.205   0.122  -1.638  1.00  0.00    -0.211 F 
HETATM   15  F2  UNL     1       3.178  -0.838   0.126  1.00  0.00    -0.211 F 
ENDBRANCH  10  13
TORSDOF 2
