REMARK  8 active torsions:
REMARK  status: ('A' for Active; 'I' for Inactive)
REMARK    1  A    between atoms: C2_2  and  C3_3 
REMARK    2  A    between atoms: C3_3  and  C4_4 
REMARK    3  A    between atoms: C4_4  and  C5_5 
REMARK    4  A    between atoms: C5_5  and  C6_6 
REMARK    5  A    between atoms: C6_6  and  N1_7 
REMARK    6  A    between atoms: N1_7  and  C7_10 
REMARK    7  A    between atoms: C18_21  and  O1_22 
REMARK    8  A    between atoms: O1_22  and  C19_23 
ROOT
HETATM    1  C7  UNL     1       2.384  -0.070   0.922  1.00  0.00     0.186 C 
HETATM    2  C8  UNL     1       1.833   1.125   0.170  1.00  0.00     0.034 C 
HETATM    3  C9  UNL     1       0.605   0.801  -0.592  1.00  0.00     0.012 C 
HETATM    4  C10 UNL     1      -0.522   0.297   0.344  1.00  0.00    -0.036 C 
HETATM    5  C11 UNL     1      -0.712   1.532   1.249  1.00  0.00     0.016 C 
HETATM    6  C12 UNL     1       0.079  -0.766   1.175  1.00  0.00    -0.004 C 
HETATM    7  C13 UNL     1      -0.746  -2.010   1.354  1.00  0.00     0.006 C 
HETATM    8  C14 UNL     1      -2.230  -1.639   1.188  1.00  0.00     0.006 C 
HETATM    9  C15 UNL     1      -2.369  -1.353  -0.257  1.00  0.00    -0.002 C 
HETATM   10  C16 UNL     1      -1.681   0.001  -0.510  1.00  0.00     0.001 C 
HETATM   11  C17 UNL     1      -2.673   1.112  -0.654  1.00  0.00     0.040 C 
HETATM   12  C18 UNL     1      -3.979   0.951   0.078  1.00  0.00     0.158 C 
HETATM   13  C21 UNL     1      -4.652  -0.334  -0.098  1.00  0.00     0.075 C 
HETATM   14  C22 UNL     1      -5.198  -0.969   1.142  1.00  0.00     0.038 C 
HETATM   15  N2  UNL     1      -5.706  -0.389  -1.088  1.00  0.00    -0.135 NA
HETATM   16  N3  UNL     1      -5.870  -1.785  -1.225  1.00  0.00    -0.147 NA
HETATM   17  C23 UNL     1      -4.530  -2.383  -1.125  1.00  0.00     0.137 C 
HETATM   18  C24 UNL     1      -3.681  -1.236  -0.857  1.00  0.00     0.034 C 
HETATM   19  C25 UNL     1       1.460  -1.212   0.730  1.00  0.00     0.038 C 
ENDROOT
BRANCH   1  20
HETATM   20  N1  UNL     1       3.767  -0.331   0.490  1.00  0.00    -0.071 N 
ATOM     21  H12 UNL     1       4.221  -1.014   1.096  1.00  0.00     0.277 HD
ATOM     22  H11 UNL     1       4.369   0.472   0.672  1.00  0.00     0.277 HD
BRANCH  20  23
HETATM   23  C6  UNL     1       3.835  -0.725  -0.867  1.00  0.00     0.232 C 
BRANCH  23  24
HETATM   24  C5  UNL     1       5.154  -0.534  -1.503  1.00  0.00     0.027 C 
BRANCH  24  25
HETATM   25  C4  UNL     1       6.352  -1.180  -0.970  1.00  0.00     0.002 C 
BRANCH  25  26
HETATM   26  C3  UNL     1       6.843  -0.824   0.383  1.00  0.00    -0.000 C 
BRANCH  26  27
HETATM   27  C2  UNL     1       7.147   0.650   0.556  1.00  0.00    -0.005 C 
HETATM   28  C1  UNL     1       8.185   1.166  -0.397  1.00  0.00     0.005 C 
ENDBRANCH  26  27
ENDBRANCH  25  26
ENDBRANCH  24  25
ENDBRANCH  23  24
ENDBRANCH  20  23
ENDBRANCH   1  20
BRANCH  12  29
HETATM   29  O1  UNL     1      -4.826   1.984  -0.440  1.00  0.00    -0.314 OA
BRANCH  29  30
HETATM   30  C19 UNL     1      -5.348   2.994   0.357  1.00  0.00     0.255 C 
HETATM   31  C20 UNL     1      -6.211   4.026  -0.247  1.00  0.00     0.126 C 
HETATM   32  O2  UNL     1      -5.069   2.999   1.566  1.00  0.00    -0.266 OA
ENDBRANCH  29  30
ENDBRANCH  12  29
TORSDOF 8
