REMARK  14 active torsions:
REMARK  status: ('A' for Active; 'I' for Inactive)
REMARK    1  A    between atoms: C2_2  and  O2_4 
REMARK    2  A    between atoms: O2_4  and  C3_5 
REMARK    3  A    between atoms: N1_12  and  C10_13 
REMARK    4  A    between atoms: C10_13  and  C11_14 
REMARK    5  A    between atoms: C11_14  and  N2_15 
REMARK    6  A    between atoms: N2_15  and  C12_16 
REMARK       I    between atoms: N2_15  and  C22_32 
REMARK    7  A    between atoms: C12_16  and  C13_17 
REMARK    8  A    between atoms: C13_17  and  C14_18 
REMARK    9  A    between atoms: C14_18  and  N3_19 
REMARK       I    between atoms: N3_19  and  C15_21 
REMARK       I    between atoms: C15_21  and  N4_23 
REMARK   10  A    between atoms: N4_23  and  C16_25 
REMARK   11  A    between atoms: C22_32  and  C23_34 
REMARK   12  A    between atoms: C23_34  and  O5_35 
REMARK   13  A    between atoms: O5_35  and  C24_36 
REMARK   14  A    between atoms: C24_36  and  C25_38 
ROOT
HETATM    1  C16 UNL     1      -6.787  -2.025   0.554  1.00  0.00     0.123 C 
HETATM    2  C17 UNL     1      -6.465  -3.472   0.533  1.00  0.00     0.091 C 
HETATM    3  N5  UNL     1      -6.197  -4.599   0.503  1.00  0.00    -0.195 NA
HETATM    4  C18 UNL     1      -8.293  -1.854   0.556  1.00  0.00     0.046 C 
HETATM    5  C19 UNL     1      -8.511  -0.618   1.406  1.00  0.00     0.004 C 
HETATM    6  C20 UNL     1      -7.357  -0.564   2.359  1.00  0.00     0.004 C 
HETATM    7  C21 UNL     1      -6.246  -1.369   1.783  1.00  0.00     0.046 C 
ENDROOT
BRANCH   1   8
HETATM    8  N4  UNL     1      -6.198  -1.418  -0.620  1.00  0.00    -0.321 N 
HETATM    9  C15 UNL     1      -4.814  -1.431  -0.889  1.00  0.00     0.317 C 
HETATM   10  N3  UNL     1      -4.241  -0.838  -2.038  1.00  0.00    -0.343 N 
HETATM   11  O3  UNL     1      -4.071  -2.000  -0.057  1.00  0.00    -0.247 OA
ATOM     12  H3  UNL     1      -4.881  -0.391  -2.694  1.00  0.00     0.164 HD
ATOM     13  H4  UNL     1      -6.816  -0.957  -1.288  1.00  0.00     0.166 HD
BRANCH  10  14
HETATM   14  C14 UNL     1      -2.845  -0.805  -2.370  1.00  0.00     0.126 C 
BRANCH  14  15
HETATM   15  C13 UNL     1      -2.040  -0.080  -1.342  1.00  0.00     0.039 C 
BRANCH  15  16
HETATM   16  C12 UNL     1      -0.582  -0.081  -1.781  1.00  0.00     0.128 C 
BRANCH  16  17
HETATM   17  N2  UNL     1       0.262   0.620  -0.817  1.00  0.00    -0.346 N 
HETATM   18  C22 UNL     1       0.470   2.010  -0.963  1.00  0.00     0.244 C 
HETATM   19  O4  UNL     1      -0.059   2.625  -1.934  1.00  0.00    -0.271 OA
BRANCH  17  20
HETATM   20  C11 UNL     1       0.895  -0.057   0.282  1.00  0.00     0.170 C 
BRANCH  20  21
HETATM   21  C10 UNL     1       2.241  -0.619  -0.045  1.00  0.00     0.079 C 
BRANCH  21  22
HETATM   22  N1  UNL     1       2.928  -1.275   0.942  1.00  0.00    -0.382 N 
HETATM   23  C5  UNL     1       2.510  -2.517   1.461  1.00  0.00     0.086 C 
HETATM   24  C4  UNL     1       2.804  -3.547   0.374  1.00  0.00     0.057 C 
HETATM   25  C6  UNL     1       3.432  -2.731   2.656  1.00  0.00     0.027 C 
HETATM   26  C3  UNL     1       4.147  -3.461  -0.219  1.00  0.00     0.135 C 
HETATM   27  C9  UNL     1       4.831  -2.134  -0.154  1.00  0.00     0.057 C 
HETATM   28  C8  UNL     1       4.324  -1.278   1.017  1.00  0.00     0.086 C 
HETATM   29  C7  UNL     1       4.725  -2.050   2.271  1.00  0.00     0.027 C 
BRANCH  26  30
HETATM   30  O2  UNL     1       4.970  -4.477   0.328  1.00  0.00    -0.316 OA
BRANCH  30  31
HETATM   31  C2  UNL     1       5.517  -5.503  -0.404  1.00  0.00     0.255 C 
HETATM   32  C1  UNL     1       6.358  -6.504   0.272  1.00  0.00     0.126 C 
HETATM   33  O1  UNL     1       5.261  -5.527  -1.640  1.00  0.00    -0.266 OA
ENDBRANCH  30  31
ENDBRANCH  26  30
ENDBRANCH  21  22
ENDBRANCH  20  21
ENDBRANCH  17  20
BRANCH  18  34
HETATM   34  C23 UNL     1       1.295   2.751   0.007  1.00  0.00     0.281 C 
BRANCH  34  35
HETATM   35  O5  UNL     1       1.445   4.110  -0.282  1.00  0.00    -0.312 OA
BRANCH  35  36
HETATM   36  C24 UNL     1       2.049   4.583  -1.422  1.00  0.00     0.263 C 
HETATM   37  O6  UNL     1       2.503   3.801  -2.265  1.00  0.00    -0.265 OA
BRANCH  36  38
HETATM   38  C25 UNL     1       2.121   6.075  -1.580  1.00  0.00     0.085 C 
HETATM   39  C26 UNL     1       2.908   6.660  -0.434  1.00  0.00     0.014 C 
HETATM   40  C27 UNL     1       2.172   7.962  -0.158  1.00  0.00     0.001 C 
HETATM   41  C28 UNL     1       0.723   7.509  -0.214  1.00  0.00     0.001 C 
HETATM   42  C29 UNL     1       0.721   6.677  -1.475  1.00  0.00     0.014 C 
ENDBRANCH  36  38
ENDBRANCH  35  36
ENDBRANCH  34  35
ENDBRANCH  18  34
ENDBRANCH  16  17
ENDBRANCH  15  16
ENDBRANCH  14  15
ENDBRANCH  10  14
ENDBRANCH   1   8
TORSDOF 14
