REMARK  13 active torsions:
REMARK  status: ('A' for Active; 'I' for Inactive)
REMARK       I    between atoms: C2_2  and  N1_4 
REMARK    1  A    between atoms: N2_7  and  C5_8 
REMARK    2  A    between atoms: C5_8  and  C6_9 
REMARK    3  A    between atoms: C6_9  and  C7_10 
REMARK    4  A    between atoms: C7_10  and  C8_11 
REMARK    5  A    between atoms: C8_11  and  C9_12 
REMARK    6  A    between atoms: C9_12  and  N3_13 
REMARK    7  A    between atoms: N3_13  and  C10_15 
REMARK    8  A    between atoms: C12_17  and  N4_18 
REMARK    9  A    between atoms: C13_19  and  C14_20 
REMARK   10  A    between atoms: C14_20  and  C15_21 
REMARK   11  A    between atoms: C15_21  and  C16_22 
REMARK   12  A    between atoms: C16_22  and  N5_23 
REMARK   13  A    between atoms: C23_35  and  N8_36 
ROOT
HETATM    1  C10 UNL     1      -0.067  -1.977  -0.056  1.00  0.00     0.120 A 
HETATM    2  C11 UNL     1      -0.756  -1.146   0.791  1.00  0.00     0.098 A 
HETATM    3  C12 UNL     1      -2.088  -1.338   1.106  1.00  0.00     0.135 A 
HETATM    4  N7  UNL     1      -2.700  -2.389   0.543  1.00  0.00    -0.176 N 
ATOM      5  H7  UNL     1      -3.683  -2.552   0.762  1.00  0.00     0.186 HD
HETATM    6  C23 UNL     1      -2.085  -3.235  -0.292  1.00  0.00     0.683 A 
HETATM    7  N9  UNL     1      -0.798  -3.025  -0.578  1.00  0.00    -0.177 N 
ATOM      8  H9  UNL     1      -0.331  -3.671  -1.214  1.00  0.00     0.185 HD
ENDROOT
BRANCH   1   9
HETATM    9  N3  UNL     1       1.154  -1.863  -0.406  1.00  0.00    -0.376 N 
ATOM     10  H3  UNL     1       1.519  -2.569  -1.045  1.00  0.00     0.161 HD
BRANCH   9  11
HETATM   11  C9  UNL     1       2.050  -0.849   0.008  1.00  0.00     0.121 C 
BRANCH  11  12
HETATM   12  C8  UNL     1       2.946  -1.400   1.090  1.00  0.00     0.020 C 
BRANCH  12  13
HETATM   13  C7  UNL     1       4.003  -0.396   1.544  1.00  0.00     0.003 C 
BRANCH  13  14
HETATM   14  C6  UNL     1       4.895  -0.012   0.413  1.00  0.00     0.020 C 
BRANCH  14  15
HETATM   15  C5  UNL     1       5.945   0.982   0.932  1.00  0.00     0.127 C 
BRANCH  15  16
HETATM   16  N2  UNL     1       6.809   1.349  -0.121  1.00  0.00    -0.371 N 
HETATM   17  C4  UNL     1       7.662   0.371  -0.620  1.00  0.00     0.083 C 
HETATM   18  C3  UNL     1       8.854   0.914  -1.385  1.00  0.00     0.170 C 
HETATM   19  N1  UNL     1       9.361   2.122  -0.751  1.00  0.00    -0.343 N 
HETATM   20  C2  UNL     1      10.742   2.392  -0.920  1.00  0.00     0.216 C 
HETATM   21  C30 UNL     1       8.540   3.009   0.005  1.00  0.00     0.170 C 
HETATM   22  C1  UNL     1      11.322   3.602  -0.293  1.00  0.00     0.117 C 
HETATM   23  O1  UNL     1      11.484   1.603  -1.605  1.00  0.00    -0.274 OA
HETATM   24  C29 UNL     1       7.073   2.711  -0.230  1.00  0.00     0.083 C 
ENDBRANCH  15  16
ENDBRANCH  14  15
ENDBRANCH  13  14
ENDBRANCH  12  13
ENDBRANCH  11  12
ENDBRANCH   9  11
ENDBRANCH   1   9
BRANCH   3  25
HETATM   25  N4  UNL     1      -2.795  -0.446   1.989  1.00  0.00    -0.251 N 
HETATM   26  C13 UNL     1      -3.942   0.221   1.677  1.00  0.00     0.038 A 
HETATM   27  C21 UNL     1      -4.359   0.986   2.738  1.00  0.00     0.118 A 
HETATM   28  N6  UNL     1      -3.423   0.762   3.713  1.00  0.00    -0.316 N 
HETATM   29  C22 UNL     1      -2.503  -0.094   3.241  1.00  0.00     0.332 A 
ATOM     30  H6  UNL     1      -3.425   1.177   4.645  1.00  0.00     0.170 HD
HETATM   31  O2  UNL     1      -1.509  -0.500   3.903  1.00  0.00    -0.246 OA
BRANCH  26  32
HETATM   32  C14 UNL     1      -4.598   0.063   0.374  1.00  0.00     0.061 C 
BRANCH  32  33
HETATM   33  C15 UNL     1      -5.752   0.938   0.087  1.00  0.00     0.036 C 
BRANCH  33  34
HETATM   34  C16 UNL     1      -5.466   2.410   0.028  1.00  0.00     0.272 C 
BRANCH  34  35
HETATM   35  N5  UNL     1      -6.697   3.152  -0.245  1.00  0.00     0.088 N 
HETATM   36  C17 UNL     1      -6.465   4.580  -0.330  1.00  0.00     0.272 C 
HETATM   37  C18 UNL     1      -7.486   5.137  -1.261  1.00  0.00     0.032 C 
HETATM   38  C19 UNL     1      -8.031   3.973  -2.012  1.00  0.00     0.032 C 
HETATM   39  C20 UNL     1      -7.262   2.786  -1.534  1.00  0.00     0.272 C 
ENDBRANCH  34  35
ENDBRANCH  33  34
ENDBRANCH  32  33
ENDBRANCH  26  32
ENDBRANCH   3  25
BRANCH   6  40
HETATM   40  N8  UNL     1      -2.805  -4.329  -0.857  1.00  0.00    -0.217 N 
HETATM   41  C24 UNL     1      -3.630  -4.096  -1.995  1.00  0.00     0.141 C 
HETATM   42  C25 UNL     1      -4.519  -5.282  -2.265  1.00  0.00     0.020 C 
HETATM   43  C26 UNL     1      -5.079  -5.799  -0.960  1.00  0.00     0.003 C 
HETATM   44  C27 UNL     1      -3.950  -6.371  -0.167  1.00  0.00     0.020 C 
HETATM   45  C28 UNL     1      -2.656  -5.624  -0.276  1.00  0.00     0.141 C 
ENDBRANCH   6  40
TORSDOF 13
