REMARK  4 active torsions:
REMARK  status: ('A' for Active; 'I' for Inactive)
REMARK    1  A    between atoms: C1_2  and  C2_3 
REMARK       I    between atoms: C1_2  and  N3_19 
REMARK    2  A    between atoms: C2_3  and  S1_4 
REMARK    3  A    between atoms: S1_4  and  C3_5 
REMARK    4  A    between atoms: N3_19  and  C14_21 
ROOT
HETATM    1  C3  UNL     1      -2.016  -1.286  -0.229  1.00  0.00     0.030 A 
HETATM    2  C4  UNL     1      -3.158  -1.678   0.522  1.00  0.00     0.030 A 
HETATM    3  C5  UNL     1      -4.193  -0.838   0.639  1.00  0.00    -0.032 A 
HETATM    4  C6  UNL     1      -4.135   0.389   0.030  1.00  0.00     0.041 A 
HETATM    5  N1  UNL     1      -3.056   0.788  -0.695  1.00  0.00    -0.259 N 
HETATM    6  N2  UNL     1      -2.816   1.913  -1.363  1.00  0.00    -0.305 N 
ATOM      7  H2  UNL     1      -3.459   2.703  -1.419  1.00  0.00     0.186 HD
HETATM    8  C7  UNL     1      -1.633   1.866  -1.942  1.00  0.00     0.110 A 
HETATM    9  C8  UNL     1      -1.086   0.620  -1.615  1.00  0.00     0.051 A 
HETATM   10  C9  UNL     1      -1.999  -0.045  -0.826  1.00  0.00     0.074 A 
HETATM   11  C10 UNL     1      -5.284   1.304   0.172  1.00  0.00     0.060 C 
HETATM   12  C11 UNL     1      -6.618   0.631   0.141  1.00  0.00     0.006 C 
HETATM   13  C12 UNL     1      -6.566  -0.837   0.435  1.00  0.00     0.005 C 
HETATM   14  C13 UNL     1      -5.448  -1.172   1.416  1.00  0.00     0.040 C 
ENDROOT
BRANCH   1  15
HETATM   15  S1  UNL     1      -0.732  -2.439  -0.346  1.00  0.00    -0.118 SA
BRANCH  15  16
HETATM   16  C2  UNL     1       0.851  -2.055  -0.946  1.00  0.00     0.182 C 
BRANCH  16  17
HETATM   17  C1  UNL     1       1.661  -1.153  -0.057  1.00  0.00     0.227 C 
HETATM   18  O1  UNL     1       1.132  -0.774   1.003  1.00  0.00    -0.273 OA
HETATM   19  N3  UNL     1       2.964  -0.738  -0.380  1.00  0.00    -0.353 N 
ATOM     20  H3  UNL     1       3.367  -1.068  -1.257  1.00  0.00     0.163 HD
BRANCH  19  21
HETATM   21  C14 UNL     1       3.763   0.119   0.444  1.00  0.00     0.118 C 
HETATM   22  C15 UNL     1       4.150   1.353  -0.319  1.00  0.00     0.028 C 
HETATM   23  C16 UNL     1       5.444   1.948   0.149  1.00  0.00     0.002 C 
HETATM   24  C17 UNL     1       6.616   1.041  -0.175  1.00  0.00     0.003 C 
HETATM   25  C18 UNL     1       6.135  -0.400  -0.151  1.00  0.00     0.039 C 
HETATM   26  C19 UNL     1       5.032  -0.591   0.865  1.00  0.00     0.192 C 
HETATM   27  F1  UNL     1       4.774  -1.942   0.968  1.00  0.00    -0.247 F 
ENDBRANCH  19  21
ENDBRANCH  16  17
ENDBRANCH  15  16
ENDBRANCH   1  15
TORSDOF 4
