REMARK  13 active torsions:
REMARK  status: ('A' for Active; 'I' for Inactive)
REMARK    1  A    between atoms: O1_2  and  C2_3 
REMARK    2  A    between atoms: C2_3  and  C3_4 
REMARK    3  A    between atoms: C2_3  and  O4_21 
REMARK    4  A    between atoms: C3_4  and  C4_5 
REMARK    5  A    between atoms: C4_5  and  N1_6 
REMARK    6  A    between atoms: N1_6  and  C5_9 
REMARK    7  A    between atoms: C5_9  and  C6_10 
REMARK    8  A    between atoms: C6_10  and  O2_11 
REMARK    9  A    between atoms: C6_10  and  C7_13 
REMARK   10  A    between atoms: C7_13  and  O3_14 
REMARK   11  A    between atoms: O3_14  and  C8_15 
REMARK   12  A    between atoms: O4_21  and  C14_22 
REMARK   13  A    between atoms: C14_22  and  C15_23 
REMARK       I    between atoms: C15_23  and  N2_25 
ROOT
HETATM    1  N1  UNL     1       0.759  -0.327   1.558  1.00  0.00    -0.072 N 
ATOM      2  H11 UNL     1       0.571  -0.657   0.611  1.00  0.00     0.277 HD
ATOM      3  H12 UNL     1       1.382  -1.071   1.872  1.00  0.00     0.277 HD
ENDROOT
BRANCH   1   4
HETATM    4  C4  UNL     1      -0.452  -0.300   2.347  1.00  0.00     0.237 C 
BRANCH   4   5
HETATM    5  C3  UNL     1      -1.502   0.543   1.715  1.00  0.00     0.088 C 
BRANCH   5   6
HETATM    6  C2  UNL     1      -1.898   0.021   0.380  1.00  0.00     0.261 C 
BRANCH   6   7
HETATM    7  O1  UNL     1      -0.882  -0.052  -0.544  1.00  0.00    -0.366 OA
HETATM    8  C1  UNL     1      -0.786  -1.305  -1.153  1.00  0.00     0.204 C 
ENDBRANCH   6   7
BRANCH   6   9
HETATM    9  O4  UNL     1      -2.918   0.875  -0.100  1.00  0.00    -0.352 OA
BRANCH   9  10
HETATM   10  C14 UNL     1      -4.112   0.225  -0.273  1.00  0.00     0.273 C 
BRANCH  10  11
HETATM   11  C15 UNL     1      -5.133   1.166  -0.774  1.00  0.00     0.242 C 
HETATM   12  O5  UNL     1      -4.812   2.363  -0.974  1.00  0.00    -0.271 OA
HETATM   13  N2  UNL     1      -6.435   0.710  -1.017  1.00  0.00    -0.359 N 
HETATM   14  C16 UNL     1      -7.434   1.620  -1.505  1.00  0.00     0.152 C 
HETATM   15  C17 UNL     1      -6.778  -0.662  -0.782  1.00  0.00     0.152 C 
ENDBRANCH  10  11
ENDBRANCH   9  10
ENDBRANCH   6   9
ENDBRANCH   5   6
ENDBRANCH   4   5
ENDBRANCH   1   4
BRANCH   1  16
HETATM   16  C5  UNL     1       1.436   0.933   1.536  1.00  0.00     0.265 C 
BRANCH  16  17
HETATM   17  C6  UNL     1       2.726   0.881   0.720  1.00  0.00     0.168 C 
BRANCH  17  18
HETATM   18  O2  UNL     1       2.452   0.534  -0.566  1.00  0.00    -0.392 OA
ATOM     19  H2  UNL     1       3.254   0.502  -1.074  1.00  0.00     0.210 HD
ENDBRANCH  17  18
BRANCH  17  20
HETATM   20  C7  UNL     1       3.784   0.090   1.413  1.00  0.00     0.209 C 
BRANCH  20  21
HETATM   21  O3  UNL     1       5.003   0.108   0.874  1.00  0.00    -0.349 OA
BRANCH  21  22
HETATM   22  C8  UNL     1       5.633  -0.333  -0.219  1.00  0.00     0.068 A 
HETATM   23  C9  UNL     1       5.075  -1.097  -1.221  1.00  0.00     0.037 A 
HETATM   24  C10 UNL     1       5.835  -1.490  -2.325  1.00  0.00     0.003 A 
HETATM   25  C11 UNL     1       7.151  -1.105  -2.397  1.00  0.00     0.000 A 
HETATM   26  C12 UNL     1       7.712  -0.343  -1.397  1.00  0.00     0.003 A 
HETATM   27  C13 UNL     1       6.995   0.051  -0.319  1.00  0.00     0.037 A 
ENDBRANCH  21  22
ENDBRANCH  20  21
ENDBRANCH  17  20
ENDBRANCH  16  17
ENDBRANCH   1  16
TORSDOF 13
