REMARK  15 active torsions:
REMARK  status: ('A' for Active; 'I' for Inactive)
REMARK    1  A    between atoms: N1_2  and  C3_4 
REMARK    2  A    between atoms: C3_4  and  C4_5 
REMARK    3  A    between atoms: C4_5  and  N2_6 
REMARK    4  A    between atoms: N2_6  and  C5_7 
REMARK    5  A    between atoms: N2_6  and  C14_21 
REMARK    6  A    between atoms: C5_7  and  C6_8 
REMARK    7  A    between atoms: C6_8  and  N3_9 
REMARK    8  A    between atoms: N3_9  and  C7_10 
REMARK    9  A    between atoms: N3_9  and  C9_14 
REMARK   10  A    between atoms: C7_10  and  C8_11 
REMARK   11  A    between atoms: C8_11  and  O1_12 
REMARK   12  A    between atoms: C9_14  and  C10_15 
REMARK   13  A    between atoms: C10_15  and  N4_16 
REMARK   14  A    between atoms: N4_16  and  C11_18 
REMARK   15  A    between atoms: C14_21  and  C15_22 
ROOT
HETATM    1  C5  UNL     1      -0.731  -0.329   0.609  1.00  0.00     0.303 C 
ENDROOT
BRANCH   1   2
HETATM    2  N2  UNL     1      -1.705  -0.203  -0.477  1.00  0.00     0.097 N 
BRANCH   2   3
HETATM    3  C4  UNL     1      -1.164  -0.860  -1.673  1.00  0.00     0.292 C 
BRANCH   3   4
HETATM    4  C3  UNL     1      -2.147  -0.986  -2.773  1.00  0.00     0.146 C 
BRANCH   4   5
HETATM    5  N1  UNL     1      -3.297  -1.769  -2.538  1.00  0.00    -0.419 N 
HETATM    6  C1  UNL     1      -3.115  -3.171  -2.402  1.00  0.00     0.142 C 
HETATM    7  C2  UNL     1      -4.407  -1.213  -1.876  1.00  0.00     0.142 C 
ENDBRANCH   4   5
ENDBRANCH   3   4
ENDBRANCH   2   3
BRANCH   2   8
HETATM    8  C14 UNL     1      -1.947   1.202  -0.769  1.00  0.00     0.337 C 
BRANCH   8   9
HETATM    9  C15 UNL     1      -2.449   1.899   0.436  1.00  0.00     0.080 A 
HETATM   10  C16 UNL     1      -3.267   1.494   1.461  1.00  0.00     0.036 A 
HETATM   11  C17 UNL     1      -3.433   2.544   2.355  1.00  0.00     0.027 A 
HETATM   12  C18 UNL     1      -2.684   3.570   1.815  1.00  0.00     0.142 A 
HETATM   13  O2  UNL     1      -2.140   3.156   0.717  1.00  0.00    -0.325 OA
ENDBRANCH   8   9
ENDBRANCH   2   8
ENDBRANCH   1   2
BRANCH   1  14
HETATM   14  C6  UNL     1       0.499   0.489   0.446  1.00  0.00     0.302 C 
BRANCH  14  15
HETATM   15  N3  UNL     1       1.456   0.261   1.521  1.00  0.00     0.093 N 
BRANCH  15  16
HETATM   16  C7  UNL     1       0.892   0.772   2.752  1.00  0.00     0.298 C 
BRANCH  16  17
HETATM   17  C8  UNL     1       1.778   0.655   3.956  1.00  0.00     0.194 C 
BRANCH  17  18
HETATM   18  O1  UNL     1       1.053   1.193   5.052  1.00  0.00    -0.399 OA
ATOM     19  H1  UNL     1       1.614   1.119   5.815  1.00  0.00     0.209 HD
ENDBRANCH  17  18
ENDBRANCH  16  17
ENDBRANCH  15  16
BRANCH  15  20
HETATM   20  C9  UNL     1       2.728   0.866   1.288  1.00  0.00     0.291 C 
BRANCH  20  21
HETATM   21  C10 UNL     1       3.507   0.345   0.130  1.00  0.00     0.144 C 
BRANCH  21  22
HETATM   22  N4  UNL     1       3.783  -1.044   0.113  1.00  0.00    -0.415 N 
ATOM     23  H4  UNL     1       3.399  -1.685   0.807  1.00  0.00     0.153 HD
BRANCH  22  24
HETATM   24  C11 UNL     1       4.635  -1.482  -0.941  1.00  0.00     0.076 A 
HETATM   25  C12 UNL     1       4.075  -1.190  -2.357  1.00  0.00     0.027 A 
HETATM   26  C13 UNL     1       5.417  -0.657  -1.827  1.00  0.00     0.027 A 
ENDBRANCH  22  24
ENDBRANCH  21  22
ENDBRANCH  20  21
ENDBRANCH  15  20
ENDBRANCH  14  15
ENDBRANCH   1  14
TORSDOF 15
