REMARK  6 active torsions:
REMARK  status: ('A' for Active; 'I' for Inactive)
REMARK       I    between atoms: C1_4  and  N3_6 
REMARK    1  A    between atoms: N3_6  and  C2_7 
REMARK    2  A    between atoms: N3_6  and  C6_21 
REMARK    3  A    between atoms: C2_7  and  C3_8 
REMARK       I    between atoms: C3_8  and  N4_10 
REMARK    4  A    between atoms: N4_10  and  C4_12 
REMARK    5  A    between atoms: C4_12  and  C5_13 
REMARK    6  A    between atoms: C8_27  and  N11_28 
ROOT
HETATM    1  N1  UNL     1      -0.364  -1.531   1.393  1.00  0.00    -0.373 N 
ATOM      2  H11 UNL     1       0.124  -0.687   1.693  1.00  0.00     0.158 HD
ATOM      3  H12 UNL     1      -0.267  -2.297   2.060  1.00  0.00     0.158 HD
HETATM    4  C1  UNL     1      -0.952  -1.449   0.302  1.00  0.00     0.190 C 
HETATM    5  N2  UNL     1      -1.653  -2.662  -0.129  1.00  0.00    -0.063 NA
HETATM    6  N3  UNL     1      -1.087  -0.385  -0.624  1.00  0.00    -0.297 N 
ENDROOT
BRANCH   6   7
HETATM    7  C2  UNL     1      -0.090  -0.147  -1.593  1.00  0.00     0.236 C 
BRANCH   7   8
HETATM    8  C3  UNL     1       1.166   0.478  -1.212  1.00  0.00     0.236 C 
HETATM    9  O1  UNL     1       2.024   0.557  -2.185  1.00  0.00    -0.272 OA
HETATM   10  N4  UNL     1       1.591   1.002   0.001  1.00  0.00    -0.353 N 
ATOM     11  H4  UNL     1       0.967   0.985   0.808  1.00  0.00     0.162 HD
BRANCH  10  12
HETATM   12  C4  UNL     1       2.913   1.572   0.126  1.00  0.00     0.201 C 
BRANCH  12  13
HETATM   13  C5  UNL     1       3.949   0.543   0.241  1.00  0.00     0.128 A 
HETATM   14  N5  UNL     1       4.986   0.341  -0.577  1.00  0.00    -0.269 N 
HETATM   15  N6  UNL     1       5.692  -0.698  -0.124  1.00  0.00    -0.005 NA
ATOM     16  H5  UNL     1       5.202   0.889  -1.409  1.00  0.00     0.185 HD
HETATM   17  N7  UNL     1       5.104  -1.151   0.974  1.00  0.00    -0.225 N 
HETATM   18  N8  UNL     1       4.049  -0.396   1.191  1.00  0.00    -0.274 N 
ATOM     19  H7  UNL     1       5.412  -1.938   1.544  1.00  0.00     0.205 HD
ATOM     20  H8  UNL     1       3.401  -0.509   1.970  1.00  0.00     0.189 HD
ENDBRANCH  12  13
ENDBRANCH  10  12
ENDBRANCH   7   8
ENDBRANCH   6   7
BRANCH   6  21
HETATM   21  C6  UNL     1      -2.273   0.403  -0.499  1.00  0.00     0.143 A 
HETATM   22  C7  UNL     1      -2.508   1.496  -1.265  1.00  0.00     0.157 A 
HETATM   23  N9  UNL     1      -3.635   2.233  -1.140  1.00  0.00    -0.294 N 
HETATM   24  N10 UNL     1      -4.519   1.865  -0.245  1.00  0.00    -0.133 N 
ATOM     25  H9  UNL     1      -3.793   3.053  -1.726  1.00  0.00     0.186 HD
HETATM   26  C8  UNL     1      -4.354   0.798   0.545  1.00  0.00     0.692 A 
ATOM     27  H10 UNL     1      -5.371   2.417  -0.146  1.00  0.00     0.205 HD
HETATM   28  N12 UNL     1      -3.234   0.078   0.412  1.00  0.00    -0.174 N 
ATOM     29  H12 UNL     1      -3.095  -0.737   1.009  1.00  0.00     0.186 HD
BRANCH  26  30
HETATM   30  N11 UNL     1      -5.278   0.500   1.409  1.00  0.00    -0.233 N 
ATOM     31 2H11 UNL     1      -6.132   1.049   1.510  1.00  0.00     0.174 HD
ATOM     32 1H11 UNL     1      -5.152  -0.314   2.011  1.00  0.00     0.174 HD
ENDBRANCH  26  30
ENDBRANCH   6  21
TORSDOF 6
