REMARK  9 active torsions:
REMARK  status: ('A' for Active; 'I' for Inactive)
REMARK    1  A    between atoms: C2_2  and  C3_3 
REMARK    2  A    between atoms: C3_3  and  O1_4 
REMARK    3  A    between atoms: O1_4  and  C4_5 
REMARK    4  A    between atoms: C6_7  and  O2_8 
REMARK    5  A    between atoms: C8_10  and  O3_11 
REMARK    6  A    between atoms: O3_11  and  C9_12 
REMARK    7  A    between atoms: C16_19  and  C17_20 
REMARK    8  A    between atoms: C20_26  and  N2_27 
REMARK    9  A    between atoms: C21_32  and  N4_33 
ROOT
HETATM    1  C4  UNL     1      -1.563   0.816  -0.139  1.00  0.00     0.082 A 
HETATM    2  C5  UNL     1      -0.625   1.745   0.244  1.00  0.00     0.077 A 
HETATM    3  C6  UNL     1       0.739   1.414   0.316  1.00  0.00     0.104 A 
HETATM    4  C8  UNL     1       1.176   0.160   0.007  1.00  0.00     0.103 A 
HETATM    5  C15 UNL     1       0.199  -0.779  -0.384  1.00  0.00     0.055 A 
HETATM    6  C16 UNL     1      -1.131  -0.488  -0.463  1.00  0.00     0.015 A 
ENDROOT
BRANCH   6   7
HETATM    7  C17 UNL     1      -2.144  -1.464  -0.876  1.00  0.00     0.036 C 
HETATM    8  C18 UNL     1      -3.059  -1.072  -1.831  1.00  0.00     0.107 C 
HETATM    9  N1  UNL     1      -4.204  -1.683  -2.197  1.00  0.00    -0.330 N 
HETATM   10  C19 UNL     1      -4.578  -2.977  -1.976  1.00  0.00     0.289 C 
ATOM     11  H1  UNL     1      -4.875  -1.105  -2.703  1.00  0.00     0.168 HD
HETATM   12  O4  UNL     1      -5.678  -3.338  -2.482  1.00  0.00    -0.264 OA
HETATM   13  C20 UNL     1      -3.935  -3.977  -1.275  1.00  0.00     0.170 C 
HETATM   14  N3  UNL     1      -2.748  -3.864  -0.641  1.00  0.00    -0.324 N 
HETATM   15  C21 UNL     1      -2.105  -2.730  -0.273  1.00  0.00     0.113 C 
ATOM     16  H3  UNL     1      -2.278  -4.740  -0.411  1.00  0.00     0.169 HD
BRANCH  13  17
HETATM   17  N2  UNL     1      -4.506  -5.131  -1.207  1.00  0.00    -0.381 N 
ATOM     18  H22 UNL     1      -5.403  -5.216  -1.686  1.00  0.00     0.157 HD
ATOM     19  H21 UNL     1      -4.031  -5.870  -0.689  1.00  0.00     0.157 HD
ENDBRANCH  13  17
BRANCH  15  20
HETATM   20  N4  UNL     1      -1.358  -2.817   0.771  1.00  0.00    -0.385 N 
ATOM     21  H42 UNL     1      -0.874  -1.963   1.048  1.00  0.00     0.157 HD
ATOM     22  H41 UNL     1      -1.330  -3.738   1.209  1.00  0.00     0.157 HD
ENDBRANCH  15  20
ENDBRANCH   6   7
BRANCH   1  23
HETATM   23  O1  UNL     1      -2.892   1.088  -0.226  1.00  0.00    -0.350 OA
BRANCH  23  24
HETATM   24  C3  UNL     1      -3.525   2.265   0.067  1.00  0.00     0.175 C 
BRANCH  24  25
HETATM   25  C2  UNL     1      -3.507   2.737   1.483  1.00  0.00     0.022 C 
HETATM   26  C1  UNL     1      -4.273   4.070   1.503  1.00  0.00     0.007 C 
ENDBRANCH  24  25
ENDBRANCH  23  24
ENDBRANCH   1  23
BRANCH   4  27
HETATM   27  O3  UNL     1       2.448  -0.212   0.056  1.00  0.00    -0.343 OA
BRANCH  27  28
HETATM   28  C9  UNL     1       3.670   0.276   0.355  1.00  0.00     0.129 C 
HETATM   29  C10 UNL     1       4.296  -0.607   1.430  1.00  0.00     0.032 C 
HETATM   30  C11 UNL     1       5.762  -0.842   1.228  1.00  0.00     0.002 C 
HETATM   31  C12 UNL     1       6.075  -1.526  -0.086  1.00  0.00     0.000 C 
HETATM   32  C13 UNL     1       5.025  -1.220  -1.132  1.00  0.00     0.002 C 
HETATM   33  C14 UNL     1       4.514   0.181  -0.934  1.00  0.00     0.032 C 
ENDBRANCH  27  28
ENDBRANCH   4  27
BRANCH   3  34
HETATM   34  O2  UNL     1       1.665   2.358   0.703  1.00  0.00    -0.353 OA
HETATM   35  C7  UNL     1       1.232   3.667   1.027  1.00  0.00     0.210 C 
ENDBRANCH   3  34
TORSDOF 9
