REMARK  1 active torsions:
REMARK  status: ('A' for Active; 'I' for Inactive)
REMARK    1  A    between atoms: C1_2  and  C2_3 
ROOT
HETATM    1  C2  UNL     1      -0.981  -0.123  -0.308  1.00  0.00     0.000 C 
HETATM    2  C3  UNL     1      -0.757   0.451   1.058  1.00  0.00     0.010 C 
HETATM    3  C4  UNL     1       0.673   0.129   1.396  1.00  0.00    -0.014 C 
HETATM    4  C5  UNL     1       1.669   0.992   0.686  1.00  0.00     0.005 C 
HETATM    5  C6  UNL     1       1.445   1.069  -0.794  1.00  0.00     0.001 C 
HETATM    6  C7  UNL     1       1.181  -0.271  -1.414  1.00  0.00     0.005 C 
HETATM    7  C8  UNL     1       0.183  -1.043  -0.575  1.00  0.00    -0.009 C 
HETATM    8  C9  UNL     1       0.806  -1.280   0.803  1.00  0.00     0.009 C 
ENDROOT
BRANCH   1   9
HETATM    9  C1  UNL     1      -2.316  -0.828  -0.438  1.00  0.00     0.091 C 
HETATM   10  S1  UNL     1      -3.626   0.362  -0.104  1.00  0.00    -0.097 SA
ENDBRANCH   1   9
TORSDOF 1
