REMARK  4 active torsions:
REMARK  status: ('A' for Active; 'I' for Inactive)
REMARK    1  A    between atoms: C2_2  and  O1_3 
REMARK    2  A    between atoms: C2_2  and  C3_5 
REMARK    3  A    between atoms: C4_6  and  N1_7 
REMARK    4  A    between atoms: C5_12  and  C6_13 
ROOT
HETATM    1  C3  UNL     1      -0.531   0.576   0.004  1.00  0.00     0.050 C 
HETATM    2  C4  UNL     1       0.688   1.120   0.139  1.00  0.00     0.181 C 
HETATM    3  N2  UNL     1       1.836   0.219   0.030  1.00  0.00    -0.356 N 
ATOM      4  H2  UNL     1       2.577   0.210   0.731  1.00  0.00     0.162 HD
HETATM    5  C5  UNL     1       1.870  -0.657  -1.119  1.00  0.00     0.187 C 
HETATM    6  C7  UNL     1       0.470  -1.164  -1.447  1.00  0.00     0.074 C 
HETATM    7  C8  UNL     1      -0.422  -0.899  -0.207  1.00  0.00     0.084 C 
HETATM    8  C9  UNL     1      -1.624  -1.712  -0.195  1.00  0.00     0.059 C 
HETATM    9  C10 UNL     1      -2.052  -2.048   1.241  1.00  0.00     0.143 C 
HETATM   10  N3  UNL     1      -1.189  -1.445   2.224  1.00  0.00    -0.322 N 
ATOM     11  H3  UNL     1      -1.603  -1.081   3.082  1.00  0.00     0.181 HD
HETATM   12  N4  UNL     1       0.019  -1.353   2.070  1.00  0.00    -0.251 N 
ATOM     13  H4  UNL     1       0.652  -1.226   2.860  1.00  0.00     0.207 HD
HETATM   14  N5  UNL     1       0.440  -1.422   0.896  1.00  0.00    -0.307 N 
ATOM     15  H5  UNL     1       1.354  -1.827   0.694  1.00  0.00     0.183 HD
ENDROOT
BRANCH   1  16
HETATM   16  C2  UNL     1      -1.739   1.331   0.078  1.00  0.00     0.052 C 
HETATM   17  C1  UNL     1      -2.006   2.742   0.301  1.00  0.00     0.076 C 
BRANCH  16  18
HETATM   18  O1  UNL     1      -2.834   0.638  -0.085  1.00  0.00    -0.365 OA
ATOM     19  H1  UNL     1      -2.659  -0.284  -0.231  1.00  0.00     0.217 HD
ENDBRANCH  16  18
ENDBRANCH   1  16
BRANCH   2  20
HETATM   20  N1  UNL     1       0.891   2.474   0.366  1.00  0.00    -0.098 N 
HETATM   21  O2  UNL     1       1.206   2.904   1.611  1.00  0.00    -0.531 OA
HETATM   22  O3  UNL     1       0.836   3.374  -0.625  1.00  0.00    -0.531 OA
ENDBRANCH   2  20
BRANCH   5  23
HETATM   23  C6  UNL     1       2.794  -1.813  -0.849  1.00  0.00     0.196 C 
HETATM   24  O4  UNL     1       3.412  -1.936   0.238  1.00  0.00    -0.646 OA
HETATM   25  O5  UNL     1       2.995  -2.796  -1.806  1.00  0.00    -0.646 OA
ENDBRANCH   5  23
TORSDOF 4
