REMARK  6 active torsions:
REMARK  status: ('A' for Active; 'I' for Inactive)
REMARK    1  A    between atoms: C2_2  and  C3_3 
REMARK    2  A    between atoms: C3_3  and  C4_4 
REMARK    3  A    between atoms: C4_4  and  N1_5 
REMARK    4  A    between atoms: C11_14  and  O1_15 
REMARK    5  A    between atoms: O1_15  and  C12_16 
REMARK    6  A    between atoms: C12_16  and  C13_17 
ROOT
HETATM    1  N1  UNL     1      -1.145  -0.509  -0.374  1.00  0.00    -0.392 N 
ATOM      2  H1  UNL     1      -0.539  -1.280  -0.092  1.00  0.00     0.159 HD
HETATM    3  C5  UNL     1      -0.693   0.704  -0.184  1.00  0.00     0.016 C 
HETATM    4  C6  UNL     1      -1.614   1.750  -0.612  1.00  0.00     0.057 C 
HETATM    5  C7  UNL     1      -1.281   3.149  -0.281  1.00  0.00     0.006 C 
HETATM    6  C8  UNL     1       0.151   3.543  -0.355  1.00  0.00     0.006 C 
HETATM    7  C9  UNL     1       0.738   3.265   1.037  1.00  0.00     0.047 C 
HETATM    8  C10 UNL     1       1.216   1.849   0.936  1.00  0.00    -0.003 A 
HETATM    9  S1  UNL     1       2.750   1.327   1.509  1.00  0.00    -0.069 SA
HETATM   10  C11 UNL     1       2.638  -0.319   1.086  1.00  0.00     0.111 A 
HETATM   11  C14 UNL     1       1.403  -0.416   0.507  1.00  0.00     0.058 A 
HETATM   12  C15 UNL     1       0.664   0.700   0.427  1.00  0.00     0.002 A 
ENDROOT
BRANCH   1  13
HETATM   13  C4  UNL     1      -2.403  -0.849  -0.938  1.00  0.00     0.123 C 
BRANCH  13  14
HETATM   14  C3  UNL     1      -3.239  -1.608   0.098  1.00  0.00     0.046 C 
BRANCH  14  15
HETATM   15  C2  UNL     1      -4.558  -1.968  -0.476  1.00  0.00    -0.035 C 
HETATM   16  C1  UNL     1      -4.910  -3.233  -0.565  1.00  0.00     0.007 C 
ENDBRANCH  14  15
ENDBRANCH  13  14
ENDBRANCH   1  13
BRANCH  10  17
HETATM   17  O1  UNL     1       3.605  -1.296   1.301  1.00  0.00    -0.334 OA
BRANCH  17  18
HETATM   18  C12 UNL     1       4.542  -1.656   0.291  1.00  0.00     0.289 C 
BRANCH  18  19
HETATM   19  C13 UNL     1       5.464  -2.705   0.743  1.00  0.00     0.198 C 
HETATM   20  O2  UNL     1       5.384  -3.183   1.889  1.00  0.00    -0.646 OA
HETATM   21  O3  UNL     1       6.441  -3.175  -0.112  1.00  0.00    -0.646 OA
ENDBRANCH  18  19
ENDBRANCH  17  18
ENDBRANCH  10  17
TORSDOF 6
