REMARK  4 active torsions:
REMARK  status: ('A' for Active; 'I' for Inactive)
REMARK    1  A    between atoms: C2_2  and  C3_3 
REMARK    2  A    between atoms: C3_3  and  O1_4 
REMARK    3  A    between atoms: C3_3  and  C4_6 
REMARK    4  A    between atoms: C6_13  and  N3_14 
ROOT
HETATM    1  C4  UNL     1      -0.431   0.030   0.129  1.00  0.00     0.112 A 
HETATM    2  N1  UNL     1      -0.788  -0.648   1.219  1.00  0.00    -0.294 N 
ATOM      3  H1  UNL     1      -1.734  -0.963   1.435  1.00  0.00     0.187 HD
HETATM    4  N2  UNL     1       0.293  -0.851   1.989  1.00  0.00    -0.277 N 
ATOM      5  H2  UNL     1       0.294  -1.346   2.881  1.00  0.00     0.189 HD
HETATM    6  C5  UNL     1       1.366  -0.308   1.411  1.00  0.00     0.195 A 
HETATM    7  O2  UNL     1       2.670  -0.078   1.482  1.00  0.00    -0.258 OA
HETATM    8  C6  UNL     1       3.092   0.586   0.440  1.00  0.00     0.224 A 
HETATM    9  N4  UNL     1       2.030   0.805  -0.352  1.00  0.00    -0.317 N 
ATOM     10  H4  UNL     1       2.035   1.300  -1.244  1.00  0.00     0.169 HD
HETATM   11  C7  UNL     1       0.956   0.251   0.247  1.00  0.00     0.119 A 
ENDROOT
BRANCH   1  12
HETATM   12  C3  UNL     1      -1.192   0.503  -1.012  1.00  0.00     0.095 C 
BRANCH  12  13
HETATM   13  C2  UNL     1      -2.575   0.361  -1.272  1.00  0.00     0.028 C 
HETATM   14  C1  UNL     1      -3.519  -0.201  -0.609  1.00  0.00     0.014 C 
ENDBRANCH  12  13
BRANCH  12  15
HETATM   15  O1  UNL     1      -0.499   1.147  -1.915  1.00  0.00    -0.358 OA
ATOM     16  H1  UNL     1       0.430   1.242  -1.740  1.00  0.00     0.217 HD
ENDBRANCH  12  15
ENDBRANCH   1  12
BRANCH   8  17
HETATM   17  N3  UNL     1       4.305   0.985   0.174  1.00  0.00    -0.365 N 
ATOM     18  H32 UNL     1       5.112   0.819   0.776  1.00  0.00     0.159 HD
ATOM     19  H31 UNL     1       4.635   1.504  -0.640  1.00  0.00     0.159 HD
ENDBRANCH   8  17
TORSDOF 4
