REMARK  3 active torsions:
REMARK  status: ('A' for Active; 'I' for Inactive)
REMARK    1  A    between atoms: N1_2  and  N2_5 
REMARK    2  A    between atoms: N2_5  and  N3_7 
REMARK    3  A    between atoms: N3_7  and  C4_9 
ROOT
HETATM    1  N2  UNL     1       0.553  -0.026   0.683  1.00  0.00    -0.158 N 
ATOM      2  H2  UNL     1       0.901   0.053   1.639  1.00  0.00     0.215 HD
ENDROOT
BRANCH   1   3
HETATM    3  N1  UNL     1      -0.787  -0.016   0.390  1.00  0.00     0.013 N 
HETATM    4  C1  UNL     1      -1.087   0.108  -1.021  1.00  0.00     0.302 C 
HETATM    5  C2  UNL     1      -1.370  -1.255   0.861  1.00  0.00     0.302 C 
HETATM    6  C3  UNL     1      -1.464   1.111   1.048  1.00  0.00     0.302 C 
ENDBRANCH   1   3
BRANCH   1   7
HETATM    7  N3  UNL     1       1.398  -0.150  -0.398  1.00  0.00    -0.277 N 
ATOM      8  H3  UNL     1       1.028  -0.334  -1.330  1.00  0.00     0.189 HD
BRANCH   7   9
HETATM    9  C4  UNL     1       2.787  -0.017  -0.187  1.00  0.00     0.191 C 
HETATM   10  N4  UNL     1       3.381   1.047  -0.561  1.00  0.00    -0.394 N 
ATOM     11  H42 UNL     1       2.841   1.788  -1.008  1.00  0.00     0.156 HD
ATOM     12  H41 UNL     1       4.385   1.143  -0.408  1.00  0.00     0.156 HD
ENDBRANCH   7   9
ENDBRANCH   1   7
TORSDOF 3
