REMARK  10 active torsions:
REMARK  status: ('A' for Active; 'I' for Inactive)
REMARK    1  A    between atoms: C2_2  and  O2_4 
REMARK    2  A    between atoms: O2_4  and  C3_5 
REMARK    3  A    between atoms: C3_5  and  C4_6 
REMARK    4  A    between atoms: C3_5  and  C12_14 
REMARK    5  A    between atoms: C4_6  and  C5_7 
REMARK    6  A    between atoms: C6_8  and  C8_10 
REMARK    7  A    between atoms: C12_14  and  C13_15 
REMARK    8  A    between atoms: C17_20  and  O4_21 
REMARK    9  A    between atoms: C19_24  and  O5_25 
REMARK   10  A    between atoms: O5_25  and  C20_26 
ROOT
HETATM    1  C13 UNL     1      -2.235  -0.372   0.449  1.00  0.00     0.080 C 
HETATM    2  O3  UNL     1      -3.105  -0.250  -0.593  1.00  0.00    -0.340 OA
HETATM    3  C14 UNL     1      -4.359   0.118  -0.137  1.00  0.00     0.086 C 
HETATM    4  C15 UNL     1      -5.242   0.141  -1.396  1.00  0.00     0.049 C 
HETATM    5  C16 UNL     1      -4.993  -0.906   0.780  1.00  0.00     0.049 C 
HETATM    6  C17 UNL     1      -4.356   1.472   0.523  1.00  0.00     0.158 C 
HETATM    7  C18 UNL     1      -2.946   1.979   0.766  1.00  0.00     0.102 C 
HETATM    8  C19 UNL     1      -2.048   0.852   1.245  1.00  0.00     0.088 C 
ENDROOT
BRANCH   1   9
HETATM    9  C12 UNL     1      -1.051  -1.236   0.177  1.00  0.00     0.100 C 
BRANCH   9  10
HETATM   10  C3  UNL     1      -0.270  -0.800  -1.005  1.00  0.00     0.141 C 
BRANCH  10  11
HETATM   11  O2  UNL     1       0.230   0.481  -0.918  1.00  0.00    -0.316 OA
BRANCH  11  12
HETATM   12  C2  UNL     1       0.033   1.460  -1.894  1.00  0.00     0.255 C 
HETATM   13  C1  UNL     1       0.608   2.808  -1.707  1.00  0.00     0.126 C 
HETATM   14  O1  UNL     1      -0.629   1.163  -2.908  1.00  0.00    -0.266 OA
ENDBRANCH  11  12
ENDBRANCH  10  11
BRANCH  10  15
HETATM   15  C4  UNL     1       0.898  -1.812  -1.197  1.00  0.00     0.060 C 
BRANCH  15  16
HETATM   16  C5  UNL     1       1.846  -1.787  -0.096  1.00  0.00    -0.021 C 
HETATM   17  C6  UNL     1       3.102  -1.495  -0.005  1.00  0.00    -0.080 C 
HETATM   18  C7  UNL     1       3.675  -1.630   1.430  1.00  0.00     0.044 C 
BRANCH  17  19
HETATM   19  C8  UNL     1       4.098  -1.064  -0.977  1.00  0.00    -0.029 C 
HETATM   20  C9  UNL     1       4.730   0.277  -0.521  1.00  0.00     0.019 C 
HETATM   21  C10 UNL     1       5.275  -2.032  -1.059  1.00  0.00     0.019 C 
HETATM   22  C11 UNL     1       3.647  -0.817  -2.383  1.00  0.00     0.019 C 
ENDBRANCH  17  19
ENDBRANCH  15  16
ENDBRANCH  10  15
ENDBRANCH   9  10
ENDBRANCH   1   9
BRANCH   8  23
HETATM   23  O5  UNL     1      -0.756   1.228   1.583  1.00  0.00    -0.281 OA
BRANCH  23  24
HETATM   24  C20 UNL     1      -0.206   1.284   2.851  1.00  0.00     0.259 C 
HETATM   25  C21 UNL     1       1.214   1.713   3.018  1.00  0.00     0.126 C 
HETATM   26  O6  UNL     1      -0.962   0.961   3.790  1.00  0.00    -0.265 OA
ENDBRANCH  23  24
ENDBRANCH   8  23
BRANCH   6  27
HETATM   27  O4  UNL     1      -5.069   1.420   1.717  1.00  0.00    -0.392 OA
ATOM     28  H4  UNL     1      -5.067   2.274   2.133  1.00  0.00     0.210 HD
ENDBRANCH   6  27
TORSDOF 10
