REMARK  10 active torsions:
REMARK  status: ('A' for Active; 'I' for Inactive)
REMARK    1  A    between atoms: C4_4  and  C5_5 
REMARK    2  A    between atoms: C5_5  and  C6_6 
REMARK    3  A    between atoms: C6_6  and  C7_7 
REMARK    4  A    between atoms: C7_7  and  O2_9 
REMARK    5  A    between atoms: O2_9  and  C8_10 
REMARK    6  A    between atoms: C15_19  and  O5_20 
REMARK    7  A    between atoms: C18_24  and  O6_25 
REMARK    8  A    between atoms: C18_24  and  C19_27 
REMARK    9  A    between atoms: C20_28  and  C21_29 
REMARK   10  A    between atoms: C21_29  and  O8_31 
ROOT
HETATM    1  C1  UNL     1       0.292   3.411  -0.606  1.00  0.00     0.036 C 
HETATM    2  C2  UNL     1      -0.543   2.306  -1.138  1.00  0.00    -0.027 C 
HETATM    3  C3  UNL     1      -0.330   1.041  -0.882  1.00  0.00    -0.071 C 
HETATM    4  C4  UNL     1       0.653   0.254  -0.095  1.00  0.00     0.024 C 
HETATM    5  C10 UNL     1       0.368  -0.919  -1.059  1.00  0.00    -0.026 C 
HETATM    6  C11 UNL     1       1.241  -0.818  -2.322  1.00  0.00     0.016 C 
HETATM    7  C12 UNL     1       0.629  -2.172  -0.391  1.00  0.00     0.013 C 
HETATM    8  C13 UNL     1      -0.329  -3.311  -0.696  1.00  0.00     0.042 C 
HETATM    9  C14 UNL     1      -0.848  -3.922   0.588  1.00  0.00     0.225 C 
HETATM   10  O3  UNL     1      -1.008  -5.313   0.520  1.00  0.00    -0.227 OA
HETATM   11  O4  UNL     1      -2.108  -5.094  -0.171  1.00  0.00    -0.197 OA
HETATM   12  C15 UNL     1      -2.334  -4.000   0.649  1.00  0.00     0.224 C 
HETATM   13  C16 UNL     1      -3.030  -2.833   0.016  1.00  0.00     0.077 C 
HETATM   14  C17 UNL     1      -2.336  -1.577   0.515  1.00  0.00     0.048 C 
HETATM   15  C18 UNL     1      -2.162  -0.575  -0.562  1.00  0.00     0.084 C 
HETATM   16  C23 UNL     1      -0.923  -0.307  -1.224  1.00  0.00     0.061 C 
ENDROOT
BRANCH  15  17
HETATM   17  O6  UNL     1      -3.163  -0.918  -1.524  1.00  0.00    -0.385 OA
ATOM     18  H6  UNL     1      -3.051  -0.275  -2.215  1.00  0.00     0.211 HD
ENDBRANCH  15  17
BRANCH  15  19
HETATM   19  C19 UNL     1      -2.671   0.729  -0.002  1.00  0.00     0.017 C 
HETATM   20  C20 UNL     1      -3.798   1.297  -0.342  1.00  0.00     0.081 C 
BRANCH  20  21
HETATM   21  C21 UNL     1      -4.246   2.549   0.222  1.00  0.00     0.282 C 
HETATM   22  O7  UNL     1      -5.334   3.027  -0.153  1.00  0.00    -0.260 OA
BRANCH  21  23
HETATM   23  O8  UNL     1      -3.510   3.234   1.164  1.00  0.00    -0.323 OA
HETATM   24  C22 UNL     1      -3.997   4.472   1.693  1.00  0.00     0.213 C 
ENDBRANCH  21  23
ENDBRANCH  20  21
ENDBRANCH  15  19
BRANCH  12  25
HETATM   25  O5  UNL     1      -2.796  -4.257   1.913  1.00  0.00    -0.361 OA
ATOM     26  H5  UNL     1      -3.744  -4.307   1.952  1.00  0.00     0.213 HD
ENDBRANCH  12  25
BRANCH   4  27
HETATM   27  C5  UNL     1       2.026   0.774  -0.037  1.00  0.00     0.019 C 
BRANCH  27  28
HETATM   28  C6  UNL     1       2.906  -0.110   0.794  1.00  0.00     0.112 C 
BRANCH  28  29
HETATM   29  C7  UNL     1       4.308   0.458   0.857  1.00  0.00     0.258 C 
HETATM   30  O1  UNL     1       5.215  -0.104   1.490  1.00  0.00    -0.265 OA
BRANCH  29  31
HETATM   31  O2  UNL     1       4.551   1.622   0.188  1.00  0.00    -0.322 OA
BRANCH  31  32
HETATM   32  C8  UNL     1       5.856   2.188   0.223  1.00  0.00     0.174 C 
HETATM   33  C9  UNL     1       6.830   1.205  -0.360  1.00  0.00     0.034 C 
ENDBRANCH  31  32
ENDBRANCH  29  31
ENDBRANCH  28  29
ENDBRANCH  27  28
ENDBRANCH   4  27
TORSDOF 10
