REMARK  7 active torsions:
REMARK  status: ('A' for Active; 'I' for Inactive)
REMARK    1  A    between atoms: C2_2  and  C3_4 
REMARK    2  A    between atoms: C3_4  and  N1_5 
REMARK    3  A    between atoms: C3_4  and  C4_9 
REMARK    4  A    between atoms: C4_9  and  C5_10 
REMARK    5  A    between atoms: C19_27  and  C20_28 
REMARK    6  A    between atoms: C20_28  and  O5_29 
REMARK    7  A    between atoms: O5_29  and  C21_30 
ROOT
HETATM    1  C5  UNL     1      -1.527  -1.638   0.015  1.00  0.00     0.129 C 
HETATM    2  C6  UNL     1      -0.959  -1.356  -1.337  1.00  0.00     0.069 C 
HETATM    3  C7  UNL     1       0.279  -0.546  -1.346  1.00  0.00     0.183 C 
HETATM    4  O2  UNL     1       1.225  -0.957  -0.398  1.00  0.00    -0.344 OA
HETATM    5  C8  UNL     1       2.138   0.063  -0.488  1.00  0.00     0.172 C 
HETATM    6  C9  UNL     1       3.164  -0.226  -1.597  1.00  0.00     0.073 C 
HETATM    7  C10 UNL     1       4.519  -0.311  -0.851  1.00  0.00    -0.009 C 
HETATM    8  C11 UNL     1       5.187   0.952  -0.906  1.00  0.00     0.010 C 
HETATM    9  C12 UNL     1       5.710   1.707   0.235  1.00  0.00    -0.010 A 
HETATM   10  C13 UNL     1       5.935   1.334   1.600  1.00  0.00     0.010 A 
HETATM   11  C14 UNL     1       4.701   2.013   1.339  1.00  0.00    -0.010 A 
HETATM   12  C15 UNL     1       3.377   1.544   0.943  1.00  0.00     0.015 C 
HETATM   13  C16 UNL     1       3.008   0.150   0.793  1.00  0.00     0.049 C 
HETATM   14  C17 UNL     1       3.989  -0.882   0.407  1.00  0.00     0.014 C 
HETATM   15  O3  UNL     1       1.471   1.240  -0.719  1.00  0.00    -0.322 OA
HETATM   16  C18 UNL     1       0.130   0.896  -1.021  1.00  0.00     0.295 C 
HETATM   17  O4  UNL     1      -0.599   1.179   0.106  1.00  0.00    -0.327 OA
HETATM   18  C19 UNL     1      -1.866   0.653   0.140  1.00  0.00     0.287 C 
HETATM   19  O6  UNL     1      -1.835  -0.556   0.771  1.00  0.00    -0.354 OA
ENDROOT
BRANCH   1  20
HETATM   20  C4  UNL     1      -2.753  -2.510  -0.111  1.00  0.00     0.072 C 
BRANCH  20  21
HETATM   21  C3  UNL     1      -2.496  -3.827  -0.755  1.00  0.00     0.254 C 
BRANCH  21  22
HETATM   22  C2  UNL     1      -3.820  -4.553  -0.795  1.00  0.00     0.153 C 
HETATM   23  C1  UNL     1      -4.019  -5.839  -0.098  1.00  0.00     0.093 C 
HETATM   24  O1  UNL     1      -4.760  -4.076  -1.415  1.00  0.00    -0.296 OA
ENDBRANCH  21  22
BRANCH  21  25
HETATM   25  N1  UNL     1      -1.563  -4.577   0.025  1.00  0.00    -0.068 N 
ATOM     26  H13 UNL     1      -1.918  -4.781   0.959  1.00  0.00     0.275 HD
ATOM     27  H12 UNL     1      -1.466  -5.536  -0.308  1.00  0.00     0.275 HD
ATOM     28  H11 UNL     1      -0.669  -4.087   0.052  1.00  0.00     0.275 HD
ENDBRANCH  21  25
ENDBRANCH  20  21
ENDBRANCH   1  20
BRANCH  18  29
HETATM   29  C20 UNL     1      -2.824   1.551   0.939  1.00  0.00     0.228 C 
BRANCH  29  30
HETATM   30  O5  UNL     1      -2.863   2.818   0.316  1.00  0.00    -0.382 OA
BRANCH  30  31
HETATM   31  C21 UNL     1      -3.708   3.650   0.999  1.00  0.00     0.113 C 
HETATM   32  C22 UNL     1      -4.838   4.168   0.113  1.00  0.00     0.039 C 
HETATM   33  C23 UNL     1      -2.900   4.877   1.431  1.00  0.00     0.039 C 
ENDBRANCH  30  31
ENDBRANCH  29  30
ENDBRANCH  18  29
TORSDOF 7
