REMARK  12 active torsions:
REMARK  status: ('A' for Active; 'I' for Inactive)
REMARK    1  A    between atoms: C2_2  and  C3_3 
REMARK    2  A    between atoms: C3_3  and  C4_4 
REMARK    3  A    between atoms: C4_4  and  C5_5 
REMARK    4  A    between atoms: C5_5  and  C6_6 
REMARK    5  A    between atoms: C6_6  and  C7_7 
REMARK    6  A    between atoms: C10_13  and  C11_14 
REMARK    7  A    between atoms: C13_16  and  C14_17 
REMARK    8  A    between atoms: C14_17  and  C15_18 
REMARK    9  A    between atoms: C22_29  and  C23_30 
REMARK   10  A    between atoms: C23_30  and  C24_31 
REMARK   11  A    between atoms: C24_31  and  C25_32 
REMARK   12  A    between atoms: C25_32  and  N3_33 
ROOT
HETATM    1  C7  UNL     1       2.411   0.170   0.837  1.00  0.00    -0.004 C 
HETATM    2  C8  UNL     1       1.951  -1.209   0.536  1.00  0.00     0.142 C 
HETATM    3  C9  UNL     1       1.006  -1.746   1.551  1.00  0.00     0.222 C 
HETATM    4  O1  UNL     1       1.578  -2.296   2.574  1.00  0.00    -0.273 OA
HETATM    5  N1  UNL     1      -0.371  -1.751   1.581  1.00  0.00    -0.351 N 
ATOM      6  H1  UNL     1      -0.773  -1.355   2.431  1.00  0.00     0.163 HD
HETATM    7  C10 UNL     1      -1.354  -2.220   0.617  1.00  0.00     0.130 C 
HETATM    8  C13 UNL     1      -1.636  -1.203  -0.431  1.00  0.00     0.016 C 
HETATM    9  N2  UNL     1      -2.359  -0.036   0.015  1.00  0.00    -0.330 N 
ATOM     10  H2  UNL     1      -3.243   0.147  -0.459  1.00  0.00     0.168 HD
HETATM   11  C21 UNL     1      -2.001   0.879   1.017  1.00  0.00     0.244 C 
HETATM   12  O2  UNL     1      -2.930   1.216   1.857  1.00  0.00    -0.271 OA
HETATM   13  C22 UNL     1      -0.692   1.525   1.253  1.00  0.00     0.177 C 
HETATM   14  N6  UNL     1       0.248   1.446   0.180  1.00  0.00    -0.344 N 
ATOM     15  H6  UNL     1      -0.156   1.538  -0.752  1.00  0.00     0.163 HD
HETATM   16  C27 UNL     1       1.625   1.264   0.204  1.00  0.00     0.244 C 
HETATM   17  O3  UNL     1       2.309   2.168  -0.404  1.00  0.00    -0.268 OA
ENDROOT
BRANCH   8  18
HETATM   18  C14 UNL     1      -1.997  -1.685  -1.795  1.00  0.00     0.093 C 
BRANCH  18  19
HETATM   19  C15 UNL     1      -3.149  -2.525  -1.991  1.00  0.00    -0.050 A 
HETATM   20  C16 UNL     1      -3.092  -3.907  -1.995  1.00  0.00     0.007 A 
HETATM   21  C17 UNL     1      -4.190  -4.710  -2.187  1.00  0.00     0.004 A 
HETATM   22  C18 UNL     1      -5.419  -4.123  -2.387  1.00  0.00     0.042 A 
HETATM   23  C19 UNL     1      -5.526  -2.759  -2.392  1.00  0.00     0.116 A 
HETATM   24  F1  UNL     1      -6.724  -2.172  -2.585  1.00  0.00    -0.206 F 
HETATM   25  C20 UNL     1      -4.398  -1.990  -2.196  1.00  0.00     0.049 A 
ENDBRANCH  18  19
ENDBRANCH   8  18
BRANCH   7  26
HETATM   26  C11 UNL     1      -2.651  -2.564   1.349  1.00  0.00     0.026 C 
HETATM   27  C12 UNL     1      -2.430  -3.659   2.372  1.00  0.00     0.007 C 
ENDBRANCH   7  26
BRANCH  13  28
HETATM   28  C23 UNL     1      -0.920   3.035   1.514  1.00  0.00     0.036 C 
BRANCH  28  29
HETATM   29  C24 UNL     1      -1.584   3.670   0.323  1.00  0.00     0.022 C 
BRANCH  29  30
HETATM   30  C25 UNL     1      -1.835   5.137   0.511  1.00  0.00     0.122 C 
BRANCH  30  31
HETATM   31  N3  UNL     1      -2.472   5.693  -0.665  1.00  0.00    -0.367 N 
HETATM   32  C26 UNL     1      -2.893   6.897  -0.726  1.00  0.00     0.196 C 
HETATM   33  N4  UNL     1      -2.726   7.735   0.421  1.00  0.00    -0.067 NA
HETATM   34  N5  UNL     1      -3.514   7.461  -1.859  1.00  0.00    -0.067 NA
ATOM     35  H3  UNL     1      -2.590   5.095  -1.483  1.00  0.00     0.161 HD
ENDBRANCH  30  31
ENDBRANCH  29  30
ENDBRANCH  28  29
ENDBRANCH  13  28
BRANCH   1  36
HETATM   36  C6  UNL     1       3.880   0.446   0.767  1.00  0.00     0.040 C 
BRANCH  36  37
HETATM   37  C5  UNL     1       4.615   0.258  -0.476  1.00  0.00     0.004 C 
BRANCH  37  38
HETATM   38  C4  UNL     1       4.818  -1.037  -1.116  1.00  0.00     0.000 C 
BRANCH  38  39
HETATM   39  C3  UNL     1       5.628  -2.069  -0.381  1.00  0.00    -0.000 C 
BRANCH  39  40
HETATM   40  C2  UNL     1       7.045  -1.627  -0.076  1.00  0.00    -0.005 C 
HETATM   41  C1  UNL     1       7.666  -2.823   0.660  1.00  0.00     0.005 C 
ENDBRANCH  39  40
ENDBRANCH  38  39
ENDBRANCH  37  38
ENDBRANCH  36  37
ENDBRANCH   1  36
TORSDOF 12
