REMARK  7 active torsions:
REMARK  status: ('A' for Active; 'I' for Inactive)
REMARK    1  A    between atoms: C5_5  and  C6_6 
REMARK    2  A    between atoms: C9_11  and  N2_12 
REMARK    3  A    between atoms: N2_12  and  S1_14 
REMARK    4  A    between atoms: S1_14  and  C10_17 
REMARK    5  A    between atoms: C12_19  and  C13_20 
REMARK    6  A    between atoms: C13_20  and  C14_21 
REMARK    7  A    between atoms: C14_21  and  C15_22 
REMARK       I    between atoms: C15_22  and  N3_24 
ROOT
HETATM    1  S1  UNL     1       1.098  -3.033  -1.808  1.00  0.00     0.263 S 
HETATM    2  O1  UNL     1       2.095  -3.871  -2.585  1.00  0.00    -0.200 OA
HETATM    3  O2  UNL     1       0.103  -4.018  -1.243  1.00  0.00    -0.200 OA
ENDROOT
BRANCH   1   4
HETATM    4  N2  UNL     1       0.389  -1.924  -2.879  1.00  0.00    -0.281 N 
ATOM      5  H2  UNL     1       0.695  -1.896  -3.852  1.00  0.00     0.179 HD
BRANCH   4   6
HETATM    6  C9  UNL     1      -0.620  -1.040  -2.438  1.00  0.00     0.044 A 
HETATM    7  C8  UNL     1      -1.684  -1.455  -1.674  1.00  0.00     0.062 A 
HETATM    8  C7  UNL     1      -2.685  -0.567  -1.245  1.00  0.00     0.062 A 
HETATM    9  N1  UNL     1      -3.790  -0.730  -0.513  1.00  0.00    -0.340 N 
HETATM   10  C23 UNL     1      -2.619   0.764  -1.589  1.00  0.00     0.060 A 
HETATM   11  C6  UNL     1      -4.429   0.438  -0.376  1.00  0.00     0.116 A 
ATOM     12  H1  UNL     1      -4.102  -1.616  -0.116  1.00  0.00     0.167 HD
HETATM   13  N6  UNL     1      -3.699   1.348  -1.042  1.00  0.00    -0.340 N 
ATOM     14  H6  UNL     1      -3.931   2.338  -1.121  1.00  0.00     0.167 HD
HETATM   15  C22 UNL     1      -1.560   1.200  -2.355  1.00  0.00     0.034 A 
HETATM   16  C21 UNL     1      -0.586   0.320  -2.768  1.00  0.00     0.032 A 
BRANCH  11  17
HETATM   17  C5  UNL     1      -5.667   0.684   0.347  1.00  0.00     0.008 A 
HETATM   18  C4  UNL     1      -6.204   1.952   0.397  1.00  0.00     0.016 A 
HETATM   19  C3  UNL     1      -7.394   2.196   1.090  1.00  0.00     0.007 A 
HETATM   20  C2  UNL     1      -8.053   1.172   1.738  1.00  0.00    -0.062 A 
HETATM   21  C1  UNL     1      -9.330   1.402   2.489  1.00  0.00     0.048 C 
HETATM   22  C25 UNL     1      -7.496  -0.087   1.674  1.00  0.00     0.007 A 
HETATM   23  C24 UNL     1      -6.317  -0.333   0.988  1.00  0.00     0.016 A 
ENDBRANCH  11  17
ENDBRANCH   4   6
ENDBRANCH   1   4
BRANCH   1  24
HETATM   24  C10 UNL     1       1.916  -2.254  -0.481  1.00  0.00     0.083 A 
HETATM   25  C11 UNL     1       3.243  -1.880  -0.561  1.00  0.00     0.048 A 
HETATM   26  C12 UNL     1       3.845  -1.271   0.510  1.00  0.00     0.049 A 
HETATM   27  C18 UNL     1       3.109  -1.028   1.691  1.00  0.00     0.086 A 
HETATM   28  N4  UNL     1       3.636  -0.438   2.774  1.00  0.00    -0.309 N 
HETATM   29  C19 UNL     1       1.805  -1.387   1.791  1.00  0.00     0.070 A 
HETATM   30  S2  UNL     1       2.375  -0.387   3.875  1.00  0.00     0.068 SA
ATOM     31  H4  UNL     1       4.589  -0.097   2.899  1.00  0.00     0.176 HD
HETATM   32  N5  UNL     1       1.196  -1.118   2.939  1.00  0.00    -0.310 N 
ATOM     33  H5  UNL     1       0.228  -1.313   3.193  1.00  0.00     0.176 HD
HETATM   34  C20 UNL     1       1.215  -2.012   0.672  1.00  0.00     0.057 A 
BRANCH  26  35
HETATM   35  C13 UNL     1       5.223  -0.903   0.377  1.00  0.00    -0.054 C 
BRANCH  35  36
HETATM   36  C14 UNL     1       6.380  -0.580   0.254  1.00  0.00     0.000 C 
BRANCH  36  37
HETATM   37  C15 UNL     1       7.752  -0.184   0.088  1.00  0.00     0.298 C 
HETATM   38  O3  UNL     1       8.517  -0.985  -0.500  1.00  0.00    -0.258 OA
HETATM   39  N3  UNL     1       8.261   1.045   0.548  1.00  0.00    -0.350 N 
HETATM   40  C16 UNL     1       9.648   1.365   0.341  1.00  0.00     0.153 C 
HETATM   41  C17 UNL     1       7.393   1.970   1.222  1.00  0.00     0.153 C 
ENDBRANCH  36  37
ENDBRANCH  35  36
ENDBRANCH  26  35
ENDBRANCH   1  24
TORSDOF 7
