REMARK  20 active torsions:
REMARK  status: ('A' for Active; 'I' for Inactive)
REMARK    1  A    between atoms: C2_2  and  N1_5 
REMARK    2  A    between atoms: N1_5  and  C5_8 
REMARK    3  A    between atoms: C5_8  and  O1_9 
REMARK    4  A    between atoms: C5_8  and  C6_11 
REMARK    5  A    between atoms: C9_15  and  C10_16 
REMARK    6  A    between atoms: C10_16  and  O3_17 
REMARK    7  A    between atoms: C10_16  and  O4_19 
REMARK    8  A    between atoms: C11_21  and  C12_22 
REMARK    9  A    between atoms: C12_22  and  O5_23 
REMARK   10  A    between atoms: O5_23  and  C13_24 
REMARK   11  A    between atoms: C14_26  and  O7_27 
REMARK   12  A    between atoms: C14_26  and  C15_29 
REMARK   13  A    between atoms: C15_29  and  O8_30 
REMARK   14  A    between atoms: C15_29  and  S1_32 
REMARK   15  A    between atoms: C16_36  and  O12_37 
REMARK   16  A    between atoms: C17_39  and  O13_40 
REMARK   17  A    between atoms: C18_42  and  O14_43 
REMARK   18  A    between atoms: C18_42  and  C19_45 
REMARK   19  A    between atoms: C19_45  and  O15_46 
REMARK   20  A    between atoms: O15_46  and  N2_47 
ROOT
HETATM    1  C13 UNL     1      -1.677  -0.443  -0.408  1.00  0.00     0.303 C 
HETATM    2  O6  UNL     1      -1.436   0.881  -0.741  1.00  0.00    -0.316 OA
HETATM    3  C14 UNL     1      -2.193   1.322  -1.806  1.00  0.00     0.236 C 
HETATM    4  C16 UNL     1      -3.078   0.294  -2.434  1.00  0.00     0.216 C 
HETATM    5  C17 UNL     1      -3.907  -0.456  -1.408  1.00  0.00     0.194 C 
HETATM    6  C18 UNL     1      -3.176  -0.554  -0.113  1.00  0.00     0.159 C 
ENDROOT
BRANCH   1   7
HETATM    7  O5  UNL     1      -1.272  -1.362  -1.326  1.00  0.00    -0.351 OA
BRANCH   7   8
HETATM    8  C12 UNL     1      -0.483  -2.389  -0.929  1.00  0.00     0.237 C 
BRANCH   8   9
HETATM    9  C11 UNL     1       0.802  -2.061  -0.302  1.00  0.00     0.092 A 
HETATM   10  C9  UNL     1       1.630  -3.119   0.091  1.00  0.00     0.078 A 
HETATM   11  C8  UNL     1       2.830  -2.803   0.679  1.00  0.00     0.188 A 
HETATM   12  C7  UNL     1       3.167  -1.505   0.856  1.00  0.00     0.092 A 
HETATM   13  O2  UNL     1       3.594  -3.756   1.043  1.00  0.00    -0.288 OA
HETATM   14  C6  UNL     1       2.289  -0.510   0.438  1.00  0.00     0.113 A 
HETATM   15  O16 UNL     1       1.165  -0.826  -0.114  1.00  0.00    -0.312 OA
BRANCH  10  16
HETATM   16  C10 UNL     1       1.253  -4.546  -0.110  1.00  0.00     0.294 C 
BRANCH  16  17
HETATM   17  O3  UNL     1       1.544  -5.223   1.062  1.00  0.00    -0.367 OA
ATOM     18  H3  UNL     1       1.304  -6.133   0.934  1.00  0.00     0.213 HD
ENDBRANCH  16  17
BRANCH  16  19
HETATM   19  O4  UNL     1       2.115  -5.089  -1.091  1.00  0.00    -0.367 OA
ATOM     20  H4  UNL     1       1.875  -5.999  -1.219  1.00  0.00     0.213 HD
ENDBRANCH  16  19
ENDBRANCH  10  16
BRANCH  14  21
HETATM   21  C5  UNL     1       2.775   0.881   0.689  1.00  0.00     0.378 C 
BRANCH  21  22
HETATM   22  N1  UNL     1       3.322   0.883   2.029  1.00  0.00    -0.035 N 
ATOM     23  H12 UNL     1       4.002   0.132   2.145  1.00  0.00     0.281 HD
ATOM     24  H11 UNL     1       2.622   0.581   2.707  1.00  0.00     0.281 HD
BRANCH  22  25
HETATM   25  C2  UNL     1       3.890   2.152   2.408  1.00  0.00     0.118 C 
HETATM   26  C1  UNL     1       2.886   3.265   2.436  1.00  0.00     0.045 C 
HETATM   27  C3  UNL     1       4.415   1.987   3.830  1.00  0.00     0.045 C 
HETATM   28  C4  UNL     1       5.047   2.564   1.548  1.00  0.00     0.045 C 
ENDBRANCH  22  25
ENDBRANCH  21  22
BRANCH  21  29
HETATM   29  O1  UNL     1       3.694   1.173  -0.286  1.00  0.00    -0.365 OA
ATOM     30  H1  UNL     1       3.335   1.172  -1.166  1.00  0.00     0.212 HD
ENDBRANCH  21  29
ENDBRANCH  14  21
ENDBRANCH   8   9
ENDBRANCH   7   8
ENDBRANCH   1   7
BRANCH   6  31
HETATM   31  O14 UNL     1      -3.480   0.400   0.824  1.00  0.00    -0.380 OA
ATOM     32  H14 UNL     1      -4.410   0.331   1.007  1.00  0.00     0.211 HD
ENDBRANCH   6  31
BRANCH   6  33
HETATM   33  C19 UNL     1      -3.503  -1.901   0.532  1.00  0.00     0.246 C 
BRANCH  33  34
HETATM   34  O15 UNL     1      -4.879  -1.818   0.843  1.00  0.00    -0.284 OA
BRANCH  34  35
HETATM   35  N2  UNL     1      -5.293  -2.967   1.430  1.00  0.00    -0.311 N 
ATOM     36  H22 UNL     1      -4.687  -3.767   1.614  1.00  0.00     0.184 HD
ATOM     37  H21 UNL     1      -6.286  -2.907   1.654  1.00  0.00     0.184 HD
ENDBRANCH  34  35
ENDBRANCH  33  34
ENDBRANCH   6  33
BRANCH   3  38
HETATM   38  O7  UNL     1      -3.069   2.308  -1.272  1.00  0.00    -0.360 OA
ATOM     39  H7  UNL     1      -3.590   2.612  -2.006  1.00  0.00     0.213 HD
ENDBRANCH   3  38
BRANCH   3  40
HETATM   40  C15 UNL     1      -1.417   2.033  -2.881  1.00  0.00     0.327 C 
BRANCH  40  41
HETATM   41  O8  UNL     1      -2.277   2.396  -3.933  1.00  0.00    -0.373 OA
ATOM     42  H8  UNL     1      -1.787   2.845  -4.612  1.00  0.00     0.211 HD
ENDBRANCH  40  41
BRANCH  40  43
HETATM   43  S1  UNL     1      -0.650   3.523  -2.230  1.00  0.00     0.137 S 
HETATM   44  O9  UNL     1       0.208   3.123  -1.076  1.00  0.00    -0.593 OA
HETATM   45  O10 UNL     1       0.128   4.192  -3.302  1.00  0.00    -0.593 OA
HETATM   46  O11 UNL     1      -1.882   4.513  -1.648  1.00  0.00    -0.593 OA
ENDBRANCH  40  43
ENDBRANCH   3  40
BRANCH   5  47
HETATM   47  O13 UNL     1      -5.173   0.113  -1.262  1.00  0.00    -0.389 OA
ATOM     48  H13 UNL     1      -5.692  -0.357  -0.620  1.00  0.00     0.210 HD
ENDBRANCH   5  47
BRANCH   4  49
HETATM   49  O12 UNL     1      -4.031   0.987  -3.223  1.00  0.00    -0.387 OA
ATOM     50  H12 UNL     1      -4.593   0.334  -3.622  1.00  0.00     0.210 HD
ENDBRANCH   4  49
TORSDOF 20
