REMARK  4 active torsions:
REMARK  status: ('A' for Active; 'I' for Inactive)
REMARK    1  A    between atoms: N1_10  and  C9_12 
REMARK    2  A    between atoms: C9_12  and  C10_13 
REMARK    3  A    between atoms: C10_13  and  C11_14 
REMARK    4  A    between atoms: C11_14  and  N2_15 
ROOT
HETATM    1  C1  UNL     1      -5.307  -3.408  -0.342  1.00  0.00     0.051 C 
HETATM    2  C2  UNL     1      -4.099  -2.523  -0.193  1.00  0.00    -0.023 A 
HETATM    3  C3  UNL     1      -4.232  -1.162  -0.055  1.00  0.00     0.018 A 
HETATM    4  C4  UNL     1      -3.110  -0.358   0.082  1.00  0.00    -0.041 A 
HETATM    5  C5  UNL     1      -1.836  -0.860   0.088  1.00  0.00     0.017 A 
HETATM    6  C6  UNL     1      -1.721  -2.245  -0.053  1.00  0.00     0.058 A 
HETATM    7  C7  UNL     1      -2.827  -3.053  -0.190  1.00  0.00     0.123 A 
HETATM    8  F1  UNL     1      -2.671  -4.402  -0.325  1.00  0.00    -0.206 F 
HETATM    9  C8  UNL     1      -0.673  -0.008   0.231  1.00  0.00     0.108 C 
HETATM   10  N1  UNL     1       0.516  -0.510   0.234  1.00  0.00    -0.376 N 
ATOM     11  H1  UNL     1       0.602  -1.521   0.132  1.00  0.00     0.161 HD
HETATM   12  N5  UNL     1      -0.889   1.387   0.368  1.00  0.00    -0.367 N 
ATOM     13  H5  UNL     1      -0.186   1.988   0.798  1.00  0.00     0.162 HD
HETATM   14  C13 UNL     1      -2.132   1.928  -0.120  1.00  0.00     0.028 C 
HETATM   15  C14 UNL     1      -1.979   2.082  -1.631  1.00  0.00     0.038 C 
HETATM   16  C15 UNL     1      -2.359   3.335   0.446  1.00  0.00     0.038 C 
HETATM   17  C16 UNL     1      -3.319   1.103   0.227  1.00  0.00     0.069 C 
ENDROOT
BRANCH  10  18
HETATM   18  C9  UNL     1       1.717   0.245   0.369  1.00  0.00     0.123 C 
BRANCH  18  19
HETATM   19  C10 UNL     1       2.905  -0.374  -0.311  1.00  0.00     0.039 C 
BRANCH  19  20
HETATM   20  C11 UNL     1       4.101   0.552  -0.073  1.00  0.00     0.123 C 
BRANCH  20  21
HETATM   21  N2  UNL     1       5.285   0.026  -0.696  1.00  0.00    -0.367 N 
HETATM   22  C12 UNL     1       6.348  -0.131   0.010  1.00  0.00     0.196 C 
HETATM   23  N3  UNL     1       6.415   0.188   1.374  1.00  0.00    -0.067 NA
HETATM   24  N4  UNL     1       7.504  -0.655  -0.638  1.00  0.00    -0.067 NA
ATOM     25  H2  UNL     1       5.282  -0.220  -1.686  1.00  0.00     0.161 HD
ENDBRANCH  20  21
ENDBRANCH  19  20
ENDBRANCH  18  19
ENDBRANCH  10  18
TORSDOF 4
