REMARK  2 active torsions:
REMARK  status: ('A' for Active; 'I' for Inactive)
REMARK    1  A    between atoms: C2_2  and  C3_3 
REMARK    2  A    between atoms: C6_6  and  C7_7 
ROOT
HETATM    1  C3  UNL     1      -0.723  -1.593   0.334  1.00  0.00     0.039 A 
HETATM    2  C4  UNL     1       0.551  -1.132   0.011  1.00  0.00     0.041 A 
HETATM    3  C5  UNL     1       1.682  -1.817   0.349  1.00  0.00    -0.009 A 
HETATM    4  C6  UNL     1       3.042  -1.422   0.104  1.00  0.00     0.016 C 
HETATM    5  C12 UNL     1       1.456  -3.006   1.037  1.00  0.00     0.083 A 
HETATM    6 CL1  UNL     1       2.798  -4.014   1.547  1.00  0.00    -0.080 Cl
HETATM    7  C13 UNL     1       0.187  -3.447   1.349  1.00  0.00     0.126 A 
HETATM    8 CL2  UNL     1      -0.069  -4.965   2.230  1.00  0.00    -0.063 Cl
HETATM    9  N1  UNL     1      -0.877  -2.732   0.992  1.00  0.00    -0.347 N 
ATOM     10  H1  UNL     1      -1.813  -3.062   1.226  1.00  0.00     0.167 HD
ENDROOT
BRANCH   1  11
HETATM   11  C2  UNL     1      -1.940  -0.803  -0.056  1.00  0.00     0.068 C 
HETATM   12  C1  UNL     1      -2.824  -1.781  -0.835  1.00  0.00     0.045 C 
HETATM   13  C14 UNL     1      -2.609  -0.363   1.196  1.00  0.00     0.070 C 
HETATM   14  C15 UNL     1      -2.949   1.095   1.261  1.00  0.00     0.191 C 
HETATM   15  C16 UNL     1      -4.202   1.360   0.463  1.00  0.00     0.037 C 
HETATM   16  N2  UNL     1      -1.982   1.932   0.570  1.00  0.00    -0.050 N 
HETATM   17  C17 UNL     1      -3.692   1.409  -0.943  1.00  0.00     0.056 C 
HETATM   18  C18 UNL     1      -2.193   1.479  -0.806  1.00  0.00     0.281 C 
HETATM   19  N3  UNL     1      -1.537   0.221  -0.947  1.00  0.00    -0.382 N 
ATOM     20  H3  UNL     1      -0.816   0.067  -1.652  1.00  0.00     0.156 HD
ATOM     21  H22 UNL     1      -2.070   2.936   0.726  1.00  0.00     0.280 HD
ATOM     22  H21 UNL     1      -1.023   1.880   0.913  1.00  0.00     0.280 HD
ENDBRANCH   1  11
BRANCH   4  23
HETATM   23  C7  UNL     1       3.442  -0.041  -0.081  1.00  0.00    -0.079 C 
HETATM   24  C8  UNL     1       3.132   0.957   0.984  1.00  0.00     0.034 C 
HETATM   25  C9  UNL     1       3.772   2.217   0.434  1.00  0.00     0.005 C 
HETATM   26  C10 UNL     1       3.704   2.095  -1.049  1.00  0.00     0.005 C 
HETATM   27  C11 UNL     1       3.210   0.669  -1.359  1.00  0.00     0.034 C 
ENDBRANCH   4  23
TORSDOF 2
