REMARK  7 active torsions:
REMARK  status: ('A' for Active; 'I' for Inactive)
REMARK    1  A    between atoms: C2_2  and  C4_4 
REMARK    2  A    between atoms: C10_10  and  O1_11 
REMARK    3  A    between atoms: C11_13  and  C12_14 
REMARK    4  A    between atoms: C12_14  and  O2_15 
REMARK    5  A    between atoms: O2_15  and  C13_16 
REMARK    6  A    between atoms: C14_19  and  O5_20 
REMARK    7  A    between atoms: C18_25  and  C19_26 
ROOT
HETATM    1  C4  UNL     1       3.418   0.886  -0.092  1.00  0.00     0.022 C 
HETATM    2  C5  UNL     1       3.447   0.921   1.427  1.00  0.00     0.010 C 
HETATM    3  C6  UNL     1       2.169   0.267   1.917  1.00  0.00     0.006 C 
HETATM    4  C7  UNL     1       1.379   0.071   0.694  1.00  0.00    -0.001 C 
HETATM    5  C8  UNL     1       0.352  -1.059   0.787  1.00  0.00     0.002 C 
HETATM    6  C9  UNL     1      -0.571  -0.709   1.885  1.00  0.00     0.038 C 
HETATM    7  C10 UNL     1      -2.013  -0.522   1.603  1.00  0.00     0.132 C 
HETATM    8  C11 UNL     1      -2.380  -0.182   0.208  1.00  0.00     0.038 C 
HETATM    9  C14 UNL     1      -3.736  -0.876  -0.071  1.00  0.00     0.131 C 
HETATM   10  C15 UNL     1      -3.794  -0.878  -1.568  1.00  0.00     0.033 C 
HETATM   11  C16 UNL     1      -2.366  -1.356  -1.884  1.00  0.00     0.009 C 
HETATM   12  C17 UNL     1      -1.501  -0.669  -0.861  1.00  0.00     0.010 C 
HETATM   13  C18 UNL     1      -0.257  -1.440  -0.512  1.00  0.00    -0.032 C 
HETATM   14  C21 UNL     1       0.681  -1.232  -1.714  1.00  0.00     0.011 C 
HETATM   15  C22 UNL     1       1.643  -0.105  -1.614  1.00  0.00     0.011 C 
HETATM   16  C23 UNL     1       2.426  -0.181  -0.356  1.00  0.00    -0.033 C 
HETATM   17  C24 UNL     1       3.141  -1.492  -0.152  1.00  0.00     0.016 C 
ENDROOT
BRANCH   8  18
HETATM   18  C12 UNL     1      -2.777   1.278   0.065  1.00  0.00     0.197 C 
BRANCH  18  19
HETATM   19  O2  UNL     1      -1.738   2.170   0.440  1.00  0.00    -0.295 OA
BRANCH  19  20
HETATM   20  C13 UNL     1      -1.953   3.549   0.373  1.00  0.00     0.332 C 
HETATM   21  O3  UNL     1      -3.085   3.923  -0.028  1.00  0.00    -0.624 OA
HETATM   22  O4  UNL     1      -1.015   4.496   0.715  1.00  0.00    -0.624 OA
ENDBRANCH  19  20
ENDBRANCH  18  19
ENDBRANCH   8  18
BRANCH   7  23
HETATM   23  O1  UNL     1      -2.529   0.525   2.419  1.00  0.00    -0.395 OA
ATOM     24  H1  UNL     1      -3.454   0.645   2.238  1.00  0.00     0.210 HD
ENDBRANCH   7  23
BRANCH   9  25
HETATM   25  O5  UNL     1      -4.797  -0.125   0.461  1.00  0.00    -0.395 OA
ATOM     26  H5  UNL     1      -5.629  -0.551   0.290  1.00  0.00     0.210 HD
ENDBRANCH   9  25
BRANCH  13  27
HETATM   27  C19 UNL     1      -0.405  -2.948  -0.578  1.00  0.00     0.006 C 
HETATM   28  C20 UNL     1      -1.193  -3.674   0.386  1.00  0.00     0.006 C 
ENDBRANCH  13  27
BRANCH   1  29
HETATM   29  C2  UNL     1       3.225   2.197  -0.690  1.00  0.00    -0.088 C 
HETATM   30  C1  UNL     1       4.184   2.608  -1.560  1.00  0.00     0.014 C 
HETATM   31  C3  UNL     1       2.147   3.165  -0.457  1.00  0.00     0.043 C 
ENDBRANCH   1  29
TORSDOF 7
