REMARK  4 active torsions:
REMARK  status: ('A' for Active; 'I' for Inactive)
REMARK       I    between atoms: N1_2  and  C2_4 
REMARK    1  A    between atoms: C2_4  and  C3_6 
REMARK    2  A    between atoms: C4_7  and  C5_8 
REMARK       I    between atoms: N2_13  and  C8_14 
REMARK    3  A    between atoms: C8_14  and  O5_16 
REMARK    4  A    between atoms: O5_16  and  C9_17 
ROOT
HETATM    1  C3  UNL     1      -2.582  -0.024   1.021  1.00  0.00     0.102 C 
HETATM    2  C4  UNL     1      -2.631  -1.419   1.536  1.00  0.00     0.106 C 
HETATM    3  C6  UNL     1      -1.413  -1.789   0.670  1.00  0.00     0.029 C 
HETATM    4  C7  UNL     1      -0.085  -1.687   1.383  1.00  0.00     0.137 C 
HETATM    5  N2  UNL     1       0.650  -0.672   0.648  1.00  0.00    -0.291 N 
HETATM    6  C8  UNL     1       2.040  -0.607   0.523  1.00  0.00     0.366 C 
HETATM    7  O4  UNL     1       2.839  -1.433   1.042  1.00  0.00    -0.238 OA
HETATM    8  C13 UNL     1      -0.293   0.269   0.058  1.00  0.00     0.183 C 
HETATM    9  C14 UNL     1       0.096   0.679  -1.333  1.00  0.00     0.077 C 
HETATM   10  F1  UNL     1      -0.378   1.335   0.933  1.00  0.00    -0.219 F 
HETATM   11  C15 UNL     1      -1.615  -0.467  -0.038  1.00  0.00     0.067 C 
ENDROOT
BRANCH   6  12
HETATM   12  O5  UNL     1       2.655   0.419  -0.213  1.00  0.00    -0.294 OA
BRANCH  12  13
HETATM   13  C9  UNL     1       4.039   0.503  -0.350  1.00  0.00     0.061 C 
HETATM   14  C10 UNL     1       4.635  -0.729  -1.021  1.00  0.00     0.046 C 
HETATM   15  C11 UNL     1       4.331   1.670  -1.293  1.00  0.00     0.046 C 
HETATM   16  C12 UNL     1       4.753   0.752   0.968  1.00  0.00     0.046 C 
ENDBRANCH  12  13
ENDBRANCH   6  12
BRANCH   2  17
HETATM   17  C5  UNL     1      -3.767  -2.276   1.152  1.00  0.00     0.178 C 
HETATM   18  O2  UNL     1      -4.568  -2.648   2.047  1.00  0.00    -0.648 OA
HETATM   19  O3  UNL     1      -4.014  -2.703  -0.141  1.00  0.00    -0.648 OA
ENDBRANCH   2  17
BRANCH   1  20
HETATM   20  C2  UNL     1      -3.798   0.558   0.440  1.00  0.00     0.222 C 
HETATM   21  N1  UNL     1      -3.744   1.853  -0.119  1.00  0.00    -0.365 N 
HETATM   22  C1  UNL     1      -4.969   2.404  -0.688  1.00  0.00     0.149 C 
ATOM     23  H1  UNL     1      -2.875   2.387  -0.125  1.00  0.00     0.161 HD
HETATM   24  O1  UNL     1      -4.882  -0.061   0.426  1.00  0.00    -0.273 OA
ENDBRANCH   1  20
TORSDOF 4
