REMARK  2 active torsions:
REMARK  status: ('A' for Active; 'I' for Inactive)
REMARK    1  A    between atoms: C1_2  and  C2_3 
REMARK    2  A    between atoms: C9_14  and  C10_15 
ROOT
HETATM    1  C2  UNL     1       0.546   0.986  -1.341  1.00  0.00     0.084 A 
HETATM    2  N1  UNL     1      -0.802   0.806  -1.810  1.00  0.00    -0.360 N 
ATOM      3  H1  UNL     1      -1.193   1.134  -2.693  1.00  0.00     0.162 HD
HETATM    4  C3  UNL     1      -1.477   0.079  -0.794  1.00  0.00     0.104 A 
HETATM    5  C4  UNL     1      -2.658   0.880  -0.307  1.00  0.00     0.053 C 
HETATM    6  C5  UNL     1      -3.469   0.159   0.724  1.00  0.00     0.004 C 
HETATM    7  C6  UNL     1      -3.658  -1.292   0.462  1.00  0.00     0.000 C 
HETATM    8  C7  UNL     1      -2.433  -2.012   0.000  1.00  0.00     0.004 C 
HETATM    9  C8  UNL     1      -1.941  -1.296  -1.265  1.00  0.00     0.053 C 
HETATM   10  N2  UNL     1      -0.499  -0.145   0.238  1.00  0.00    -0.362 N 
ATOM     11  H2  UNL     1      -0.697  -0.648   1.103  1.00  0.00     0.162 HD
HETATM   12  C9  UNL     1       0.656   0.358  -0.047  1.00  0.00     0.086 A 
ENDROOT
BRANCH  12  13
HETATM   13  C10 UNL     1       1.792   0.228   0.874  1.00  0.00     0.195 C 
HETATM   14  F2  UNL     1       1.435  -0.266   2.113  1.00  0.00    -0.224 F 
HETATM   15  C11 UNL     1       2.969  -0.530   0.389  1.00  0.00     0.062 C 
HETATM   16  C12 UNL     1       3.993  -0.271   1.508  1.00  0.00     0.015 C 
HETATM   17  C13 UNL     1       4.292   1.230   1.422  1.00  0.00     0.077 C 
HETATM   18  S1  UNL     1       2.575   1.859   1.207  1.00  0.00    -0.120 SA
ENDBRANCH  12  13
BRANCH   1  19
HETATM   19  C1  UNL     1       1.521   1.612  -1.965  1.00  0.00     0.219 C 
HETATM   20  F1  UNL     1       1.269   2.158  -3.176  1.00  0.00    -0.217 F 
ENDBRANCH   1  19
TORSDOF 2
