REMARK  7 active torsions:
REMARK  status: ('A' for Active; 'I' for Inactive)
REMARK    1  A    between atoms: C4_9  and  C5_10 
REMARK    2  A    between atoms: C10_15  and  C11_16 
REMARK    3  A    between atoms: C11_16  and  N3_17 
REMARK    4  A    between atoms: N3_17  and  S1_19 
REMARK    5  A    between atoms: S1_19  and  N4_22 
REMARK    6  A    between atoms: N4_22  and  C12_24 
REMARK    7  A    between atoms: C12_24  and  N5_25 
ROOT
HETATM    1  C5  UNL     1      -1.972  -0.131  -0.831  1.00  0.00    -0.011 A 
HETATM    2  C6  UNL     1      -2.894  -0.446  -1.809  1.00  0.00     0.013 A 
HETATM    3  C7  UNL     1      -2.603  -1.327  -2.799  1.00  0.00     0.001 A 
HETATM    4  C8  UNL     1      -1.363  -1.915  -2.821  1.00  0.00     0.001 A 
HETATM    5  C9  UNL     1      -0.427  -1.603  -1.839  1.00  0.00     0.010 A 
HETATM    6  C10 UNL     1      -0.699  -0.713  -0.825  1.00  0.00    -0.029 A 
ENDROOT
BRANCH   6   7
HETATM    7  C11 UNL     1       0.275  -0.355   0.250  1.00  0.00     0.173 C 
BRANCH   7   8
HETATM    8  N3  UNL     1       1.494  -1.091   0.001  1.00  0.00    -0.299 N 
ATOM      9  H3  UNL     1       1.635  -1.732  -0.780  1.00  0.00     0.174 HD
BRANCH   8  10
HETATM   10  S1  UNL     1       2.689  -0.735   1.216  1.00  0.00     0.316 S 
HETATM   11  O2  UNL     1       3.560  -1.934   1.390  1.00  0.00    -0.183 OA
HETATM   12  O3  UNL     1       2.042  -0.413   2.532  1.00  0.00    -0.183 OA
BRANCH  10  13
HETATM   13  N4  UNL     1       3.595   0.614   0.642  1.00  0.00    -0.285 N 
ATOM     14  H4  UNL     1       3.375   1.595   0.817  1.00  0.00     0.175 HD
BRANCH  13  15
HETATM   15  C12 UNL     1       4.736   0.120  -0.141  1.00  0.00     0.273 C 
BRANCH  15  16
HETATM   16  N5  UNL     1       5.525   1.184  -0.644  1.00  0.00    -0.324 N 
HETATM   17  N6  UNL     1       6.395   1.731   0.042  1.00  0.00    -0.348 N 
ATOM     18  H62 UNL     1       6.536   1.395   0.995  1.00  0.00     0.176 HD
ATOM     19  H61 UNL     1       6.963   2.497  -0.320  1.00  0.00     0.176 HD
ATOM     20  H5  UNL     1       5.370   1.507  -1.599  1.00  0.00     0.181 HD
ENDBRANCH  15  16
ENDBRANCH  13  15
ENDBRANCH  10  13
ENDBRANCH   8  10
ENDBRANCH   7   8
ENDBRANCH   6   7
BRANCH   1  21
HETATM   21  C4  UNL     1      -2.266   0.809   0.235  1.00  0.00     0.068 A 
HETATM   22  C2  UNL     1      -2.809   0.566   1.471  1.00  0.00     0.038 A 
HETATM   23  C1  UNL     1      -3.231  -0.752   2.015  1.00  0.00     0.071 C 
HETATM   24  N1  UNL     1      -2.909   1.749   2.152  1.00  0.00    -0.301 N 
HETATM   25  N2  UNL     1      -2.440   2.693   1.355  1.00  0.00    -0.266 N 
ATOM     26  H1  UNL     1      -3.276   1.878   3.095  1.00  0.00     0.186 HD
HETATM   27  C3  UNL     1      -2.036   2.159   0.171  1.00  0.00     0.272 A 
ATOM     28  H2  UNL     1      -2.388   3.683   1.594  1.00  0.00     0.190 HD
HETATM   29  O1  UNL     1      -1.548   2.853  -0.766  1.00  0.00    -0.266 OA
ENDBRANCH   1  21
TORSDOF 7
