REMARK  4 active torsions:
REMARK  status: ('A' for Active; 'I' for Inactive)
REMARK    1  A    between atoms: N1_1  and  C1_4 
REMARK    2  A    between atoms: C6_15  and  C7_16 
REMARK    3  A    between atoms: C7_16  and  N5_17 
REMARK    4  A    between atoms: C7_16  and  N6_21 
ROOT
HETATM    1  C1  UNL     1       3.613   0.041  -0.350  1.00  0.00     0.116 A 
HETATM    2  C2  UNL     1       3.138  -0.709  -1.403  1.00  0.00     0.138 A 
HETATM    3  N2  UNL     1       1.814  -0.813  -1.582  1.00  0.00    -0.346 N 
ATOM      4  H2  UNL     1       1.460  -1.369  -2.361  1.00  0.00     0.167 HD
HETATM    5  C3  UNL     1       0.929  -0.197  -0.752  1.00  0.00     0.146 A 
HETATM    6  C4  UNL     1       1.425   0.554   0.304  1.00  0.00     0.147 A 
HETATM    7  N3  UNL     1       2.754   0.642   0.462  1.00  0.00    -0.325 N 
ATOM      8  H3  UNL     1       3.119   1.194   1.238  1.00  0.00     0.169 HD
HETATM    9  N4  UNL     1       0.607   1.145   1.103  1.00  0.00    -0.371 N 
ATOM     10  H4  UNL     1       1.003   1.690   1.869  1.00  0.00     0.161 HD
HETATM   11  C5  UNL     1      -0.801   1.093   0.995  1.00  0.00     0.150 A 
HETATM   12  C6  UNL     1      -1.311   0.296  -0.126  1.00  0.00     0.158 A 
HETATM   13  N7  UNL     1      -0.327  -0.305  -0.935  1.00  0.00    -0.363 N 
ATOM     14  H7  UNL     1      -0.643  -0.868  -1.725  1.00  0.00     0.161 HD
ENDROOT
BRANCH  12  15
HETATM   15  C7  UNL     1      -2.365  -0.731   0.318  1.00  0.00     0.401 C 
BRANCH  15  16
HETATM   16  N5  UNL     1      -2.763  -1.427  -0.896  1.00  0.00    -0.048 N 
ATOM     17  H53 UNL     1      -3.083  -0.806  -1.639  1.00  0.00     0.276 HD
ATOM     18  H52 UNL     1      -1.982  -1.836  -1.409  1.00  0.00     0.276 HD
ATOM     19  H51 UNL     1      -3.462  -2.108  -0.601  1.00  0.00     0.276 HD
ENDBRANCH  15  16
BRANCH  15  20
HETATM   20  N6  UNL     1      -3.522  -0.087   0.857  1.00  0.00    -0.048 N 
ATOM     21  H63 UNL     1      -3.277   0.550   1.615  1.00  0.00     0.276 HD
ATOM     22  H62 UNL     1      -3.912   0.591   0.203  1.00  0.00     0.276 HD
ATOM     23  H61 UNL     1      -4.221  -0.768   1.152  1.00  0.00     0.276 HD
ENDBRANCH  15  20
ENDBRANCH  12  15
BRANCH   1  24
HETATM   24  N1  UNL     1       4.909   0.131  -0.191  1.00  0.00    -0.384 N 
ATOM     25  H12 UNL     1       5.570  -0.331  -0.816  1.00  0.00     0.157 HD
ATOM     26  H11 UNL     1       5.261   0.686   0.589  1.00  0.00     0.157 HD
ENDBRANCH   1  24
TORSDOF 4
