REMARK  7 active torsions:
REMARK  status: ('A' for Active; 'I' for Inactive)
REMARK    1  A    between atoms: N1_1  and  C1_4 
REMARK    2  A    between atoms: C2_7  and  C3_8 
REMARK    3  A    between atoms: N3_9  and  C4_11 
REMARK    4  A    between atoms: C4_11  and  C5_12 
REMARK    5  A    between atoms: C5_12  and  S1_13 
REMARK    6  A    between atoms: S1_13  and  C6_14 
REMARK    7  A    between atoms: C6_14  and  N4_15 
ROOT
HETATM    1  C1  UNL     1      -3.520   0.411  -2.832  1.00  0.00     0.679 A 
HETATM    2  N2  UNL     1      -2.527  -0.030  -2.042  1.00  0.00    -0.191 N 
ATOM      3  H2  UNL     1      -1.639  -0.281  -2.477  1.00  0.00     0.184 HD
HETATM    4  C2  UNL     1      -2.642  -0.158  -0.712  1.00  0.00     0.069 A 
HETATM    5  C8  UNL     1      -3.836   0.176  -0.111  1.00  0.00     0.106 A 
HETATM    6  C9  UNL     1      -4.853   0.628  -0.923  1.00  0.00     0.261 A 
HETATM    7  O1  UNL     1      -5.951   0.939  -0.396  1.00  0.00    -0.268 OA
HETATM    8  N6  UNL     1      -4.683   0.736  -2.239  1.00  0.00    -0.156 N 
ATOM      9  H6  UNL     1      -5.455   1.074  -2.813  1.00  0.00     0.187 HD
ENDROOT
BRANCH   4  10
HETATM   10  C3  UNL     1      -1.531  -0.641   0.090  1.00  0.00     0.113 C 
HETATM   11  N3  UNL     1      -0.433  -0.942  -0.517  1.00  0.00    -0.396 N 
ATOM     12  H3  UNL     1      -0.334  -0.849  -1.528  1.00  0.00     0.158 HD
BRANCH  11  13
HETATM   13  C4  UNL     1       0.663  -1.425   0.327  1.00  0.00     0.129 C 
BRANCH  13  14
HETATM   14  C5  UNL     1       1.085  -0.225   1.161  1.00  0.00     0.095 C 
BRANCH  14  15
HETATM   15  S1  UNL     1       2.427  -0.580   2.283  1.00  0.00    -0.148 SA
BRANCH  15  16
HETATM   16  C6  UNL     1       3.927  -0.946   1.340  1.00  0.00     0.194 C 
BRANCH  16  17
HETATM   17  N4  UNL     1       4.337   0.252   0.644  1.00  0.00    -0.379 N 
HETATM   18  C7  UNL     1       4.769   1.267   1.304  1.00  0.00     0.185 C 
HETATM   19  N5  UNL     1       4.862   1.262   2.710  1.00  0.00    -0.097 NA
ATOM     20  H4  UNL     1       4.284   0.292  -0.374  1.00  0.00     0.160 HD
ENDBRANCH  16  17
ENDBRANCH  15  16
ENDBRANCH  14  15
ENDBRANCH  13  14
ENDBRANCH  11  13
ENDBRANCH   4  10
BRANCH   1  21
HETATM   21  N1  UNL     1      -3.400   0.531  -4.112  1.00  0.00    -0.234 N 
ATOM     22  H12 UNL     1      -2.518   0.285  -4.562  1.00  0.00     0.174 HD
ATOM     23  H11 UNL     1      -4.154   0.866  -4.712  1.00  0.00     0.174 HD
ENDBRANCH   1  21
TORSDOF 7
