REMARK  5 active torsions:
REMARK  status: ('A' for Active; 'I' for Inactive)
REMARK    1  A    between atoms: C5_7  and  N2_8 
REMARK    2  A    between atoms: C10_16  and  C11_17 
REMARK    3  A    between atoms: C12_19  and  O1_21 
REMARK    4  A    between atoms: O1_21  and  C14_22 
REMARK    5  A    between atoms: C14_22  and  C15_23 
ROOT
HETATM    1  C1  UNL     1       0.507  -1.999  -1.133  1.00  0.00     0.050 C 
HETATM    2  C2  UNL     1       1.556  -1.405  -0.319  1.00  0.00    -0.026 A 
HETATM    3  C3  UNL     1       1.397  -0.207   0.306  1.00  0.00     0.006 A 
HETATM    4  C4  UNL     1       2.527   0.332   0.978  1.00  0.00     0.020 A 
HETATM    5  N1  UNL     1       3.699  -0.323   1.002  1.00  0.00    -0.344 N 
ATOM      6  H1  UNL     1       4.485   0.098   1.498  1.00  0.00     0.167 HD
HETATM    7  C5  UNL     1       3.879  -1.506   0.402  1.00  0.00     0.120 A 
HETATM    8  C6  UNL     1       2.813  -2.059  -0.265  1.00  0.00     0.094 A 
HETATM    9  C7  UNL     1       2.915  -3.327  -0.941  1.00  0.00     0.104 C 
HETATM   10  N3  UNL     1       3.018  -4.354  -1.481  1.00  0.00    -0.191 NA
HETATM   11  C8  UNL     1       2.538   1.665   1.568  1.00  0.00     0.058 C 
HETATM   12  C9  UNL     1       1.578   2.622   0.952  1.00  0.00     0.015 C 
HETATM   13  C10 UNL     1       0.573   2.038   0.054  1.00  0.00     0.039 C 
HETATM   14  C12 UNL     1       0.191   0.570   0.416  1.00  0.00     0.091 C 
HETATM   15  C13 UNL     1       0.039   0.687   2.012  1.00  0.00     0.052 C 
ENDROOT
BRANCH   7  16
HETATM   16  N2  UNL     1       4.988  -2.159   0.409  1.00  0.00    -0.384 N 
ATOM     17  H22 UNL     1       5.780  -1.748   0.904  1.00  0.00     0.157 HD
ATOM     18  H21 UNL     1       5.125  -3.060  -0.048  1.00  0.00     0.157 HD
ENDBRANCH   7  16
BRANCH  14  19
HETATM   19  O1  UNL     1      -1.013   0.326  -0.033  1.00  0.00    -0.374 OA
BRANCH  19  20
HETATM   20  C14 UNL     1      -2.008  -0.437   0.335  1.00  0.00     0.177 C 
BRANCH  20  21
HETATM   21  C15 UNL     1      -3.246  -0.334  -0.599  1.00  0.00    -0.030 C 
HETATM   22  C16 UNL     1      -3.688   1.087  -0.567  1.00  0.00     0.016 C 
HETATM   23  C17 UNL     1      -3.065  -0.928  -1.930  1.00  0.00     0.016 C 
HETATM   24  C18 UNL     1      -4.318  -1.156   0.128  1.00  0.00     0.016 C 
ENDBRANCH  20  21
ENDBRANCH  19  20
ENDBRANCH  14  19
BRANCH  13  25
HETATM   25  C11 UNL     1       0.779   2.213  -1.411  1.00  0.00     0.122 C 
HETATM   26 CL1  UNL     1       2.250   1.550  -2.075  1.00  0.00    -0.130 Cl
ENDBRANCH  13  25
TORSDOF 5
