REMARK  2 active torsions:
REMARK  status: ('A' for Active; 'I' for Inactive)
REMARK    1  A    between atoms: C6_6  and  C7_7 
REMARK    2  A    between atoms: C7_7  and  N1_8 
ROOT
HETATM    1  C1  UNL     1      -3.268  -1.806  -0.419  1.00  0.00     0.045 C 
HETATM    2  C2  UNL     1      -2.925  -0.699   0.545  1.00  0.00     0.055 C 
HETATM    3  C3  UNL     1      -3.844  -0.781   1.768  1.00  0.00     0.045 C 
HETATM    4  C4  UNL     1      -1.484  -0.748   0.998  1.00  0.00     0.045 C 
HETATM    5  C5  UNL     1      -0.814   0.150  -0.016  1.00  0.00     0.032 C 
HETATM    6  C6  UNL     1       0.238   1.033   0.569  1.00  0.00     0.031 C 
HETATM    7  C12 UNL     1      -0.327   2.444   0.596  1.00  0.00     0.013 C 
HETATM    8  C13 UNL     1      -1.720   2.381   0.075  1.00  0.00     0.039 C 
HETATM    9  C14 UNL     1      -1.926   1.005  -0.514  1.00  0.00     0.063 C 
HETATM   10  C15 UNL     1      -1.888   1.040  -2.037  1.00  0.00     0.046 C 
HETATM   11  O1  UNL     1      -3.121   0.518  -0.055  1.00  0.00    -0.370 OA
ENDROOT
BRANCH   6  12
HETATM   12  C7  UNL     1       1.468   1.051  -0.272  1.00  0.00     0.068 C 
BRANCH  12  13
HETATM   13  N1  UNL     1       2.108  -0.187  -0.465  1.00  0.00    -0.370 N 
HETATM   14  C8  UNL     1       3.270  -0.216  -1.253  1.00  0.00     0.090 C 
HETATM   15  C9  UNL     1       4.478  -0.017  -0.342  1.00  0.00     0.277 C 
HETATM   16  N2  UNL     1       4.335  -0.833   0.833  1.00  0.00    -0.069 N 
HETATM   17  C10 UNL     1       3.324  -1.857   0.698  1.00  0.00     0.252 C 
ATOM     18  H22 UNL     1       5.230  -1.241   1.102  1.00  0.00     0.277 HD
ATOM     19  H21 UNL     1       4.159  -0.256   1.656  1.00  0.00     0.277 HD
HETATM   20  C11 UNL     1       1.948  -1.199   0.499  1.00  0.00     0.154 C 
ENDBRANCH  12  13
ENDBRANCH   6  12
TORSDOF 2
