REMARK  16 active torsions:
REMARK  status: ('A' for Active; 'I' for Inactive)
REMARK       I    between atoms: N1_2  and  C2_4 
REMARK    1  A    between atoms: C2_4  and  C3_6 
REMARK    2  A    between atoms: C3_6  and  O2_7 
REMARK    3  A    between atoms: C3_6  and  C4_9 
REMARK    4  A    between atoms: C4_9  and  C5_10 
REMARK    5  A    between atoms: C4_9  and  C18_35 
REMARK    6  A    between atoms: C4_9  and  C31_49 
REMARK    7  A    between atoms: C5_10  and  O3_11 
REMARK    8  A    between atoms: C5_10  and  N2_13 
REMARK       I    between atoms: N2_13  and  C6_15 
REMARK    9  A    between atoms: C6_15  and  C7_17 
REMARK   10  A    between atoms: C7_17  and  C8_18 
REMARK   11  A    between atoms: C7_17  and  N3_22 
REMARK   12  A    between atoms: C8_18  and  C9_19 
REMARK       I    between atoms: C12_24  and  N4_25 
REMARK       I    between atoms: C12_24  and  N6_29 
REMARK   13  A    between atoms: N6_29  and  C14_31 
REMARK   14  A    between atoms: C18_35  and  C19_36 
REMARK   15  A    between atoms: C18_35  and  N7_44 
REMARK   16  A    between atoms: C19_36  and  C20_37 
ROOT
HETATM    1  N3  UNL     1       4.007   1.636  -0.693  1.00  0.00    -0.212 N 
ATOM      2  H3  UNL     1       3.281   2.333  -0.856  1.00  0.00     0.178 HD
HETATM    3  C12 UNL     1       5.081   2.145  -0.917  1.00  0.00     0.684 C 
HETATM    4  N4  UNL     1       5.097   3.533  -1.339  1.00  0.00    -0.126 N 
ATOM      5  H4  UNL     1       5.596   3.768  -2.197  1.00  0.00     0.197 HD
HETATM    6  C13 UNL     1       4.479   4.549  -0.651  1.00  0.00     0.196 C 
HETATM    7  N5  UNL     1       3.960   5.401  -0.056  1.00  0.00    -0.171 NA
HETATM    8  N6  UNL     1       6.353   1.556  -0.825  1.00  0.00    -0.218 N 
ATOM      9  H6  UNL     1       6.658   0.962  -1.596  1.00  0.00     0.178 HD
ENDROOT
BRANCH   1  10
HETATM   10  C7  UNL     1       3.385   0.431  -0.288  1.00  0.00     0.192 C 
BRANCH  10  11
HETATM   11  C6  UNL     1       1.940   0.434  -0.603  1.00  0.00     0.246 C 
HETATM   12  N2  UNL     1       0.988  -0.398   0.010  1.00  0.00    -0.308 N 
ATOM     13  H2  UNL     1       1.305  -1.035   0.741  1.00  0.00     0.170 HD
HETATM   14  O4  UNL     1       1.586   1.273  -1.501  1.00  0.00    -0.271 OA
BRANCH  12  15
HETATM   15  C5  UNL     1      -0.379  -0.403  -0.327  1.00  0.00     0.140 C 
BRANCH  15  16
HETATM   16  C4  UNL     1      -1.529  -1.188   0.125  1.00  0.00     0.127 C 
BRANCH  16  17
HETATM   17  C3  UNL     1      -1.704  -2.264  -0.869  1.00  0.00     0.134 C 
BRANCH  17  18
HETATM   18  C2  UNL     1      -2.171  -3.575  -0.947  1.00  0.00     0.271 C 
HETATM   19  N1  UNL     1      -2.234  -4.373  -2.160  1.00  0.00    -0.360 N 
HETATM   20  C1  UNL     1      -2.723  -5.720  -2.197  1.00  0.00     0.149 C 
ATOM     21  H1  UNL     1      -1.913  -3.952  -3.032  1.00  0.00     0.162 HD
HETATM   22  O1  UNL     1      -2.596  -4.231   0.024  1.00  0.00    -0.266 OA
ENDBRANCH  17  18
BRANCH  17  23
HETATM   23  O2  UNL     1      -1.290  -1.865  -2.060  1.00  0.00    -0.358 OA
ATOM     24  H2  UNL     1      -0.972  -0.971  -2.007  1.00  0.00     0.217 HD
ENDBRANCH  17  23
ENDBRANCH  16  17
BRANCH  16  25
HETATM   25  C18 UNL     1      -2.761  -0.251  -0.114  1.00  0.00     0.028 C 
BRANCH  25  26
HETATM   26  C19 UNL     1      -2.783   0.904   0.804  1.00  0.00     0.009 C 
BRANCH  26  27
HETATM   27  C20 UNL     1      -3.676   2.055   0.807  1.00  0.00    -0.024 C 
HETATM   28  C21 UNL     1      -3.279   2.924   2.054  1.00  0.00     0.019 C 
HETATM   29  C22 UNL     1      -3.253   3.072  -0.320  1.00  0.00     0.013 C 
HETATM   30  C23 UNL     1      -4.297   3.130  -1.404  1.00  0.00     0.001 C 
HETATM   31  C24 UNL     1      -5.480   3.911  -0.823  1.00  0.00     0.000 C 
HETATM   32  C25 UNL     1      -5.578   3.556   0.629  1.00  0.00     0.001 C 
HETATM   33  C26 UNL     1      -5.109   2.079   0.738  1.00  0.00     0.013 C 
ENDBRANCH  26  27
ENDBRANCH  25  26
BRANCH  25  34
HETATM   34  N7  UNL     1      -3.925  -0.690  -0.680  1.00  0.00    -0.383 N 
HETATM   35  C27 UNL     1      -4.191  -0.992  -2.011  1.00  0.00     0.123 C 
HETATM   36  C28 UNL     1      -5.722  -0.753  -2.182  1.00  0.00     0.021 C 
HETATM   37  C29 UNL     1      -6.243  -1.273  -0.880  1.00  0.00     0.021 C 
HETATM   38  C30 UNL     1      -5.028  -1.263   0.011  1.00  0.00     0.123 C 
ENDBRANCH  25  34
ENDBRANCH  16  25
BRANCH  16  39
HETATM   39  C31 UNL     1      -1.350  -1.650   1.511  1.00  0.00    -0.024 C 
HETATM   40  C32 UNL     1      -0.267  -2.758   1.550  1.00  0.00     0.016 C 
HETATM   41  C33 UNL     1      -2.434  -2.142   2.374  1.00  0.00     0.016 C 
HETATM   42  C34 UNL     1      -0.624  -0.614   2.419  1.00  0.00     0.016 C 
ENDBRANCH  16  39
ENDBRANCH  15  16
BRANCH  15  43
HETATM   43  O3  UNL     1      -0.599   0.497  -1.243  1.00  0.00    -0.348 OA
ATOM     44  H3  UNL     1       0.147   1.006  -1.536  1.00  0.00     0.219 HD
ENDBRANCH  15  43
ENDBRANCH  12  15
ENDBRANCH  10  11
BRANCH  10  45
HETATM   45  C8  UNL     1       4.130  -0.759  -0.807  1.00  0.00     0.039 C 
BRANCH  45  46
HETATM   46  C9  UNL     1       3.758  -2.102  -0.310  1.00  0.00    -0.020 C 
HETATM   47  C10 UNL     1       3.987  -2.214   1.209  1.00  0.00     0.009 C 
HETATM   48  C11 UNL     1       4.775  -3.104  -0.899  1.00  0.00     0.009 C 
ENDBRANCH  45  46
ENDBRANCH  10  45
ENDBRANCH   1  10
BRANCH   8  49
HETATM   49  C14 UNL     1       7.257   1.733   0.284  1.00  0.00     0.036 C 
HETATM   50  C15 UNL     1       8.511   0.918   0.010  1.00  0.00     0.038 C 
HETATM   51  C16 UNL     1       6.687   1.298   1.589  1.00  0.00     0.038 C 
HETATM   52  C17 UNL     1       7.717   3.172   0.416  1.00  0.00     0.038 C 
ENDBRANCH   8  49
TORSDOF 16
