REMARK  4 active torsions:
REMARK  status: ('A' for Active; 'I' for Inactive)
REMARK    1  A    between atoms: C2_2  and  C3_3 
REMARK    2  A    between atoms: C3_3  and  N1_4 
REMARK    3  A    between atoms: C4_6  and  N2_7 
REMARK    4  A    between atoms: N2_7  and  C5_9 
ROOT
HETATM    1  N2  UNL     1       1.055   0.237  -0.421  1.00  0.00    -0.358 N 
ATOM      2  H2  UNL     1       0.584   0.795  -1.133  1.00  0.00     0.162 HD
ENDROOT
BRANCH   1   3
HETATM    3  C4  UNL     1       0.393  -0.911   0.094  1.00  0.00     0.173 C 
HETATM    4  N1  UNL     1      -0.851  -0.971   0.383  1.00  0.00    -0.383 N 
ATOM      5  H1  UNL     1      -1.269  -1.826   0.749  1.00  0.00     0.160 HD
BRANCH   4   6
HETATM    6  C3  UNL     1      -1.650   0.231   0.169  1.00  0.00     0.147 C 
BRANCH   6   7
HETATM    7  C2  UNL     1      -2.977   0.111   0.818  1.00  0.00    -0.018 C 
HETATM    8  C1  UNL     1      -4.109   0.180   0.129  1.00  0.00     0.008 C 
ENDBRANCH   6   7
ENDBRANCH   4   6
ENDBRANCH   1   3
BRANCH   1   9
HETATM    9  C5  UNL     1       2.372   0.646   0.025  1.00  0.00     0.310 A 
HETATM   10  C6  UNL     1       3.535  -0.201  -0.109  1.00  0.00     0.289 A 
HETATM   11  N3  UNL     1       2.825  -0.062   1.236  1.00  0.00    -0.049 N 
ATOM     12  H32 UNL     1       3.088   0.195   2.188  1.00  0.00     0.279 HD
ATOM     13  H31 UNL     1       2.411  -0.693   1.922  1.00  0.00     0.279 HD
ENDBRANCH   1   9
TORSDOF 4
