REMARK  13 active torsions:
REMARK  status: ('A' for Active; 'I' for Inactive)
REMARK    1  A    between atoms: O1_1  and  N1_3 
REMARK    2  A    between atoms: N1_3  and  N2_5 
REMARK    3  A    between atoms: N2_5  and  N3_6 
REMARK       I    between atoms: N2_5  and  C10_23 
REMARK    4  A    between atoms: N3_6  and  C1_8 
REMARK    5  A    between atoms: C3_10  and  O2_11 
REMARK    6  A    between atoms: N4_13  and  C4_14 
REMARK    7  A    between atoms: C4_14  and  N5_15 
REMARK    8  A    between atoms: C9_20  and  O3_21 
REMARK    9  A    between atoms: C10_23  and  C11_25 
REMARK   10  A    between atoms: C11_25  and  C12_26 
REMARK   11  A    between atoms: C12_26  and  C13_28 
REMARK   12  A    between atoms: C14_29  and  C15_30 
REMARK   13  A    between atoms: C16_31  and  C17_32 
ROOT
HETATM    1  N2  UNL     1      -1.255   2.144  -0.301  1.00  0.00    -0.140 N 
HETATM    2  C10 UNL     1       0.059   1.660   0.053  1.00  0.00     0.266 C 
HETATM    3  O4  UNL     1       0.262   1.196   1.174  1.00  0.00    -0.269 OA
ENDROOT
BRANCH   1   4
HETATM    4  N1  UNL     1      -1.541   2.693  -1.543  1.00  0.00    -0.186 N 
ATOM      5  H1  UNL     1      -2.307   2.290  -2.082  1.00  0.00     0.218 HD
BRANCH   4   6
HETATM    6  O1  UNL     1      -0.919   3.645  -2.034  1.00  0.00    -0.273 OA
ATOM      7  H1  UNL     1      -1.115   4.021  -2.884  1.00  0.00     0.246 HD
ENDBRANCH   4   6
ENDBRANCH   1   4
BRANCH   1   8
HETATM    8  N3  UNL     1      -2.281   2.047   0.636  1.00  0.00    -0.271 N 
ATOM      9  H3  UNL     1      -2.546   2.880   1.162  1.00  0.00     0.189 HD
BRANCH   8  10
HETATM   10  C1  UNL     1      -2.975   0.828   0.887  1.00  0.00     0.105 A 
HETATM   11  C2  UNL     1      -2.717  -0.174   1.789  1.00  0.00     0.091 A 
HETATM   12  C3  UNL     1      -3.690  -1.129   1.618  1.00  0.00     0.151 A 
HETATM   13  N4  UNL     1      -4.548  -0.746   0.629  1.00  0.00    -0.271 N 
HETATM   14  C9  UNL     1      -4.110   0.445   0.187  1.00  0.00     0.178 A 
BRANCH  12  15
HETATM   15  O2  UNL     1      -3.773  -2.294   2.342  1.00  0.00    -0.346 OA
ATOM     16  H2  UNL     1      -4.446  -2.954   2.224  1.00  0.00     0.219 HD
ENDBRANCH  12  15
BRANCH  13  17
HETATM   17  C4  UNL     1      -5.683  -1.502   0.138  1.00  0.00     0.163 C 
BRANCH  17  18
HETATM   18  N5  UNL     1      -6.885  -1.337   0.856  1.00  0.00    -0.279 NA
HETATM   19  C5  UNL     1      -8.007  -2.052   0.319  1.00  0.00     0.096 C 
HETATM   20  C6  UNL     1      -8.628  -1.011  -0.617  1.00  0.00     0.016 C 
HETATM   21  C7  UNL     1      -8.167   0.330  -0.128  1.00  0.00     0.016 C 
HETATM   22  C8  UNL     1      -7.333  -0.005   1.097  1.00  0.00     0.096 C 
ENDBRANCH  17  18
ENDBRANCH  13  17
BRANCH  14  23
HETATM   23  O3  UNL     1      -4.704   1.210  -0.845  1.00  0.00    -0.344 OA
ATOM     24  H3  UNL     1      -5.481   0.948  -1.324  1.00  0.00     0.219 HD
ENDBRANCH  14  23
ENDBRANCH   8  10
ENDBRANCH   1   8
BRANCH   2  25
HETATM   25  C11 UNL     1       1.110   1.746  -0.962  1.00  0.00     0.189 C 
BRANCH  25  26
HETATM   26  C12 UNL     1       2.396   1.215  -0.421  1.00  0.00     0.158 C 
HETATM   27  O5  UNL     1       2.417   0.848   0.760  1.00  0.00    -0.293 OA
BRANCH  26  28
HETATM   28  C13 UNL     1       3.510   1.178  -1.342  1.00  0.00     0.050 C 
HETATM   29  C14 UNL     1       4.692   0.748  -1.036  1.00  0.00     0.003 C 
BRANCH  29  30
HETATM   30  C15 UNL     1       5.130   0.245   0.212  1.00  0.00    -0.004 C 
HETATM   31  C16 UNL     1       6.355  -0.172   0.430  1.00  0.00    -0.022 C 
BRANCH  31  32
HETATM   32  C17 UNL     1       7.403  -0.165  -0.590  1.00  0.00     0.008 C 
HETATM   33  C18 UNL     1       8.620   0.522   0.061  1.00  0.00     0.008 C 
HETATM   34  C19 UNL     1       9.080  -0.533   1.016  1.00  0.00     0.001 C 
HETATM   35  C20 UNL     1       8.722  -1.863   0.388  1.00  0.00     0.001 C 
HETATM   36  C21 UNL     1       7.936  -1.570  -0.857  1.00  0.00     0.008 C 
ENDBRANCH  31  32
ENDBRANCH  29  30
ENDBRANCH  26  28
ENDBRANCH  25  26
ENDBRANCH   2  25
TORSDOF 13
