REMARK  11 active torsions:
REMARK  status: ('A' for Active; 'I' for Inactive)
REMARK    1  A    between atoms: C2_2  and  C3_3 
REMARK    2  A    between atoms: C3_3  and  C4_4 
REMARK    3  A    between atoms: C4_4  and  C5_5 
REMARK    4  A    between atoms: C5_5  and  C6_6 
REMARK    5  A    between atoms: C8_8  and  C9_9 
REMARK    6  A    between atoms: C11_13  and  O2_14 
REMARK    7  A    between atoms: C12_16  and  O3_17 
REMARK    8  A    between atoms: C13_19  and  C14_20 
REMARK    9  A    between atoms: C13_19  and  C15_26 
REMARK   10  A    between atoms: N1_21  and  N2_23 
REMARK   11  A    between atoms: C15_26  and  N3_27 
ROOT
HETATM    1  C9  UNL     1      -0.186  -2.206   2.094  1.00  0.00    -0.069 C 
HETATM    2  C10 UNL     1       0.016  -2.348   3.286  1.00  0.00     0.052 C 
HETATM    3  O1  UNL     1       0.256  -2.511   4.624  1.00  0.00    -0.314 OA
ATOM      4  H1  UNL     1       0.414  -2.622   5.554  1.00  0.00     0.230 HD
ENDROOT
BRANCH   1   5
HETATM    5  C8  UNL     1      -0.429  -2.048   0.659  1.00  0.00     0.099 C 
HETATM    6  C7  UNL     1       0.625  -1.195   0.045  1.00  0.00     0.032 C 
HETATM    7  C6  UNL     1       0.531   0.266   0.347  1.00  0.00     0.058 C 
HETATM    8  C16 UNL     1      -0.816   0.842   0.394  1.00  0.00     0.149 C 
HETATM    9  C13 UNL     1      -2.052   0.671  -0.412  1.00  0.00     0.106 C 
HETATM   10  O4  UNL     1      -0.989   1.665   1.312  1.00  0.00    -0.296 OA
HETATM   11  C12 UNL     1      -2.028  -0.816  -0.830  1.00  0.00     0.170 C 
HETATM   12  C11 UNL     1      -1.830  -1.563   0.469  1.00  0.00     0.164 C 
BRANCH   7  13
HETATM   13  C5  UNL     1       1.361   1.005  -0.680  1.00  0.00     0.012 C 
BRANCH  13  14
HETATM   14  C4  UNL     1       2.810   0.576  -0.633  1.00  0.00     0.001 C 
BRANCH  14  15
HETATM   15  C3  UNL     1       3.478   0.820   0.683  1.00  0.00    -0.000 C 
BRANCH  15  16
HETATM   16  C2  UNL     1       4.932   0.354   0.593  1.00  0.00    -0.005 C 
HETATM   17  C1  UNL     1       4.946  -1.129   0.264  1.00  0.00     0.005 C 
ENDBRANCH  15  16
ENDBRANCH  14  15
ENDBRANCH  13  14
ENDBRANCH   7  13
BRANCH   9  18
HETATM   18  C14 UNL     1      -3.296   0.828   0.403  1.00  0.00     0.101 C 
HETATM   19  N1  UNL     1      -3.826   1.923   0.763  1.00  0.00    -0.321 N 
ATOM     20  H1  UNL     1      -4.678   1.839   1.318  1.00  0.00     0.185 HD
BRANCH  19  21
HETATM   21  N2  UNL     1      -3.406   3.212   0.505  1.00  0.00    -0.346 N 
ATOM     22  H22 UNL     1      -2.553   3.275  -0.051  1.00  0.00     0.176 HD
ATOM     23  H21 UNL     1      -3.832   4.092   0.794  1.00  0.00     0.176 HD
ENDBRANCH  19  21
ENDBRANCH   9  18
BRANCH   9  24
HETATM   24  C15 UNL     1      -2.078   1.506  -1.669  1.00  0.00     0.255 C 
BRANCH  24  25
HETATM   25  N3  UNL     1      -3.268   1.192  -2.433  1.00  0.00    -0.078 N 
ATOM     26  H33 UNL     1      -3.347   0.195  -2.631  1.00  0.00     0.274 HD
ATOM     27  H32 UNL     1      -4.119   1.299  -1.882  1.00  0.00     0.274 HD
ATOM     28  H31 UNL     1      -3.286   1.756  -3.282  1.00  0.00     0.274 HD
ENDBRANCH  24  25
ENDBRANCH   9  24
BRANCH  11  29
HETATM   29  O3  UNL     1      -3.291  -1.086  -1.343  1.00  0.00    -0.391 OA
ATOM     30  H3  UNL     1      -3.415  -0.616  -2.159  1.00  0.00     0.210 HD
ENDBRANCH  11  29
BRANCH  12  31
HETATM   31  O2  UNL     1      -2.675  -2.671   0.435  1.00  0.00    -0.392 OA
ATOM     32  H2  UNL     1      -3.565  -2.363   0.314  1.00  0.00     0.210 HD
ENDBRANCH  12  31
ENDBRANCH   1   5
TORSDOF 11
