REMARK  6 active torsions:
REMARK  status: ('A' for Active; 'I' for Inactive)
REMARK    1  A    between atoms: C2_2  and  C4_4 
REMARK    2  A    between atoms: C4_4  and  C5_5 
REMARK    3  A    between atoms: C5_5  and  N1_6 
REMARK    4  A    between atoms: C5_5  and  C13_17 
REMARK       I    between atoms: N1_6  and  C6_8 
REMARK    5  A    between atoms: C6_8  and  C7_10 
REMARK    6  A    between atoms: C9_12  and  C10_13 
ROOT
HETATM    1  N1  UNL     1      -0.521   0.597  -1.161  1.00  0.00    -0.346 N 
ATOM      2  H1  UNL     1      -0.403  -0.038  -1.951  1.00  0.00     0.163 HD
HETATM    3  C6  UNL     1       0.564   0.783  -0.276  1.00  0.00     0.223 C 
HETATM    4  O1  UNL     1       0.389   1.579   0.699  1.00  0.00    -0.273 OA
ENDROOT
BRANCH   1   5
HETATM    5  C5  UNL     1      -1.793   1.267  -0.997  1.00  0.00     0.185 C 
BRANCH   5   6
HETATM    6  C4  UNL     1      -2.866   0.211  -0.937  1.00  0.00     0.040 C 
BRANCH   6   7
HETATM    7  C2  UNL     1      -2.706  -0.761   0.193  1.00  0.00    -0.020 C 
HETATM    8  C1  UNL     1      -3.881  -1.743   0.080  1.00  0.00     0.009 C 
HETATM    9  C3  UNL     1      -2.885  -0.061   1.544  1.00  0.00     0.009 C 
ENDBRANCH   6   7
ENDBRANCH   5   6
BRANCH   5  10
HETATM   10  C13 UNL     1      -2.108   2.134  -2.162  1.00  0.00     0.196 C 
HETATM   11  O2  UNL     1      -1.269   2.176  -3.097  1.00  0.00    -0.646 OA
HETATM   12  O3  UNL     1      -3.243   2.883  -2.276  1.00  0.00    -0.646 OA
ENDBRANCH   5  10
ENDBRANCH   1   5
BRANCH   3  13
HETATM   13  C7  UNL     1       1.867   0.128  -0.401  1.00  0.00     0.083 A 
HETATM   14  C8  UNL     1       3.050   1.028  -0.004  1.00  0.00     0.020 A 
HETATM   15  C9  UNL     1       2.698  -0.149   0.796  1.00  0.00     0.005 A 
BRANCH  15  16
HETATM   16  C10 UNL     1       3.685  -1.298   0.759  1.00  0.00     0.010 A 
HETATM   17  C11 UNL     1       4.468  -1.471   2.040  1.00  0.00     0.027 A 
HETATM   18  C12 UNL     1       5.138  -1.022   0.794  1.00  0.00     0.087 A 
HETATM   19 CL1  UNL     1       6.237  -2.205   0.045  1.00  0.00    -0.125 Cl
ENDBRANCH  15  16
ENDBRANCH   3  13
TORSDOF 6
