REMARK  2 active torsions:
REMARK  status: ('A' for Active; 'I' for Inactive)
REMARK    1  A    between atoms: C1_2  and  N1_3 
REMARK    2  A    between atoms: N1_3  and  C2_5 
ROOT
HETATM    1  C2  UNL     1       0.848   0.248   0.508  1.00  0.00     0.142 C 
HETATM    2  C3  UNL     1       1.201   0.832  -0.836  1.00  0.00     0.098 C 
HETATM    3  C4  UNL     1       0.041   0.838  -1.760  1.00  0.00     0.074 C 
HETATM    4 BR1  UNL     1       0.125   2.033  -3.254  1.00  0.00    -0.035 Br
HETATM    5  N2  UNL     1      -0.990   0.109  -1.621  1.00  0.00    -0.297 N 
ATOM      6  H2  UNL     1      -1.740   0.184  -2.308  1.00  0.00     0.187 HD
HETATM    7  N3  UNL     1      -1.136  -0.790  -0.564  1.00  0.00    -0.300 N 
ATOM      8  H3  UNL     1      -1.977  -1.361  -0.483  1.00  0.00     0.186 HD
HETATM    9  C5  UNL     1      -0.106  -0.897   0.388  1.00  0.00     0.082 C 
HETATM   10  C6  UNL     1       0.018  -1.979   1.156  1.00  0.00     0.129 C 
HETATM   11 CL1  UNL     1       1.302  -2.109   2.341  1.00  0.00    -0.069 Cl
HETATM   12 CL2  UNL     1      -1.145  -3.265   0.943  1.00  0.00    -0.069 Cl
ENDROOT
BRANCH   1  13
HETATM   13  N1  UNL     1       0.208   1.268   1.314  1.00  0.00    -0.380 N 
ATOM     14  H1  UNL     1       0.791   1.813   1.949  1.00  0.00     0.160 HD
BRANCH  13  15
HETATM   15  C1  UNL     1      -1.034   1.524   1.277  1.00  0.00     0.166 C 
HETATM   16  S1  UNL     1      -2.604   1.607   1.624  1.00  0.00    -0.075 SA
ENDBRANCH  13  15
ENDBRANCH   1  13
TORSDOF 2
