REMARK  6 active torsions:
REMARK  status: ('A' for Active; 'I' for Inactive)
REMARK    1  A    between atoms: N2_4  and  C1_6 
REMARK    2  A    between atoms: C1_6  and  C2_7 
REMARK    3  A    between atoms: C2_7  and  O1_8 
REMARK    4  A    between atoms: C5_12  and  N3_13 
REMARK    5  A    between atoms: C6_17  and  O2_18 
REMARK    6  A    between atoms: O2_18  and  N4_19 
ROOT
HETATM    1  C2  UNL     1      -0.605  -0.700   0.482  1.00  0.00     0.105 C 
HETATM    2  C3  UNL     1       0.157  -1.270  -0.698  1.00  0.00     0.044 C 
HETATM    3  C4  UNL     1       1.487  -0.542  -0.738  1.00  0.00     0.038 C 
HETATM    4  C5  UNL     1       1.655  -0.202   0.729  1.00  0.00     0.218 C 
HETATM    5  C6  UNL     1       0.294   0.444   0.978  1.00  0.00     0.217 C 
ENDROOT
BRANCH   1   6
HETATM    6  C1  UNL     1      -1.920  -0.085   0.075  1.00  0.00     0.179 C 
BRANCH   6   7
HETATM    7  N2  UNL     1      -2.864  -1.049  -0.356  1.00  0.00    -0.340 N 
HETATM    8  N1  UNL     1      -3.462  -0.891  -1.424  1.00  0.00    -0.349 N 
ATOM      9  H12 UNL     1      -3.265  -0.061  -1.984  1.00  0.00     0.176 HD
ATOM     10  H11 UNL     1      -4.142  -1.585  -1.734  1.00  0.00     0.176 HD
ATOM     11  H2  UNL     1      -3.049  -1.873   0.216  1.00  0.00     0.179 HD
ENDBRANCH   6   7
ENDBRANCH   1   6
BRANCH   1  12
HETATM   12  O1  UNL     1      -0.724  -1.598   1.520  1.00  0.00    -0.385 OA
ATOM     13  H1  UNL     1       0.105  -1.986   1.776  1.00  0.00     0.210 HD
ENDBRANCH   1  12
BRANCH   5  14
HETATM   14  O2  UNL     1       0.087   1.498   0.100  1.00  0.00    -0.277 OA
BRANCH  14  15
HETATM   15  N4  UNL     1      -0.298   2.630   0.699  1.00  0.00    -0.311 N 
ATOM     16  H42 UNL     1      -0.423   2.696   1.709  1.00  0.00     0.184 HD
ATOM     17  H41 UNL     1      -0.450   3.405   0.053  1.00  0.00     0.184 HD
ENDBRANCH  14  15
ENDBRANCH   5  14
BRANCH   4  18
HETATM   18  N3  UNL     1       2.744   0.670   0.999  1.00  0.00    -0.072 N 
ATOM     19  H33 UNL     1       3.610   0.290   0.618  1.00  0.00     0.274 HD
ATOM     20  H32 UNL     1       2.669   1.520   0.441  1.00  0.00     0.274 HD
ATOM     21  H31 UNL     1       2.857   0.899   1.987  1.00  0.00     0.274 HD
ENDBRANCH   4  18
TORSDOF 6
