REMARK  7 active torsions:
REMARK  status: ('A' for Active; 'I' for Inactive)
REMARK    1  A    between atoms: C2_2  and  C4_4 
REMARK    2  A    between atoms: C4_4  and  C5_5 
REMARK    3  A    between atoms: C6_6  and  N1_7 
REMARK    4  A    between atoms: C7_11  and  O1_12 
REMARK    5  A    between atoms: C8_14  and  O2_15 
REMARK    6  A    between atoms: C9_17  and  C10_18 
REMARK    7  A    between atoms: C10_18  and  N2_19 
ROOT
HETATM    1  C5  UNL     1      -1.518  -0.241  -0.087  1.00  0.00     0.027 C 
HETATM    2  C6  UNL     1      -2.511  -1.329  -0.424  1.00  0.00     0.219 C 
HETATM    3  C7  UNL     1      -1.630  -2.457  -0.985  1.00  0.00     0.178 C 
HETATM    4  C8  UNL     1      -0.478  -2.445  -0.014  1.00  0.00     0.155 C 
HETATM    5  C9  UNL     1      -0.281  -0.963   0.333  1.00  0.00     0.051 C 
ENDROOT
BRANCH   5   6
HETATM    6  C10 UNL     1       0.961  -0.544  -0.387  1.00  0.00     0.280 C 
BRANCH   6   7
HETATM    7  N2  UNL     1       1.371   0.809  -0.251  1.00  0.00     0.092 N 
HETATM    8  C11 UNL     1       2.493   0.990  -1.193  1.00  0.00     0.302 C 
HETATM    9  C12 UNL     1       3.610   0.025  -0.955  1.00  0.00     0.302 C 
HETATM   10  N3  UNL     1       4.130   0.082   0.387  1.00  0.00     0.087 N 
HETATM   11  C13 UNL     1       5.553   0.455   0.362  1.00  0.00     0.310 C 
HETATM   12  C14 UNL     1       3.456   1.191   1.042  1.00  0.00     0.302 C 
HETATM   13  C15 UNL     1       1.968   1.081   1.054  1.00  0.00     0.302 C 
ENDBRANCH   6   7
ENDBRANCH   5   6
BRANCH   1  14
HETATM   14  C4  UNL     1      -1.947   0.763   0.903  1.00  0.00     0.011 C 
BRANCH  14  15
HETATM   15  C2  UNL     1      -3.110   1.622   0.590  1.00  0.00    -0.022 C 
HETATM   16  C1  UNL     1      -2.928   2.452  -0.667  1.00  0.00     0.009 C 
HETATM   17  C3  UNL     1      -4.474   1.016   0.697  1.00  0.00     0.009 C 
ENDBRANCH  14  15
ENDBRANCH   1  14
BRANCH   4  18
HETATM   18  O2  UNL     1       0.630  -2.942  -0.718  1.00  0.00    -0.392 OA
ATOM     19  H2  UNL     1       1.356  -2.934  -0.106  1.00  0.00     0.210 HD
ENDBRANCH   4  18
BRANCH   2  20
HETATM   20  N1  UNL     1      -3.138  -1.897   0.737  1.00  0.00    -0.072 N 
ATOM     21  H13 UNL     1      -2.440  -2.234   1.399  1.00  0.00     0.274 HD
ATOM     22  H12 UNL     1      -3.573  -1.172   1.307  1.00  0.00     0.274 HD
ATOM     23  H11 UNL     1      -3.808  -2.631   0.510  1.00  0.00     0.274 HD
ENDBRANCH   2  20
BRANCH   3  24
HETATM   24  O1  UNL     1      -1.272  -2.139  -2.281  1.00  0.00    -0.391 OA
ATOM     25  H1  UNL     1      -0.728  -2.836  -2.628  1.00  0.00     0.210 HD
ENDBRANCH   3  24
TORSDOF 7
