REMARK  10 active torsions:
REMARK  status: ('A' for Active; 'I' for Inactive)
REMARK    1  A    between atoms: O1_2  and  C2_3 
REMARK       I    between atoms: C2_3  and  N1_5 
REMARK    2  A    between atoms: C3_7  and  N2_8 
REMARK    3  A    between atoms: C3_7  and  C9_21 
REMARK    4  A    between atoms: N2_8  and  N3_10 
REMARK    5  A    between atoms: C4_12  and  C5_13 
REMARK    6  A    between atoms: C8_16  and  N4_17 
REMARK    7  A    between atoms: C10_22  and  O6_23 
REMARK    8  A    between atoms: C12_27  and  N6_28 
REMARK    9  A    between atoms: C13_33  and  N8_34 
REMARK   10  A    between atoms: N8_34  and  O7_36 
ROOT
HETATM    1  O7  UNL     1       0.130  -1.424  -2.867  1.00  0.00    -0.158 OA
HETATM    2  C14 UNL     1       0.583  -2.731  -2.776  1.00  0.00     0.253 C 
HETATM    3  N9  UNL     1       0.946  -3.813  -2.685  1.00  0.00    -0.162 NA
ENDROOT
BRANCH   1   4
HETATM    4  N8  UNL     1       0.039  -0.607  -1.770  1.00  0.00    -0.232 N 
ATOM      5  H8  UNL     1       0.857  -0.103  -1.427  1.00  0.00     0.197 HD
BRANCH   4   6
HETATM    6  C13 UNL     1      -1.098  -0.489  -1.182  1.00  0.00     0.160 A 
HETATM    7  C9  UNL     1      -1.138   0.356  -0.067  1.00  0.00     0.107 A 
HETATM    8  C10 UNL     1      -2.354   0.485   0.557  1.00  0.00     0.175 A 
HETATM    9  N5  UNL     1      -3.416  -0.203   0.058  1.00  0.00    -0.170 N 
HETATM   10  C12 UNL     1      -3.349  -1.006  -1.013  1.00  0.00     0.679 A 
ATOM     11  H5  UNL     1      -4.316  -0.102   0.526  1.00  0.00     0.186 HD
HETATM   12  N7  UNL     1      -2.169  -1.144  -1.634  1.00  0.00    -0.174 N 
ATOM     13  H7  UNL     1      -2.090  -1.749  -2.451  1.00  0.00     0.186 HD
BRANCH   7  14
HETATM   14  C3  UNL     1       0.056   1.047   0.338  1.00  0.00     0.142 C 
HETATM   15  N1  UNL     1       0.120   2.296   0.429  1.00  0.00    -0.286 N 
HETATM   16  C2  UNL     1      -0.808   3.296   0.175  1.00  0.00     0.365 C 
ATOM     17  H1  UNL     1       1.024   2.642   0.750  1.00  0.00     0.172 HD
HETATM   18  O2  UNL     1      -1.521   3.394  -0.858  1.00  0.00    -0.238 OA
BRANCH  16  19
HETATM   19  O1  UNL     1      -0.992   4.300   1.132  1.00  0.00    -0.309 OA
HETATM   20  C1  UNL     1      -1.928   5.350   0.928  1.00  0.00     0.215 C 
ENDBRANCH  16  19
BRANCH  14  21
HETATM   21  N2  UNL     1       1.260   0.320   0.698  1.00  0.00    -0.285 N 
ATOM     22  H2  UNL     1       2.169   0.674   0.400  1.00  0.00     0.188 HD
BRANCH  21  23
HETATM   23  N3  UNL     1       1.193  -0.842   1.437  1.00  0.00    -0.308 N 
HETATM   24  C4  UNL     1       1.911  -1.863   1.274  1.00  0.00     0.144 C 
ATOM     25  H3  UNL     1       0.499  -0.878   2.183  1.00  0.00     0.186 HD
BRANCH  24  26
HETATM   26  C5  UNL     1       2.951  -2.023   0.277  1.00  0.00     0.095 A 
HETATM   27  C6  UNL     1       3.745  -3.163   0.102  1.00  0.00     0.043 A 
HETATM   28  C7  UNL     1       4.585  -2.870  -0.945  1.00  0.00     0.065 A 
HETATM   29  C8  UNL     1       4.295  -1.597  -1.374  1.00  0.00     0.215 A 
HETATM   30  O5  UNL     1       3.333  -1.164  -0.616  1.00  0.00    -0.287 OA
BRANCH  29  31
HETATM   31  N4  UNL     1       4.953  -0.933  -2.444  1.00  0.00    -0.090 N 
HETATM   32  O3  UNL     1       5.853  -1.463  -3.083  1.00  0.00    -0.530 OA
HETATM   33  O4  UNL     1       4.556   0.337  -2.758  1.00  0.00    -0.530 OA
ENDBRANCH  29  31
ENDBRANCH  24  26
ENDBRANCH  21  23
ENDBRANCH  14  21
ENDBRANCH   7  14
BRANCH   8  34
HETATM   34  O6  UNL     1      -2.488   1.299   1.672  1.00  0.00    -0.340 OA
HETATM   35  C11 UNL     1      -2.399   0.746   2.970  1.00  0.00     0.211 C 
ENDBRANCH   8  34
BRANCH  10  36
HETATM   36  N6  UNL     1      -4.413  -1.637  -1.436  1.00  0.00    -0.234 N 
ATOM     37  H62 UNL     1      -5.311  -1.532  -0.963  1.00  0.00     0.174 HD
ATOM     38  H61 UNL     1      -4.362  -2.248  -2.251  1.00  0.00     0.174 HD
ENDBRANCH  10  36
ENDBRANCH   4   6
ENDBRANCH   1   4
TORSDOF 10
