REMARK  9 active torsions:
REMARK  status: ('A' for Active; 'I' for Inactive)
REMARK    1  A    between atoms: O1_2  and  C2_3 
REMARK    2  A    between atoms: C5_6  and  O2_7 
REMARK    3  A    between atoms: C6_9  and  C7_10 
REMARK    4  A    between atoms: C9_13  and  O4_14 
REMARK    5  A    between atoms: C10_16  and  C11_17 
REMARK    6  A    between atoms: N1_18  and  N2_20 
REMARK    7  A    between atoms: N2_20  and  C12_22 
REMARK    8  A    between atoms: C15_29  and  N5_30 
REMARK    9  A    between atoms: C16_35  and  N7_36 
ROOT
HETATM    1  N2  UNL     1       1.646  -1.309   0.632  1.00  0.00    -0.285 N 
ATOM      2  H2  UNL     1       1.942  -2.093   1.214  1.00  0.00     0.188 HD
ENDROOT
BRANCH   1   3
HETATM    3  N1  UNL     1       0.301  -1.219   0.449  1.00  0.00    -0.309 N 
HETATM    4  C11 UNL     1      -0.477  -0.229   0.636  1.00  0.00     0.124 C 
ATOM      5  H1  UNL     1      -0.150  -2.070   0.113  1.00  0.00     0.186 HD
BRANCH   4   6
HETATM    6  C10 UNL     1      -1.905  -0.249   0.406  1.00  0.00     0.049 A 
HETATM    7  C2  UNL     1      -2.684   0.860   0.628  1.00  0.00     0.091 A 
HETATM    8  C3  UNL     1      -4.037   0.863   0.424  1.00  0.00     0.007 A 
HETATM    9  C4  UNL     1      -4.885   2.055   0.661  1.00  0.00     0.054 C 
HETATM   10  C5  UNL     1      -4.613  -0.330  -0.028  1.00  0.00     0.091 A 
HETATM   11  C6  UNL     1      -3.855  -1.475  -0.264  1.00  0.00     0.077 A 
HETATM   12  C9  UNL     1      -2.473  -1.454  -0.049  1.00  0.00     0.096 A 
BRANCH   7  13
HETATM   13  O1  UNL     1      -2.101   2.041   1.077  1.00  0.00    -0.354 OA
HETATM   14  C1  UNL     1      -1.665   2.931   0.038  1.00  0.00     0.210 C 
ENDBRANCH   7  13
BRANCH  10  15
HETATM   15  O2  UNL     1      -5.964  -0.315  -0.227  1.00  0.00    -0.359 OA
ATOM     16  H2  UNL     1      -6.355  -1.125  -0.534  1.00  0.00     0.217 HD
ENDBRANCH  10  15
BRANCH  11  17
HETATM   17  C7  UNL     1      -4.433  -2.717  -0.729  1.00  0.00     0.161 C 
HETATM   18  C8  UNL     1      -5.901  -2.802  -0.975  1.00  0.00     0.097 C 
HETATM   19  O3  UNL     1      -3.720  -3.752  -0.939  1.00  0.00    -0.293 OA
ENDBRANCH  11  17
BRANCH  12  20
HETATM   20  O4  UNL     1      -1.605  -2.473  -0.229  1.00  0.00    -0.359 OA
ATOM     21  H4  UNL     1      -0.666  -2.459  -0.083  1.00  0.00     0.217 HD
ENDBRANCH  12  20
ENDBRANCH   4   6
ENDBRANCH   1   3
BRANCH   1  22
HETATM   22  C12 UNL     1       2.594  -0.586   0.203  1.00  0.00     0.136 A 
HETATM   23  C13 UNL     1       2.409   0.509  -0.592  1.00  0.00     0.139 A 
HETATM   24  N3  UNL     1       3.481   1.203  -0.982  1.00  0.00    -0.346 N 
HETATM   25  C14 UNL     1       4.725   0.865  -0.623  1.00  0.00     0.152 A 
ATOM     26  H3  UNL     1       3.347   2.021  -1.576  1.00  0.00     0.167 HD
HETATM   27  N4  UNL     1       5.779   1.603  -1.028  1.00  0.00    -0.174 N 
HETATM   28  C17 UNL     1       4.951  -0.250   0.188  1.00  0.00     0.130 A 
HETATM   29  C15 UNL     1       7.029   1.303  -0.681  1.00  0.00     0.679 A 
ATOM     30  H4  UNL     1       5.613   2.417  -1.619  1.00  0.00     0.186 HD
HETATM   31  N6  UNL     1       7.239   0.240   0.091  1.00  0.00    -0.169 N 
HETATM   32  C16 UNL     1       6.233  -0.556   0.541  1.00  0.00     0.218 A 
ATOM     33  H6  UNL     1       8.197   0.012   0.357  1.00  0.00     0.186 HD
HETATM   34  N8  UNL     1       3.858  -0.922   0.562  1.00  0.00    -0.334 N 
ATOM     35  H8  UNL     1       3.983  -1.741   1.156  1.00  0.00     0.168 HD
BRANCH  29  36
HETATM   36  N5  UNL     1       8.032   2.040  -1.089  1.00  0.00    -0.234 N 
ATOM     37  H52 UNL     1       7.871   2.855  -1.681  1.00  0.00     0.174 HD
ATOM     38  H51 UNL     1       8.990   1.810  -0.823  1.00  0.00     0.174 HD
ENDBRANCH  29  36
BRANCH  32  39
HETATM   39  N7  UNL     1       6.524  -1.663   1.359  1.00  0.00    -0.095 N 
HETATM   40  O5  UNL     1       5.936  -2.743   1.313  1.00  0.00    -0.530 OA
HETATM   41  O6  UNL     1       7.594  -1.579   2.268  1.00  0.00    -0.530 OA
ENDBRANCH  32  39
ENDBRANCH   1  22
TORSDOF 9
