REMARK  8 active torsions:
REMARK  status: ('A' for Active; 'I' for Inactive)
REMARK    1  A    between atoms: N1_1  and  C1_5 
REMARK    2  A    between atoms: C1_5  and  C2_6 
REMARK    3  A    between atoms: C2_6  and  C3_7 
REMARK    4  A    between atoms: C3_7  and  C4_8 
REMARK    5  A    between atoms: C4_8  and  C5_9 
REMARK    6  A    between atoms: C5_9  and  C6_10 
REMARK    7  A    between atoms: C6_10  and  N2_11 
REMARK    8  A    between atoms: N2_11  and  C7_13 
ROOT
HETATM    1  C7  UNL     1      -1.696  -0.081  -0.501  1.00  0.00     0.131 A 
HETATM    2  N3  UNL     1      -1.278  -1.173  -1.155  1.00  0.00    -0.337 N 
ATOM      3  H3  UNL     1      -0.278  -1.305  -1.304  1.00  0.00     0.168 HD
HETATM    4  C8  UNL     1      -2.127  -2.097  -1.619  1.00  0.00     0.182 A 
HETATM    5  N4  UNL     1      -3.448  -1.925  -1.422  1.00  0.00    -0.354 N 
ATOM      6  H4  UNL     1      -4.102  -2.625  -1.773  1.00  0.00     0.166 HD
HETATM    7  C9  UNL     1      -3.923  -0.845  -0.770  1.00  0.00     0.040 A 
HETATM    8  C10 UNL     1      -3.036   0.098  -0.299  1.00  0.00     0.095 A 
HETATM    9  N5  UNL     1      -3.510   1.223   0.379  1.00  0.00    -0.385 N 
ATOM     10  H5  UNL     1      -2.850   1.931   0.700  1.00  0.00     0.159 HD
HETATM   11  C11 UNL     1      -4.948   1.403   0.637  1.00  0.00     0.120 C 
HETATM   12  C12 UNL     1      -5.692   0.772  -0.509  1.00  0.00     0.026 C 
HETATM   13  C13 UNL     1      -5.380  -0.708  -0.583  1.00  0.00     0.061 C 
ENDROOT
BRANCH   1  14
HETATM   14  N2  UNL     1      -0.852   0.778  -0.075  1.00  0.00    -0.374 N 
ATOM     15  H2  UNL     1      -1.172   1.609   0.422  1.00  0.00     0.161 HD
BRANCH  14  16
HETATM   16  C6  UNL     1       0.572   0.563  -0.304  1.00  0.00     0.121 C 
BRANCH  16  17
HETATM   17  C5  UNL     1       1.403   1.607   0.390  1.00  0.00     0.020 C 
BRANCH  17  18
HETATM   18  C4  UNL     1       2.856   1.367   0.107  1.00  0.00     0.002 C 
BRANCH  18  19
HETATM   19  C3  UNL     1       3.274   0.030   0.606  1.00  0.00     0.002 C 
BRANCH  19  20
HETATM   20  C2  UNL     1       4.784  -0.086   0.285  1.00  0.00     0.027 C 
BRANCH  20  21
HETATM   21  C1  UNL     1       5.204  -1.441   0.792  1.00  0.00     0.229 C 
BRANCH  21  22
HETATM   22  N1  UNL     1       6.608  -1.663   0.545  1.00  0.00    -0.079 N 
ATOM     23  H13 UNL     1       6.844  -1.537  -0.439  1.00  0.00     0.274 HD
ATOM     24  H12 UNL     1       7.184  -0.917   0.936  1.00  0.00     0.274 HD
ATOM     25  H11 UNL     1       6.892  -2.580   0.888  1.00  0.00     0.274 HD
ENDBRANCH  21  22
ENDBRANCH  20  21
ENDBRANCH  19  20
ENDBRANCH  18  19
ENDBRANCH  17  18
ENDBRANCH  16  17
ENDBRANCH  14  16
ENDBRANCH   1  14
TORSDOF 8
