REMARK  8 active torsions:
REMARK  status: ('A' for Active; 'I' for Inactive)
REMARK       I    between atoms: C2_2  and  N1_4 
REMARK    1  A    between atoms: N1_4  and  C3_6 
REMARK    2  A    between atoms: C3_6  and  C4_7 
REMARK    3  A    between atoms: N2_12  and  C9_13 
REMARK    4  A    between atoms: C9_13  and  N3_14 
REMARK    5  A    between atoms: C9_13  and  C14_19 
REMARK    6  A    between atoms: N3_14  and  C10_15 
REMARK    7  A    between atoms: C14_19  and  N4_21 
REMARK       I    between atoms: N4_21  and  C16_23 
REMARK    8  A    between atoms: C16_23  and  C17_25 
ROOT
HETATM    1  C9  UNL     1      -0.265  -1.521   0.092  1.00  0.00     0.174 C 
ENDROOT
BRANCH   1   2
HETATM    2  N2  UNL     1       1.166  -1.263   0.332  1.00  0.00    -0.338 N 
HETATM    3  C8  UNL     1       2.046  -1.901  -0.604  1.00  0.00     0.130 C 
HETATM    4  C7  UNL     1       3.315  -2.255   0.148  1.00  0.00     0.020 C 
HETATM    5  C6  UNL     1       4.171  -0.983   0.076  1.00  0.00     0.002 C 
HETATM    6  C5  UNL     1       3.923  -0.146   1.266  1.00  0.00     0.011 C 
HETATM    7  C4  UNL     1       2.603   0.468   1.423  1.00  0.00     0.042 C 
HETATM    8  C21 UNL     1       1.417  -0.449   1.447  1.00  0.00     0.072 C 
BRANCH   7   9
HETATM    9  C3  UNL     1       2.297   1.582   0.453  1.00  0.00     0.132 C 
BRANCH   9  10
HETATM   10  N1  UNL     1       3.204   2.694   0.509  1.00  0.00    -0.361 N 
HETATM   11  C2  UNL     1       3.441   3.502   1.620  1.00  0.00     0.213 C 
HETATM   12  C1  UNL     1       4.430   4.621   1.508  1.00  0.00     0.117 C 
HETATM   13  O1  UNL     1       2.868   3.349   2.735  1.00  0.00    -0.274 OA
ATOM     14  H1  UNL     1       3.722   2.913  -0.342  1.00  0.00     0.162 HD
ENDBRANCH   9  10
ENDBRANCH   7   9
ENDBRANCH   1   2
BRANCH   1  15
HETATM   15  N3  UNL     1      -0.803  -2.300   0.825  1.00  0.00    -0.422 NA
BRANCH  15  16
HETATM   16  C10 UNL     1      -1.716  -3.091   1.428  1.00  0.00     0.084 C 
HETATM   17  C11 UNL     1      -2.952  -2.436   2.067  1.00  0.00     0.053 C 
HETATM   18  C12 UNL     1      -1.062  -3.796   2.642  1.00  0.00     0.053 C 
HETATM   19  C13 UNL     1      -2.306  -4.206   0.561  1.00  0.00     0.053 C 
ENDBRANCH  15  16
ENDBRANCH   1  15
BRANCH   1  20
HETATM   20  C14 UNL     1      -0.883  -0.833  -1.053  1.00  0.00     0.163 C 
HETATM   21  C15 UNL     1      -1.087  -1.789  -2.232  1.00  0.00     0.041 C 
BRANCH  20  22
HETATM   22  N4  UNL     1      -2.094  -0.110  -0.815  1.00  0.00    -0.343 N 
HETATM   23  C16 UNL     1      -2.409   1.091  -1.604  1.00  0.00     0.276 C 
HETATM   24  O2  UNL     1      -1.581   1.389  -2.441  1.00  0.00    -0.265 OA
ATOM     25  H4  UNL     1      -2.742  -0.429  -0.095  1.00  0.00     0.163 HD
BRANCH  23  26
HETATM   26  C17 UNL     1      -3.734   1.739  -1.219  1.00  0.00     0.142 A 
HETATM   27  N5  UNL     1      -3.604   2.815  -2.421  1.00  0.00    -0.349 N 
HETATM   28  C18 UNL     1      -4.450   3.652  -2.609  1.00  0.00     0.013 A 
ATOM     29  H5  UNL     1      -2.788   2.784  -3.033  1.00  0.00     0.166 HD
HETATM   30  C19 UNL     1      -4.421   4.727  -3.718  1.00  0.00     0.068 C 
HETATM   31  C20 UNL     1      -5.542   3.671  -1.764  1.00  0.00     0.076 A 
HETATM   32  S1  UNL     1      -5.092   2.404  -0.824  1.00  0.00    -0.077 SA
ENDBRANCH  23  26
ENDBRANCH  20  22
ENDBRANCH   1  20
TORSDOF 8
