REMARK  3 active torsions:
REMARK  status: ('A' for Active; 'I' for Inactive)
REMARK    1  A    between atoms: C4_7  and  C5_8 
REMARK    2  A    between atoms: C5_8  and  O3_9 
REMARK    3  A    between atoms: O3_9  and  N2_10 
ROOT
HETATM    1  C1  UNL     1      -4.021  -0.375  -0.172  1.00  0.00     0.166 C 
HETATM    2  N1  UNL     1      -2.568  -0.373  -0.069  1.00  0.00    -0.249 N 
HETATM    3  C2  UNL     1      -1.853  -1.514  -0.140  1.00  0.00     0.377 A 
HETATM    4  O1  UNL     1      -2.492  -2.586  -0.300  1.00  0.00    -0.237 OA
HETATM    5  O2  UNL     1      -0.545  -1.474  -0.043  1.00  0.00    -0.241 OA
HETATM    6  C3  UNL     1       0.132  -0.370   0.122  1.00  0.00     0.191 A 
HETATM    7  C4  UNL     1       1.499  -0.103   0.248  1.00  0.00     0.090 A 
HETATM    8  N3  UNL     1       1.585   1.218   0.395  1.00  0.00    -0.330 N 
ATOM      9  H3  UNL     1       2.452   1.743   0.512  1.00  0.00     0.168 HD
HETATM   10  C6  UNL     1       0.330   1.761   0.364  1.00  0.00     0.189 A 
HETATM   11  S1  UNL     1      -0.001   3.356   0.511  1.00  0.00    -0.040 SA
HETATM   12  N4  UNL     1      -0.563   0.774   0.195  1.00  0.00    -0.216 N 
HETATM   13  C7  UNL     1      -1.905   0.770   0.100  1.00  0.00     0.341 A 
HETATM   14  O4  UNL     1      -2.581   1.829   0.165  1.00  0.00    -0.246 OA
ENDROOT
BRANCH   7  15
HETATM   15  C5  UNL     1       2.583  -1.144   0.219  1.00  0.00     0.262 C 
BRANCH  15  16
HETATM   16  O3  UNL     1       3.843  -0.619   0.354  1.00  0.00    -0.281 OA
BRANCH  16  17
HETATM   17  N2  UNL     1       4.211   0.245  -0.594  1.00  0.00    -0.311 N 
ATOM     18  H22 UNL     1       3.585   0.488  -1.362  1.00  0.00     0.184 HD
ATOM     19  H21 UNL     1       5.148   0.635  -0.494  1.00  0.00     0.184 HD
ENDBRANCH  16  17
ENDBRANCH  15  16
ENDBRANCH   7  15
TORSDOF 3
