REMARK  16 active torsions:
REMARK  status: ('A' for Active; 'I' for Inactive)
REMARK    1  A    between atoms: C2_2  and  C3_3 
REMARK       I    between atoms: C3_3  and  N1_5 
REMARK    2  A    between atoms: N1_5  and  C4_7 
REMARK    3  A    between atoms: C4_7  and  C5_8 
REMARK    4  A    between atoms: C5_8  and  C6_9 
REMARK    5  A    between atoms: C6_9  and  C7_10 
REMARK    6  A    between atoms: C7_10  and  N2_11 
REMARK       I    between atoms: N2_11  and  C8_13 
REMARK    7  A    between atoms: C8_13  and  C9_15 
REMARK    8  A    between atoms: N3_19  and  C13_20 
REMARK    9  A    between atoms: C13_20  and  O3_21 
REMARK   10  A    between atoms: C13_20  and  C14_23 
REMARK   11  A    between atoms: C14_23  and  C15_24 
REMARK   12  A    between atoms: C14_23  and  C19_32 
REMARK   13  A    between atoms: C15_24  and  C16_25 
REMARK   14  A    between atoms: C16_25  and  C17_26 
REMARK   15  A    between atoms: C17_26  and  N4_27 
REMARK   16  A    between atoms: C19_32  and  C20_33 
ROOT
HETATM    1  C9  UNL     1       0.829  -2.574   0.627  1.00  0.00     0.174 C 
HETATM    2  C10 UNL     1       1.630  -3.734   1.271  1.00  0.00     0.036 C 
HETATM    3  C11 UNL     1       1.687  -3.346   2.706  1.00  0.00     0.022 C 
HETATM    4  C12 UNL     1       0.710  -2.233   2.907  1.00  0.00     0.120 C 
HETATM    5  N3  UNL     1       0.049  -2.014   1.622  1.00  0.00    -0.374 N 
ENDROOT
BRANCH   5   6
HETATM    6  C13 UNL     1      -1.316  -2.049   1.733  1.00  0.00     0.220 C 
BRANCH   6   7
HETATM    7  O3  UNL     1      -1.708  -3.417   1.869  1.00  0.00    -0.377 OA
ATOM      8  H3  UNL     1      -2.655  -3.441   1.946  1.00  0.00     0.212 HD
ENDBRANCH   6   7
BRANCH   6   9
HETATM    9  C14 UNL     1      -2.236  -1.362   0.766  1.00  0.00     0.034 C 
BRANCH   9  10
HETATM   10  C15 UNL     1      -1.929   0.117   0.771  1.00  0.00     0.010 C 
BRANCH  10  11
HETATM   11  C16 UNL     1      -2.071   0.754   2.141  1.00  0.00     0.020 C 
BRANCH  11  12
HETATM   12  C17 UNL     1      -1.764   2.234   2.089  1.00  0.00     0.122 C 
BRANCH  12  13
HETATM   13  N4  UNL     1      -2.640   2.956   1.207  1.00  0.00    -0.367 N 
HETATM   14  C18 UNL     1      -3.773   3.438   1.597  1.00  0.00     0.196 C 
HETATM   15  N5  UNL     1      -4.640   4.148   0.739  1.00  0.00    -0.067 NA
HETATM   16  N6  UNL     1      -4.137   3.227   2.956  1.00  0.00    -0.067 NA
ATOM     17  H4  UNL     1      -2.356   3.093   0.237  1.00  0.00     0.161 HD
ENDBRANCH  12  13
ENDBRANCH  11  12
ENDBRANCH  10  11
ENDBRANCH   9  10
BRANCH   9  18
HETATM   18  C19 UNL     1      -2.260  -1.913  -0.606  1.00  0.00     0.013 C 
BRANCH  18  19
HETATM   19  C20 UNL     1      -3.164  -1.324  -1.626  1.00  0.00    -0.014 C 
HETATM   20  C21 UNL     1      -4.614  -1.316  -1.276  1.00  0.00     0.005 C 
HETATM   21  C22 UNL     1      -5.479  -0.392  -2.035  1.00  0.00     0.000 C 
HETATM   22  C23 UNL     1      -4.823   0.164  -3.301  1.00  0.00     0.000 C 
HETATM   23  C24 UNL     1      -3.578   0.869  -2.806  1.00  0.00     0.000 C 
HETATM   24  C25 UNL     1      -2.601  -0.203  -2.395  1.00  0.00     0.005 C 
ENDBRANCH  18  19
ENDBRANCH   9  18
ENDBRANCH   6   9
ENDBRANCH   5   6
BRANCH   1  25
HETATM   25  C8  UNL     1       1.904  -1.612   0.114  1.00  0.00     0.244 C 
HETATM   26  N2  UNL     1       1.978  -0.316   0.592  1.00  0.00    -0.335 N 
ATOM     27  H2  UNL     1       1.248  -0.104   1.272  1.00  0.00     0.168 HD
HETATM   28  O2  UNL     1       2.691  -2.064  -0.743  1.00  0.00    -0.271 OA
BRANCH  26  29
HETATM   29  C7  UNL     1       2.832   0.776   0.352  1.00  0.00     0.091 C 
BRANCH  29  30
HETATM   30  C6  UNL     1       4.254   0.737   0.728  1.00  0.00     0.018 C 
BRANCH  30  31
HETATM   31  C5  UNL     1       5.216  -0.176   0.127  1.00  0.00     0.018 C 
BRANCH  31  32
HETATM   32  C4  UNL     1       5.583  -0.126  -1.299  1.00  0.00     0.091 C 
BRANCH  32  33
HETATM   33  N1  UNL     1       6.272   0.982  -1.810  1.00  0.00    -0.334 N 
HETATM   34  C3  UNL     1       5.901   2.320  -1.976  1.00  0.00     0.244 C 
HETATM   35  O1  UNL     1       4.772   2.814  -1.689  1.00  0.00    -0.268 OA
ATOM     36  H1  UNL     1       7.222   0.774  -2.119  1.00  0.00     0.168 HD
BRANCH  34  37
HETATM   37  C2  UNL     1       6.834   3.337  -2.529  1.00  0.00     0.064 C 
HETATM   38  C1  UNL     1       8.036   3.021  -2.880  1.00  0.00     0.017 C 
ENDBRANCH  34  37
ENDBRANCH  32  33
ENDBRANCH  31  32
ENDBRANCH  30  31
ENDBRANCH  29  30
ENDBRANCH  26  29
ENDBRANCH   1  25
TORSDOF 16
