REMARK  8 active torsions:
REMARK  status: ('A' for Active; 'I' for Inactive)
REMARK    1  A    between atoms: O1_1  and  C1_3 
REMARK    2  A    between atoms: C1_3  and  C2_4 
REMARK    3  A    between atoms: C5_7  and  O2_8 
REMARK    4  A    between atoms: O2_8  and  C6_9 
REMARK    5  A    between atoms: C6_9  and  C7_10 
REMARK    6  A    between atoms: C7_10  and  N1_11 
REMARK    7  A    between atoms: C12_16  and  O3_17 
REMARK    8  A    between atoms: C13_19  and  O4_20 
ROOT
HETATM    1  C2  UNL     1      -3.464  -0.051   0.117  1.00  0.00     0.041 C 
HETATM    2  C3  UNL     1      -3.007  -0.785  -1.122  1.00  0.00     0.012 C 
HETATM    3  C4  UNL     1      -2.091   0.173  -1.858  1.00  0.00     0.035 C 
HETATM    4  C5  UNL     1      -0.808   0.209  -1.017  1.00  0.00     0.152 C 
HETATM    5  C12 UNL     1      -1.138   0.947   0.229  1.00  0.00     0.176 C 
HETATM    6  C13 UNL     1      -2.351   0.462   0.950  1.00  0.00     0.155 C 
ENDROOT
BRANCH   4   7
HETATM    7  O2  UNL     1       0.238   0.724  -1.720  1.00  0.00    -0.382 OA
BRANCH   7   8
HETATM    8  C6  UNL     1       1.267  -0.101  -2.043  1.00  0.00     0.198 C 
BRANCH   8   9
HETATM    9  C7  UNL     1       1.947  -0.633  -0.814  1.00  0.00     0.298 C 
BRANCH   9  10
HETATM   10  N1  UNL     1       2.521   0.433   0.009  1.00  0.00     0.090 N 
HETATM   11  C8  UNL     1       3.628   1.086  -0.614  1.00  0.00     0.272 C 
HETATM   12  C9  UNL     1       4.838   0.870   0.265  1.00  0.00     0.032 C 
HETATM   13  C10 UNL     1       4.429  -0.423   0.982  1.00  0.00     0.032 C 
HETATM   14  C11 UNL     1       2.970  -0.144   1.259  1.00  0.00     0.272 C 
ENDBRANCH   9  10
ENDBRANCH   8   9
ENDBRANCH   7   8
ENDBRANCH   4   7
BRANCH   5  15
HETATM   15  O3  UNL     1      -1.202   2.329   0.042  1.00  0.00    -0.390 OA
ATOM     16  H3  UNL     1      -1.413   2.801   0.839  1.00  0.00     0.210 HD
ENDBRANCH   5  15
BRANCH   6  17
HETATM   17  O4  UNL     1      -2.000  -0.439   1.986  1.00  0.00    -0.392 OA
ATOM     18  H4  UNL     1      -1.286  -0.110   2.520  1.00  0.00     0.210 HD
ENDBRANCH   6  17
BRANCH   1  19
HETATM   19  C1  UNL     1      -4.287  -1.021   0.939  1.00  0.00     0.171 C 
BRANCH  19  20
HETATM   20  O1  UNL     1      -5.392  -1.446   0.176  1.00  0.00    -0.400 OA
ATOM     21  H1  UNL     1      -5.908  -2.054   0.692  1.00  0.00     0.209 HD
ENDBRANCH  19  20
ENDBRANCH   1  19
TORSDOF 8
