REMARK  16 active torsions:
REMARK  status: ('A' for Active; 'I' for Inactive)
REMARK    1  A    between atoms: N1_5  and  C4_6 
REMARK    2  A    between atoms: C4_6  and  C5_7 
REMARK    3  A    between atoms: C5_7  and  C6_8 
REMARK    4  A    between atoms: C6_8  and  C7_9 
REMARK    5  A    between atoms: C7_9  and  C8_10 
REMARK    6  A    between atoms: C8_10  and  C9_11 
REMARK    7  A    between atoms: C9_11  and  N2_12 
REMARK    8  A    between atoms: C16_20  and  O3_21 
REMARK    9  A    between atoms: C17_25  and  C18_26 
REMARK   10  A    between atoms: C18_26  and  C19_27 
REMARK   11  A    between atoms: C19_27  and  C20_28 
REMARK   12  A    between atoms: C20_28  and  C21_29 
REMARK   13  A    between atoms: C21_29  and  N4_30 
REMARK   14  A    between atoms: C22_34  and  O4_35 
REMARK   15  A    between atoms: C23_39  and  C24_40 
REMARK   16  A    between atoms: C24_40  and  C25_41 
ROOT
HETATM    1  C1  UNL     1      -1.576  -1.934   2.132  1.00  0.00     0.042 C 
HETATM    2  C2  UNL     1      -1.793  -1.372   0.717  1.00  0.00     0.175 C 
HETATM    3  C3  UNL     1      -0.535  -0.732   0.280  1.00  0.00     0.249 C 
HETATM    4  O1  UNL     1       0.025  -1.228  -0.761  1.00  0.00    -0.271 OA
HETATM    5  N1  UNL     1       0.144   0.370   0.864  1.00  0.00    -0.280 N 
HETATM    6  C15 UNL     1      -0.443   1.626   1.203  1.00  0.00     0.301 C 
HETATM    7  O2  UNL     1      -0.301   1.995   2.439  1.00  0.00    -0.263 OA
HETATM    8  C16 UNL     1      -1.184   2.580   0.388  1.00  0.00     0.210 C 
HETATM    9  N3  UNL     1      -2.071   2.430  -0.653  1.00  0.00    -0.332 N 
ATOM     10  H3  UNL     1      -1.632   2.642  -1.549  1.00  0.00     0.168 HD
HETATM   11  C17 UNL     1      -3.449   2.055  -0.819  1.00  0.00     0.062 C 
HETATM   12  C22 UNL     1      -3.617   0.932  -1.765  1.00  0.00     0.159 C 
HETATM   13  N5  UNL     1      -3.464  -0.430  -1.721  1.00  0.00    -0.356 N 
ATOM     14  H5  UNL     1      -2.572  -0.700  -2.136  1.00  0.00     0.162 HD
HETATM   15  C23 UNL     1      -4.172  -1.586  -1.271  1.00  0.00     0.180 C 
HETATM   16  C31 UNL     1      -3.227  -2.705  -0.905  1.00  0.00     0.243 C 
HETATM   17  O5  UNL     1      -3.487  -3.838  -1.376  1.00  0.00    -0.271 OA
HETATM   18  N6  UNL     1      -2.095  -2.559  -0.084  1.00  0.00    -0.342 N 
HETATM   19  C32 UNL     1      -1.137  -3.647   0.003  1.00  0.00     0.153 C 
ENDROOT
BRANCH   5  20
HETATM   20  C4  UNL     1       1.605   0.235   1.163  1.00  0.00     0.135 C 
BRANCH  20  21
HETATM   21  C5  UNL     1       2.349   0.726  -0.061  1.00  0.00     0.020 C 
BRANCH  21  22
HETATM   22  C6  UNL     1       3.838   0.647   0.110  1.00  0.00     0.002 C 
BRANCH  22  23
HETATM   23  C7  UNL     1       4.356  -0.735   0.361  1.00  0.00     0.002 C 
BRANCH  23  24
HETATM   24  C8  UNL     1       5.847  -0.724   0.514  1.00  0.00     0.028 C 
BRANCH  24  25
HETATM   25  C9  UNL     1       6.566  -0.206  -0.691  1.00  0.00     0.237 C 
BRANCH  25  26
HETATM   26  N2  UNL     1       7.998  -0.241  -0.447  1.00  0.00    -0.071 N 
HETATM   27  C10 UNL     1       8.390  -1.382   0.361  1.00  0.00     0.272 C 
HETATM   28  C11 UNL     1       8.480   0.943   0.192  1.00  0.00     0.237 C 
HETATM   29  C12 UNL     1       8.831   1.885  -0.956  1.00  0.00     0.029 C 
HETATM   30  C13 UNL     1       9.455   0.912  -1.936  1.00  0.00     0.029 C 
HETATM   31  C14 UNL     1       8.687  -0.371  -1.715  1.00  0.00     0.237 C 
ENDBRANCH  25  26
ENDBRANCH  24  25
ENDBRANCH  23  24
ENDBRANCH  22  23
ENDBRANCH  21  22
ENDBRANCH  20  21
ENDBRANCH   5  20
BRANCH   8  32
HETATM   32  O3  UNL     1      -0.979   3.869   0.690  1.00  0.00    -0.342 OA
ATOM     33  H3  UNL     1      -1.462   4.491   0.159  1.00  0.00     0.219 HD
ENDBRANCH   8  32
BRANCH  11  34
HETATM   34  C18 UNL     1      -4.304   1.960   0.375  1.00  0.00     0.062 C 
BRANCH  34  35
HETATM   35  C19 UNL     1      -4.484   3.219   1.180  1.00  0.00     0.008 C 
BRANCH  35  36
HETATM   36  C20 UNL     1      -5.087   4.359   0.409  1.00  0.00     0.027 C 
BRANCH  36  37
HETATM   37  C21 UNL     1      -5.220   5.571   1.345  1.00  0.00     0.229 C 
BRANCH  37  38
HETATM   38  N4  UNL     1      -5.800   6.693   0.627  1.00  0.00    -0.079 N 
ATOM     39  H43 UNL     1      -5.275   6.919  -0.218  1.00  0.00     0.274 HD
ATOM     40  H42 UNL     1      -6.689   6.449   0.190  1.00  0.00     0.274 HD
ATOM     41  H41 UNL     1      -5.888   7.497   1.248  1.00  0.00     0.274 HD
ENDBRANCH  37  38
ENDBRANCH  36  37
ENDBRANCH  35  36
ENDBRANCH  34  35
ENDBRANCH  11  34
BRANCH  15  42
HETATM   42  C24 UNL     1      -5.262  -1.432  -0.278  1.00  0.00     0.073 C 
BRANCH  42  43
HETATM   43  C25 UNL     1      -5.857  -2.775   0.003  1.00  0.00    -0.054 A 
HETATM   44  C26 UNL     1      -5.353  -3.498   1.041  1.00  0.00     0.009 A 
HETATM   45  C27 UNL     1      -5.870  -4.741   1.330  1.00  0.00     0.026 A 
HETATM   46  C28 UNL     1      -6.899  -5.272   0.580  1.00  0.00     0.055 A 
HETATM   47 CL1  UNL     1      -7.557  -6.872   0.962  1.00  0.00    -0.083 Cl
HETATM   48  C29 UNL     1      -7.404  -4.520  -0.479  1.00  0.00     0.056 A 
HETATM   49 CL2  UNL     1      -8.709  -5.187  -1.435  1.00  0.00    -0.083 Cl
HETATM   50  C30 UNL     1      -6.868  -3.259  -0.760  1.00  0.00     0.032 A 
ENDBRANCH  42  43
ENDBRANCH  15  42
BRANCH  12  51
HETATM   51  O4  UNL     1      -4.013   1.382  -2.952  1.00  0.00    -0.345 OA
ATOM     52  H4  UNL     1      -4.121   0.660  -3.560  1.00  0.00     0.219 HD
ENDBRANCH  12  51
TORSDOF 16
