REMARK  16 active torsions:
REMARK  status: ('A' for Active; 'I' for Inactive)
REMARK    1  A    between atoms: C2_2  and  C3_3 
REMARK    2  A    between atoms: C3_3  and  C5_5 
REMARK    3  A    between atoms: C5_5  and  C6_7 
REMARK    4  A    between atoms: C6_7  and  O2_8 
REMARK    5  A    between atoms: C6_7  and  N1_10 
REMARK    6  A    between atoms: N1_10  and  C8_12 
REMARK    7  A    between atoms: C8_12  and  C9_13 
REMARK    8  A    between atoms: C8_12  and  C15_20 
REMARK    9  A    between atoms: C9_13  and  C10_14 
REMARK   10  A    between atoms: C10_14  and  C11_15 
REMARK   11  A    between atoms: C11_15  and  C12_16 
REMARK   12  A    between atoms: C12_16  and  N2_17 
REMARK       I    between atoms: C15_20  and  N3_22 
REMARK   13  A    between atoms: N3_22  and  C16_24 
REMARK   14  A    between atoms: C17_28  and  C19_30 
REMARK   15  A    between atoms: C22_34  and  C23_35 
REMARK   16  A    between atoms: C29_42  and  O4_43 
ROOT
HETATM    1  C16 UNL     1      -1.519  -0.059   0.672  1.00  0.00     0.292 C 
HETATM    2  N4  UNL     1      -1.779  -1.484   0.888  1.00  0.00    -0.044 N 
ATOM      3  H41 UNL     1      -1.105  -1.882   1.542  1.00  0.00     0.280 HD
ATOM      4  H42 UNL     1      -1.545  -2.027   0.057  1.00  0.00     0.280 HD
HETATM    5  C17 UNL     1      -3.121  -1.748   1.311  1.00  0.00     0.141 C 
HETATM    6  C18 UNL     1      -3.215  -1.210   2.741  1.00  0.00     0.048 C 
HETATM    7  C20 UNL     1      -4.097  -1.134   0.365  1.00  0.00     0.033 C 
HETATM    8  C21 UNL     1      -4.987  -0.099   1.018  1.00  0.00     0.019 C 
HETATM    9  C22 UNL     1      -4.840   1.115   0.132  1.00  0.00    -0.020 C 
HETATM   10  C24 UNL     1      -3.406   1.610   0.431  1.00  0.00     0.020 C 
HETATM   11  C25 UNL     1      -2.503   0.587  -0.254  1.00  0.00     0.046 C 
HETATM   12  C26 UNL     1      -3.474  -0.381  -0.788  1.00  0.00    -0.017 C 
HETATM   13  C27 UNL     1      -3.238  -1.076  -2.024  1.00  0.00     0.014 C 
HETATM   14  C28 UNL     1      -4.667  -1.377  -2.508  1.00  0.00     0.033 C 
HETATM   15  C29 UNL     1      -5.541  -0.294  -1.876  1.00  0.00     0.128 C 
HETATM   16  C30 UNL     1      -4.598   0.594  -1.229  1.00  0.00    -0.001 C 
HETATM   17  C31 UNL     1      -4.128   1.641  -2.176  1.00  0.00     0.019 C 
ENDROOT
BRANCH   1  18
HETATM   18  N3  UNL     1      -0.186  -0.052   0.042  1.00  0.00    -0.331 N 
HETATM   19  C15 UNL     1       0.913   0.586   0.624  1.00  0.00     0.242 C 
HETATM   20  O3  UNL     1       0.745   1.176   1.722  1.00  0.00    -0.271 OA
ATOM     21  H3  UNL     1      -0.061  -0.530  -0.850  1.00  0.00     0.164 HD
BRANCH  19  22
HETATM   22  C8  UNL     1       2.290   0.629   0.045  1.00  0.00     0.178 C 
BRANCH  22  23
HETATM   23  N1  UNL     1       2.459   1.916  -0.566  1.00  0.00    -0.350 N 
HETATM   24  C7  UNL     1       1.549   2.175  -1.706  1.00  0.00     0.152 C 
BRANCH  23  25
HETATM   25  C6  UNL     1       3.352   2.939  -0.235  1.00  0.00     0.186 C 
BRANCH  25  26
HETATM   26  C5  UNL     1       4.339   2.954   0.816  1.00  0.00     0.203 C 
HETATM   27  O1  UNL     1       4.486   1.991   1.592  1.00  0.00    -0.288 OA
BRANCH  26  28
HETATM   28  C3  UNL     1       5.228   4.148   1.003  1.00  0.00     0.060 C 
HETATM   29  C4  UNL     1       4.470   5.381   1.402  1.00  0.00     0.018 C 
BRANCH  28  30
HETATM   30  C2  UNL     1       6.092   4.421  -0.197  1.00  0.00     0.008 C 
HETATM   31  C1  UNL     1       6.848   3.165  -0.591  1.00  0.00     0.006 C 
ENDBRANCH  28  30
ENDBRANCH  26  28
ENDBRANCH  25  26
BRANCH  25  32
HETATM   32  O2  UNL     1       3.285   4.015  -0.970  1.00  0.00    -0.344 OA
ATOM     33  H2  UNL     1       2.635   4.005  -1.662  1.00  0.00     0.219 HD
ENDBRANCH  25  32
ENDBRANCH  23  25
ENDBRANCH  22  23
BRANCH  22  34
HETATM   34  C9  UNL     1       2.519  -0.475  -0.972  1.00  0.00     0.035 C 
BRANCH  34  35
HETATM   35  C10 UNL     1       2.383  -1.846  -0.383  1.00  0.00     0.004 C 
BRANCH  35  36
HETATM   36  C11 UNL     1       3.382  -2.087   0.734  1.00  0.00     0.030 C 
BRANCH  36  37
HETATM   37  C12 UNL     1       3.136  -3.511   1.238  1.00  0.00     0.271 C 
BRANCH  37  38
HETATM   38  N2  UNL     1       3.369  -4.409   0.110  1.00  0.00     0.080 N 
HETATM   39  C13 UNL     1       3.118  -5.784   0.518  1.00  0.00     0.309 C 
HETATM   40  C14 UNL     1       4.756  -4.272  -0.347  1.00  0.00     0.309 C 
ENDBRANCH  37  38
ENDBRANCH  36  37
ENDBRANCH  35  36
ENDBRANCH  34  35
ENDBRANCH  22  34
ENDBRANCH  19  22
ENDBRANCH   1  18
BRANCH   5  41
HETATM   41  C19 UNL     1      -3.281  -3.247   1.485  1.00  0.00     0.153 C 
HETATM   42 CL1  UNL     1      -2.995  -4.210   0.063  1.00  0.00    -0.128 Cl
ENDBRANCH   5  41
BRANCH   9  43
HETATM   43  C23 UNL     1      -5.856   2.151   0.327  1.00  0.00     0.095 C 
HETATM   44 BR1  UNL     1      -5.786   2.790   2.161  1.00  0.00    -0.096 Br
ENDBRANCH   9  43
BRANCH  15  45
HETATM   45  O4  UNL     1      -6.594  -0.805  -1.178  1.00  0.00    -0.395 OA
ATOM     46  H4  UNL     1      -7.137  -0.132  -0.785  1.00  0.00     0.210 HD
ENDBRANCH  15  45
TORSDOF 16
