REMARK  14 active torsions:
REMARK  status: ('A' for Active; 'I' for Inactive)
REMARK    1  A    between atoms: N1_2  and  C2_3 
REMARK       I    between atoms: N1_2  and  C13_16 
REMARK    2  A    between atoms: C2_3  and  C3_4 
REMARK    3  A    between atoms: C3_4  and  C4_5 
REMARK    4  A    between atoms: C4_5  and  C5_6 
REMARK    5  A    between atoms: C5_6  and  C6_7 
REMARK    6  A    between atoms: C6_7  and  C7_8 
REMARK    7  A    between atoms: C13_16  and  C14_18 
REMARK    8  A    between atoms: C14_18  and  C15_19 
REMARK    9  A    between atoms: C14_18  and  N5_30 
REMARK   10  A    between atoms: C15_19  and  C16_20 
REMARK   11  A    between atoms: C16_20  and  C17_21 
REMARK   12  A    between atoms: C17_21  and  C18_22 
REMARK   13  A    between atoms: C18_22  and  N2_23 
REMARK       I    between atoms: C19_25  and  N3_26 
REMARK       I    between atoms: N5_30  and  C20_32 
REMARK       I    between atoms: C20_32  and  N6_34 
REMARK   14  A    between atoms: C22_37  and  C23_39 
ROOT
HETATM    1  C14 UNL     1       1.811   0.489  -0.030  1.00  0.00     0.178 C 
ENDROOT
BRANCH   1   2
HETATM    2  C13 UNL     1       0.499  -0.046  -0.429  1.00  0.00     0.242 C 
HETATM    3  N1  UNL     1      -0.298  -0.514   0.655  1.00  0.00    -0.355 N 
HETATM    4  C1  UNL     1       0.286  -1.057   1.864  1.00  0.00     0.152 C 
HETATM    5  O3  UNL     1       0.103  -0.134  -1.505  1.00  0.00    -0.271 OA
BRANCH   3   6
HETATM    6  C2  UNL     1      -1.741  -0.360   0.481  1.00  0.00     0.125 C 
BRANCH   6   7
HETATM    7  C3  UNL     1      -2.260  -1.656   0.021  1.00  0.00     0.020 C 
BRANCH   7   8
HETATM    8  C4  UNL     1      -3.630  -1.428  -0.645  1.00  0.00     0.003 C 
BRANCH   8   9
HETATM    9  C5  UNL     1      -4.463  -0.695   0.351  1.00  0.00     0.020 C 
BRANCH   9  10
HETATM   10  C6  UNL     1      -5.879  -0.493  -0.180  1.00  0.00     0.048 C 
HETATM   11  C8  UNL     1      -6.629  -0.693   1.190  1.00  0.00     0.020 C 
HETATM   12  C9  UNL     1      -7.939  -0.031   1.270  1.00  0.00     0.001 C 
HETATM   13  C10 UNL     1      -8.012   1.319   0.623  1.00  0.00     0.000 C 
HETATM   14  C11 UNL     1      -7.654   1.102  -0.843  1.00  0.00     0.001 C 
HETATM   15  C12 UNL     1      -6.208   0.681  -0.880  1.00  0.00     0.020 C 
BRANCH  10  16
HETATM   16  C7  UNL     1      -6.243  -1.767  -0.923  1.00  0.00     0.181 C 
HETATM   17  O1  UNL     1      -6.545  -2.790  -0.433  1.00  0.00    -0.647 OA
HETATM   18  O2  UNL     1      -6.190  -1.665  -2.341  1.00  0.00    -0.647 OA
ENDBRANCH  10  16
ENDBRANCH   9  10
ENDBRANCH   8   9
ENDBRANCH   7   8
ENDBRANCH   6   7
ENDBRANCH   3   6
ENDBRANCH   1   2
BRANCH   1  19
HETATM   19  C15 UNL     1       2.069   1.609  -1.094  1.00  0.00     0.035 C 
BRANCH  19  20
HETATM   20  C16 UNL     1       3.437   2.131  -0.926  1.00  0.00     0.004 C 
BRANCH  20  21
HETATM   21  C17 UNL     1       3.484   3.608  -1.293  1.00  0.00     0.020 C 
BRANCH  21  22
HETATM   22  C18 UNL     1       2.896   4.366   0.005  1.00  0.00     0.122 C 
BRANCH  22  23
HETATM   23  N2  UNL     1       2.888   5.752  -0.372  1.00  0.00    -0.365 N 
HETATM   24  C19 UNL     1       3.692   6.558   0.321  1.00  0.00     0.181 C 
HETATM   25  N3  UNL     1       4.354   5.958   1.368  1.00  0.00    -0.374 N 
HETATM   26  N4  UNL     1       3.650   7.849  -0.291  1.00  0.00    -0.064 NA
ATOM     27  H32 UNL     1       4.384   5.037   1.805  1.00  0.00     0.158 HD
ATOM     28  H31 UNL     1       4.969   6.575   1.898  1.00  0.00     0.158 HD
ATOM     29  H2  UNL     1       2.299   6.100  -1.129  1.00  0.00     0.162 HD
ENDBRANCH  22  23
ENDBRANCH  21  22
ENDBRANCH  20  21
ENDBRANCH  19  20
ENDBRANCH   1  19
BRANCH   1  30
HETATM   30  N5  UNL     1       2.811  -0.391   0.105  1.00  0.00    -0.329 N 
HETATM   31  C20 UNL     1       3.073  -1.589  -0.522  1.00  0.00     0.326 C 
HETATM   32  O4  UNL     1       2.279  -1.966  -1.429  1.00  0.00    -0.247 OA
HETATM   33  N6  UNL     1       4.290  -2.262  -0.175  1.00  0.00    -0.257 N 
HETATM   34  C21 UNL     1       5.574  -1.937   0.092  1.00  0.00     0.251 A 
HETATM   35  C24 UNL     1       4.536  -3.644  -0.278  1.00  0.00     0.064 A 
HETATM   36  O5  UNL     1       6.351  -1.016   0.276  1.00  0.00    -0.271 OA
HETATM   37  C22 UNL     1       5.923  -3.430  -0.038  1.00  0.00     0.133 A 
HETATM   38 BR1  UNL     1       6.963  -3.693  -1.695  1.00  0.00    -0.071 Br
HETATM   39  C25 UNL     1       3.759  -4.174   0.994  1.00  0.00     0.041 C 
HETATM   40  C26 UNL     1       4.221  -4.454  -1.492  1.00  0.00     0.041 C 
ATOM     41  H5  UNL     1       3.508  -0.125   0.801  1.00  0.00     0.165 HD
BRANCH  37  42
HETATM   42  C23 UNL     1       6.538  -3.923   1.223  1.00  0.00     0.118 C 
HETATM   43 BR2  UNL     1       6.304  -5.870   1.360  1.00  0.00    -0.094 Br
ENDBRANCH  37  42
ENDBRANCH   1  30
TORSDOF 14
