REMARK  4 active torsions:
REMARK  status: ('A' for Active; 'I' for Inactive)
REMARK    1  A    between atoms: N1_1  and  C1_4 
REMARK    2  A    between atoms: C2_7  and  N3_8 
REMARK    3  A    between atoms: N3_8  and  N4_10 
REMARK    4  A    between atoms: N4_10  and  C3_12 
ROOT
HETATM    1  C1  UNL     1      -3.068  -0.387  -0.758  1.00  0.00     0.694 A 
HETATM    2  N2  UNL     1      -2.048  -0.976  -0.091  1.00  0.00    -0.021 N 
ATOM      3  H2  UNL     1      -2.034  -1.992  -0.004  1.00  0.00     0.203 HD
HETATM    4  C2  UNL     1      -1.053  -0.261   0.460  1.00  0.00     0.715 A 
HETATM    5  N6  UNL     1      -1.111   1.070   0.322  1.00  0.00    -0.139 N 
ATOM      6  H6  UNL     1      -0.368   1.636   0.731  1.00  0.00     0.189 HD
HETATM    7  C6  UNL     1      -2.107   1.693  -0.333  1.00  0.00     0.352 A 
HETATM    8  O2  UNL     1      -2.102   2.950  -0.427  1.00  0.00    -0.246 OA
HETATM    9  N7  UNL     1      -3.111   0.949  -0.887  1.00  0.00    -0.141 N 
ATOM     10  H7  UNL     1      -3.877   1.399  -1.388  1.00  0.00     0.189 HD
ENDROOT
BRANCH   4  11
HETATM   11  N3  UNL     1       0.029  -0.839   1.164  1.00  0.00    -0.130 N 
ATOM     12  H3  UNL     1      -0.039  -0.921   2.178  1.00  0.00     0.205 HD
BRANCH  11  13
HETATM   13  N4  UNL     1       1.188  -1.303   0.533  1.00  0.00    -0.270 N 
ATOM     14  H4  UNL     1       1.184  -2.261   0.183  1.00  0.00     0.189 HD
BRANCH  13  15
HETATM   15  C3  UNL     1       2.362  -0.545   0.345  1.00  0.00     0.144 A 
HETATM   16  C4  UNL     1       3.519  -0.946  -0.279  1.00  0.00     0.193 A 
HETATM   17  O1  UNL     1       4.349   0.070  -0.230  1.00  0.00    -0.314 OA
HETATM   18  C5  UNL     1       3.771   1.075   0.387  1.00  0.00     0.234 A 
HETATM   19  N5  UNL     1       2.535   0.718   0.755  1.00  0.00    -0.330 N 
ATOM     20  H5  UNL     1       1.856   1.296   1.251  1.00  0.00     0.168 HD
ENDBRANCH  13  15
ENDBRANCH  11  13
ENDBRANCH   4  11
BRANCH   1  21
HETATM   21  N1  UNL     1      -3.974  -1.134  -1.256  1.00  0.00    -0.234 N 
ATOM     22  H12 UNL     1      -3.941  -2.149  -1.158  1.00  0.00     0.174 HD
ATOM     23  H11 UNL     1      -4.743  -0.690  -1.759  1.00  0.00     0.174 HD
ENDBRANCH   1  21
TORSDOF 4
