REMARK  14 active torsions:
REMARK  status: ('A' for Active; 'I' for Inactive)
REMARK    1  A    between atoms: O1_2  and  C2_3 
REMARK    2  A    between atoms: C2_3  and  C3_4 
REMARK       I    between atoms: C3_4  and  N1_6 
REMARK    3  A    between atoms: N1_6  and  C4_8 
REMARK    4  A    between atoms: C7_15  and  N4_16 
REMARK    5  A    between atoms: N4_16  and  C8_18 
REMARK    6  A    between atoms: C11_21  and  O3_22 
REMARK    7  A    between atoms: O3_22  and  C12_23 
REMARK    8  A    between atoms: C12_23  and  C13_24 
REMARK    9  A    between atoms: C13_24  and  C14_25 
REMARK   10  A    between atoms: C14_25  and  N5_26 
REMARK   11  A    between atoms: N7_39  and  C24_40 
REMARK   12  A    between atoms: C24_40  and  C25_41 
REMARK   13  A    between atoms: C25_41  and  C26_42 
REMARK   14  A    between atoms: C26_42  and  O5_45 
ROOT
HETATM    1  C4  UNL     1      -4.527  -1.215  -1.454  1.00  0.00     0.689 A 
HETATM    2  N2  UNL     1      -3.338  -0.984  -2.052  1.00  0.00    -0.186 N 
ATOM      3  H2  UNL     1      -3.180  -0.967  -3.060  1.00  0.00     0.184 HD
HETATM    4  C5  UNL     1      -2.396  -0.781  -1.118  1.00  0.00     0.110 A 
HETATM    5  C6  UNL     1      -1.029  -0.508  -1.189  1.00  0.00     0.140 A 
HETATM    6  N3  UNL     1      -0.342  -0.354  -0.031  1.00  0.00    -0.199 N 
ATOM      7  H3  UNL     1       0.658  -0.155  -0.052  1.00  0.00     0.183 HD
HETATM    8  C7  UNL     1      -0.983  -0.465   1.143  1.00  0.00     0.684 A 
HETATM    9  N6  UNL     1      -2.302  -0.728   1.204  1.00  0.00    -0.173 N 
ATOM     10  H6  UNL     1      -2.756  -0.806   2.114  1.00  0.00     0.186 HD
HETATM   11  C23 UNL     1      -3.032  -0.890   0.082  1.00  0.00     0.167 A 
HETATM   12  N7  UNL     1      -4.374  -1.162  -0.139  1.00  0.00    -0.165 N 
ENDROOT
BRANCH   8  13
HETATM   13  N4  UNL     1      -0.315  -0.316   2.231  1.00  0.00    -0.191 N 
ATOM     14  H4  UNL     1      -0.819  -0.404   3.114  1.00  0.00     0.184 HD
BRANCH  13  15
HETATM   15  C8  UNL     1       1.062  -0.040   2.288  1.00  0.00     0.055 A 
HETATM   16  C9  UNL     1       1.943  -1.124   2.219  1.00  0.00     0.033 A 
HETATM   17  C10 UNL     1       3.287  -0.836   2.278  1.00  0.00     0.039 A 
HETATM   18  C11 UNL     1       3.803   0.433   2.398  1.00  0.00     0.069 A 
HETATM   19  C20 UNL     1       2.900   1.471   2.463  1.00  0.00     0.045 A 
HETATM   20  C21 UNL     1       1.523   1.245   2.409  1.00  0.00    -0.032 A 
HETATM   21  C22 UNL     1       0.597   2.403   2.484  1.00  0.00     0.050 C 
BRANCH  18  22
HETATM   22  O3  UNL     1       5.174   0.699   2.456  1.00  0.00    -0.351 OA
BRANCH  22  23
HETATM   23  C12 UNL     1       6.035  -0.426   2.384  1.00  0.00     0.177 C 
BRANCH  23  24
HETATM   24  C13 UNL     1       7.485  -0.062   2.458  1.00  0.00     0.046 C 
BRANCH  24  25
HETATM   25  C14 UNL     1       7.923   0.838   1.340  1.00  0.00     0.128 C 
BRANCH  25  26
HETATM   26  N5  UNL     1       7.724   0.175   0.082  1.00  0.00    -0.352 N 
HETATM   27  C15 UNL     1       6.539   0.258  -0.741  1.00  0.00     0.125 C 
HETATM   28  C16 UNL     1       6.943   0.802  -2.096  1.00  0.00     0.020 C 
HETATM   29  C17 UNL     1       8.258   0.307  -2.592  1.00  0.00     0.011 C 
HETATM   30  C18 UNL     1       8.708  -0.960  -1.897  1.00  0.00     0.103 C 
HETATM   31  C19 UNL     1       8.787  -0.651  -0.447  1.00  0.00     0.219 C 
HETATM   32  O4  UNL     1       9.704  -1.070   0.277  1.00  0.00    -0.273 OA
ENDBRANCH  25  26
ENDBRANCH  24  25
ENDBRANCH  23  24
ENDBRANCH  22  23
ENDBRANCH  18  22
ENDBRANCH  13  15
ENDBRANCH   8  13
BRANCH  12  33
HETATM   33  C24 UNL     1      -5.282  -1.263   0.963  1.00  0.00     0.152 C 
BRANCH  33  34
HETATM   34  C25 UNL     1      -5.690  -0.002   1.604  1.00  0.00     0.058 C 
BRANCH  34  35
HETATM   35  C26 UNL     1      -6.400   0.968   0.744  1.00  0.00     0.052 C 
HETATM   36  C27 UNL     1      -6.683   2.194   1.660  1.00  0.00     0.045 C 
HETATM   37  C28 UNL     1      -7.746   0.446   0.284  1.00  0.00     0.045 C 
BRANCH  35  38
HETATM   38  O5  UNL     1      -5.616   1.439  -0.274  1.00  0.00    -0.391 OA
ATOM     39  H5  UNL     1      -6.072   2.062  -0.827  1.00  0.00     0.210 HD
ENDBRANCH  35  38
ENDBRANCH  34  35
ENDBRANCH  33  34
ENDBRANCH  12  33
BRANCH   1  40
HETATM   40  N1  UNL     1      -5.649  -1.526  -2.058  1.00  0.00    -0.154 N 
HETATM   41  C3  UNL     1      -5.628  -1.637  -3.459  1.00  0.00     0.281 C 
HETATM   42  O2  UNL     1      -4.778  -2.456  -3.958  1.00  0.00    -0.266 OA
ATOM     43  H1  UNL     1      -6.507  -1.682  -1.529  1.00  0.00     0.187 HD
BRANCH  41  44
HETATM   44  C2  UNL     1      -6.464  -0.925  -4.404  1.00  0.00     0.208 C 
BRANCH  44  45
HETATM   45  O1  UNL     1      -7.495  -0.173  -3.925  1.00  0.00    -0.362 OA
HETATM   46  C1  UNL     1      -8.487  -0.858  -3.273  1.00  0.00     0.209 C 
ENDBRANCH  44  45
ENDBRANCH  41  44
ENDBRANCH   1  40
TORSDOF 14
