REMARK  13 active torsions:
REMARK  status: ('A' for Active; 'I' for Inactive)
REMARK    1  A    between atoms: C2_2  and  C3_3 
REMARK    2  A    between atoms: C3_3  and  C4_4 
REMARK    3  A    between atoms: C4_4  and  C5_5 
REMARK    4  A    between atoms: C5_5  and  S1_6 
REMARK    5  A    between atoms: S1_6  and  C6_9 
REMARK    6  A    between atoms: C8_12  and  C9_13 
REMARK    7  A    between atoms: C13_17  and  C14_18 
REMARK    8  A    between atoms: C15_19  and  C16_20 
REMARK    9  A    between atoms: C18_24  and  N2_25 
REMARK   10  A    between atoms: C20_31  and  C21_32 
REMARK   11  A    between atoms: C21_32  and  N4_33 
REMARK   12  A    between atoms: N4_33  and  S3_35 
REMARK   13  A    between atoms: S3_35  and  C23_38 
ROOT
HETATM    1  C9  UNL     1       0.528  -0.430   0.291  1.00  0.00    -0.001 A 
HETATM    2  C10 UNL     1       0.669   0.915   0.486  1.00  0.00     0.022 A 
HETATM    3  C11 UNL     1      -0.455   1.746   0.556  1.00  0.00    -0.042 A 
HETATM    4  C12 UNL     1      -0.241   3.199   0.769  1.00  0.00     0.049 C 
HETATM    5  C13 UNL     1      -1.677   1.163   0.425  1.00  0.00     0.035 A 
HETATM    6  C20 UNL     1      -1.831  -0.193   0.228  1.00  0.00    -0.000 A 
HETATM    7  C25 UNL     1      -0.709  -0.972   0.164  1.00  0.00     0.028 A 
ENDROOT
BRANCH   1   8
HETATM    8  C8  UNL     1       1.747  -1.276   0.222  1.00  0.00     0.085 A 
HETATM    9  S2  UNL     1       1.875  -2.962  -0.010  1.00  0.00    -0.080 SA
HETATM   10  C7  UNL     1       3.583  -3.094   0.042  1.00  0.00     0.093 A 
HETATM   11  C6  UNL     1       3.950  -1.789   0.240  1.00  0.00     0.136 A 
HETATM   12  N5  UNL     1       3.009  -0.906   0.325  1.00  0.00    -0.340 N 
ATOM     13  H5  UNL     1       3.242   0.076   0.472  1.00  0.00     0.167 HD
BRANCH  11  14
HETATM   14  S1  UNL     1       5.676  -1.321   0.375  1.00  0.00     0.191 S 
HETATM   15  O1  UNL     1       6.509  -2.560   0.338  1.00  0.00    -0.221 OA
HETATM   16  O2  UNL     1       5.845  -0.681   1.717  1.00  0.00    -0.221 OA
BRANCH  14  17
HETATM   17  C5  UNL     1       6.089  -0.190  -0.889  1.00  0.00     0.147 C 
BRANCH  17  18
HETATM   18  C4  UNL     1       7.482   0.320  -0.885  1.00  0.00     0.015 C 
BRANCH  18  19
HETATM   19  C3  UNL     1       8.505  -0.763  -1.042  1.00  0.00     0.001 C 
BRANCH  19  20
HETATM   20  C2  UNL     1       9.884  -0.082  -1.066  1.00  0.00    -0.005 C 
HETATM   21  C1  UNL     1      10.074   0.660   0.231  1.00  0.00     0.005 C 
ENDBRANCH  19  20
ENDBRANCH  18  19
ENDBRANCH  17  18
ENDBRANCH  14  17
ENDBRANCH  11  14
ENDBRANCH   1   8
BRANCH   6  22
HETATM   22  C21 UNL     1      -3.202  -0.711   0.100  1.00  0.00     0.109 C 
BRANCH  22  23
HETATM   23  N4  UNL     1      -3.297  -2.082  -0.095  1.00  0.00    -0.327 N 
ATOM     24  H4  UNL     1      -2.505  -2.722  -0.159  1.00  0.00     0.174 HD
BRANCH  23  25
HETATM   25  S3  UNL     1      -5.238  -2.620  -0.232  1.00  0.00     0.020 S 
HETATM   26  C22 UNL     1      -6.298  -1.458  -1.271  1.00  0.00     0.136 C 
HETATM   27  O3  UNL     1      -5.464  -2.150   1.074  1.00  0.00    -0.250 OA
BRANCH  25  28
HETATM   28  C23 UNL     1      -5.557  -4.450  -0.081  1.00  0.00     0.112 C 
HETATM   29  C24 UNL     1      -4.346  -5.392  -0.153  1.00  0.00     0.019 C 
ENDBRANCH  25  28
ENDBRANCH  23  25
ENDBRANCH  22  23
ENDBRANCH   6  22
BRANCH   5  30
HETATM   30  C14 UNL     1      -2.842   2.023   0.498  1.00  0.00    -0.060 C 
HETATM   31  C15 UNL     1      -3.801   2.753   0.554  1.00  0.00    -0.059 C 
BRANCH  31  32
HETATM   32  C16 UNL     1      -4.938   3.622   0.645  1.00  0.00     0.050 A 
HETATM   33  C17 UNL     1      -5.590   3.880   1.844  1.00  0.00     0.128 A 
HETATM   34  N1  UNL     1      -6.650   4.702   1.876  1.00  0.00    -0.201 N 
HETATM   35  C18 UNL     1      -7.129   5.307   0.779  1.00  0.00     0.675 A 
ATOM     36  H1  UNL     1      -7.110   4.874   2.770  1.00  0.00     0.183 HD
HETATM   37  N3  UNL     1      -6.505   5.064  -0.384  1.00  0.00    -0.201 N 
HETATM   38  C19 UNL     1      -5.431   4.244  -0.475  1.00  0.00     0.128 A 
ATOM     39  H3  UNL     1      -6.853   5.514  -1.231  1.00  0.00     0.183 HD
BRANCH  35  40
HETATM   40  N2  UNL     1      -8.152   6.090   0.856  1.00  0.00    -0.234 N 
ATOM     41  H22 UNL     1      -8.626   6.275   1.740  1.00  0.00     0.174 HD
ATOM     42  H21 UNL     1      -8.516   6.550   0.022  1.00  0.00     0.174 HD
ENDBRANCH  35  40
ENDBRANCH  31  32
ENDBRANCH   5  30
TORSDOF 13
