REMARK  11 active torsions:
REMARK  status: ('A' for Active; 'I' for Inactive)
REMARK    1  A    between atoms: C3_3  and  O1_4 
REMARK    2  A    between atoms: O1_4  and  C4_5 
REMARK    3  A    between atoms: C4_5  and  C5_7 
REMARK    4  A    between atoms: C5_7  and  C6_8 
REMARK    5  A    between atoms: C5_7  and  N2_17 
REMARK    6  A    between atoms: C6_8  and  C7_9 
REMARK    7  A    between atoms: C7_9  and  C8_10 
REMARK    8  A    between atoms: C8_10  and  O3_11 
REMARK    9  A    between atoms: N1_13  and  O4_15 
REMARK   10  A    between atoms: C13_23  and  C14_24 
REMARK   11  A    between atoms: C14_24  and  O6_26 
ROOT
HETATM    1  C1  UNL     1       2.868   2.955  -2.787  1.00  0.00     0.014 C 
HETATM    2  C2  UNL     1       1.917   3.082  -2.076  1.00  0.00    -0.091 C 
HETATM    3  C3  UNL     1       0.742   3.253  -1.219  1.00  0.00     0.271 C 
ENDROOT
BRANCH   3   4
HETATM    4  O1  UNL     1       0.367   1.977  -0.758  1.00  0.00    -0.308 OA
BRANCH   4   5
HETATM    5  C4  UNL     1       1.160   1.139  -0.013  1.00  0.00     0.282 C 
HETATM    6  O2  UNL     1       2.320   1.643   0.236  1.00  0.00    -0.263 OA
BRANCH   5   7
HETATM    7  C5  UNL     1       0.849  -0.180   0.493  1.00  0.00     0.181 C 
BRANCH   7   8
HETATM    8  C6  UNL     1       1.509  -1.270  -0.376  1.00  0.00     0.043 C 
BRANCH   8   9
HETATM    9  C7  UNL     1       2.981  -1.190  -0.443  1.00  0.00     0.088 C 
BRANCH   9  10
HETATM   10  C8  UNL     1       3.737  -1.345   0.792  1.00  0.00     0.135 C 
HETATM   11  N1  UNL     1       3.242  -1.728   1.893  1.00  0.00    -0.251 N 
ATOM     12  H1  UNL     1       2.245  -1.943   1.913  1.00  0.00     0.196 HD
BRANCH  10  13
HETATM   13  O3  UNL     1       5.117  -1.048   0.749  1.00  0.00    -0.348 OA
ATOM     14  H3  UNL     1       5.610  -1.149   1.555  1.00  0.00     0.219 HD
ENDBRANCH  10  13
BRANCH  11  15
HETATM   15  O4  UNL     1       3.939  -1.874   3.047  1.00  0.00    -0.288 OA
ATOM     16  H4  UNL     1       3.568  -2.161   3.873  1.00  0.00     0.244 HD
ENDBRANCH  11  15
ENDBRANCH   9  10
ENDBRANCH   8   9
ENDBRANCH   7   8
BRANCH   7  17
HETATM   17  N2  UNL     1      -0.519  -0.583   0.571  1.00  0.00    -0.376 N 
HETATM   18  C9  UNL     1      -0.716  -1.834   1.216  1.00  0.00     0.194 C 
HETATM   19  S1  UNL     1      -1.947  -1.345   2.494  1.00  0.00    -0.138 SA
HETATM   20  C10 UNL     1      -2.692  -0.033   1.485  1.00  0.00     0.032 C 
HETATM   21  C11 UNL     1      -3.106   1.139   2.335  1.00  0.00     0.029 C 
HETATM   22  C12 UNL     1      -3.884  -0.657   0.792  1.00  0.00     0.029 C 
HETATM   23  C13 UNL     1      -1.564   0.275   0.533  1.00  0.00     0.199 C 
BRANCH  23  24
HETATM   24  C14 UNL     1      -2.170   0.329  -0.849  1.00  0.00     0.282 C 
HETATM   25  O5  UNL     1      -3.119   1.099  -1.135  1.00  0.00    -0.263 OA
BRANCH  24  26
HETATM   26  O6  UNL     1      -1.694  -0.481  -1.869  1.00  0.00    -0.325 OA
HETATM   27  C15 UNL     1      -2.255  -0.430  -3.148  1.00  0.00     0.213 C 
ENDBRANCH  24  26
ENDBRANCH  23  24
ENDBRANCH   7  17
ENDBRANCH   5   7
ENDBRANCH   4   5
ENDBRANCH   3   4
TORSDOF 11
