REMARK  8 active torsions:
REMARK  status: ('A' for Active; 'I' for Inactive)
REMARK    1  A    between atoms: C2_2  and  C3_3 
REMARK    2  A    between atoms: C3_3  and  O1_4 
REMARK    3  A    between atoms: O1_4  and  C4_5 
REMARK    4  A    between atoms: C4_5  and  C5_7 
REMARK    5  A    between atoms: C5_7  and  N1_9 
REMARK    6  A    between atoms: C8_12  and  O4_13 
REMARK    7  A    between atoms: C9_15  and  O5_16 
REMARK    8  A    between atoms: N2_18  and  C10_19 
ROOT
HETATM    1  N1  UNL     1       0.129  -1.736  -0.238  1.00  0.00    -0.249 N 
HETATM    2  C7  UNL     1      -0.699  -2.416  -1.049  1.00  0.00     0.290 A 
HETATM    3  O3  UNL     1      -0.411  -3.558  -1.495  1.00  0.00    -0.265 OA
HETATM    4  C8  UNL     1      -1.904  -1.864  -1.414  1.00  0.00     0.186 A 
HETATM    5  C9  UNL     1      -2.253  -0.606  -0.938  1.00  0.00     0.186 A 
HETATM    6  N2  UNL     1      -1.414   0.076  -0.120  1.00  0.00    -0.268 N 
HETATM    7  C14 UNL     1      -0.259  -0.518   0.195  1.00  0.00     0.335 A 
HETATM    8  O6  UNL     1       0.532   0.081   0.943  1.00  0.00    -0.246 OA
ENDROOT
BRANCH   1   9
HETATM    9  C5  UNL     1       1.377  -2.342   0.123  1.00  0.00     0.193 C 
HETATM   10  C6  UNL     1       1.147  -3.040   1.461  1.00  0.00     0.043 C 
BRANCH   9  11
HETATM   11  C4  UNL     1       2.494  -1.391   0.223  1.00  0.00     0.282 C 
HETATM   12  O2  UNL     1       3.081  -1.273   1.326  1.00  0.00    -0.263 OA
BRANCH  11  13
HETATM   13  O1  UNL     1       2.944  -0.611  -0.826  1.00  0.00    -0.316 OA
BRANCH  13  14
HETATM   14  C3  UNL     1       3.999   0.301  -0.774  1.00  0.00     0.205 C 
BRANCH  14  15
HETATM   15  C2  UNL     1       3.846   1.396   0.188  1.00  0.00    -0.011 C 
HETATM   16  C1  UNL     1       3.838   2.668  -0.188  1.00  0.00     0.009 C 
ENDBRANCH  14  15
ENDBRANCH  13  14
ENDBRANCH  11  13
ENDBRANCH   9  11
ENDBRANCH   1   9
BRANCH   4  17
HETATM   17  O4  UNL     1      -2.743  -2.585  -2.252  1.00  0.00    -0.352 OA
ATOM     18  H4  UNL     1      -3.576  -2.204  -2.504  1.00  0.00     0.218 HD
ENDBRANCH   4  17
BRANCH   6  19
HETATM   19  C10 UNL     1      -1.854   1.360   0.319  1.00  0.00     0.033 C 
HETATM   20  C11 UNL     1      -3.053   1.126   1.242  1.00  0.00     0.038 C 
HETATM   21  C12 UNL     1      -2.384   2.213  -0.835  1.00  0.00     0.038 C 
HETATM   22  C13 UNL     1      -0.877   2.184   1.070  1.00  0.00     0.038 C 
ENDBRANCH   6  19
BRANCH   5  23
HETATM   23  O5  UNL     1      -3.482  -0.112  -1.347  1.00  0.00    -0.344 OA
ATOM     24  H5  UNL     1      -3.721   0.748  -1.022  1.00  0.00     0.219 HD
ENDBRANCH   5  23
TORSDOF 8
