REMARK  5 active torsions:
REMARK  status: ('A' for Active; 'I' for Inactive)
REMARK    1  A    between atoms: C2_2  and  C3_3 
REMARK    2  A    between atoms: N1_6  and  C6_7 
REMARK    3  A    between atoms: C7_10  and  N3_11 
REMARK    4  A    between atoms: C10_23  and  C11_24 
REMARK    5  A    between atoms: C11_24  and  C14_27 
ROOT
HETATM    1  C6  UNL     1       2.741   0.224  -0.370  1.00  0.00     0.709 A 
HETATM    2  N2  UNL     1       3.379   0.369   0.809  1.00  0.00    -0.020 N 
ATOM      3  H2  UNL     1       2.862   0.737   1.608  1.00  0.00     0.203 HD
HETATM    4  C7  UNL     1       4.697   0.039   0.968  1.00  0.00     0.725 A 
HETATM    5  N4  UNL     1       5.358  -0.438  -0.077  1.00  0.00     0.105 N 
HETATM    6  N5  UNL     1       6.623  -0.823  -0.179  1.00  0.00     0.030 NA
HETATM    7  N6  UNL     1       6.790  -1.217  -1.437  1.00  0.00     0.007 NA
HETATM    8  N7  UNL     1       5.644  -1.080  -2.110  1.00  0.00    -0.115 N 
ATOM      9  H7  UNL     1       5.490  -1.308  -3.092  1.00  0.00     0.202 HD
HETATM   10  C8  UNL     1       4.739  -0.591  -1.263  1.00  0.00     0.744 A 
HETATM   11  N8  UNL     1       3.438  -0.261  -1.404  1.00  0.00    -0.019 N 
ATOM     12  H8  UNL     1       2.981  -0.383  -2.308  1.00  0.00     0.203 HD
ENDROOT
BRANCH   1  13
HETATM   13  N1  UNL     1       1.380   0.612  -0.428  1.00  0.00    -0.216 N 
HETATM   14  C5  UNL     1       0.911   1.859  -0.996  1.00  0.00     0.141 C 
HETATM   15  C4  UNL     1      -0.268   2.286  -0.169  1.00  0.00     0.025 C 
HETATM   16  C3  UNL     1      -1.467   1.366  -0.328  1.00  0.00    -0.007 C 
HETATM   17  C10 UNL     1      -0.985   0.005  -0.518  1.00  0.00     0.016 C 
HETATM   18  C9  UNL     1       0.382  -0.275   0.129  1.00  0.00     0.146 C 
BRANCH  16  19
HETATM   19  C2  UNL     1      -2.406   1.727   0.745  1.00  0.00     0.000 C 
HETATM   20  C1  UNL     1      -2.782   3.203   0.543  1.00  0.00     0.005 C 
ENDBRANCH  16  19
BRANCH  17  21
HETATM   21  C11 UNL     1      -1.866  -1.139  -0.172  1.00  0.00    -0.043 C 
HETATM   22  C12 UNL     1      -3.162  -1.125  -0.954  1.00  0.00     0.015 C 
HETATM   23  C13 UNL     1      -1.130  -2.385  -0.736  1.00  0.00     0.015 C 
BRANCH  21  24
HETATM   24  C14 UNL     1      -1.994  -1.431   1.276  1.00  0.00     0.004 C 
HETATM   25  C15 UNL     1      -2.909  -2.607   1.558  1.00  0.00     0.006 C 
ENDBRANCH  21  24
ENDBRANCH  17  21
ENDBRANCH   1  13
BRANCH   4  26
HETATM   26  N3  UNL     1       5.178   0.221   2.150  1.00  0.00    -0.232 N 
ATOM     27  H32 UNL     1       4.669   0.588   2.954  1.00  0.00     0.174 HD
ATOM     28  H31 UNL     1       6.161  -0.025   2.269  1.00  0.00     0.174 HD
ENDBRANCH   4  26
TORSDOF 5
