REMARK  12 active torsions:
REMARK  status: ('A' for Active; 'I' for Inactive)
REMARK    1  A    between atoms: C5_5  and  C6_6 
REMARK    2  A    between atoms: C6_6  and  C7_7 
REMARK    3  A    between atoms: C8_9  and  N1_10 
REMARK    4  A    between atoms: N1_10  and  C9_12 
REMARK    5  A    between atoms: C9_12  and  C10_13 
REMARK    6  A    between atoms: C10_13  and  O1_14 
REMARK    7  A    between atoms: O1_14  and  C11_15 
REMARK    8  A    between atoms: C11_15  and  C12_16 
REMARK    9  A    between atoms: C12_16  and  O2_17 
REMARK   10  A    between atoms: O2_17  and  C13_18 
REMARK   11  A    between atoms: C13_18  and  C14_19 
REMARK   12  A    between atoms: C14_19  and  N2_20 
REMARK       I    between atoms: N2_20  and  C15_22 
ROOT
HETATM    1  C7  UNL     1      -2.589   1.326  -0.512  1.00  0.00     0.031 A 
HETATM    2  S1  UNL     1      -1.196   0.365  -0.714  1.00  0.00    -0.055 SA
HETATM    3  C8  UNL     1      -1.049   0.491  -2.408  1.00  0.00     0.146 A 
HETATM    4  N4  UNL     1      -2.076   1.265  -2.745  1.00  0.00    -0.324 N 
ATOM      5  H4  UNL     1      -2.243   1.516  -3.720  1.00  0.00     0.169 HD
HETATM    6  C16 UNL     1      -2.870   1.699  -1.796  1.00  0.00     0.131 A 
HETATM    7  N5  UNL     1      -4.012   2.554  -2.083  1.00  0.00    -0.082 NA
ENDROOT
BRANCH   3   8
HETATM    8  N1  UNL     1      -0.151  -0.037  -3.214  1.00  0.00    -0.368 N 
ATOM      9  H1  UNL     1      -0.203   0.135  -4.218  1.00  0.00     0.161 HD
BRANCH   8  10
HETATM   10  C9  UNL     1       0.913  -0.864  -2.672  1.00  0.00     0.148 C 
BRANCH  10  11
HETATM   11  C10 UNL     1       2.201  -0.107  -2.900  1.00  0.00     0.187 C 
BRANCH  11  12
HETATM   12  O1  UNL     1       3.322  -0.773  -2.436  1.00  0.00    -0.387 OA
BRANCH  12  13
HETATM   13  C11 UNL     1       3.319  -1.044  -1.080  1.00  0.00     0.193 C 
BRANCH  13  14
HETATM   14  C12 UNL     1       3.222   0.203  -0.231  1.00  0.00     0.193 C 
BRANCH  14  15
HETATM   15  O2  UNL     1       3.222  -0.077   1.122  1.00  0.00    -0.387 OA
BRANCH  15  16
HETATM   16  C13 UNL     1       4.345  -0.726   1.567  1.00  0.00     0.187 C 
BRANCH  16  17
HETATM   17  C14 UNL     1       5.616   0.056   1.335  1.00  0.00     0.150 C 
BRANCH  17  18
HETATM   18  N2  UNL     1       6.775  -0.669   1.821  1.00  0.00    -0.343 N 
HETATM   19  C15 UNL     1       8.092  -0.159   1.726  1.00  0.00     0.328 C 
HETATM   20  N3  UNL     1       9.171  -0.927   2.223  1.00  0.00    -0.040 NA
HETATM   21  O3  UNL     1       8.319   0.980   1.201  1.00  0.00    -0.251 OA
ATOM     22  H2  UNL     1       6.635  -1.584   2.249  1.00  0.00     0.163 HD
ENDBRANCH  17  18
ENDBRANCH  16  17
ENDBRANCH  15  16
ENDBRANCH  14  15
ENDBRANCH  13  14
ENDBRANCH  12  13
ENDBRANCH  11  12
ENDBRANCH  10  11
ENDBRANCH   8  10
ENDBRANCH   3   8
BRANCH   1  23
HETATM   23  C6  UNL     1      -3.283   1.636   0.782  1.00  0.00     0.088 C 
BRANCH  23  24
HETATM   24  C5  UNL     1      -4.497   0.851   0.968  1.00  0.00    -0.053 A 
HETATM   25  C4  UNL     1      -5.761   1.304   0.671  1.00  0.00     0.008 A 
HETATM   26  C3  UNL     1      -6.887   0.533   0.853  1.00  0.00     0.007 A 
HETATM   27  C2  UNL     1      -6.779  -0.744   1.350  1.00  0.00    -0.062 A 
HETATM   28  C1  UNL     1      -7.994  -1.606   1.559  1.00  0.00     0.048 C 
HETATM   29  C18 UNL     1      -5.510  -1.204   1.651  1.00  0.00     0.007 A 
HETATM   30  C17 UNL     1      -4.382  -0.430   1.468  1.00  0.00     0.008 A 
ENDBRANCH  23  24
ENDBRANCH   1  23
TORSDOF 12
