REMARK  3 active torsions:
REMARK  status: ('A' for Active; 'I' for Inactive)
REMARK    1  A    between atoms: C2_2  and  N1_3 
REMARK    2  A    between atoms: N1_3  and  C4_5 
REMARK    3  A    between atoms: C7_11  and  N3_12 
REMARK       I    between atoms: N3_12  and  C8_14 
ROOT
HETATM    1  C4  UNL     1      -0.574  -0.497   0.060  1.00  0.00     0.128 C 
HETATM    2  C5  UNL     1      -0.973  -1.762  -0.609  1.00  0.00     0.259 C 
HETATM    3  N2  UNL     1       0.231  -2.542  -0.790  1.00  0.00    -0.071 N 
ATOM      4  H21 UNL     1       0.399  -2.798  -1.763  1.00  0.00     0.277 HD
ATOM      5  H22 UNL     1       0.154  -3.488  -0.417  1.00  0.00     0.277 HD
HETATM    6  C6  UNL     1       1.318  -1.791  -0.207  1.00  0.00     0.259 C 
HETATM    7  C7  UNL     1       0.867  -0.371  -0.390  1.00  0.00     0.133 C 
ENDROOT
BRANCH   7   8
HETATM    8  N3  UNL     1       1.578   0.584   0.386  1.00  0.00    -0.357 N 
HETATM    9  C8  UNL     1       2.947   0.921   0.186  1.00  0.00     0.182 C 
HETATM   10  N4  UNL     1       3.734   0.221  -0.543  1.00  0.00    -0.374 N 
HETATM   11  N5  UNL     1       3.481   2.082   0.816  1.00  0.00    -0.064 NA
ATOM     12  H42 UNL     1       3.352  -0.610  -0.994  1.00  0.00     0.158 HD
ATOM     13  H41 UNL     1       4.715   0.462  -0.686  1.00  0.00     0.158 HD
ATOM     14  H3  UNL     1       1.075   1.059   1.135  1.00  0.00     0.162 HD
ENDBRANCH   7   8
BRANCH   1  15
HETATM   15  N1  UNL     1      -1.319   0.649  -0.211  1.00  0.00    -0.409 N 
HETATM   16  C3  UNL     1      -0.902   1.513  -1.254  1.00  0.00     0.143 C 
BRANCH  15  17
HETATM   17  C2  UNL     1      -2.685   0.705   0.139  1.00  0.00     0.112 C 
HETATM   18  C1  UNL     1      -3.119  -0.209   1.232  1.00  0.00     0.026 C 
ENDBRANCH  15  17
ENDBRANCH   1  15
TORSDOF 3
