REMARK  11 active torsions:
REMARK  status: ('A' for Active; 'I' for Inactive)
REMARK    1  A    between atoms: C2_2  and  C3_3 
REMARK    2  A    between atoms: C3_3  and  C4_4 
REMARK    3  A    between atoms: C4_4  and  C5_5 
REMARK    4  A    between atoms: C6_7  and  O2_9 
REMARK    5  A    between atoms: C9_13  and  O4_15 
REMARK    6  A    between atoms: O4_15  and  C11_16 
REMARK    7  A    between atoms: C11_16  and  C12_18 
REMARK    8  A    between atoms: C12_18  and  C13_19 
REMARK    9  A    between atoms: C13_19  and  O6_20 
REMARK   10  A    between atoms: O6_20  and  C14_21 
REMARK   11  A    between atoms: C16_24  and  O8_25 
ROOT
HETATM    1  C5  UNL     1      -2.235   0.082   0.429  1.00  0.00     0.168 C 
HETATM    2  O1  UNL     1      -3.198  -0.855   0.153  1.00  0.00    -0.340 OA
HETATM    3  C6  UNL     1      -2.759  -1.724  -0.841  1.00  0.00     0.224 C 
HETATM    4  C7  UNL     1      -3.367  -3.102  -0.672  1.00  0.00     0.088 C 
HETATM    5  C8  UNL     1      -1.287  -1.776  -0.971  1.00  0.00     0.225 C 
HETATM    6  O3  UNL     1      -0.768  -2.177  -1.992  1.00  0.00    -0.288 OA
HETATM    7  C9  UNL     1      -0.295  -1.350   0.104  1.00  0.00     0.161 C 
HETATM    8  C10 UNL     1       0.350  -2.625   0.592  1.00  0.00     0.058 C 
HETATM    9  C16 UNL     1      -1.121  -0.641   1.179  1.00  0.00     0.190 C 
ENDROOT
BRANCH   7  10
HETATM   10  O4  UNL     1       0.639  -0.589  -0.531  1.00  0.00    -0.299 OA
BRANCH  10  11
HETATM   11  C11 UNL     1       1.742   0.045  -0.024  1.00  0.00     0.262 C 
HETATM   12  O5  UNL     1       2.004  -0.037   1.182  1.00  0.00    -0.265 OA
BRANCH  11  13
HETATM   13  C12 UNL     1       2.570   0.823  -0.998  1.00  0.00     0.138 C 
BRANCH  13  14
HETATM   14  C13 UNL     1       3.845   0.236  -1.362  1.00  0.00     0.188 C 
BRANCH  14  15
HETATM   15  O6  UNL     1       4.907   0.110  -0.482  1.00  0.00    -0.321 OA
BRANCH  15  16
HETATM   16  C14 UNL     1       5.561   1.263   0.024  1.00  0.00     0.254 C 
HETATM   17  C15 UNL     1       6.704   1.201   0.946  1.00  0.00     0.126 C 
HETATM   18  O7  UNL     1       5.081   2.365  -0.383  1.00  0.00    -0.266 OA
ENDBRANCH  15  16
ENDBRANCH  14  15
ENDBRANCH  13  14
ENDBRANCH  11  13
ENDBRANCH  10  11
ENDBRANCH   7  10
BRANCH   9  19
HETATM   19  O8  UNL     1      -1.722  -1.617   1.985  1.00  0.00    -0.389 OA
ATOM     20  H8  UNL     1      -1.028  -2.067   2.452  1.00  0.00     0.210 HD
ENDBRANCH   9  19
BRANCH   3  21
HETATM   21  O2  UNL     1      -3.289  -1.238  -2.028  1.00  0.00    -0.360 OA
ATOM     22  H2  UNL     1      -2.989  -1.831  -2.707  1.00  0.00     0.213 HD
ENDBRANCH   3  21
BRANCH   1  23
HETATM   23  C4  UNL     1      -2.748   1.192   1.220  1.00  0.00     0.119 C 
BRANCH  23  24
HETATM   24  C3  UNL     1      -3.119   2.299   0.814  1.00  0.00    -0.154 C 
BRANCH  24  25
HETATM   25  C2  UNL     1      -3.529   3.529   0.355  1.00  0.00     0.040 C 
HETATM   26  C1  UNL     1      -4.013   4.554   1.090  1.00  0.00     0.020 C 
ENDBRANCH  24  25
ENDBRANCH  23  24
ENDBRANCH   1  23
TORSDOF 11
