REMARK  12 active torsions:
REMARK  status: ('A' for Active; 'I' for Inactive)
REMARK    1  A    between atoms: C4_4  and  C5_5 
REMARK    2  A    between atoms: C4_4  and  O5_30 
REMARK    3  A    between atoms: C5_5  and  N1_6 
REMARK    4  A    between atoms: N1_6  and  C6_8 
REMARK    5  A    between atoms: C6_8  and  O1_9 
REMARK    6  A    between atoms: C6_8  and  C7_11 
REMARK    7  A    between atoms: N2_14  and  C10_15 
REMARK    8  A    between atoms: C10_15  and  C11_16 
REMARK    9  A    between atoms: C11_16  and  O2_17 
REMARK   10  A    between atoms: O2_17  and  C12_18 
REMARK   11  A    between atoms: C12_18  and  C13_20 
REMARK   12  A    between atoms: O5_30  and  C18_31 
ROOT
HETATM    1  C7  UNL     1       0.118  -0.294  -0.124  1.00  0.00     0.037 C 
HETATM    2  C8  UNL     1       0.822   0.024  -1.424  1.00  0.00     0.039 C 
HETATM    3  C9  UNL     1       2.167  -0.621  -1.561  1.00  0.00     0.273 C 
HETATM    4  N2  UNL     1       3.061  -0.389  -0.458  1.00  0.00     0.090 N 
HETATM    5  C16 UNL     1       2.348  -0.452   0.827  1.00  0.00     0.273 C 
HETATM    6  C17 UNL     1       1.075  -1.257   0.610  1.00  0.00     0.039 C 
ENDROOT
BRANCH   1   7
HETATM    7  C6  UNL     1      -1.150  -1.038  -0.302  1.00  0.00     0.221 C 
BRANCH   7   8
HETATM    8  N1  UNL     1      -2.187  -0.494  -1.042  1.00  0.00    -0.370 N 
ATOM      9  H1  UNL     1      -2.449  -0.965  -1.908  1.00  0.00     0.161 HD
BRANCH   8  10
HETATM   10  C5  UNL     1      -2.900   0.653  -0.688  1.00  0.00     0.122 C 
BRANCH  10  11
HETATM   11  C4  UNL     1      -3.788   0.501   0.494  1.00  0.00     0.086 C 
HETATM   12  C2  UNL     1      -3.651   1.286   1.516  1.00  0.00    -0.053 C 
HETATM   13  C1  UNL     1      -2.625   2.340   1.531  1.00  0.00     0.046 C 
HETATM   14  C3  UNL     1      -4.513   1.141   2.708  1.00  0.00     0.046 C 
BRANCH  11  15
HETATM   15  O5  UNL     1      -4.779  -0.465   0.551  1.00  0.00    -0.340 OA
BRANCH  15  16
HETATM   16  C18 UNL     1      -6.028  -0.449  -0.041  1.00  0.00     0.057 C 
HETATM   17  C19 UNL     1      -6.816  -1.725   0.292  1.00  0.00     0.045 C 
HETATM   18  C20 UNL     1      -6.926   0.695   0.386  1.00  0.00     0.045 C 
HETATM   19  C21 UNL     1      -5.922  -0.358  -1.549  1.00  0.00     0.045 C 
ENDBRANCH  15  16
ENDBRANCH  11  15
ENDBRANCH  10  11
ENDBRANCH   8  10
ENDBRANCH   7   8
BRANCH   7  20
HETATM   20  O1  UNL     1      -1.579  -1.412   0.997  1.00  0.00    -0.377 OA
ATOM     21  H1  UNL     1      -0.868  -1.785   1.504  1.00  0.00     0.212 HD
ENDBRANCH   7  20
ENDBRANCH   1   7
BRANCH   4  22
HETATM   22  C10 UNL     1       3.967  -1.544  -0.423  1.00  0.00     0.299 C 
BRANCH  22  23
HETATM   23  C11 UNL     1       4.882  -1.582  -1.598  1.00  0.00     0.209 C 
BRANCH  23  24
HETATM   24  O2  UNL     1       5.720  -0.465  -1.724  1.00  0.00    -0.315 OA
BRANCH  24  25
HETATM   25  C12 UNL     1       6.644  -0.075  -0.772  1.00  0.00     0.314 C 
HETATM   26  O3  UNL     1       6.733  -0.771   0.267  1.00  0.00    -0.257 OA
BRANCH  25  27
HETATM   27  C13 UNL     1       7.504   1.085  -0.921  1.00  0.00     0.155 A 
HETATM   28  N3  UNL     1       7.570   1.963  -1.946  1.00  0.00    -0.234 N 
HETATM   29  O4  UNL     1       8.480   2.860  -1.681  1.00  0.00    -0.156 OA
ATOM     30  H3  UNL     1       7.000   1.930  -2.791  1.00  0.00     0.197 HD
HETATM   31  N4  UNL     1       9.036   2.638  -0.529  1.00  0.00    -0.244 N 
HETATM   32  C14 UNL     1       8.441   1.521  -0.020  1.00  0.00     0.065 A 
ATOM     33  H4  UNL     1       9.773   3.190  -0.091  1.00  0.00     0.196 HD
HETATM   34  C15 UNL     1       8.818   0.952   1.296  1.00  0.00     0.073 C 
ENDBRANCH  25  27
ENDBRANCH  24  25
ENDBRANCH  23  24
ENDBRANCH  22  23
ENDBRANCH   4  22
TORSDOF 12
