REMARK  1 active torsions:
REMARK  status: ('A' for Active; 'I' for Inactive)
REMARK    1  A    between atoms: C2_2  and  O1_3 
ROOT
HETATM    1  C1  UNL     1       1.238  -0.499  -0.092  1.00  0.00     0.081 C 
HETATM    2  C2  UNL     1      -0.063   0.275  -0.154  1.00  0.00     0.179 A 
HETATM    3  C3  UNL     1      -1.299  -0.304   0.301  1.00  0.00     0.239 A 
HETATM    4  O2  UNL     1      -1.007  -0.295  -1.175  1.00  0.00    -0.348 OA
ENDROOT
BRANCH   2   5
HETATM    5  O1  UNL     1      -0.007   1.636  -0.355  1.00  0.00    -0.364 OA
ATOM      6  H1  UNL     1      -0.823   2.121  -0.394  1.00  0.00     0.213 HD
ENDBRANCH   2   5
TORSDOF 1
