REMARK  4 active torsions:
REMARK  status: ('A' for Active; 'I' for Inactive)
REMARK    1  A    between atoms: N1_2  and  C2_4 
REMARK    2  A    between atoms: C3_5  and  O1_6 
REMARK    3  A    between atoms: C5_8  and  N2_9 
REMARK    4  A    between atoms: C8_19  and  N5_20 
ROOT
HETATM    1  C2  UNL     1      -0.391   0.372  -0.058  1.00  0.00     0.095 C 
HETATM    2  C3  UNL     1      -1.127  -0.660   0.537  1.00  0.00     0.141 C 
HETATM    3  C5  UNL     1      -0.697  -1.875   1.028  1.00  0.00     0.138 C 
HETATM    4  N3  UNL     1       0.466  -2.473   0.707  1.00  0.00    -0.306 N 
ATOM      5  H3  UNL     1       0.511  -3.470   0.918  1.00  0.00     0.170 HD
HETATM    6  C6  UNL     1       1.580  -1.957   0.150  1.00  0.00     0.276 C 
HETATM    7  O2  UNL     1       2.508  -2.746  -0.168  1.00  0.00    -0.266 OA
HETATM    8  C7  UNL     1       1.853  -0.626  -0.131  1.00  0.00     0.146 A 
HETATM    9  N4  UNL     1       3.075  -0.106  -0.370  1.00  0.00    -0.184 N 
ATOM     10  H4  UNL     1       3.942  -0.644  -0.369  1.00  0.00     0.184 HD
HETATM   11  C8  UNL     1       2.999   1.209  -0.608  1.00  0.00     0.677 A 
HETATM   12  N6  UNL     1       1.699   1.537  -0.519  1.00  0.00    -0.187 N 
ATOM     13  H6  UNL     1       1.318   2.474  -0.650  1.00  0.00     0.184 HD
HETATM   14  C9  UNL     1       0.977   0.440  -0.230  1.00  0.00     0.111 A 
ENDROOT
BRANCH   1  15
HETATM   15  N1  UNL     1      -1.103   1.492  -0.553  1.00  0.00    -0.390 N 
HETATM   16  C1  UNL     1      -1.400   2.659   0.221  1.00  0.00     0.146 C 
ATOM     17  H1  UNL     1      -1.424   1.465  -1.521  1.00  0.00     0.159 HD
ENDBRANCH   1  15
BRANCH   2  18
HETATM   18  O1  UNL     1      -2.476  -0.426   0.647  1.00  0.00    -0.350 OA
HETATM   19  C4  UNL     1      -3.317  -0.826  -0.415  1.00  0.00     0.210 C 
ENDBRANCH   2  18
BRANCH   3  20
HETATM   20  N2  UNL     1      -1.493  -2.456   1.856  1.00  0.00    -0.383 N 
ATOM     21  H22 UNL     1      -2.374  -2.003   2.099  1.00  0.00     0.157 HD
ATOM     22  H21 UNL     1      -1.175  -3.355   2.219  1.00  0.00     0.157 HD
ENDBRANCH   3  20
BRANCH  11  23
HETATM   23  N5  UNL     1       3.957   2.045  -0.876  1.00  0.00    -0.234 N 
ATOM     24  H52 UNL     1       4.944   1.796  -0.944  1.00  0.00     0.174 HD
ATOM     25  H51 UNL     1       3.899   3.047  -1.057  1.00  0.00     0.174 HD
ENDBRANCH  11  23
TORSDOF 4
