REMARK  4 active torsions:
REMARK  status: ('A' for Active; 'I' for Inactive)
REMARK    1  A    between atoms: N1_3  and  N2_5 
REMARK       I    between atoms: N2_5  and  C3_7 
REMARK       I    between atoms: C3_7  and  N3_9 
REMARK    2  A    between atoms: N3_9  and  C4_11 
REMARK    3  A    between atoms: C5_14  and  N5_15 
REMARK    4  A    between atoms: C6_20  and  N7_21 
ROOT
HETATM    1  C4  UNL     1      -1.445  -0.001   0.218  1.00  0.00     0.149 A 
HETATM    2  N4  UNL     1      -1.806  -1.255  -0.100  1.00  0.00    -0.175 N 
ATOM      3  H4  UNL     1      -1.077  -1.953  -0.247  1.00  0.00     0.186 HD
HETATM    4  C5  UNL     1      -3.115  -1.632  -0.234  1.00  0.00     0.679 A 
HETATM    5  N6  UNL     1      -4.130  -0.777  -0.058  1.00  0.00    -0.176 N 
ATOM      6  H6  UNL     1      -5.101  -1.071  -0.162  1.00  0.00     0.186 HD
HETATM    7  C6  UNL     1      -3.808   0.480   0.260  1.00  0.00     0.139 A 
HETATM    8  C7  UNL     1      -2.513   0.886   0.401  1.00  0.00     0.133 A 
HETATM    9  C8  UNL     1      -2.195   2.242   0.743  1.00  0.00     0.107 C 
HETATM   10  N8  UNL     1      -1.934   3.354   1.011  1.00  0.00    -0.191 NA
ENDROOT
BRANCH   1  11
HETATM   11  N3  UNL     1      -0.109   0.443   0.369  1.00  0.00    -0.292 N 
HETATM   12  C3  UNL     1       1.072  -0.287   0.228  1.00  0.00     0.340 C 
HETATM   13  N2  UNL     1       2.335   0.383   0.433  1.00  0.00    -0.252 N 
HETATM   14  O1  UNL     1       1.168  -1.488  -0.062  1.00  0.00    -0.245 OA
ATOM     15  H2  UNL     1       2.318   1.374   0.675  1.00  0.00     0.191 HD
ATOM     16  H3  UNL     1       0.005   1.427   0.613  1.00  0.00     0.172 HD
BRANCH  13  17
HETATM   17  N1  UNL     1       3.562  -0.235   0.321  1.00  0.00    -0.312 N 
HETATM   18  C2  UNL     1       4.610   0.422  -0.061  1.00  0.00     0.076 C 
HETATM   19  C1  UNL     1       5.919  -0.275  -0.171  1.00  0.00     0.056 C 
ATOM     20  H1  UNL     1       3.646  -1.227   0.543  1.00  0.00     0.185 HD
ENDBRANCH  13  17
ENDBRANCH   1  11
BRANCH   7  21
HETATM   21  N7  UNL     1      -4.738   1.367   0.447  1.00  0.00    -0.384 N 
ATOM     22  H72 UNL     1      -5.706   1.063   0.342  1.00  0.00     0.157 HD
ATOM     23  H71 UNL     1      -4.492   2.327   0.690  1.00  0.00     0.157 HD
ENDBRANCH   7  21
BRANCH   4  24
HETATM   24  N5  UNL     1      -3.379  -2.844  -0.539  1.00  0.00    -0.234 N 
ATOM     25  H52 UNL     1      -2.606  -3.495  -0.673  1.00  0.00     0.174 HD
ATOM     26  H51 UNL     1      -4.354  -3.125  -0.639  1.00  0.00     0.174 HD
ENDBRANCH   4  24
TORSDOF 4
