REMARK  3 active torsions:
REMARK  status: ('A' for Active; 'I' for Inactive)
REMARK    1  A    between atoms: N3_4  and  N4_6 
REMARK    2  A    between atoms: C2_8  and  C3_9 
REMARK    3  A    between atoms: C8_16  and  N7_17 
ROOT
HETATM    1  C3  UNL     1      -0.414  -0.120  -0.112  1.00  0.00     0.016 A 
HETATM    2  C4  UNL     1      -1.066   1.141  -0.135  1.00  0.00     0.043 A 
HETATM    3  C5  UNL     1      -2.438   1.191  -0.146  1.00  0.00     0.071 A 
HETATM    4  N5  UNL     1      -3.045   2.496  -0.166  1.00  0.00    -0.100 NA
HETATM    5  C6  UNL     1      -3.204   0.046  -0.136  1.00  0.00     0.072 A 
HETATM    6  N6  UNL     1      -4.609   0.159  -0.147  1.00  0.00    -0.100 NA
HETATM    7  C7  UNL     1      -2.546  -1.147  -0.116  1.00  0.00     0.065 A 
HETATM    8  C8  UNL     1      -1.132  -1.263  -0.105  1.00  0.00     0.116 A 
ENDROOT
BRANCH   1   9
HETATM    9  C2  UNL     1       1.037  -0.056  -0.010  1.00  0.00     0.121 C 
HETATM   10  N4  UNL     1       1.826  -1.014   0.141  1.00  0.00    -0.309 N 
ATOM     11  H4  UNL     1       1.357  -1.918   0.194  1.00  0.00     0.186 HD
BRANCH  10  12
HETATM   12  N3  UNL     1       3.140  -1.101   0.246  1.00  0.00    -0.276 N 
HETATM   13  C1  UNL     1       4.066  -0.279   0.231  1.00  0.00     0.215 C 
HETATM   14  N1  UNL     1       3.931   1.119   0.079  1.00  0.00    -0.065 NA
HETATM   15  N2  UNL     1       5.405  -0.795   0.377  1.00  0.00    -0.065 NA
ATOM     16  H3  UNL     1       3.465  -2.060   0.366  1.00  0.00     0.189 HD
ENDBRANCH  10  12
ENDBRANCH   1   9
BRANCH   8  17
HETATM   17  N7  UNL     1      -0.588  -2.558  -0.094  1.00  0.00    -0.115 N 
HETATM   18  O1  UNL     1       0.368  -3.037  -0.670  1.00  0.00    -0.532 OA
HETATM   19  O2  UNL     1      -1.348  -3.490   0.666  1.00  0.00    -0.532 OA
ENDBRANCH   8  17
TORSDOF 3
