REMARK  5 active torsions:
REMARK  status: ('A' for Active; 'I' for Inactive)
REMARK    1  A    between atoms: C2_2  and  O1_3 
REMARK    2  A    between atoms: C2_2  and  N1_5 
REMARK    3  A    between atoms: N1_5  and  C3_7 
REMARK    4  A    between atoms: C4_16  and  N6_17 
REMARK    5  A    between atoms: N6_17  and  C5_19 
ROOT
HETATM    1  N6  UNL     1      -0.148  -0.736   0.641  1.00  0.00    -0.321 N 
ATOM      2  H6  UNL     1       0.259  -0.258   1.445  1.00  0.00     0.169 HD
ENDROOT
BRANCH   1   3
HETATM    3  C4  UNL     1       0.550  -0.919  -0.447  1.00  0.00     0.169 A 
HETATM    4  C3  UNL     1       1.841  -0.461  -0.500  1.00  0.00     0.165 A 
HETATM    5  N2  UNL     1       2.555  -0.644  -1.602  1.00  0.00    -0.267 N 
HETATM    6  N3  UNL     1       1.995  -1.273  -2.642  1.00  0.00    -0.227 N 
ATOM      7  H2  UNL     1       3.517  -0.310  -1.656  1.00  0.00     0.190 HD
HETATM    8  N4  UNL     1       0.754  -1.719  -2.607  1.00  0.00    -0.227 N 
ATOM      9  H3  UNL     1       2.546  -1.412  -3.489  1.00  0.00     0.210 HD
HETATM   10  N5  UNL     1       0.038  -1.542  -1.516  1.00  0.00    -0.267 N 
ATOM     11  H4  UNL     1       0.354  -2.195  -3.415  1.00  0.00     0.210 HD
ATOM     12  H5  UNL     1      -0.922  -1.885  -1.485  1.00  0.00     0.190 HD
BRANCH   4  13
HETATM   13  N1  UNL     1       2.338   0.130   0.502  1.00  0.00    -0.346 N 
ATOM     14  H1  UNL     1       1.711   0.222   1.301  1.00  0.00     0.163 HD
BRANCH  13  15
HETATM   15  C2  UNL     1       3.631   0.685   0.689  1.00  0.00     0.215 C 
HETATM   16  C1  UNL     1       3.799   1.872  -0.224  1.00  0.00     0.063 C 
BRANCH  15  17
HETATM   17  O1  UNL     1       4.670  -0.218   0.450  1.00  0.00    -0.377 OA
ATOM     18  H1  UNL     1       4.564  -0.966   1.026  1.00  0.00     0.212 HD
ENDBRANCH  15  17
ENDBRANCH  13  15
ENDBRANCH   4  13
ENDBRANCH   1   3
BRANCH   1  19
HETATM   19  C5  UNL     1      -1.480  -1.212   0.685  1.00  0.00     0.156 A 
HETATM   20  N7  UNL     1      -1.865  -2.514   0.680  1.00  0.00    -0.268 N 
HETATM   21  N8  UNL     1      -3.166  -2.493   0.730  1.00  0.00    -0.234 N 
ATOM     22  H7  UNL     1      -1.262  -3.336   0.645  1.00  0.00     0.190 HD
HETATM   23  N9  UNL     1      -3.652  -1.268   0.766  1.00  0.00    -0.244 N 
ATOM     24  H8  UNL     1      -3.746  -3.332   0.740  1.00  0.00     0.209 HD
HETATM   25  C6  UNL     1      -4.889  -0.757   0.820  1.00  0.00     0.135 A 
HETATM   26  C9  UNL     1      -2.599  -0.410   0.738  1.00  0.00     0.146 A 
HETATM   27  C7  UNL     1      -5.079   0.603   0.847  1.00  0.00     0.109 A 
HETATM   28  N10 UNL     1      -4.055   1.465   0.821  1.00  0.00    -0.349 N 
HETATM   29  C8  UNL     1      -2.791   0.965   0.766  1.00  0.00     0.132 A 
ATOM     30  H10 UNL     1      -4.218   2.472   0.842  1.00  0.00     0.167 HD
HETATM   31  N11 UNL     1      -1.829   1.787   0.741  1.00  0.00    -0.383 N 
ATOM     32 2H11 UNL     1      -1.970   2.797   0.762  1.00  0.00     0.157 HD
ATOM     33 1H11 UNL     1      -0.881   1.412   0.700  1.00  0.00     0.157 HD
ENDBRANCH   1  19
TORSDOF 5
