REMARK  17 active torsions:
REMARK  status: ('A' for Active; 'I' for Inactive)
REMARK    1  A    between atoms: C2_2  and  C3_3 
REMARK    2  A    between atoms: C3_3  and  C4_4 
REMARK    3  A    between atoms: C4_4  and  C5_5 
REMARK    4  A    between atoms: C5_5  and  O2_7 
REMARK    5  A    between atoms: O2_7  and  C6_8 
REMARK    6  A    between atoms: C8_10  and  O3_11 
REMARK    7  A    between atoms: O3_11  and  C9_12 
REMARK    8  A    between atoms: C9_12  and  C10_14 
REMARK    9  A    between atoms: C10_14  and  N2_20 
REMARK       I    between atoms: N1_15  and  C11_17 
REMARK   10  A    between atoms: N2_20  and  C13_22 
REMARK   11  A    between atoms: C13_22  and  C14_23 
REMARK   12  A    between atoms: C13_22  and  C16_25 
REMARK   13  A    between atoms: C13_22  and  C28_37 
REMARK   14  A    between atoms: C16_25  and  C17_26 
REMARK   15  A    between atoms: C17_26  and  C18_27 
REMARK   16  A    between atoms: C30_40  and  O7_41 
REMARK   17  A    between atoms: C31_43  and  N3_45 
REMARK       I    between atoms: N3_45  and  C33_47 
ROOT
HETATM    1  C10 UNL     1      -0.170  -0.065   0.110  1.00  0.00     0.181 C 
HETATM    2  N1  UNL     1       0.105   0.126   1.286  1.00  0.00    -0.309 N 
ATOM      3  H1  UNL     1      -0.772   0.293   1.780  1.00  0.00     0.170 HD
HETATM    4  C11 UNL     1       1.099   0.205   2.194  1.00  0.00     0.219 C 
HETATM    5  C12 UNL     1       1.649  -1.025   2.852  1.00  0.00     0.117 C 
HETATM    6  O5  UNL     1       1.612   1.321   2.532  1.00  0.00    -0.274 OA
ENDROOT
BRANCH   1   7
HETATM    7  C9  UNL     1       0.824  -0.338  -0.913  1.00  0.00     0.328 C 
HETATM    8  O4  UNL     1       0.579  -0.553  -2.103  1.00  0.00    -0.256 OA
BRANCH   7   9
HETATM    9  O3  UNL     1       2.171  -0.358  -0.528  1.00  0.00    -0.307 OA
BRANCH   9  10
HETATM   10  C8  UNL     1       3.156  -0.623  -1.490  1.00  0.00     0.166 C 
HETATM   11  C7  UNL     1       4.192  -1.613  -1.113  1.00  0.00     0.070 C 
HETATM   12  C6  UNL     1       5.306  -0.915  -0.412  1.00  0.00     0.164 C 
HETATM   13  C31 UNL     1       5.110   0.550  -0.719  1.00  0.00     0.084 C 
HETATM   14  C30 UNL     1       3.964   0.673  -1.677  1.00  0.00     0.178 C 
HETATM   15  C32 UNL     1       4.716   1.282   0.547  1.00  0.00     0.044 C 
BRANCH  12  16
HETATM   16  O2  UNL     1       5.279  -1.073   0.987  1.00  0.00    -0.313 OA
BRANCH  16  17
HETATM   17  C5  UNL     1       6.391  -1.505   1.701  1.00  0.00     0.259 C 
HETATM   18  O1  UNL     1       7.418  -1.748   1.021  1.00  0.00    -0.265 OA
BRANCH  17  19
HETATM   19  C4  UNL     1       6.390  -1.669   3.151  1.00  0.00     0.111 C 
BRANCH  19  20
HETATM   20  C3  UNL     1       7.653  -1.349   3.874  1.00  0.00     0.009 C 
BRANCH  20  21
HETATM   21  C2  UNL     1       8.104   0.068   3.868  1.00  0.00    -0.004 C 
HETATM   22  C1  UNL     1       8.420   0.710   2.571  1.00  0.00     0.005 C 
ENDBRANCH  20  21
ENDBRANCH  19  20
ENDBRANCH  17  19
ENDBRANCH  16  17
ENDBRANCH  12  16
BRANCH  13  23
HETATM   23  N3  UNL     1       6.330   1.161  -1.210  1.00  0.00    -0.347 N 
HETATM   24  C33 UNL     1       6.972   0.699  -2.385  1.00  0.00     0.214 C 
HETATM   25  C34 UNL     1       8.234   1.359  -2.865  1.00  0.00     0.117 C 
HETATM   26  O8  UNL     1       6.536  -0.246  -3.058  1.00  0.00    -0.274 OA
ATOM     27  H3  UNL     1       6.736   1.943  -0.696  1.00  0.00     0.163 HD
ENDBRANCH  13  23
BRANCH  14  28
HETATM   28  O7  UNL     1       3.235   1.817  -1.511  1.00  0.00    -0.390 OA
ATOM     29  H7  UNL     1       3.734   2.617  -1.626  1.00  0.00     0.210 HD
ENDBRANCH  14  28
ENDBRANCH   9  10
ENDBRANCH   7   9
ENDBRANCH   1   7
BRANCH   1  30
HETATM   30  N2  UNL     1      -1.519   0.015  -0.360  1.00  0.00    -0.355 N 
ATOM     31  H2  UNL     1      -1.679   0.586  -1.190  1.00  0.00     0.162 HD
BRANCH  30  32
HETATM   32  C13 UNL     1      -2.679  -0.627   0.215  1.00  0.00     0.091 C 
BRANCH  32  33
HETATM   33  C14 UNL     1      -2.774  -0.248   1.673  1.00  0.00     0.034 C 
HETATM   34  C15 UNL     1      -2.887   1.214   1.912  1.00  0.00     0.008 C 
ENDBRANCH  32  33
BRANCH  32  35
HETATM   35  C16 UNL     1      -3.889  -0.118  -0.546  1.00  0.00     0.040 C 
BRANCH  35  36
HETATM   36  C17 UNL     1      -5.210  -0.618  -0.147  1.00  0.00     0.012 C 
BRANCH  36  37
HETATM   37  C18 UNL     1      -6.290   0.093  -0.977  1.00  0.00    -0.039 C 
HETATM   38  C19 UNL     1      -6.112  -0.132  -2.435  1.00  0.00     0.014 C 
HETATM   39  C20 UNL     1      -7.240   0.576  -3.164  1.00  0.00    -0.013 C 
HETATM   40  C21 UNL     1      -8.595   0.049  -2.770  1.00  0.00     0.009 C 
HETATM   41  C25 UNL     1      -7.174   2.038  -2.795  1.00  0.00     0.009 C 
HETATM   42  C22 UNL     1      -8.764   0.140  -1.261  1.00  0.00    -0.013 C 
HETATM   43  C23 UNL     1      -8.814   1.617  -0.922  1.00  0.00     0.009 C 
HETATM   44  C27 UNL     1      -7.629  -0.587  -0.611  1.00  0.00     0.014 C 
HETATM   45  C24 UNL     1      -7.498   2.221  -1.347  1.00  0.00    -0.013 C 
HETATM   46  C26 UNL     1      -6.427   1.506  -0.534  1.00  0.00     0.014 C 
ENDBRANCH  36  37
ENDBRANCH  35  36
ENDBRANCH  32  35
BRANCH  32  47
HETATM   47  C28 UNL     1      -2.551  -2.082   0.049  1.00  0.00     0.151 C 
HETATM   48  C29 UNL     1      -3.490  -3.080   0.667  1.00  0.00     0.093 C 
HETATM   49  O6  UNL     1      -1.646  -2.544  -0.614  1.00  0.00    -0.296 OA
ENDBRANCH  32  47
ENDBRANCH  30  32
ENDBRANCH   1  30
TORSDOF 17
