REMARK  14 active torsions:
REMARK  status: ('A' for Active; 'I' for Inactive)
REMARK    1  A    between atoms: C2_2  and  C3_3 
REMARK    2  A    between atoms: C3_3  and  C4_4 
REMARK    3  A    between atoms: C6_9  and  N2_10 
REMARK    4  A    between atoms: C9_13  and  C10_14 
REMARK    5  A    between atoms: C10_14  and  N3_15 
REMARK       I    between atoms: N3_15  and  C11_17 
REMARK    6  A    between atoms: C11_17  and  C12_19 
REMARK    7  A    between atoms: C12_19  and  C14_21 
REMARK    8  A    between atoms: C12_19  and  C24_38 
REMARK    9  A    between atoms: C14_21  and  N4_22 
REMARK       I    between atoms: N4_22  and  C15_24 
REMARK   10  A    between atoms: C15_24  and  C16_26 
REMARK   11  A    between atoms: C16_26  and  C17_27 
REMARK   12  A    between atoms: C16_26  and  N5_29 
REMARK       I    between atoms: N5_29  and  C19_31 
REMARK   13  A    between atoms: C19_31  and  O4_33 
REMARK   14  A    between atoms: O4_33  and  C20_34 
REMARK       I    between atoms: C24_38  and  N6_40 
ROOT
HETATM    1  C12 UNL     1      -1.156   2.953  -0.060  1.00  0.00     0.150 C 
HETATM    2  C13 UNL     1      -1.901   3.589  -1.304  1.00  0.00     0.042 C 
ENDROOT
BRANCH   1   3
HETATM    3  C11 UNL     1      -0.030   2.238  -0.509  1.00  0.00     0.240 C 
HETATM    4  N3  UNL     1       0.046   1.271  -1.524  1.00  0.00    -0.359 N 
ATOM      5  H3  UNL     1      -0.843   0.994  -1.940  1.00  0.00     0.162 HD
HETATM    6  O1  UNL     1       1.106   2.496   0.055  1.00  0.00    -0.272 OA
BRANCH   4   7
HETATM    7  C10 UNL     1       1.199   0.629  -2.047  1.00  0.00     0.127 C 
BRANCH   7   8
HETATM    8  C9  UNL     1       2.092  -0.091  -1.113  1.00  0.00     0.006 C 
HETATM    9  C8  UNL     1       1.552  -1.217  -0.335  1.00  0.00     0.026 C 
HETATM   10  C7  UNL     1       2.543  -2.221   0.131  1.00  0.00     0.124 C 
HETATM   11  N2  UNL     1       3.818  -2.276  -0.511  1.00  0.00    -0.374 N 
HETATM   12  C31 UNL     1       4.378  -1.070  -1.089  1.00  0.00     0.124 C 
HETATM   13  C30 UNL     1       3.308  -0.514  -1.990  1.00  0.00     0.026 C 
BRANCH  11  14
HETATM   14  C6  UNL     1       4.544  -3.523  -0.573  1.00  0.00     0.096 A 
HETATM   15  C4  UNL     1       5.707  -3.895   0.050  1.00  0.00     0.043 A 
HETATM   16  N1  UNL     1       6.150  -5.097  -0.177  1.00  0.00    -0.361 N 
HETATM   17  C5  UNL     1       5.490  -5.909  -0.980  1.00  0.00     0.140 A 
ATOM     18  H1  UNL     1       7.012  -5.413   0.268  1.00  0.00     0.165 HD
HETATM   19  S1  UNL     1       4.164  -4.950  -1.456  1.00  0.00    -0.065 SA
BRANCH  15  20
HETATM   20  C3  UNL     1       6.473  -2.957   0.973  1.00  0.00     0.059 C 
BRANCH  20  21
HETATM   21  C2  UNL     1       5.821  -2.905   2.323  1.00  0.00     0.002 C 
HETATM   22  C1  UNL     1       6.670  -1.944   3.163  1.00  0.00     0.005 C 
ENDBRANCH  20  21
ENDBRANCH  15  20
ENDBRANCH  11  14
ENDBRANCH   7   8
ENDBRANCH   4   7
ENDBRANCH   1   3
BRANCH   1  23
HETATM   23  C14 UNL     1      -2.231   2.394   0.762  1.00  0.00     0.092 C 
BRANCH  23  24
HETATM   24  N4  UNL     1      -3.070   1.347   0.380  1.00  0.00    -0.337 N 
HETATM   25  C15 UNL     1      -2.850  -0.006   0.261  1.00  0.00     0.244 C 
HETATM   26  O2  UNL     1      -1.782  -0.575   0.528  1.00  0.00    -0.271 OA
ATOM     27  H4  UNL     1      -4.019   1.637   0.146  1.00  0.00     0.168 HD
BRANCH  25  28
HETATM   28  C16 UNL     1      -3.989  -0.887  -0.232  1.00  0.00     0.178 C 
BRANCH  28  29
HETATM   29  C17 UNL     1      -4.354  -0.406  -1.620  1.00  0.00     0.030 C 
HETATM   30  C18 UNL     1      -5.479  -1.218  -2.204  1.00  0.00     0.007 C 
ENDBRANCH  28  29
BRANCH  28  31
HETATM   31  N5  UNL     1      -3.534  -2.239  -0.219  1.00  0.00    -0.324 N 
HETATM   32  C19 UNL     1      -4.177  -3.249   0.588  1.00  0.00     0.362 C 
HETATM   33  O3  UNL     1      -5.178  -2.918   1.306  1.00  0.00    -0.238 OA
ATOM     34  H5  UNL     1      -2.733  -2.499  -0.795  1.00  0.00     0.165 HD
BRANCH  32  35
HETATM   35  O4  UNL     1      -3.770  -4.563   0.631  1.00  0.00    -0.294 OA
BRANCH  35  36
HETATM   36  C20 UNL     1      -4.422  -5.536   1.438  1.00  0.00     0.061 C 
HETATM   37  C21 UNL     1      -4.376  -5.180   2.905  1.00  0.00     0.046 C 
HETATM   38  C22 UNL     1      -3.857  -6.905   1.257  1.00  0.00     0.046 C 
HETATM   39  C23 UNL     1      -5.875  -5.554   0.984  1.00  0.00     0.046 C 
ENDBRANCH  35  36
ENDBRANCH  32  35
ENDBRANCH  28  31
ENDBRANCH  25  28
ENDBRANCH  23  24
ENDBRANCH   1  23
BRANCH   1  40
HETATM   40  C24 UNL     1      -0.722   4.218   0.682  1.00  0.00     0.243 C 
HETATM   41  O5  UNL     1      -1.177   4.308   1.861  1.00  0.00    -0.272 OA
HETATM   42  N6  UNL     1       0.083   5.234   0.216  1.00  0.00    -0.344 N 
HETATM   43  C25 UNL     1       0.726   5.348  -1.035  1.00  0.00     0.170 C 
HETATM   44  C29 UNL     1       0.303   6.385   1.137  1.00  0.00     0.146 C 
HETATM   45  C26 UNL     1       0.699   6.724  -1.637  1.00  0.00     0.077 C 
HETATM   46  N7  UNL     1       0.336   7.780  -0.788  1.00  0.00    -0.394 N 
HETATM   47  C27 UNL     1       1.394   8.730  -0.520  1.00  0.00     0.148 C 
HETATM   48  C28 UNL     1      -0.389   7.517   0.395  1.00  0.00     0.141 C 
ENDBRANCH   1  40
TORSDOF 14
