REMARK  5 active torsions:
REMARK  status: ('A' for Active; 'I' for Inactive)
REMARK    1  A    between atoms: C2_2  and  C3_3 
REMARK    2  A    between atoms: C9_9  and  C10_10 
REMARK    3  A    between atoms: C13_13  and  O1_14 
REMARK    4  A    between atoms: C14_16  and  O2_17 
REMARK    5  A    between atoms: C15_19  and  C17_21 
ROOT
HETATM    1  C10 UNL     1      -0.543  -1.194  -0.072  1.00  0.00     0.003 C 
HETATM    2  C11 UNL     1      -1.841  -1.082  -0.098  1.00  0.00    -0.076 C 
HETATM    3  C12 UNL     1      -2.703  -2.292  -0.125  1.00  0.00     0.068 C 
HETATM    4  C13 UNL     1      -3.810  -1.971  -1.127  1.00  0.00     0.152 C 
HETATM    5  C14 UNL     1      -4.676  -0.927  -0.477  1.00  0.00     0.166 C 
HETATM    6  C15 UNL     1      -3.965   0.247   0.052  1.00  0.00     0.076 C 
HETATM    7  C16 UNL     1      -4.217   0.282   1.573  1.00  0.00     0.030 C 
HETATM    8  C18 UNL     1      -2.471   0.233  -0.102  1.00  0.00     0.057 C 
ENDROOT
BRANCH   1   9
HETATM    9  C9  UNL     1       0.367  -0.055  -0.045  1.00  0.00     0.003 C 
HETATM   10  C8  UNL     1       1.669  -0.182  -0.018  1.00  0.00    -0.075 C 
HETATM   11  C7  UNL     1       2.664   0.909   0.011  1.00  0.00     0.027 C 
HETATM   12  C19 UNL     1       2.446  -1.432  -0.010  1.00  0.00     0.036 C 
HETATM   13  C3  UNL     1       3.927   0.302  -0.528  1.00  0.00    -0.016 C 
HETATM   14  C6  UNL     1       2.927   1.303   1.443  1.00  0.00     0.010 C 
HETATM   15  C4  UNL     1       4.885   0.147   0.603  1.00  0.00     0.014 C 
HETATM   16  C20 UNL     1       3.549  -1.080  -1.021  1.00  0.00     0.018 C 
HETATM   17  C5  UNL     1       4.332   0.925   1.772  1.00  0.00     0.002 C 
BRANCH  13  18
HETATM   18  C2  UNL     1       4.457   1.142  -1.642  1.00  0.00    -0.027 C 
HETATM   19  C1  UNL     1       5.235   2.191  -1.430  1.00  0.00     0.008 C 
ENDBRANCH  13  18
ENDBRANCH   1   9
BRANCH   4  20
HETATM   20  O1  UNL     1      -3.242  -1.554  -2.311  1.00  0.00    -0.393 OA
ATOM     21  H1  UNL     1      -3.931  -1.354  -2.934  1.00  0.00     0.210 HD
ENDBRANCH   4  20
BRANCH   6  22
HETATM   22  C17 UNL     1      -4.452   1.567  -0.416  1.00  0.00     0.184 C 
HETATM   23  O3  UNL     1      -5.401   1.742  -1.206  1.00  0.00    -0.647 OA
HETATM   24  O4  UNL     1      -3.799   2.687   0.064  1.00  0.00    -0.647 OA
ENDBRANCH   6  22
BRANCH   5  25
HETATM   25  O2  UNL     1      -5.652  -0.588  -1.414  1.00  0.00    -0.392 OA
ATOM     26  H2  UNL     1      -6.199   0.071  -1.003  1.00  0.00     0.210 HD
ENDBRANCH   5  25
TORSDOF 5
