REMARK  8 active torsions:
REMARK  status: ('A' for Active; 'I' for Inactive)
REMARK    1  A    between atoms: C2_2  and  C3_3 
REMARK    2  A    between atoms: C6_6  and  C7_7 
REMARK    3  A    between atoms: C7_7  and  C9_9 
REMARK    4  A    between atoms: C9_9  and  C10_10 
REMARK    5  A    between atoms: C13_16  and  N1_17 
REMARK       I    between atoms: N1_17  and  C14_19 
REMARK       I    between atoms: C14_19  and  N2_21 
REMARK    6  A    between atoms: N2_21  and  C15_23 
REMARK    7  A    between atoms: C17_25  and  C18_26 
REMARK    8  A    between atoms: C21_30  and  O3_31 
ROOT
HETATM    1  N1  UNL     1       0.310   0.781   0.355  1.00  0.00    -0.338 N 
ATOM      2  H1  UNL     1       0.316   1.770   0.603  1.00  0.00     0.164 HD
HETATM    3  C14 UNL     1       1.497   0.035   0.577  1.00  0.00     0.316 C 
HETATM    4  O1  UNL     1       1.492  -1.187   0.271  1.00  0.00    -0.247 OA
HETATM    5  N2  UNL     1       2.644   0.636   1.121  1.00  0.00    -0.338 N 
ATOM      6  H2  UNL     1       2.603   1.628   1.356  1.00  0.00     0.164 HD
ENDROOT
BRANCH   1   7
HETATM    7  C13 UNL     1      -0.891   0.238  -0.193  1.00  0.00     0.094 C 
HETATM    8  C3  UNL     1      -2.001   0.307   0.802  1.00  0.00    -0.024 C 
HETATM    9  C4  UNL     1      -1.722  -0.859   1.777  1.00  0.00     0.017 C 
HETATM   10  C5  UNL     1      -3.351   0.060   0.234  1.00  0.00     0.016 C 
HETATM   11  C6  UNL     1      -3.412  -0.423  -1.184  1.00  0.00    -0.010 C 
HETATM   12  C11 UNL     1      -2.461   0.188  -2.138  1.00  0.00     0.007 C 
HETATM   13  C12 UNL     1      -1.232   0.819  -1.530  1.00  0.00     0.026 C 
BRANCH   8  14
HETATM   14  C2  UNL     1      -1.943   1.532   1.685  1.00  0.00     0.007 C 
HETATM   15  C1  UNL     1      -2.187   2.831   1.039  1.00  0.00     0.006 C 
ENDBRANCH   8  14
BRANCH  11  16
HETATM   16  C7  UNL     1      -4.821  -0.205  -1.732  1.00  0.00    -0.006 C 
HETATM   17  C8  UNL     1      -4.906  -0.694  -3.150  1.00  0.00     0.010 C 
BRANCH  16  18
HETATM   18  C9  UNL     1      -5.865  -0.810  -0.896  1.00  0.00     0.122 C 
BRANCH  18  19
HETATM   19  C10 UNL     1      -7.268  -0.603  -1.384  1.00  0.00     0.388 C 
HETATM   20  F1  UNL     1      -8.167  -1.221  -0.479  1.00  0.00    -0.171 F 
HETATM   21  F2  UNL     1      -7.504  -1.044  -2.647  1.00  0.00    -0.171 F 
HETATM   22  F3  UNL     1      -7.613   0.754  -1.324  1.00  0.00    -0.171 F 
ENDBRANCH  18  19
ENDBRANCH  16  18
ENDBRANCH  11  16
ENDBRANCH   1   7
BRANCH   5  23
HETATM   23  C15 UNL     1       3.884  -0.076   1.367  1.00  0.00     0.097 A 
HETATM   24  C16 UNL     1       4.620   0.234   2.616  1.00  0.00     0.039 A 
HETATM   25  C17 UNL     1       5.185   0.603   1.225  1.00  0.00     0.068 A 
BRANCH  25  26
HETATM   26  C18 UNL     1       6.401  -0.177   0.859  1.00  0.00     0.062 A 
HETATM   27  C19 UNL     1       7.528   0.446   0.334  1.00  0.00     0.091 A 
HETATM   28  C20 UNL     1       8.669  -0.242  -0.016  1.00  0.00     0.209 A 
HETATM   29  O2  UNL     1       9.687   0.309  -0.488  1.00  0.00    -0.285 OA
HETATM   30  C21 UNL     1       8.697  -1.614   0.160  1.00  0.00     0.138 A 
HETATM   31  C22 UNL     1       7.546  -2.181   0.686  1.00  0.00     0.182 A 
HETATM   32  O4  UNL     1       6.483  -1.478   1.004  1.00  0.00    -0.324 OA
BRANCH  30  33
HETATM   33  O3  UNL     1       9.823  -2.353  -0.177  1.00  0.00    -0.355 OA
ATOM     34  H3  UNL     1       9.842  -3.295  -0.056  1.00  0.00     0.218 HD
ENDBRANCH  30  33
ENDBRANCH  25  26
ENDBRANCH   5  23
TORSDOF 8
