REMARK  9 active torsions:
REMARK  status: ('A' for Active; 'I' for Inactive)
REMARK    1  A    between atoms: C2_2  and  C3_3 
REMARK    2  A    between atoms: C3_3  and  N1_4 
REMARK    3  A    between atoms: N1_4  and  C4_6 
REMARK    4  A    between atoms: C6_8  and  C7_9 
REMARK    5  A    between atoms: C7_9  and  N2_11 
REMARK    6  A    between atoms: N2_11  and  N3_13 
REMARK    7  A    between atoms: N3_13  and  N4_14 
REMARK    8  A    between atoms: C10_19  and  N6_20 
REMARK    9  A    between atoms: N7_23  and  N8_24 
ROOT
HETATM    1  C4  UNL     1       1.213  -0.113   0.557  1.00  0.00     0.142 A 
HETATM    2  C5  UNL     1      -0.086  -0.606   0.853  1.00  0.00     0.078 A 
HETATM    3  C6  UNL     1      -1.194   0.080   0.474  1.00  0.00     0.054 A 
HETATM    4  N5  UNL     1      -1.058   1.230  -0.183  1.00  0.00    -0.192 N 
ATOM      5  H5  UNL     1      -1.892   1.745  -0.466  1.00  0.00     0.184 HD
HETATM    6  C10 UNL     1       0.127   1.716  -0.475  1.00  0.00     0.698 A 
HETATM    7  N7  UNL     1       1.244   1.029  -0.094  1.00  0.00    -0.077 N 
ENDROOT
BRANCH   3   8
HETATM    8  C7  UNL     1      -2.580  -0.384   0.753  1.00  0.00     0.146 C 
HETATM    9  C8  UNL     1      -2.584  -1.844   1.187  1.00  0.00     0.040 C 
BRANCH   8  10
HETATM   10  N2  UNL     1      -3.453  -0.264  -0.353  1.00  0.00    -0.306 N 
HETATM   11  C9  UNL     1      -3.756   1.029  -0.834  1.00  0.00     0.169 C 
BRANCH  10  12
HETATM   12  N3  UNL     1      -4.375  -1.256  -0.551  1.00  0.00    -0.032 NA
BRANCH  12  13
HETATM   13  N4  UNL     1      -5.579  -0.896   0.046  1.00  0.00    -0.329 N 
ATOM     14  H42 UNL     1      -5.735  -0.023   0.550  1.00  0.00     0.174 HD
ATOM     15  H41 UNL     1      -6.266  -1.635  -0.102  1.00  0.00     0.174 HD
ENDBRANCH  12  13
ENDBRANCH  10  12
ENDBRANCH   8  10
ENDBRANCH   3   8
BRANCH   1  16
HETATM   16  N1  UNL     1       2.302  -0.868   1.011  1.00  0.00    -0.374 N 
ATOM     17  H1  UNL     1       2.071  -1.654   1.619  1.00  0.00     0.161 HD
BRANCH  16  18
HETATM   18  C3  UNL     1       3.685  -0.687   0.739  1.00  0.00     0.121 C 
BRANCH  18  19
HETATM   19  C2  UNL     1       4.110  -1.190  -0.644  1.00  0.00     0.015 C 
HETATM   20  C1  UNL     1       5.594  -0.909  -0.794  1.00  0.00     0.006 C 
ENDBRANCH  18  19
ENDBRANCH  16  18
ENDBRANCH   1  16
BRANCH   6  21
HETATM   21  N6  UNL     1       0.208   2.830  -1.114  1.00  0.00    -0.233 N 
ATOM     22  H62 UNL     1      -0.626   3.343  -1.399  1.00  0.00     0.174 HD
ATOM     23  H61 UNL     1       1.128   3.207  -1.341  1.00  0.00     0.174 HD
ENDBRANCH   6  21
BRANCH   7  24
HETATM   24  N8  UNL     1       2.443   1.667  -0.416  1.00  0.00    -0.322 N 
ATOM     25  H82 UNL     1       3.277   1.154  -0.131  1.00  0.00     0.178 HD
ATOM     26  H81 UNL     1       2.467   2.553  -0.921  1.00  0.00     0.178 HD
ENDBRANCH   7  24
TORSDOF 9
