REMARK  7 active torsions:
REMARK  status: ('A' for Active; 'I' for Inactive)
REMARK    1  A    between atoms: N1_1  and  C1_4 
REMARK    2  A    between atoms: N4_14  and  O2_16 
REMARK    3  A    between atoms: O2_16  and  C6_17 
REMARK    4  A    between atoms: C7_21  and  C8_22 
REMARK    5  A    between atoms: C8_22  and  O3_23 
REMARK    6  A    between atoms: C10_28  and  O5_29 
REMARK    7  A    between atoms: C10_28  and  C11_31 
ROOT
HETATM    1  C1  UNL     1      -3.371  -3.726   0.232  1.00  0.00     0.680 A 
HETATM    2  N2  UNL     1      -3.626  -2.427  -0.041  1.00  0.00    -0.180 N 
ATOM      3  H2  UNL     1      -4.582  -2.135  -0.244  1.00  0.00     0.185 HD
HETATM    4  C2  UNL     1      -2.639  -1.512  -0.050  1.00  0.00     0.120 A 
HETATM    5  C3  UNL     1      -1.349  -1.968   0.238  1.00  0.00     0.098 A 
HETATM    6  C4  UNL     1      -1.096  -3.289   0.514  1.00  0.00     0.275 A 
HETATM    7  O1  UNL     1       0.072  -3.654   0.763  1.00  0.00    -0.267 OA
HETATM    8  N3  UNL     1      -2.132  -4.174   0.508  1.00  0.00    -0.155 N 
ATOM      9  H3  UNL     1      -1.971  -5.161   0.710  1.00  0.00     0.187 HD
HETATM   10  C5  UNL     1      -0.458  -0.786   0.204  1.00  0.00     0.074 C 
HETATM   11  N4  UNL     1       0.762  -0.731  -0.081  1.00  0.00    -0.263 N 
ATOM     12  H4  UNL     1       1.226  -1.606  -0.326  1.00  0.00     0.194 HD
HETATM   13  C9  UNL     1      -1.361   0.329   0.596  1.00  0.00     0.180 A 
HETATM   14  N6  UNL     1      -2.524  -0.112  -0.324  1.00  0.00    -0.211 NA
HETATM   15  C10 UNL     1      -2.023   1.237  -0.271  1.00  0.00     0.223 A 
ENDROOT
BRANCH  11  16
HETATM   16  O2  UNL     1       1.524   0.411  -0.090  1.00  0.00    -0.218 OA
BRANCH  16  17
HETATM   17  C6  UNL     1       2.917   0.269   0.034  1.00  0.00     0.497 C 
HETATM   18  N5  UNL     1       3.696   1.036  -0.936  1.00  0.00     0.005 N 
HETATM   19  C7  UNL     1       4.621   1.155   0.177  1.00  0.00     0.354 C 
ATOM     20  H52 UNL     1       3.965   0.672  -1.850  1.00  0.00     0.286 HD
ATOM     21  H51 UNL     1       3.324   1.840  -1.442  1.00  0.00     0.286 HD
HETATM   22  O4  UNL     1       3.501   1.078   1.023  1.00  0.00    -0.302 OA
BRANCH  19  23
HETATM   23  C8  UNL     1       5.362   2.465   0.239  1.00  0.00     0.225 C 
BRANCH  23  24
HETATM   24  O3  UNL     1       6.093   2.590  -0.943  1.00  0.00    -0.397 OA
ATOM     25  H3  UNL     1       6.560   3.416  -0.904  1.00  0.00     0.209 HD
ENDBRANCH  23  24
ENDBRANCH  19  23
ENDBRANCH  16  17
ENDBRANCH  11  16
BRANCH  15  26
HETATM   26  O5  UNL     1      -1.400   1.742  -1.433  1.00  0.00    -0.365 OA
ATOM     27  H5  UNL     1      -1.843   2.350  -2.013  1.00  0.00     0.212 HD
ENDBRANCH  15  26
BRANCH  15  28
HETATM   28  C11 UNL     1      -2.997   2.185   0.326  1.00  0.00     0.283 C 
HETATM   29  N7  UNL     1      -3.206   3.441  -0.284  1.00  0.00    -0.058 NA
HETATM   30  O6  UNL     1      -3.605   1.828   1.365  1.00  0.00    -0.272 OA
ENDBRANCH  15  28
BRANCH   1  31
HETATM   31  N1  UNL     1      -4.368  -4.543   0.222  1.00  0.00    -0.234 N 
ATOM     32  H12 UNL     1      -5.307  -4.204   0.013  1.00  0.00     0.174 HD
ATOM     33  H11 UNL     1      -4.176  -5.523   0.428  1.00  0.00     0.174 HD
ENDBRANCH   1  31
TORSDOF 7
