REMARK  5 active torsions:
REMARK  status: ('A' for Active; 'I' for Inactive)
REMARK    1  A    between atoms: C3_4  and  O2_5 
REMARK    2  A    between atoms: O2_5  and  C4_6 
REMARK    3  A    between atoms: C8_12  and  O4_13 
REMARK    4  A    between atoms: N1_17  and  O6_19 
REMARK    5  A    between atoms: C10_21  and  O7_22 
ROOT
HETATM    1  C1  UNL     1      -3.513  -1.795  -0.975  1.00  0.00     0.043 C 
HETATM    2  C2  UNL     1      -2.583  -1.117   0.034  1.00  0.00     0.159 C 
HETATM    3  O1  UNL     1      -1.433  -0.785  -0.636  1.00  0.00    -0.331 OA
HETATM    4  C3  UNL     1      -0.612   0.100   0.032  1.00  0.00     0.422 C 
HETATM    5  O5  UNL     1      -1.305   1.358   0.051  1.00  0.00    -0.280 OA
HETATM    6  C9  UNL     1      -2.690   1.334   0.259  1.00  0.00     0.174 C 
HETATM    7  N1  UNL     1      -3.339   2.410   0.066  1.00  0.00    -0.249 N 
ATOM      8  H1  UNL     1      -2.804   3.227  -0.230  1.00  0.00     0.196 HD
HETATM    9  C10 UNL     1      -3.274   0.047   0.689  1.00  0.00     0.223 C 
ENDROOT
BRANCH   4  10
HETATM   10  O2  UNL     1       0.529   0.304  -0.738  1.00  0.00    -0.305 OA
BRANCH  10  11
HETATM   11  C4  UNL     1       1.692   0.072  -0.028  1.00  0.00     0.297 C 
HETATM   12  O3  UNL     1       2.458  -0.946  -0.523  1.00  0.00    -0.351 OA
HETATM   13  C5  UNL     1       3.778  -0.604  -0.472  1.00  0.00     0.157 C 
HETATM   14  C6  UNL     1       4.675  -1.651   0.127  1.00  0.00     0.042 C 
HETATM   15  C7  UNL     1       3.915   0.652   0.351  1.00  0.00     0.232 C 
HETATM   16  F1  UNL     1       4.006   0.357   1.714  1.00  0.00    -0.244 F 
HETATM   17  C8  UNL     1       2.552   1.300   0.102  1.00  0.00     0.209 C 
BRANCH  17  18
HETATM   18  O4  UNL     1       2.559   2.004  -1.082  1.00  0.00    -0.388 OA
ATOM     19  H4  UNL     1       3.102   2.779  -1.000  1.00  0.00     0.210 HD
ENDBRANCH  17  18
ENDBRANCH  10  11
ENDBRANCH   4  10
BRANCH   9  20
HETATM   20  O7  UNL     1      -4.653   0.010   0.546  1.00  0.00    -0.385 OA
ATOM     21  H7  UNL     1      -5.090   0.745   0.960  1.00  0.00     0.210 HD
ENDBRANCH   9  20
BRANCH   7  22
HETATM   22  O6  UNL     1      -4.674   2.572   0.217  1.00  0.00    -0.288 OA
ATOM     23  H6  UNL     1      -5.159   3.376   0.073  1.00  0.00     0.244 HD
ENDBRANCH   7  22
TORSDOF 5
