REMARK  5 active torsions:
REMARK  status: ('A' for Active; 'I' for Inactive)
REMARK    1  A    between atoms: C2_2  and  C3_3 
REMARK    2  A    between atoms: C3_3  and  O2_5 
REMARK    3  A    between atoms: O2_5  and  C4_6 
REMARK    4  A    between atoms: C4_6  and  C5_8 
REMARK    5  A    between atoms: C5_8  and  N1_9 
ROOT
HETATM    1  N1  UNL     1       0.087  -1.151   0.581  1.00  0.00    -0.257 N 
HETATM    2  C6  UNL     1      -0.331  -1.548   1.901  1.00  0.00     0.327 C 
HETATM    3  O4  UNL     1       0.344  -2.348   2.626  1.00  0.00    -0.247 OA
HETATM    4  N2  UNL     1      -1.564  -0.906   2.200  1.00  0.00    -0.311 N 
ATOM      5  H2  UNL     1      -1.994  -0.810   3.120  1.00  0.00     0.166 HD
HETATM    6  C7  UNL     1      -2.085  -0.419   0.951  1.00  0.00     0.206 C 
HETATM    7  S1  UNL     1      -2.923   1.182   1.139  1.00  0.00    -0.107 SA
HETATM    8  C8  UNL     1      -4.226   0.833  -0.064  1.00  0.00     0.039 C 
HETATM    9  C9  UNL     1      -3.835   1.439  -1.394  1.00  0.00     0.032 C 
HETATM   10  C10 UNL     1      -5.572   1.334   0.404  1.00  0.00     0.032 C 
HETATM   11  C11 UNL     1      -4.196  -0.647  -0.094  1.00  0.00     0.028 C 
HETATM   12 BR1  UNL     1      -5.730  -1.589  -0.875  1.00  0.00    -0.052 Br
HETATM   13  C12 UNL     1      -3.164  -1.241   0.396  1.00  0.00     0.075 C 
HETATM   14 CL1  UNL     1      -3.004  -3.026   0.420  1.00  0.00    -0.084 Cl
HETATM   15  C13 UNL     1      -0.906  -0.263   0.086  1.00  0.00     0.273 C 
HETATM   16  O5  UNL     1      -0.773   0.507  -0.916  1.00  0.00    -0.269 OA
ENDROOT
BRANCH   1  17
HETATM   17  C5  UNL     1       1.263  -1.541  -0.139  1.00  0.00     0.248 C 
BRANCH  17  18
HETATM   18  C4  UNL     1       2.402  -0.661   0.091  1.00  0.00     0.284 C 
HETATM   19  O3  UNL     1       2.293   0.324   0.858  1.00  0.00    -0.263 OA
BRANCH  18  20
HETATM   20  O2  UNL     1       3.615  -0.889  -0.523  1.00  0.00    -0.244 OA
BRANCH  20  21
HETATM   21  C3  UNL     1       4.728  -0.077  -0.334  1.00  0.00     0.265 C 
HETATM   22  O1  UNL     1       4.622   0.908   0.432  1.00  0.00    -0.265 OA
BRANCH  21  23
HETATM   23  C2  UNL     1       6.025  -0.378  -1.033  1.00  0.00     0.107 C 
HETATM   24  C1  UNL     1       7.030   0.663  -0.635  1.00  0.00     0.015 C 
ENDBRANCH  21  23
ENDBRANCH  20  21
ENDBRANCH  18  20
ENDBRANCH  17  18
ENDBRANCH   1  17
TORSDOF 5
