REMARK  3 active torsions:
REMARK  status: ('A' for Active; 'I' for Inactive)
REMARK    1  A    between atoms: C15_18  and  C17_20 
REMARK       I    between atoms: C17_20  and  N2_22 
REMARK    2  A    between atoms: N2_22  and  S1_24 
REMARK    3  A    between atoms: S1_24  and  C18_27 
ROOT
HETATM    1  C1  UNL     1      -3.862   1.137   1.706  1.00  0.00     0.015 C 
HETATM    2  C2  UNL     1      -2.842   1.024   0.556  1.00  0.00    -0.042 C 
HETATM    3  C3  UNL     1      -2.466   2.473   0.271  1.00  0.00     0.015 C 
HETATM    4  C4  UNL     1      -3.655   0.518  -0.616  1.00  0.00     0.009 C 
HETATM    5  C5  UNL     1      -3.944  -0.949  -0.516  1.00  0.00     0.003 C 
HETATM    6  C6  UNL     1      -2.670  -1.704  -0.491  1.00  0.00     0.032 C 
HETATM    7  C7  UNL     1      -1.475  -1.028   0.033  1.00  0.00     0.042 C 
HETATM    8  C8  UNL     1      -0.765  -2.023   0.972  1.00  0.00     0.032 C 
HETATM    9  C9  UNL     1       0.271  -1.270   1.786  1.00  0.00     0.009 C 
HETATM   10  C10 UNL     1       0.791  -0.137   0.866  1.00  0.00     0.013 C 
HETATM   11  C11 UNL     1      -0.354   0.887   0.937  1.00  0.00     0.014 C 
HETATM   12  C12 UNL     1      -1.708   0.160   0.946  1.00  0.00     0.022 C 
HETATM   13  C13 UNL     1       0.898  -0.810  -0.458  1.00  0.00     0.139 C 
HETATM   14  N1  UNL     1      -0.488  -0.706  -0.973  1.00  0.00    -0.310 N 
HETATM   15  C14 UNL     1      -0.343  -0.290  -2.294  1.00  0.00     0.365 C 
HETATM   16  O1  UNL     1      -1.175  -0.549  -3.191  1.00  0.00    -0.238 OA
HETATM   17  O2  UNL     1       0.859   0.446  -2.428  1.00  0.00    -0.281 OA
HETATM   18  C15 UNL     1       1.727  -0.274  -1.518  1.00  0.00     0.171 C 
HETATM   19  C16 UNL     1       2.117  -1.490  -2.416  1.00  0.00     0.060 C 
ENDROOT
BRANCH  18  20
HETATM   20  C17 UNL     1       2.948   0.438  -1.232  1.00  0.00     0.268 C 
HETATM   21  O3  UNL     1       3.117   1.562  -1.841  1.00  0.00    -0.269 OA
HETATM   22  N2  UNL     1       3.987   0.051  -0.368  1.00  0.00    -0.247 N 
ATOM     23  H2  UNL     1       3.898  -0.828   0.142  1.00  0.00     0.181 HD
BRANCH  22  24
HETATM   24  S1  UNL     1       5.416   1.010  -0.134  1.00  0.00     0.294 S 
HETATM   25  O4  UNL     1       5.178   2.344  -0.760  1.00  0.00    -0.200 OA
HETATM   26  O5  UNL     1       6.609   0.328  -0.788  1.00  0.00    -0.200 OA
BRANCH  24  27
HETATM   27  C18 UNL     1       5.823   1.225   1.573  1.00  0.00     0.494 C 
HETATM   28  F1  UNL     1       6.263   0.082   2.179  1.00  0.00    -0.195 F 
HETATM   29  F2  UNL     1       6.873   2.142   1.651  1.00  0.00    -0.195 F 
ENDBRANCH  24  27
ENDBRANCH  22  24
ENDBRANCH  18  20
TORSDOF 3
