REMARK  2 active torsions:
REMARK  status: ('A' for Active; 'I' for Inactive)
REMARK    1  A    between atoms: C4_7  and  N2_8 
REMARK    2  A    between atoms: N2_8  and  C5_10 
ROOT
HETATM    1  C1  UNL     1      -4.907  -1.024   0.623  1.00  0.00     0.070 C 
HETATM    2  C2  UNL     1      -3.542  -0.649   0.204  1.00  0.00     0.030 A 
HETATM    3  N1  UNL     1      -2.629  -1.554  -0.178  1.00  0.00    -0.324 N 
ATOM      4  H1  UNL     1      -2.893  -2.539  -0.177  1.00  0.00     0.169 HD
HETATM    5  C3  UNL     1      -1.386  -1.227  -0.561  1.00  0.00     0.272 A 
HETATM    6  O1  UNL     1      -0.608  -2.176  -0.905  1.00  0.00    -0.266 OA
HETATM    7  C4  UNL     1      -0.988   0.080  -0.576  1.00  0.00     0.105 A 
HETATM    8  C11 UNL     1      -1.881   1.051  -0.195  1.00  0.00    -0.006 A 
HETATM    9  C12 UNL     1      -1.499   2.464  -0.196  1.00  0.00     0.052 C 
HETATM   10  C13 UNL     1      -3.148   0.684   0.192  1.00  0.00     0.064 A 
HETATM   11 CL1  UNL     1      -4.276   1.945   0.676  1.00  0.00    -0.082 Cl
ENDROOT
BRANCH   7  12
HETATM   12  N2  UNL     1       0.336   0.443  -0.968  1.00  0.00    -0.380 N 
ATOM     13  H2  UNL     1       0.514   0.563  -1.965  1.00  0.00     0.160 HD
BRANCH  12  14
HETATM   14  C5  UNL     1       1.441   0.653  -0.068  1.00  0.00     0.082 C 
HETATM   15  C6  UNL     1       2.677   0.989  -0.863  1.00  0.00     0.025 C 
HETATM   16  C7  UNL     1       3.870   0.438  -0.144  1.00  0.00     0.002 C 
HETATM   17  C8  UNL     1       3.742  -1.090  -0.189  1.00  0.00     0.000 C 
HETATM   18  C9  UNL     1       2.585  -1.473   0.659  1.00  0.00     0.002 C 
HETATM   19  C10 UNL     1       1.644  -0.357   0.984  1.00  0.00     0.025 C 
ENDBRANCH  12  14
ENDBRANCH   7  12
TORSDOF 2
