REMARK  15 active torsions:
REMARK  status: ('A' for Active; 'I' for Inactive)
REMARK    1  A    between atoms: C2_2  and  C3_3 
REMARK    2  A    between atoms: C3_3  and  C4_4 
REMARK    3  A    between atoms: C4_4  and  C5_5 
REMARK    4  A    between atoms: C5_5  and  C6_6 
REMARK    5  A    between atoms: C6_6  and  N1_7 
REMARK    6  A    between atoms: C10_11  and  C11_12 
REMARK    7  A    between atoms: C12_13  and  C13_14 
REMARK    8  A    between atoms: C13_14  and  N2_15 
REMARK    9  A    between atoms: N2_15  and  C14_17 
REMARK   10  A    between atoms: C17_22  and  S1_23 
REMARK   11  A    between atoms: S1_23  and  C18_24 
REMARK   12  A    between atoms: C18_24  and  C19_25 
REMARK   13  A    between atoms: C19_25  and  C20_26 
REMARK   14  A    between atoms: C19_25  and  O2_29 
REMARK   15  A    between atoms: C20_26  and  O1_27 
ROOT
HETATM    1  C14 UNL     1      -2.881   1.000  -0.403  1.00  0.00     0.121 A 
HETATM    2  N3  UNL     1      -3.461   2.074   0.165  1.00  0.00    -0.327 N 
ATOM      3  H3  UNL     1      -3.019   2.664   0.870  1.00  0.00     0.169 HD
HETATM    4  C15 UNL     1      -4.699   2.265  -0.319  1.00  0.00     0.127 A 
HETATM    5  C16 UNL     1      -4.898   1.257  -1.235  1.00  0.00     0.097 A 
HETATM    6  C17 UNL     1      -3.788   0.439  -1.320  1.00  0.00     0.064 A 
HETATM    7  C22 UNL     1      -6.108   1.251  -1.896  1.00  0.00     0.262 A 
HETATM    8  O3  UNL     1      -6.320   0.350  -2.743  1.00  0.00    -0.267 OA
HETATM    9  N4  UNL     1      -7.013   2.210  -1.612  1.00  0.00    -0.312 N 
ATOM     10  H4  UNL     1      -7.908   2.202  -2.101  1.00  0.00     0.170 HD
HETATM   11  C23 UNL     1      -6.776   3.179  -0.704  1.00  0.00     0.087 A 
HETATM   12  N5  UNL     1      -5.611   3.229  -0.035  1.00  0.00    -0.322 N 
HETATM   13  C24 UNL     1      -5.594   4.359   0.884  1.00  0.00     0.132 C 
HETATM   14  C25 UNL     1      -7.079   4.565   1.129  1.00  0.00     0.028 C 
HETATM   15  C26 UNL     1      -7.633   4.308  -0.257  1.00  0.00     0.078 C 
ENDROOT
BRANCH   1  16
HETATM   16  N2  UNL     1      -1.594   0.466  -0.176  1.00  0.00    -0.365 N 
ATOM     17  H2  UNL     1      -1.274  -0.361  -0.680  1.00  0.00     0.162 HD
BRANCH  16  18
HETATM   18  C13 UNL     1      -0.745   1.119   0.786  1.00  0.00     0.216 C 
BRANCH  18  19
HETATM   19  C12 UNL     1       0.571   0.498   0.904  1.00  0.00    -0.081 C 
HETATM   20  C11 UNL     1       1.664   0.012   0.999  1.00  0.00    -0.064 C 
BRANCH  20  21
HETATM   21  C10 UNL     1       2.991  -0.544   1.109  1.00  0.00     0.033 A 
HETATM   22  C9  UNL     1       3.444  -1.067   2.308  1.00  0.00     0.023 A 
HETATM   23  C8  UNL     1       4.716  -1.577   2.383  1.00  0.00     0.019 A 
HETATM   24  C7  UNL     1       5.506  -1.550   1.247  1.00  0.00     0.090 A 
HETATM   25  N1  UNL     1       5.102  -1.053   0.073  1.00  0.00    -0.365 N 
HETATM   26  C27 UNL     1       3.829  -0.549   0.018  1.00  0.00     0.111 A 
BRANCH  25  27
HETATM   27  C6  UNL     1       5.908  -0.989  -1.131  1.00  0.00     0.128 C 
BRANCH  27  28
HETATM   28  C5  UNL     1       6.658   0.302  -1.290  1.00  0.00     0.020 C 
BRANCH  28  29
HETATM   29  C4  UNL     1       7.656   0.594  -0.211  1.00  0.00     0.002 C 
BRANCH  29  30
HETATM   30  C3  UNL     1       8.768  -0.404  -0.113  1.00  0.00    -0.000 C 
BRANCH  30  31
HETATM   31  C2  UNL     1       9.717  -0.003   1.021  1.00  0.00    -0.005 C 
HETATM   32  C1  UNL     1      10.856  -0.981   1.154  1.00  0.00     0.005 C 
ENDBRANCH  30  31
ENDBRANCH  29  30
ENDBRANCH  28  29
ENDBRANCH  27  28
ENDBRANCH  25  27
ENDBRANCH  20  21
ENDBRANCH  18  19
ENDBRANCH  16  18
ENDBRANCH   1  16
BRANCH   6  33
HETATM   33  S1  UNL     1      -3.508  -0.951  -2.382  1.00  0.00    -0.122 SA
BRANCH  33  34
HETATM   34  C18 UNL     1      -3.733  -2.529  -1.603  1.00  0.00     0.113 C 
BRANCH  34  35
HETATM   35  C19 UNL     1      -5.065  -2.936  -1.121  1.00  0.00     0.154 C 
BRANCH  35  36
HETATM   36  C20 UNL     1      -4.790  -4.388  -0.536  1.00  0.00     0.196 C 
BRANCH  36  37
HETATM   37  O1  UNL     1      -5.944  -4.930  -0.051  1.00  0.00    -0.398 OA
ATOM     38  H1  UNL     1      -5.780  -5.798   0.299  1.00  0.00     0.209 HD
ENDBRANCH  36  37
ENDBRANCH  35  36
BRANCH  35  39
HETATM   39  O2  UNL     1      -5.539  -2.274   0.004  1.00  0.00    -0.388 OA
HETATM   40  C21 UNL     1      -6.905  -2.051  -0.008  1.00  0.00     0.202 C 
ENDBRANCH  35  39
ENDBRANCH  34  35
ENDBRANCH  33  34
ENDBRANCH   6  33
TORSDOF 15
