REMARK  8 active torsions:
REMARK  status: ('A' for Active; 'I' for Inactive)
REMARK    1  A    between atoms: O1_2  and  C2_3 
REMARK    2  A    between atoms: C3_4  and  C4_5 
REMARK    3  A    between atoms: C4_5  and  C5_6 
REMARK    4  A    between atoms: C5_6  and  C6_7 
REMARK    5  A    between atoms: C6_7  and  O2_8 
REMARK    6  A    between atoms: C14_17  and  O3_18 
REMARK    7  A    between atoms: C16_20  and  O4_21 
REMARK    8  A    between atoms: C20_26  and  O6_27 
ROOT
HETATM    1  C2  UNL     1      -1.346   1.056   0.213  1.00  0.00     0.113 A 
HETATM    2  C3  UNL     1      -0.694  -0.091   0.588  1.00  0.00     0.005 A 
HETATM    3  C12 UNL     1      -1.461  -1.216   0.812  1.00  0.00     0.049 A 
HETATM    4  C13 UNL     1      -2.857  -1.163   0.656  1.00  0.00     0.012 A 
HETATM    5  C14 UNL     1      -3.475   0.011   0.278  1.00  0.00     0.113 A 
HETATM    6  C16 UNL     1      -2.722   1.143   0.050  1.00  0.00     0.136 A 
HETATM    7  C18 UNL     1      -3.722  -2.348   0.887  1.00  0.00     0.127 C 
HETATM    8  C19 UNL     1      -2.947  -3.372   1.618  1.00  0.00     0.179 C 
HETATM    9  O5  UNL     1      -3.426  -3.957   2.550  1.00  0.00    -0.293 OA
HETATM   10  C20 UNL     1      -1.565  -3.668   1.182  1.00  0.00     0.289 C 
HETATM   11  N1  UNL     1      -0.827  -2.425   1.192  1.00  0.00    -0.357 N 
ATOM     12  H1  UNL     1       0.153  -2.418   1.474  1.00  0.00     0.162 HD
ENDROOT
BRANCH   2  13
HETATM   13  C4  UNL     1       0.779  -0.050   0.721  1.00  0.00     0.047 C 
BRANCH  13  14
HETATM   14  C5  UNL     1       1.468  -0.091  -0.627  1.00  0.00     0.042 C 
BRANCH  14  15
HETATM   15  C6  UNL     1       2.957  -0.046  -0.405  1.00  0.00     0.058 C 
HETATM   16  C7  UNL     1       3.412   1.194   0.314  1.00  0.00     0.038 C 
HETATM   17  C8  UNL     1       4.703   1.747  -0.209  1.00  0.00     0.003 C 
HETATM   18  C9  UNL     1       5.676   0.737  -0.679  1.00  0.00     0.000 C 
HETATM   19  C10 UNL     1       5.122  -0.415  -1.433  1.00  0.00     0.003 C 
HETATM   20  C11 UNL     1       3.660  -0.157  -1.748  1.00  0.00     0.038 C 
BRANCH  15  21
HETATM   21  O2  UNL     1       3.354  -1.141   0.359  1.00  0.00    -0.390 OA
ATOM     22  H2  UNL     1       4.293  -1.113   0.499  1.00  0.00     0.210 HD
ENDBRANCH  15  21
ENDBRANCH  14  15
ENDBRANCH  13  14
ENDBRANCH   2  13
BRANCH   1  23
HETATM   23  O1  UNL     1      -0.629   2.202  -0.021  1.00  0.00    -0.352 OA
HETATM   24  C1  UNL     1      -0.329   3.181   0.969  1.00  0.00     0.210 C 
ENDBRANCH   1  23
BRANCH   6  25
HETATM   25  O4  UNL     1      -3.314   2.339  -0.332  1.00  0.00    -0.351 OA
HETATM   26  C17 UNL     1      -3.548   2.750  -1.642  1.00  0.00     0.210 C 
ENDBRANCH   6  25
BRANCH   5  27
HETATM   27  O3  UNL     1      -4.861   0.035   0.131  1.00  0.00    -0.352 OA
HETATM   28  C15 UNL     1      -5.556  -0.246  -1.045  1.00  0.00     0.210 C 
ENDBRANCH   5  27
BRANCH  10  29
HETATM   29  O6  UNL     1      -1.524  -4.157  -0.121  1.00  0.00    -0.370 OA
ATOM     30  H6  UNL     1      -0.636  -4.347  -0.401  1.00  0.00     0.212 HD
ENDBRANCH  10  29
TORSDOF 8
