REMARK  6 active torsions:
REMARK  status: ('A' for Active; 'I' for Inactive)
REMARK    1  A    between atoms: C2_2  and  O1_4 
REMARK    2  A    between atoms: O1_4  and  C4_5 
REMARK    3  A    between atoms: C4_5  and  C5_7 
REMARK    4  A    between atoms: C5_7  and  C8_10 
REMARK    5  A    between atoms: C13_15  and  N1_16 
REMARK    6  A    between atoms: N1_16  and  N2_18 
ROOT
HETATM    1  C8  UNL     1      -0.427  -0.241   0.002  1.00  0.00    -0.050 C 
HETATM    2  C9  UNL     1      -0.051   0.585  -1.235  1.00  0.00     0.037 C 
HETATM    3  C10 UNL     1      -0.003   2.046  -0.884  1.00  0.00     0.009 C 
HETATM    4  C11 UNL     1      -0.953   2.376   0.212  1.00  0.00     0.042 C 
HETATM    5  C12 UNL     1      -2.062   1.401   0.315  1.00  0.00    -0.015 A 
HETATM    6  C13 UNL     1      -3.316   1.911   0.552  1.00  0.00     0.093 A 
HETATM    7  C14 UNL     1      -4.392   1.063   0.655  1.00  0.00     0.145 A 
HETATM    8  F1  UNL     1      -5.649   1.517   0.894  1.00  0.00    -0.204 F 
HETATM    9  C15 UNL     1      -4.196  -0.262   0.516  1.00  0.00     0.060 A 
HETATM   10  C16 UNL     1      -2.896  -0.801   0.267  1.00  0.00     0.025 A 
HETATM   11  C17 UNL     1      -2.821  -2.225   0.115  1.00  0.00     0.145 A 
HETATM   12  N3  UNL     1      -3.631  -3.067   0.788  1.00  0.00    -0.271 N 
ATOM     13  H3  UNL     1      -4.290  -2.775   1.509  1.00  0.00     0.190 HD
HETATM   14  N4  UNL     1      -3.465  -4.313   0.398  1.00  0.00    -0.225 N 
ATOM     15  H4  UNL     1      -3.956  -5.135   0.751  1.00  0.00     0.205 HD
HETATM   16  N5  UNL     1      -2.536  -4.288  -0.542  1.00  0.00    -0.005 NA
HETATM   17  N6  UNL     1      -2.172  -3.016  -0.685  1.00  0.00    -0.266 N 
ATOM     18  H6  UNL     1      -1.464  -2.699  -1.347  1.00  0.00     0.186 HD
HETATM   19  C18 UNL     1      -1.819  -0.015   0.166  1.00  0.00    -0.010 A 
ENDROOT
BRANCH   1  20
HETATM   20  C5  UNL     1       0.563  -1.214   0.254  1.00  0.00     0.065 C 
HETATM   21  C6  UNL     1       0.424  -1.993   1.573  1.00  0.00     0.030 C 
HETATM   22  C7  UNL     1       1.086  -2.099  -0.878  1.00  0.00     0.030 C 
BRANCH  20  23
HETATM   23  C4  UNL     1       1.866  -0.425   0.555  1.00  0.00     0.271 C 
HETATM   24  O2  UNL     1       2.124  -0.181   1.757  1.00  0.00    -0.264 OA
BRANCH  23  25
HETATM   25  O1  UNL     1       2.734   0.015  -0.366  1.00  0.00    -0.316 OA
BRANCH  25  26
HETATM   26  C2  UNL     1       3.907   0.715  -0.210  1.00  0.00     0.123 C 
HETATM   27  C1  UNL     1       4.096   1.962  -0.985  1.00  0.00     0.040 C 
HETATM   28  C3  UNL     1       5.049  -0.233  -0.612  1.00  0.00     0.040 C 
ENDBRANCH  25  26
ENDBRANCH  23  25
ENDBRANCH  20  23
ENDBRANCH   1  20
BRANCH   6  29
HETATM   29  N1  UNL     1      -3.578   3.301   0.703  1.00  0.00    -0.304 N 
ATOM     30  H1  UNL     1      -3.913   3.863  -0.079  1.00  0.00     0.186 HD
BRANCH  29  31
HETATM   31  N2  UNL     1      -3.377   3.824   1.862  1.00  0.00    -0.345 N 
ATOM     32  H22 UNL     1      -3.042   3.248   2.634  1.00  0.00     0.176 HD
ATOM     33  H21 UNL     1      -3.565   4.821   1.970  1.00  0.00     0.176 HD
ENDBRANCH  29  31
ENDBRANCH   6  29
TORSDOF 6
