REMARK  5 active torsions:
REMARK  status: ('A' for Active; 'I' for Inactive)
REMARK    1  A    between atoms: C2_3  and  S1_4 
REMARK    2  A    between atoms: S1_4  and  C3_5 
REMARK    3  A    between atoms: C9_21  and  S4_22 
REMARK    4  A    between atoms: S4_22  and  C10_23 
REMARK    5  A    between atoms: C10_23  and  C11_24 
ROOT
HETATM    1  N1  UNL     1      -2.141   3.592   2.290  1.00  0.00    -0.197 NA
HETATM    2  C1  UNL     1      -2.349   3.525   1.140  1.00  0.00     0.069 C 
HETATM    3  C2  UNL     1      -2.616   3.421  -0.299  1.00  0.00     0.204 C 
ENDROOT
BRANCH   3   4
HETATM    4  S1  UNL     1      -2.586   1.668  -0.768  1.00  0.00    -0.095 SA
BRANCH   4   5
HETATM    5  C3  UNL     1      -0.924   1.059  -0.556  1.00  0.00     0.105 A 
HETATM    6  N2  UNL     1       0.079   1.851  -0.113  1.00  0.00    -0.341 N 
HETATM    7  C4  UNL     1       1.346   1.356   0.041  1.00  0.00     0.106 A 
ATOM      8  H2  UNL     1      -0.111   2.828   0.109  1.00  0.00     0.167 HD
HETATM    9  S2  UNL     1       2.832   2.019   0.558  1.00  0.00    -0.050 SA
HETATM   10  C8  UNL     1       1.670   0.064  -0.237  1.00  0.00     0.097 A 
HETATM   11  C5  UNL     1       3.825   0.636   0.408  1.00  0.00     0.107 A 
HETATM   12  N3  UNL     1       5.091   0.125   0.557  1.00  0.00    -0.325 N 
HETATM   13  C7  UNL     1       2.960  -0.314  -0.047  1.00  0.00     0.098 A 
HETATM   14  C6  UNL     1       5.016  -1.145   0.194  1.00  0.00     0.177 A 
ATOM     15  H3  UNL     1       5.920   0.623   0.881  1.00  0.00     0.169 HD
HETATM   16  S3  UNL     1       6.303  -2.169   0.208  1.00  0.00    -0.040 SA
HETATM   17  N4  UNL     1       3.760  -1.429  -0.168  1.00  0.00    -0.329 N 
ATOM     18  H4  UNL     1       3.440  -2.343  -0.489  1.00  0.00     0.168 HD
HETATM   19  N5  UNL     1       0.627  -0.709  -0.684  1.00  0.00    -0.344 N 
HETATM   20  C9  UNL     1      -0.591  -0.247  -0.836  1.00  0.00     0.104 A 
ATOM     21  H5  UNL     1       0.808  -1.688  -0.908  1.00  0.00     0.167 HD
BRANCH  20  22
HETATM   22  S4  UNL     1      -1.933  -1.298  -1.426  1.00  0.00    -0.108 SA
BRANCH  22  23
HETATM   23  C10 UNL     1      -2.701  -2.038   0.018  1.00  0.00     0.096 C 
BRANCH  23  24
HETATM   24  C11 UNL     1      -3.853  -2.951  -0.323  1.00  0.00     0.125 C 
HETATM   25 CL1  UNL     1      -5.147  -2.119  -1.181  1.00  0.00    -0.130 Cl
ENDBRANCH  23  24
ENDBRANCH  22  23
ENDBRANCH  20  22
ENDBRANCH   4   5
ENDBRANCH   3   4
TORSDOF 5
