REMARK  5 active torsions:
REMARK  status: ('A' for Active; 'I' for Inactive)
REMARK    1  A    between atoms: C2_2  and  C3_3 
REMARK    2  A    between atoms: C3_3  and  C4_4 
REMARK    3  A    between atoms: C7_11  and  N3_12 
REMARK    4  A    between atoms: N3_12  and  C8_14 
REMARK    5  A    between atoms: C14_22  and  N5_23 
ROOT
HETATM    1  C8  UNL     1      -0.453  -0.404   0.643  1.00  0.00     0.134 A 
HETATM    2  N4  UNL     1      -0.571  -0.671  -0.664  1.00  0.00    -0.344 N 
ATOM      3  H4  UNL     1       0.152  -1.231  -1.116  1.00  0.00     0.167 HD
HETATM    4  C9  UNL     1      -1.599  -0.233  -1.403  1.00  0.00     0.014 A 
HETATM    5  C10 UNL     1      -1.645  -0.581  -2.866  1.00  0.00     0.068 C 
HETATM    6  C11 UNL     1      -2.646   0.539  -0.896  1.00  0.00    -0.023 A 
HETATM    7  C12 UNL     1      -3.744   0.989  -1.759  1.00  0.00     0.051 C 
HETATM    8  C13 UNL     1      -2.550   0.829   0.452  1.00  0.00     0.046 A 
HETATM    9  C14 UNL     1      -3.518   1.577   1.058  1.00  0.00     0.113 A 
HETATM   10  N6  UNL     1      -3.397   1.841   2.370  1.00  0.00    -0.338 N 
ATOM     11  H6  UNL     1      -4.112   2.398   2.838  1.00  0.00     0.168 HD
HETATM   12  C15 UNL     1      -2.345   1.381   3.078  1.00  0.00     0.182 A 
HETATM   13  N7  UNL     1      -1.381   0.646   2.511  1.00  0.00    -0.348 N 
ATOM     14  H7  UNL     1      -0.595   0.310   3.067  1.00  0.00     0.167 HD
HETATM   15  C16 UNL     1      -1.460   0.355   1.197  1.00  0.00     0.092 A 
ENDROOT
BRANCH   1  16
HETATM   16  N3  UNL     1       0.508  -0.803   1.373  1.00  0.00    -0.338 N 
ATOM     17  H3  UNL     1       0.481  -0.531   2.356  1.00  0.00     0.167 HD
BRANCH  16  18
HETATM   18  C7  UNL     1       1.609  -1.584   0.961  1.00  0.00     0.072 A 
HETATM   19  C4  UNL     1       2.900  -1.117   0.884  1.00  0.00     0.038 A 
HETATM   20  N1  UNL     1       3.834  -2.019   0.476  1.00  0.00    -0.354 N 
HETATM   21  C5  UNL     1       3.565  -3.274   0.163  1.00  0.00     0.180 A 
ATOM     22  H1  UNL     1       4.803  -1.706   0.408  1.00  0.00     0.166 HD
HETATM   23  N2  UNL     1       2.322  -3.733   0.234  1.00  0.00    -0.360 N 
HETATM   24  C6  UNL     1       1.336  -2.916   0.627  1.00  0.00     0.120 A 
ATOM     25  H2  UNL     1       2.119  -4.702  -0.009  1.00  0.00     0.166 HD
BRANCH  19  26
HETATM   26  C3  UNL     1       3.262   0.277   1.214  1.00  0.00     0.059 C 
BRANCH  26  27
HETATM   27  C2  UNL     1       2.953   1.284   0.167  1.00  0.00     0.002 C 
HETATM   28  C1  UNL     1       3.672   0.992  -1.150  1.00  0.00     0.005 C 
ENDBRANCH  26  27
ENDBRANCH  19  26
ENDBRANCH  16  18
ENDBRANCH   1  16
BRANCH   9  29
HETATM   29  N5  UNL     1      -4.500   2.008   0.403  1.00  0.00    -0.385 N 
ATOM     30  H52 UNL     1      -4.592   1.808  -0.593  1.00  0.00     0.157 HD
ATOM     31  H51 UNL     1      -5.223   2.567   0.856  1.00  0.00     0.157 HD
ENDBRANCH   9  29
TORSDOF 5
