REMARK  14 active torsions:
REMARK  status: ('A' for Active; 'I' for Inactive)
REMARK    1  A    between atoms: C2_2  and  C3_3 
REMARK    2  A    between atoms: C3_3  and  C4_4 
REMARK    3  A    between atoms: C11_14  and  O2_15 
REMARK    4  A    between atoms: O2_15  and  C12_16 
REMARK       I    between atoms: C12_16  and  N2_18 
REMARK    5  A    between atoms: N2_18  and  C13_20 
REMARK    6  A    between atoms: C13_20  and  C14_21 
REMARK    7  A    between atoms: C14_21  and  C15_22 
REMARK    8  A    between atoms: C17_24  and  C18_25 
REMARK       I    between atoms: N3_31  and  C20_32 
REMARK    9  A    between atoms: C20_32  and  O7_34 
REMARK   10  A    between atoms: O7_34  and  C21_35 
REMARK   11  A    between atoms: C21_35  and  C22_36 
REMARK   12  A    between atoms: C22_36  and  C23_37 
REMARK   13  A    between atoms: C23_37  and  C24_38 
REMARK   14  A    between atoms: C24_38  and  C25_39 
ROOT
HETATM    1  C4  UNL     1      -2.782   2.184  -0.793  1.00  0.00     0.141 C 
HETATM    2  C5  UNL     1      -1.431   2.363  -1.388  1.00  0.00     0.024 C 
HETATM    3  C6  UNL     1      -0.230   2.566  -1.009  1.00  0.00     0.058 C 
HETATM    4  C7  UNL     1       1.066   2.735  -1.653  1.00  0.00     0.256 C 
HETATM    5  O1  UNL     1       1.478   3.144  -2.764  1.00  0.00    -0.268 OA
HETATM    6  N1  UNL     1       1.694   2.235  -0.477  1.00  0.00    -0.312 N 
HETATM    7  C8  UNL     1       0.537   2.717   0.251  1.00  0.00     0.191 C 
HETATM    8  S1  UNL     1       0.169   1.522   1.534  1.00  0.00    -0.134 SA
HETATM    9  C9  UNL     1       1.023  -0.017   1.193  1.00  0.00     0.115 C 
HETATM   10  C10 UNL     1       2.401   0.267   0.768  1.00  0.00    -0.015 C 
HETATM   11  C11 UNL     1       3.327  -0.650   0.915  1.00  0.00     0.153 C 
HETATM   12  C17 UNL     1       2.783   1.572   0.168  1.00  0.00     0.222 C 
HETATM   13  S2  UNL     1      -1.887   2.110  -3.157  1.00  0.00    -0.062 SA
HETATM   14  C19 UNL     1      -3.170   0.896  -2.758  1.00  0.00     0.150 C 
HETATM   15  S3  UNL     1      -3.979   0.037  -3.834  1.00  0.00    -0.052 SA
HETATM   16  N3  UNL     1      -3.255   0.910  -1.353  1.00  0.00    -0.268 N 
HETATM   17  C20 UNL     1      -3.734  -0.150  -0.551  1.00  0.00     0.369 C 
HETATM   18  O6  UNL     1      -3.776  -0.047   0.715  1.00  0.00    -0.238 OA
ENDROOT
BRANCH   1  19
HETATM   19  C3  UNL     1      -3.717   3.261  -1.210  1.00  0.00     0.057 C 
BRANCH  19  20
HETATM   20  C2  UNL     1      -3.403   4.617  -0.823  1.00  0.00    -0.035 C 
HETATM   21  C1  UNL     1      -2.552   5.109   0.022  1.00  0.00     0.007 C 
ENDBRANCH  19  20
ENDBRANCH   1  19
BRANCH  12  22
HETATM   22  C18 UNL     1       3.343   2.442   1.224  1.00  0.00     0.201 C 
HETATM   23  O4  UNL     1       4.302   2.036   1.952  1.00  0.00    -0.646 OA
HETATM   24  O5  UNL     1       2.854   3.700   1.453  1.00  0.00    -0.646 OA
ENDBRANCH  12  22
BRANCH  17  25
HETATM   25  O7  UNL     1      -4.177  -1.341  -1.095  1.00  0.00    -0.304 OA
BRANCH  25  26
HETATM   26  C21 UNL     1      -4.673  -2.448  -0.402  1.00  0.00     0.180 C 
BRANCH  26  27
HETATM   27  C22 UNL     1      -5.944  -2.135   0.390  1.00  0.00     0.027 C 
BRANCH  27  28
HETATM   28  C23 UNL     1      -6.950  -1.671  -0.616  1.00  0.00     0.002 C 
BRANCH  28  29
HETATM   29  C24 UNL     1      -8.234  -1.252  -0.043  1.00  0.00    -0.000 C 
BRANCH  29  30
HETATM   30  C25 UNL     1      -9.066  -2.195   0.725  1.00  0.00    -0.005 C 
HETATM   31  C26 UNL     1      -8.512  -2.731   2.008  1.00  0.00     0.005 C 
ENDBRANCH  29  30
ENDBRANCH  28  29
ENDBRANCH  27  28
ENDBRANCH  26  27
ENDBRANCH  25  26
ENDBRANCH  17  25
BRANCH  11  32
HETATM   32  O2  UNL     1       4.631  -0.445   0.536  1.00  0.00    -0.273 OA
BRANCH  32  33
HETATM   33  C12 UNL     1       5.617  -1.401   0.685  1.00  0.00     0.365 C 
HETATM   34  O3  UNL     1       5.349  -2.514   1.181  1.00  0.00    -0.238 OA
HETATM   35  N2  UNL     1       6.932  -1.109   0.270  1.00  0.00    -0.337 N 
ATOM     36  H2  UNL     1       7.154  -0.200  -0.136  1.00  0.00     0.164 HD
BRANCH  35  37
HETATM   37  C13 UNL     1       7.964  -2.111   0.425  1.00  0.00     0.125 C 
BRANCH  37  38
HETATM   38  C14 UNL     1       9.299  -1.583  -0.086  1.00  0.00     0.019 C 
BRANCH  38  39
HETATM   39  C15 UNL     1      10.326  -2.690   0.112  1.00  0.00    -0.003 C 
HETATM   40  C16 UNL     1      11.690  -2.249  -0.372  1.00  0.00     0.005 C 
ENDBRANCH  38  39
ENDBRANCH  37  38
ENDBRANCH  35  37
ENDBRANCH  32  33
ENDBRANCH  11  32
TORSDOF 14
