REMARK  14 active torsions:
REMARK  status: ('A' for Active; 'I' for Inactive)
REMARK    1  A    between atoms: O1_2  and  C2_3 
REMARK    2  A    between atoms: C2_3  and  C3_4 
REMARK    3  A    between atoms: C3_4  and  N1_5 
REMARK       I    between atoms: N1_5  and  C4_7 
REMARK    4  A    between atoms: C4_7  and  C5_9 
REMARK    5  A    between atoms: C5_9  and  C6_10 
REMARK    6  A    between atoms: C6_10  and  C7_11 
REMARK    7  A    between atoms: N2_21  and  O4_23 
REMARK    8  A    between atoms: O4_23  and  C16_24 
REMARK    9  A    between atoms: C16_24  and  C17_25 
REMARK   10  A    between atoms: C17_25  and  N3_26 
REMARK   11  A    between atoms: C23_32  and  C25_34 
REMARK   12  A    between atoms: C25_34  and  O6_36 
REMARK   13  A    between atoms: O6_36  and  C26_37 
REMARK   14  A    between atoms: C29_40  and  O7_41 
ROOT
HETATM    1  C7  UNL     1       1.521  -0.246   1.717  1.00  0.00     0.128 C 
HETATM    2  O3  UNL     1       2.255  -1.400   1.928  1.00  0.00    -0.374 OA
HETATM    3  C8  UNL     1       1.454  -2.468   1.419  1.00  0.00     0.062 C 
HETATM    4  C9  UNL     1       0.511  -2.753   2.533  1.00  0.00     0.046 C 
HETATM    5  C10 UNL     1       2.438  -3.634   1.465  1.00  0.00     0.046 C 
HETATM    6  C11 UNL     1       1.066  -1.956   0.145  1.00  0.00     0.001 C 
HETATM    7  C12 UNL     1       2.345  -2.014  -0.728  1.00  0.00     0.019 C 
HETATM    8  C13 UNL     1       0.853  -0.474   0.380  1.00  0.00     0.032 C 
HETATM    9  C14 UNL     1      -0.553  -0.011   0.488  1.00  0.00     0.063 C 
HETATM   10  C15 UNL     1      -1.545  -0.771  -0.315  1.00  0.00     0.017 C 
HETATM   11  N2  UNL     1      -2.404  -0.126  -0.982  1.00  0.00    -0.275 N 
ATOM     12  H2  UNL     1      -3.081  -0.658  -1.530  1.00  0.00     0.193 HD
HETATM   13  C22 UNL     1      -1.417  -2.232  -0.237  1.00  0.00     0.063 C 
HETATM   14  C23 UNL     1      -2.486  -3.088  -0.730  1.00  0.00     0.080 C 
HETATM   15  C24 UNL     1      -2.776  -3.275  -2.146  1.00  0.00     0.029 C 
HETATM   16  C29 UNL     1      -2.099  -4.480  -0.181  1.00  0.00     0.137 C 
HETATM   17  C30 UNL     1      -0.901  -4.923  -0.940  1.00  0.00     0.034 C 
HETATM   18  C31 UNL     1       0.190  -3.938  -1.154  1.00  0.00     0.013 C 
HETATM   19  C32 UNL     1      -0.016  -2.528  -0.719  1.00  0.00    -0.023 C 
HETATM   20  C33 UNL     1       0.089  -1.692  -2.019  1.00  0.00     0.017 C 
ENDROOT
BRANCH   1  21
HETATM   21  C6  UNL     1       2.332   0.992   1.822  1.00  0.00     0.041 C 
BRANCH  21  22
HETATM   22  C5  UNL     1       3.479   1.140   0.895  1.00  0.00     0.105 C 
BRANCH  22  23
HETATM   23  C4  UNL     1       4.209   2.392   1.088  1.00  0.00     0.217 C 
HETATM   24  N1  UNL     1       5.329   2.693   0.281  1.00  0.00    -0.359 N 
ATOM     25  H1  UNL     1       5.614   2.022  -0.432  1.00  0.00     0.162 HD
HETATM   26  O2  UNL     1       3.852   3.204   1.965  1.00  0.00    -0.274 OA
BRANCH  24  27
HETATM   27  C3  UNL     1       6.092   3.925   0.429  1.00  0.00     0.148 C 
BRANCH  27  28
HETATM   28  C2  UNL     1       7.218   3.975  -0.553  1.00  0.00     0.186 C 
BRANCH  28  29
HETATM   29  O1  UNL     1       7.988   5.114  -0.468  1.00  0.00    -0.394 OA
HETATM   30  C1  UNL     1       7.331   6.299  -0.690  1.00  0.00     0.201 C 
ENDBRANCH  28  29
ENDBRANCH  27  28
ENDBRANCH  24  27
ENDBRANCH  22  23
ENDBRANCH  21  22
ENDBRANCH   1  21
BRANCH  11  31
HETATM   31  O4  UNL     1      -2.484   1.244  -1.016  1.00  0.00    -0.279 OA
BRANCH  31  32
HETATM   32  C16 UNL     1      -3.658   1.907  -1.365  1.00  0.00     0.231 C 
BRANCH  32  33
HETATM   33  C17 UNL     1      -3.515   3.391  -1.331  1.00  0.00     0.301 C 
BRANCH  33  34
HETATM   34  N3  UNL     1      -2.516   3.913  -2.217  1.00  0.00     0.090 N 
HETATM   35  C18 UNL     1      -1.170   3.595  -1.862  1.00  0.00     0.272 C 
HETATM   36  C19 UNL     1      -0.364   4.868  -2.062  1.00  0.00     0.032 C 
HETATM   37  C20 UNL     1      -1.406   5.952  -1.841  1.00  0.00     0.032 C 
HETATM   38  C21 UNL     1      -2.634   5.318  -2.456  1.00  0.00     0.272 C 
ENDBRANCH  33  34
ENDBRANCH  32  33
ENDBRANCH  31  32
ENDBRANCH  11  31
BRANCH  14  39
HETATM   39  C25 UNL     1      -3.770  -2.719  -0.038  1.00  0.00     0.271 C 
HETATM   40  O5  UNL     1      -4.740  -2.277  -0.705  1.00  0.00    -0.264 OA
BRANCH  39  41
HETATM   41  O6  UNL     1      -3.964  -2.835   1.317  1.00  0.00    -0.316 OA
BRANCH  41  42
HETATM   42  C26 UNL     1      -5.148  -2.499   2.001  1.00  0.00     0.123 C 
HETATM   43  C27 UNL     1      -5.768  -3.696   2.655  1.00  0.00     0.040 C 
HETATM   44  C28 UNL     1      -4.979  -1.429   3.029  1.00  0.00     0.040 C 
ENDBRANCH  41  42
ENDBRANCH  39  41
ENDBRANCH  14  39
BRANCH  16  45
HETATM   45  O7  UNL     1      -3.142  -5.363  -0.408  1.00  0.00    -0.394 OA
ATOM     46  H7  UNL     1      -2.904  -6.219  -0.071  1.00  0.00     0.210 HD
ENDBRANCH  16  45
TORSDOF 14
