REMARK  9 active torsions:
REMARK  status: ('A' for Active; 'I' for Inactive)
REMARK    1  A    between atoms: O1_2  and  C2_3 
REMARK    2  A    between atoms: C3_6  and  C4_7 
REMARK    3  A    between atoms: C5_8  and  N2_9 
REMARK    4  A    between atoms: N2_9  and  C6_11 
REMARK    5  A    between atoms: C6_11  and  N3_12 
REMARK    6  A    between atoms: N5_18  and  N6_19 
REMARK    7  A    between atoms: N7_24  and  N8_25 
REMARK    8  A    between atoms: C9_28  and  N9_29 
REMARK    9  A    between atoms: C10_32  and  N10_33 
ROOT
HETATM    1  C6  UNL     1      -2.727   1.164  -1.464  1.00  0.00     0.390 C 
HETATM    2  C7  UNL     1      -2.773   2.607  -1.080  1.00  0.00     0.114 C 
HETATM    3  N4  UNL     1      -2.830   3.720  -0.788  1.00  0.00    -0.193 NA
ENDROOT
BRANCH   1   4
HETATM    4  N2  UNL     1      -1.556   0.553  -0.886  1.00  0.00    -0.334 N 
ATOM      5  H2  UNL     1      -0.767   0.343  -1.497  1.00  0.00     0.164 HD
BRANCH   4   6
HETATM    6  C5  UNL     1      -1.450   0.233   0.479  1.00  0.00     0.159 A 
HETATM    7  C4  UNL     1      -0.282  -0.313   1.037  1.00  0.00     0.133 A 
HETATM    8  N7  UNL     1      -0.553  -0.509   2.332  1.00  0.00    -0.229 N 
HETATM    9  C8  UNL     1      -1.811  -0.124   2.619  1.00  0.00     0.220 A 
HETATM   10  N5  UNL     1      -2.350   0.332   1.462  1.00  0.00    -0.216 N 
HETATM   11  S1  UNL     1      -2.556  -0.189   4.072  1.00  0.00    -0.037 SA
BRANCH   7  12
HETATM   12  C3  UNL     1       0.961  -0.555   0.331  1.00  0.00     0.105 A 
HETATM   13  N1  UNL     1       1.709   0.442  -0.215  1.00  0.00    -0.318 N 
HETATM   14  C2  UNL     1       2.826   0.196  -0.914  1.00  0.00     0.225 A 
ATOM     15  H1  UNL     1       1.410   1.409  -0.088  1.00  0.00     0.169 HD
HETATM   16  N11 UNL     1       3.281  -1.059  -1.120  1.00  0.00    -0.306 N 
HETATM   17  C10 UNL     1       2.582  -2.079  -0.604  1.00  0.00     0.138 A 
ATOM     18  H11 UNL     1       4.134  -1.226  -1.654  1.00  0.00     0.171 HD
HETATM   19  C9  UNL     1       1.409  -1.832   0.129  1.00  0.00     0.175 A 
BRANCH  14  20
HETATM   20  O1  UNL     1       3.565   1.230  -1.458  1.00  0.00    -0.327 OA
HETATM   21  C1  UNL     1       3.210   2.590  -1.324  1.00  0.00     0.213 C 
ENDBRANCH  14  20
BRANCH  17  22
HETATM   22  N10 UNL     1       3.014  -3.271  -0.803  1.00  0.00    -0.383 N 
ATOM     23 2H10 UNL     1       2.482  -4.047  -0.410  1.00  0.00     0.157 HD
ATOM     24 1H10 UNL     1       3.866  -3.450  -1.335  1.00  0.00     0.157 HD
ENDBRANCH  17  22
BRANCH  19  25
HETATM   25  N9  UNL     1       0.722  -2.969   0.578  1.00  0.00    -0.109 N 
HETATM   26  O2  UNL     1      -0.403  -3.190   0.045  1.00  0.00    -0.532 OA
HETATM   27  O3  UNL     1       1.187  -3.821   1.526  1.00  0.00    -0.532 OA
ENDBRANCH  19  25
ENDBRANCH   7  12
BRANCH   8  28
HETATM   28  N8  UNL     1       0.295  -1.010   3.329  1.00  0.00    -0.336 N 
ATOM     29  H82 UNL     1       1.248  -1.302   3.112  1.00  0.00     0.177 HD
ATOM     30  H81 UNL     1       0.088  -1.159   4.317  1.00  0.00     0.177 HD
ENDBRANCH   8  28
BRANCH  10  31
HETATM   31  N6  UNL     1      -3.666   0.792   1.415  1.00  0.00    -0.335 N 
ATOM     32  H62 UNL     1      -4.072   1.135   0.544  1.00  0.00     0.177 HD
ATOM     33  H61 UNL     1      -4.353   0.868   2.165  1.00  0.00     0.177 HD
ENDBRANCH  10  31
ENDBRANCH   4   6
ENDBRANCH   1   4
BRANCH   1  34
HETATM   34  N3  UNL     1      -2.594   1.129  -2.934  1.00  0.00    -0.045 N 
ATOM     35  H33 UNL     1      -1.727   1.557  -3.259  1.00  0.00     0.278 HD
ATOM     36  H32 UNL     1      -2.427   0.188  -3.290  1.00  0.00     0.278 HD
ATOM     37  H31 UNL     1      -3.422   1.561  -3.343  1.00  0.00     0.278 HD
ENDBRANCH   1  34
TORSDOF 9
