REMARK  10 active torsions:
REMARK  status: ('A' for Active; 'I' for Inactive)
REMARK    1  A    between atoms: C4_7  and  C5_8 
REMARK    2  A    between atoms: C5_8  and  N3_10 
REMARK    3  A    between atoms: N3_10  and  C6_12 
REMARK    4  A    between atoms: C7_15  and  S1_16 
REMARK    5  A    between atoms: S1_16  and  C8_17 
REMARK    6  A    between atoms: C8_17  and  C9_18 
REMARK    7  A    between atoms: C9_18  and  O3_20 
REMARK    8  A    between atoms: O3_20  and  C10_21 
REMARK    9  A    between atoms: C13_27  and  S2_28 
REMARK   10  A    between atoms: S2_28  and  C14_29 
ROOT
HETATM    1  C6  UNL     1      -0.582   1.237  -1.022  1.00  0.00     0.131 A 
HETATM    2  N4  UNL     1      -0.182   0.048  -1.534  1.00  0.00    -0.322 N 
ATOM      3  H4  UNL     1      -0.884  -0.662  -1.744  1.00  0.00     0.169 HD
HETATM    4  C7  UNL     1       1.113  -0.224  -1.773  1.00  0.00     0.149 A 
HETATM    5  N5  UNL     1       2.020   0.722  -1.489  1.00  0.00    -0.303 N 
ATOM      6  H5  UNL     1       3.003   0.517  -1.670  1.00  0.00     0.171 HD
HETATM    7  C12 UNL     1       1.706   1.921  -0.981  1.00  0.00     0.268 A 
HETATM    8  O4  UNL     1       2.595   2.796  -0.724  1.00  0.00    -0.267 OA
HETATM    9  C13 UNL     1       0.379   2.199  -0.737  1.00  0.00     0.113 A 
ENDROOT
BRANCH   1  10
HETATM   10  N3  UNL     1      -1.928   1.546  -0.764  1.00  0.00    -0.328 N 
ATOM     11  H3  UNL     1      -2.171   2.459  -0.379  1.00  0.00     0.168 HD
BRANCH  10  12
HETATM   12  C5  UNL     1      -2.953   0.603  -1.033  1.00  0.00     0.147 C 
HETATM   13  N2  UNL     1      -3.775   0.803  -2.184  1.00  0.00    -0.080 NA
BRANCH  12  14
HETATM   14  C4  UNL     1      -3.149  -0.438  -0.235  1.00  0.00     0.103 A 
HETATM   15  C3  UNL     1      -4.120  -1.400  -0.413  1.00  0.00     0.099 A 
HETATM   16  N1  UNL     1      -5.150  -1.836  -1.178  1.00  0.00    -0.258 N 
HETATM   17  C18 UNL     1      -4.029  -2.334   0.613  1.00  0.00     0.045 A 
HETATM   18  O1  UNL     1      -5.651  -2.929  -0.683  1.00  0.00    -0.237 OA
ATOM     19  H1  UNL     1      -5.485  -1.372  -2.023  1.00  0.00     0.195 HD
HETATM   20  C2  UNL     1      -5.011  -3.279   0.405  1.00  0.00     0.103 A 
HETATM   21  C1  UNL     1      -5.267  -4.335   1.149  1.00  0.00     0.054 C 
HETATM   22  C17 UNL     1      -2.979  -1.896   1.400  1.00  0.00     0.105 A 
HETATM   23  N6  UNL     1      -2.458  -0.749   0.874  1.00  0.00    -0.360 N 
ATOM     24  H6  UNL     1      -1.676  -0.218   1.258  1.00  0.00     0.165 HD
ENDBRANCH  12  14
ENDBRANCH  10  12
ENDBRANCH   1  10
BRANCH   9  25
HETATM   25  S2  UNL     1      -0.125   3.751  -0.068  1.00  0.00    -0.117 SA
BRANCH  25  26
HETATM   26  C14 UNL     1      -0.202   3.796   1.716  1.00  0.00     0.044 C 
HETATM   27  C15 UNL     1       1.147   3.659   2.386  1.00  0.00     0.021 C 
HETATM   28  C16 UNL     1      -0.913   5.024   2.172  1.00  0.00     0.021 C 
ENDBRANCH  25  26
ENDBRANCH   9  25
BRANCH   4  29
HETATM   29  S1  UNL     1       1.587  -1.813  -2.449  1.00  0.00    -0.084 SA
BRANCH  29  30
HETATM   30  C8  UNL     1       3.387  -1.861  -2.644  1.00  0.00     0.193 C 
BRANCH  30  31
HETATM   31  C9  UNL     1       4.012  -1.816  -1.319  1.00  0.00     0.268 C 
HETATM   32  O2  UNL     1       3.315  -1.752  -0.290  1.00  0.00    -0.264 OA
BRANCH  31  33
HETATM   33  O3  UNL     1       5.391  -1.842  -1.116  1.00  0.00    -0.321 OA
BRANCH  33  34
HETATM   34  C10 UNL     1       5.948  -1.798   0.162  1.00  0.00     0.174 C 
HETATM   35  C11 UNL     1       5.550  -2.920   1.063  1.00  0.00     0.034 C 
ENDBRANCH  33  34
ENDBRANCH  31  33
ENDBRANCH  30  31
ENDBRANCH  29  30
ENDBRANCH   4  29
TORSDOF 10
