REMARK  3 active torsions:
REMARK  status: ('A' for Active; 'I' for Inactive)
REMARK       I    between atoms: C2_2  and  N1_4 
REMARK       I    between atoms: C3_6  and  N2_7 
REMARK       I    between atoms: C3_6  and  N3_22 
REMARK       I    between atoms: N2_7  and  C4_9 
REMARK    1  A    between atoms: C4_9  and  C5_11 
REMARK    2  A    between atoms: C8_15  and  C9_16 
REMARK       I    between atoms: N3_22  and  C15_24 
REMARK    3  A    between atoms: C15_24  and  C16_26 
ROOT
HETATM    1  C1  UNL     1       0.469  -3.622   0.712  1.00  0.00     0.118 C 
HETATM    2  C2  UNL     1       1.432  -2.417   0.514  1.00  0.00     0.231 C 
HETATM    3  O1  UNL     1       2.609  -2.801   0.456  1.00  0.00    -0.273 OA
HETATM    4  N1  UNL     1       0.911  -1.136   0.430  1.00  0.00    -0.160 N 
ATOM      5  H1  UNL     1      -0.104  -1.193   0.519  1.00  0.00     0.187 HD
HETATM    6  C3  UNL     1       1.257   0.165   0.273  1.00  0.00     0.690 C 
HETATM    7  N2  UNL     1       0.212   1.085   0.267  1.00  0.00    -0.155 N 
ATOM      8  H2  UNL     1       0.412   2.079   0.152  1.00  0.00     0.187 HD
HETATM    9  C4  UNL     1      -1.116   0.653   0.418  1.00  0.00     0.272 C 
HETATM   10  O2  UNL     1      -1.524   0.546   1.578  1.00  0.00    -0.267 OA
HETATM   11  N3  UNL     1       2.453   0.848   0.108  1.00  0.00    -0.155 N 
ATOM     12  H3  UNL     1       2.278   1.849   0.023  1.00  0.00     0.187 HD
HETATM   13  C15 UNL     1       3.806   0.591   0.023  1.00  0.00     0.270 C 
HETATM   14  O4  UNL     1       4.357  -0.504   0.091  1.00  0.00    -0.267 OA
ENDROOT
BRANCH   9  15
HETATM   15  C5  UNL     1      -1.909   0.366  -0.746  1.00  0.00     0.069 A 
HETATM   16  C6  UNL     1      -1.494   0.753  -2.045  1.00  0.00     0.044 A 
HETATM   17  C7  UNL     1      -2.506   0.465  -2.922  1.00  0.00     0.143 A 
HETATM   18  O3  UNL     1      -3.459  -0.052  -2.243  1.00  0.00    -0.321 OA
HETATM   19  C8  UNL     1      -3.165  -0.143  -0.933  1.00  0.00     0.101 A 
BRANCH  19  20
HETATM   20  C9  UNL     1      -4.140  -0.706  -0.027  1.00  0.00    -0.001 A 
HETATM   21  C10 UNL     1      -3.874  -1.341   1.135  1.00  0.00     0.014 A 
HETATM   22  C11 UNL     1      -4.866  -1.785   2.012  1.00  0.00     0.001 A 
HETATM   23  C12 UNL     1      -6.185  -1.594   1.724  1.00  0.00     0.000 A 
HETATM   24  C13 UNL     1      -6.497  -0.954   0.547  1.00  0.00     0.001 A 
HETATM   25  C14 UNL     1      -5.512  -0.523  -0.303  1.00  0.00     0.014 A 
ENDBRANCH  19  20
ENDBRANCH   9  15
BRANCH  13  26
HETATM   26  C16 UNL     1       4.767   1.736  -0.173  1.00  0.00     0.035 A 
HETATM   27  C17 UNL     1       6.042   1.665   0.321  1.00  0.00     0.034 A 
HETATM   28  C18 UNL     1       6.965   2.676   0.162  1.00  0.00     0.088 A 
HETATM   29  N4  UNL     1       6.553   3.768  -0.517  1.00  0.00    -0.375 N 
HETATM   30  C19 UNL     1       5.313   3.862  -1.011  1.00  0.00     0.088 A 
ATOM     31  H4  UNL     1       7.204   4.541  -0.657  1.00  0.00     0.164 HD
HETATM   32  C20 UNL     1       4.372   2.857  -0.862  1.00  0.00     0.034 A 
ENDBRANCH  13  26
TORSDOF 3
