REMARK  12 active torsions:
REMARK  status: ('A' for Active; 'I' for Inactive)
REMARK    1  A    between atoms: C2_2  and  C3_3 
REMARK    2  A    between atoms: C3_3  and  C4_4 
REMARK    3  A    between atoms: C4_4  and  C5_5 
REMARK       I    between atoms: C5_5  and  N1_7 
REMARK    4  A    between atoms: C6_9  and  C7_10 
REMARK    5  A    between atoms: C6_9  and  C14_21 
REMARK       I    between atoms: C7_10  and  N2_12 
REMARK    6  A    between atoms: N2_12  and  N3_14 
REMARK       I    between atoms: N4_23  and  C16_24 
REMARK    7  A    between atoms: C16_24  and  C17_26 
REMARK    8  A    between atoms: C17_26  and  C18_27 
REMARK    9  A    between atoms: N5_29  and  C20_30 
REMARK   10  A    between atoms: C20_30  and  C21_31 
REMARK       I    between atoms: C21_31  and  N6_33 
REMARK   11  A    between atoms: C27_42  and  C28_43 
REMARK   12  A    between atoms: C28_43  and  C29_44 
ROOT
HETATM    1  C14 UNL     1      -2.341   1.239  -1.093  1.00  0.00     0.082 A 
HETATM    2  C15 UNL     1      -1.118   0.676  -0.818  1.00  0.00     0.133 A 
HETATM    3  N4  UNL     1      -0.180   1.126  -1.712  1.00  0.00    -0.280 N 
HETATM    4  C16 UNL     1       1.178   0.797  -1.621  1.00  0.00     0.231 C 
HETATM    5  O3  UNL     1       2.021   1.192  -2.447  1.00  0.00    -0.273 OA
HETATM    6  C27 UNL     1      -0.800   1.953  -2.537  1.00  0.00     0.090 A 
HETATM    7  N9  UNL     1      -2.103   2.023  -2.162  1.00  0.00    -0.342 N 
ATOM      8  H9  UNL     1      -2.808   2.594  -2.628  1.00  0.00     0.167 HD
ENDROOT
BRANCH   1   9
HETATM    9  C6  UNL     1      -3.629   1.007  -0.462  1.00  0.00     0.133 C 
HETATM   10  N1  UNL     1      -4.608   1.762  -0.652  1.00  0.00    -0.321 N 
HETATM   11  C5  UNL     1      -4.812   2.955  -1.349  1.00  0.00     0.222 C 
ATOM     12  H1  UNL     1      -5.454   1.429  -0.190  1.00  0.00     0.169 HD
HETATM   13  O1  UNL     1      -5.365   3.024  -2.488  1.00  0.00    -0.273 OA
BRANCH  11  14
HETATM   14  C4  UNL     1      -4.375   4.283  -0.774  1.00  0.00     0.103 C 
BRANCH  14  15
HETATM   15  C3  UNL     1      -5.184   5.427  -1.304  1.00  0.00     0.009 C 
BRANCH  15  16
HETATM   16  C2  UNL     1      -6.653   5.290  -0.929  1.00  0.00    -0.004 C 
HETATM   17  C1  UNL     1      -6.794   5.272   0.588  1.00  0.00     0.005 C 
ENDBRANCH  15  16
ENDBRANCH  14  15
ENDBRANCH  11  14
BRANCH   9  18
HETATM   18  C7  UNL     1      -3.847  -0.175   0.359  1.00  0.00     0.289 C 
HETATM   19  O2  UNL     1      -2.953  -0.982   0.607  1.00  0.00    -0.264 OA
HETATM   20  N2  UNL     1      -5.156  -0.449   0.927  1.00  0.00    -0.259 N 
ATOM     21  H2  UNL     1      -5.914   0.207   0.738  1.00  0.00     0.191 HD
BRANCH  20  22
HETATM   22  N3  UNL     1      -5.422  -1.546   1.704  1.00  0.00    -0.283 N 
HETATM   23  C8  UNL     1      -6.125  -2.598   1.086  1.00  0.00     0.088 C 
HETATM   24  C9  UNL     1      -6.171  -3.865   1.896  1.00  0.00     0.051 C 
HETATM   25  C10 UNL     1      -4.738  -4.247   2.184  1.00  0.00    -0.009 C 
HETATM   26  C11 UNL     1      -4.788  -5.530   3.015  1.00  0.00     0.010 C 
HETATM   27  C12 UNL     1      -3.947  -3.161   2.864  1.00  0.00     0.051 C 
HETATM   28  C13 UNL     1      -4.595  -1.799   2.806  1.00  0.00     0.088 C 
ENDBRANCH  20  22
ENDBRANCH   9  18
ENDBRANCH   1   9
BRANCH   6  29
HETATM   29  C28 UNL     1      -0.292   2.661  -3.737  1.00  0.00     0.076 C 
BRANCH  29  30
HETATM   30  C29 UNL     1      -0.712   1.898  -4.963  1.00  0.00     0.003 C 
HETATM   31  C30 UNL     1      -0.238   0.478  -5.041  1.00  0.00     0.005 C 
ENDBRANCH  29  30
ENDBRANCH   6  29
BRANCH   4  32
HETATM   32  C17 UNL     1       1.688  -0.059  -0.489  1.00  0.00     0.130 C 
BRANCH  32  33
HETATM   33  C18 UNL     1       3.160  -0.228  -0.635  1.00  0.00     0.111 C 
HETATM   34  C19 UNL     1       3.758  -1.040   0.500  1.00  0.00     0.156 C 
HETATM   35  N5  UNL     1       5.135  -0.474   0.499  1.00  0.00    -0.324 N 
HETATM   36  C26 UNL     1       4.943   0.868   0.085  1.00  0.00     0.191 C 
HETATM   37  N7  UNL     1       5.794   1.973   0.337  1.00  0.00    -0.063 NA
HETATM   38  N8  UNL     1       3.833   1.018  -0.556  1.00  0.00    -0.358 N 
ATOM     39  H8  UNL     1       3.492   1.897  -0.946  1.00  0.00     0.162 HD
BRANCH  35  40
HETATM   40  C20 UNL     1       6.243  -1.239   0.920  1.00  0.00     0.167 C 
BRANCH  40  41
HETATM   41  C21 UNL     1       7.575  -0.832   0.520  1.00  0.00     0.259 C 
HETATM   42  O4  UNL     1       7.777   0.137  -0.258  1.00  0.00    -0.267 OA
HETATM   43  N6  UNL     1       8.721  -1.529   1.007  1.00  0.00    -0.347 N 
HETATM   44  C22 UNL     1       8.704  -2.634   1.926  1.00  0.00     0.126 C 
HETATM   45  C25 UNL     1      10.079  -1.223   0.624  1.00  0.00     0.126 C 
HETATM   46  C23 UNL     1      10.102  -3.095   2.076  1.00  0.00     0.021 C 
HETATM   47  C24 UNL     1      10.975  -2.054   1.469  1.00  0.00     0.021 C 
ENDBRANCH  40  41
ENDBRANCH  35  40
ENDBRANCH  32  33
ENDBRANCH   4  32
TORSDOF 12
