REMARK  9 active torsions:
REMARK  status: ('A' for Active; 'I' for Inactive)
REMARK    1  A    between atoms: O1_2  and  C2_3 
REMARK    2  A    between atoms: C2_3  and  C3_5 
REMARK    3  A    between atoms: C3_5  and  N1_8 
REMARK    4  A    between atoms: N1_8  and  N2_9 
REMARK    5  A    between atoms: N1_8  and  C14_20 
REMARK    6  A    between atoms: N2_9  and  C6_11 
REMARK    7  A    between atoms: C6_11  and  C7_13 
REMARK    8  A    between atoms: C14_20  and  O3_21 
REMARK    9  A    between atoms: C14_20  and  C15_23 
ROOT
HETATM    1  N1  UNL     1      -1.176  -0.621   0.303  1.00  0.00    -0.250 N 
ENDROOT
BRANCH   1   2
HETATM    2  C3  UNL     1      -1.342  -2.068   0.408  1.00  0.00     0.136 C 
HETATM    3  C4  UNL     1      -1.602  -2.515   1.829  1.00  0.00     0.051 C 
HETATM    4  C5  UNL     1      -0.068  -2.735  -0.057  1.00  0.00     0.051 C 
BRANCH   2   5
HETATM    5  C2  UNL     1      -2.407  -2.565  -0.512  1.00  0.00     0.288 C 
HETATM    6  O2  UNL     1      -3.031  -1.898  -1.338  1.00  0.00    -0.262 OA
BRANCH   5   7
HETATM    7  O1  UNL     1      -2.701  -3.930  -0.402  1.00  0.00    -0.324 OA
HETATM    8  C1  UNL     1      -3.686  -4.549  -1.206  1.00  0.00     0.213 C 
ENDBRANCH   5   7
ENDBRANCH   2   5
ENDBRANCH   1   2
BRANCH   1   9
HETATM    9  N2  UNL     1       0.092  -0.187  -0.053  1.00  0.00    -0.284 N 
ATOM     10  H2  UNL     1       0.297   0.009  -1.033  1.00  0.00     0.188 HD
BRANCH   9  11
HETATM   11  C6  UNL     1       1.127  -0.008   0.937  1.00  0.00     0.125 C 
HETATM   12  S1  UNL     1       0.890  -0.270   2.508  1.00  0.00    -0.058 SA
BRANCH  11  13
HETATM   13  C7  UNL     1       2.422   0.444   0.436  1.00  0.00     0.003 A 
HETATM   14  C8  UNL     1       3.441  -0.473   0.327  1.00  0.00     0.015 A 
HETATM   15  C9  UNL     1       4.674  -0.078  -0.143  1.00  0.00     0.007 A 
HETATM   16  C10 UNL     1       4.925   1.221  -0.512  1.00  0.00    -0.062 A 
HETATM   17  C11 UNL     1       6.261   1.660  -1.023  1.00  0.00     0.048 C 
HETATM   18  C12 UNL     1       3.881   2.121  -0.392  1.00  0.00     0.007 A 
HETATM   19  C13 UNL     1       2.648   1.744   0.074  1.00  0.00     0.015 A 
ENDBRANCH  11  13
ENDBRANCH   9  11
ENDBRANCH   1   9
BRANCH   1  20
HETATM   20  C14 UNL     1      -2.224   0.262   0.588  1.00  0.00     0.168 C 
BRANCH  20  21
HETATM   21  O3  UNL     1      -3.321  -0.325   0.996  1.00  0.00    -0.344 OA
ATOM     22  H3  UNL     1      -4.032   0.274   1.189  1.00  0.00     0.219 HD
ENDBRANCH  20  21
BRANCH  20  23
HETATM   23  C15 UNL     1      -2.290   1.694   0.506  1.00  0.00     0.016 A 
HETATM   24  C16 UNL     1      -1.340   2.542  -0.004  1.00  0.00     0.016 A 
HETATM   25  C17 UNL     1      -1.470   3.931  -0.015  1.00  0.00     0.001 A 
HETATM   26  C18 UNL     1      -2.587   4.507   0.499  1.00  0.00     0.000 A 
HETATM   27  C19 UNL     1      -3.558   3.705   1.015  1.00  0.00     0.001 A 
HETATM   28  C20 UNL     1      -3.429   2.332   1.027  1.00  0.00     0.016 A 
ENDBRANCH  20  23
ENDBRANCH   1  20
TORSDOF 9
