REMARK  6 active torsions:
REMARK  status: ('A' for Active; 'I' for Inactive)
REMARK    1  A    between atoms: C2_2  and  O1_3 
REMARK    2  A    between atoms: C2_2  and  C3_5 
REMARK    3  A    between atoms: C2_2  and  C9_11 
REMARK    4  A    between atoms: N1_17  and  O2_18 
REMARK    5  A    between atoms: C15_20  and  C16_21 
REMARK    6  A    between atoms: N3_30  and  O3_31 
ROOT
HETATM    1  C9  UNL     1      -1.661   0.321  -0.685  1.00  0.00    -0.017 A 
HETATM    2  C10 UNL     1      -1.748  -0.892  -1.350  1.00  0.00     0.013 A 
HETATM    3  C11 UNL     1      -0.603  -1.644  -1.503  1.00  0.00     0.035 A 
HETATM    4  C12 UNL     1       0.629  -1.207  -1.004  1.00  0.00     0.093 A 
HETATM    5  C13 UNL     1       0.694  -0.002  -0.347  1.00  0.00     0.093 A 
HETATM    6  C14 UNL     1      -0.434   0.742  -0.195  1.00  0.00     0.045 A 
HETATM    7  N1  UNL     1       1.899   0.380   0.115  1.00  0.00    -0.219 N 
HETATM    8  C15 UNL     1       3.012  -0.357  -0.039  1.00  0.00     0.113 A 
HETATM    9  C22 UNL     1       2.914  -1.556  -0.699  1.00  0.00     0.172 A 
HETATM   10  C23 UNL     1       4.054  -2.406  -0.907  1.00  0.00     0.122 C 
HETATM   11  N2  UNL     1       4.972  -3.065  -1.068  1.00  0.00    -0.190 NA
HETATM   12  N3  UNL     1       1.730  -1.960  -1.168  1.00  0.00    -0.210 N 
ENDROOT
BRANCH   8  13
HETATM   13  C16 UNL     1       4.309   0.061   0.460  1.00  0.00    -0.004 A 
HETATM   14  C17 UNL     1       4.719  -0.277   1.727  1.00  0.00     0.014 A 
HETATM   15  C18 UNL     1       5.960   0.115   2.224  1.00  0.00     0.001 A 
HETATM   16  C19 UNL     1       6.801   0.868   1.412  1.00  0.00     0.000 A 
HETATM   17  C20 UNL     1       6.391   1.207   0.143  1.00  0.00     0.001 A 
HETATM   18  C21 UNL     1       5.161   0.805  -0.318  1.00  0.00     0.014 A 
ENDBRANCH   8  13
BRANCH  12  19
HETATM   19  O3  UNL     1       1.596  -3.174  -1.844  1.00  0.00    -0.281 OA
ATOM     20  H3  UNL     1       2.374  -3.706  -1.960  1.00  0.00     0.245 HD
ENDBRANCH  12  19
BRANCH   7  21
HETATM   21  O2  UNL     1       2.027   1.586   0.785  1.00  0.00    -0.282 OA
ATOM     22  H2  UNL     1       2.878   1.856   1.111  1.00  0.00     0.245 HD
ENDBRANCH   7  21
BRANCH   1  23
HETATM   23  C2  UNL     1      -2.886   1.154  -0.511  1.00  0.00     0.108 C 
HETATM   24  C1  UNL     1      -3.431   1.470  -1.897  1.00  0.00     0.056 C 
BRANCH  23  25
HETATM   25  O1  UNL     1      -2.498   2.372   0.041  1.00  0.00    -0.380 OA
ATOM     26  H1  UNL     1      -2.158   2.175   0.906  1.00  0.00     0.211 HD
ENDBRANCH  23  25
BRANCH  23  27
HETATM   27  C3  UNL     1      -3.930   0.497   0.286  1.00  0.00    -0.020 A 
HETATM   28  C4  UNL     1      -3.790   0.189   1.623  1.00  0.00     0.010 A 
HETATM   29  C5  UNL     1      -4.819  -0.436   2.327  1.00  0.00     0.001 A 
HETATM   30  C6  UNL     1      -6.009  -0.771   1.723  1.00  0.00     0.000 A 
HETATM   31  C7  UNL     1      -6.160  -0.467   0.388  1.00  0.00     0.001 A 
HETATM   32  C8  UNL     1      -5.145   0.150  -0.308  1.00  0.00     0.010 A 
ENDBRANCH  23  27
ENDBRANCH   1  23
TORSDOF 6
