REMARK  15 active torsions:
REMARK  status: ('A' for Active; 'I' for Inactive)
REMARK    1  A    between atoms: N1_1  and  C1_5 
REMARK    2  A    between atoms: C1_5  and  C2_6 
REMARK    3  A    between atoms: C3_8  and  O2_9 
REMARK    4  A    between atoms: O2_9  and  C4_10 
REMARK    5  A    between atoms: C6_12  and  C7_13 
REMARK    6  A    between atoms: C6_12  and  C8_18 
REMARK    7  A    between atoms: C7_13  and  N2_14 
REMARK    8  A    between atoms: C8_18  and  N3_19 
REMARK    9  A    between atoms: N3_19  and  C9_22 
REMARK   10  A    between atoms: C9_22  and  C10_23 
REMARK   11  A    between atoms: C10_23  and  O3_24 
REMARK   12  A    between atoms: O3_24  and  N4_25 
REMARK   13  A    between atoms: C11_28  and  N5_29 
REMARK   14  A    between atoms: C13_34  and  N6_35 
REMARK   15  A    between atoms: C14_42  and  O4_43 
ROOT
HETATM    1  C4  UNL     1       0.622  -0.882  -0.063  1.00  0.00     0.157 C 
HETATM    2  C5  UNL     1      -0.560  -0.596   0.777  1.00  0.00     0.049 C 
HETATM    3  C6  UNL     1      -1.780  -1.403   0.492  1.00  0.00     0.037 C 
HETATM    4  C11 UNL     1      -1.521  -2.776  -0.044  1.00  0.00     0.197 C 
HETATM    5  C12 UNL     1      -0.386  -2.863  -1.006  1.00  0.00     0.069 C 
HETATM    6  C13 UNL     1       0.856  -2.352  -0.331  1.00  0.00     0.214 C 
ENDROOT
BRANCH   1   7
HETATM    7  O2  UNL     1       1.771  -0.430   0.626  1.00  0.00    -0.331 OA
BRANCH   7   8
HETATM    8  C3  UNL     1       2.504   0.467  -0.139  1.00  0.00     0.473 C 
HETATM    9  O1  UNL     1       3.819   0.015  -0.244  1.00  0.00    -0.327 OA
HETATM   10  C2  UNL     1       4.601   1.128  -0.551  1.00  0.00     0.208 C 
HETATM   11  C14 UNL     1       3.761   2.326  -0.240  1.00  0.00     0.355 C 
HETATM   12  N7  UNL     1       2.676   1.737   0.542  1.00  0.00     0.004 N 
ATOM     13  H72 UNL     1       1.835   2.308   0.625  1.00  0.00     0.286 HD
ATOM     14  H71 UNL     1       2.842   1.677   1.547  1.00  0.00     0.286 HD
BRANCH  10  15
HETATM   15  C1  UNL     1       5.852   1.039   0.280  1.00  0.00     0.266 C 
BRANCH  15  16
HETATM   16  N1  UNL     1       6.768   2.108   0.085  1.00  0.00    -0.077 N 
ATOM     17  H13 UNL     1       7.004   2.197  -0.903  1.00  0.00     0.274 HD
ATOM     18  H12 UNL     1       6.305   3.004   0.236  1.00  0.00     0.274 HD
ATOM     19  H11 UNL     1       7.616   2.048   0.648  1.00  0.00     0.274 HD
ENDBRANCH  15  16
ENDBRANCH  10  15
BRANCH  11  20
HETATM   20  O4  UNL     1       4.416   3.323   0.439  1.00  0.00    -0.368 OA
ATOM     21  H4  UNL     1       3.883   4.084   0.637  1.00  0.00     0.212 HD
ENDBRANCH  11  20
ENDBRANCH   7   8
ENDBRANCH   1   7
BRANCH   6  22
HETATM   22  N6  UNL     1       2.017  -2.435  -1.218  1.00  0.00    -0.072 N 
ATOM     23  H63 UNL     1       1.915  -1.881  -2.068  1.00  0.00     0.274 HD
ATOM     24  H62 UNL     1       2.840  -1.956  -0.852  1.00  0.00     0.274 HD
ATOM     25  H61 UNL     1       2.175  -3.426  -1.399  1.00  0.00     0.274 HD
ENDBRANCH   6  22
BRANCH   3  26
HETATM   26  C7  UNL     1      -2.528  -1.579   1.800  1.00  0.00     0.243 C 
BRANCH  26  27
HETATM   27  N2  UNL     1      -3.734  -2.346   1.661  1.00  0.00    -0.079 N 
ATOM     28  H23 UNL     1      -4.341  -1.943   0.947  1.00  0.00     0.274 HD
ATOM     29  H22 UNL     1      -3.542  -3.249   1.228  1.00  0.00     0.274 HD
ATOM     30  H21 UNL     1      -4.237  -2.464   2.540  1.00  0.00     0.274 HD
ENDBRANCH  26  27
ENDBRANCH   3  26
BRANCH   3  31
HETATM   31  C8  UNL     1      -2.715  -0.665  -0.444  1.00  0.00     0.245 C 
BRANCH  31  32
HETATM   32  N3  UNL     1      -3.141   0.578   0.117  1.00  0.00    -0.072 N 
ATOM     33  H32 UNL     1      -3.564   0.461   1.037  1.00  0.00     0.277 HD
ATOM     34  H31 UNL     1      -2.355   1.166   0.392  1.00  0.00     0.277 HD
BRANCH  32  35
HETATM   35  C9  UNL     1      -4.030   1.250  -0.815  1.00  0.00     0.260 C 
BRANCH  35  36
HETATM   36  C10 UNL     1      -4.504   2.575  -0.256  1.00  0.00     0.228 C 
BRANCH  36  37
HETATM   37  O3  UNL     1      -3.414   3.428  -0.003  1.00  0.00    -0.286 OA
BRANCH  37  38
HETATM   38  N4  UNL     1      -3.854   4.589   0.489  1.00  0.00    -0.311 N 
ATOM     39  H42 UNL     1      -4.837   4.809   0.651  1.00  0.00     0.184 HD
ATOM     40  H41 UNL     1      -3.064   5.207   0.672  1.00  0.00     0.184 HD
ENDBRANCH  37  38
ENDBRANCH  36  37
ENDBRANCH  35  36
ENDBRANCH  32  35
ENDBRANCH  31  32
ENDBRANCH   3  31
BRANCH   4  41
HETATM   41  N5  UNL     1      -1.352  -3.752   1.016  1.00  0.00    -0.074 N 
ATOM     42  H53 UNL     1      -0.622  -3.466   1.669  1.00  0.00     0.274 HD
ATOM     43  H52 UNL     1      -2.149  -3.748   1.653  1.00  0.00     0.274 HD
ATOM     44  H51 UNL     1      -1.175  -4.688   0.651  1.00  0.00     0.274 HD
ENDBRANCH   4  41
TORSDOF 15
