REMARK  11 active torsions:
REMARK  status: ('A' for Active; 'I' for Inactive)
REMARK       I    between atoms: C1_4  and  N3_6 
REMARK    1  A    between atoms: N3_6  and  C2_8 
REMARK    2  A    between atoms: C2_8  and  C3_9 
REMARK    3  A    between atoms: C3_9  and  C4_10 
REMARK    4  A    between atoms: C4_10  and  C5_11 
REMARK    5  A    between atoms: C5_11  and  N4_12 
REMARK    6  A    between atoms: N4_12  and  C6_14 
REMARK    7  A    between atoms: C7_17  and  N6_18 
REMARK       I    between atoms: N6_18  and  C8_20 
REMARK       I    between atoms: C8_20  and  N7_21 
REMARK       I    between atoms: C8_20  and  N8_25 
REMARK    8  A    between atoms: N10_33  and  C10_34 
REMARK    9  A    between atoms: C10_34  and  O2_35 
REMARK   10  A    between atoms: O2_35  and  C11_36 
REMARK       I    between atoms: C11_36  and  N11_38 
REMARK   11  A    between atoms: N11_38  and  N12_40 
ROOT
HETATM    1  C6  UNL     1      -1.006  -0.247  -0.363  1.00  0.00     0.700 A 
HETATM    2  N5  UNL     1      -1.143  -1.454   0.234  1.00  0.00    -0.022 N 
ATOM      3  H5  UNL     1      -0.369  -1.805   0.798  1.00  0.00     0.203 HD
HETATM    4  C7  UNL     1      -2.243  -2.212   0.123  1.00  0.00     0.699 A 
HETATM    5  N9  UNL     1      -3.266  -1.764  -0.615  1.00  0.00    -0.140 N 
ATOM      6  H9  UNL     1      -4.114  -2.321  -0.717  1.00  0.00     0.189 HD
HETATM    7  C9  UNL     1      -3.157  -0.551  -1.229  1.00  0.00     0.356 A 
HETATM    8  O1  UNL     1      -4.145  -0.171  -1.912  1.00  0.00    -0.245 OA
HETATM    9  N10 UNL     1      -2.047   0.194  -1.105  1.00  0.00    -0.109 N 
ENDROOT
BRANCH   1  10
HETATM   10  N4  UNL     1       0.063   0.467  -0.242  1.00  0.00    -0.225 N 
ATOM     11  H4  UNL     1       0.149   1.374  -0.700  1.00  0.00     0.177 HD
BRANCH  10  12
HETATM   12  C5  UNL     1       1.136  -0.071   0.570  1.00  0.00     0.138 C 
BRANCH  12  13
HETATM   13  C4  UNL     1       2.354   0.823   0.553  1.00  0.00     0.022 C 
BRANCH  13  14
HETATM   14  C3  UNL     1       3.433   0.201   1.424  1.00  0.00     0.021 C 
BRANCH  14  15
HETATM   15  C2  UNL     1       4.631   1.125   1.379  1.00  0.00     0.122 C 
BRANCH  15  16
HETATM   16  N3  UNL     1       5.128   1.290   0.038  1.00  0.00    -0.365 N 
HETATM   17  C1  UNL     1       5.736   0.212  -0.631  1.00  0.00     0.181 C 
HETATM   18  N1  UNL     1       6.803  -0.283  -0.054  1.00  0.00    -0.374 N 
HETATM   19  N2  UNL     1       5.269  -0.334  -1.841  1.00  0.00    -0.064 NA
ATOM     20  H12 UNL     1       7.244  -1.065  -0.539  1.00  0.00     0.158 HD
ATOM     21  H11 UNL     1       7.141   0.113   0.823  1.00  0.00     0.158 HD
ATOM     22  H3  UNL     1       5.039   2.192  -0.429  1.00  0.00     0.162 HD
ENDBRANCH  15  16
ENDBRANCH  14  15
ENDBRANCH  13  14
ENDBRANCH  12  13
ENDBRANCH  10  12
ENDBRANCH   1  10
BRANCH   9  23
HETATM   23  C10 UNL     1      -1.952   1.496  -1.773  1.00  0.00     0.335 C 
BRANCH  23  24
HETATM   24  O2  UNL     1      -2.440   2.508  -0.904  1.00  0.00    -0.282 OA
BRANCH  24  25
HETATM   25  C11 UNL     1      -2.471   3.832  -1.270  1.00  0.00     0.380 C 
HETATM   26  O3  UNL     1      -2.063   4.174  -2.397  1.00  0.00    -0.237 OA
HETATM   27  N11 UNL     1      -2.965   4.797  -0.372  1.00  0.00    -0.252 N 
ATOM     28  H11 UNL     1      -3.301   4.520   0.550  1.00  0.00     0.191 HD
BRANCH  27  29
HETATM   29  N12 UNL     1      -2.990   6.138  -0.759  1.00  0.00    -0.341 N 
ATOM     30 2H12 UNL     1      -2.651   6.399  -1.685  1.00  0.00     0.177 HD
ATOM     31 1H12 UNL     1      -3.348   6.837  -0.108  1.00  0.00     0.177 HD
ENDBRANCH  27  29
ENDBRANCH  24  25
ENDBRANCH  23  24
ENDBRANCH   9  23
BRANCH   4  32
HETATM   32  N6  UNL     1      -2.314  -3.351   0.714  1.00  0.00    -0.173 N 
HETATM   33  C8  UNL     1      -3.427  -4.243   0.669  1.00  0.00     0.494 C 
HETATM   34  N7  UNL     1      -4.329  -3.881   1.774  1.00  0.00    -0.032 N 
HETATM   35  N8  UNL     1      -2.971  -5.607   0.984  1.00  0.00    -0.032 N 
ATOM     36  H73 UNL     1      -3.863  -3.872   2.681  1.00  0.00     0.278 HD
ATOM     37  H72 UNL     1      -4.605  -2.899   1.757  1.00  0.00     0.278 HD
ATOM     38  H71 UNL     1      -5.125  -4.519   1.742  1.00  0.00     0.278 HD
ATOM     39  H83 UNL     1      -2.209  -5.909   0.378  1.00  0.00     0.278 HD
ATOM     40  H82 UNL     1      -2.475  -5.653   1.874  1.00  0.00     0.278 HD
ATOM     41  H81 UNL     1      -3.767  -6.245   0.952  1.00  0.00     0.278 HD
ATOM     42  H6  UNL     1      -1.505  -3.643   1.263  1.00  0.00     0.181 HD
ENDBRANCH   4  32
TORSDOF 11
