REMARK  14 active torsions:
REMARK  status: ('A' for Active; 'I' for Inactive)
REMARK    1  A    between atoms: C2_2  and  C3_3 
REMARK    2  A    between atoms: C3_3  and  N1_4 
REMARK       I    between atoms: N1_4  and  C4_6 
REMARK       I    between atoms: C4_6  and  N2_8 
REMARK    3  A    between atoms: N2_8  and  C5_10 
REMARK    4  A    between atoms: C5_10  and  C6_11 
REMARK    5  A    between atoms: C6_11  and  C7_13 
REMARK    6  A    between atoms: C7_13  and  N3_14 
REMARK    7  A    between atoms: C7_13  and  C8_18 
REMARK    8  A    between atoms: C8_18  and  O3_19 
REMARK    9  A    between atoms: C8_18  and  C9_21 
REMARK   10  A    between atoms: C9_21  and  O4_22 
REMARK   11  A    between atoms: C9_21  and  C10_24 
REMARK   12  A    between atoms: C10_24  and  N4_25 
REMARK   13  A    between atoms: N6_34  and  N7_35 
REMARK   14  A    between atoms: N7_35  and  N8_36 
ROOT
HETATM    1  C5  UNL     1      -0.557  -0.441  -0.245  1.00  0.00     0.308 C 
HETATM    2  O5  UNL     1      -0.551  -1.598  -1.163  1.00  0.00    -0.246 OA
HETATM    3  C11 UNL     1      -1.074  -2.640  -0.416  1.00  0.00     0.380 C 
HETATM    4  O6  UNL     1      -1.473  -3.752  -0.893  1.00  0.00    -0.237 OA
HETATM    5  N5  UNL     1      -1.082  -2.247   0.947  1.00  0.00    -0.243 N 
ATOM      6  H5  UNL     1      -1.578  -2.670   1.732  1.00  0.00     0.188 HD
HETATM    7  N6  UNL     1      -0.214  -1.103   0.941  1.00  0.00    -0.054 NA
ENDROOT
BRANCH   1   8
HETATM    8  N2  UNL     1      -1.826   0.149  -0.430  1.00  0.00    -0.288 N 
HETATM    9  C4  UNL     1      -3.133  -0.163  -0.140  1.00  0.00     0.320 C 
HETATM   10  N1  UNL     1      -4.163   0.801  -0.543  1.00  0.00    -0.340 N 
HETATM   11  O1  UNL     1      -3.546  -1.170   0.426  1.00  0.00    -0.247 OA
ATOM     12  H1  UNL     1      -3.896   1.660  -1.023  1.00  0.00     0.164 HD
ATOM     13  H2  UNL     1      -1.754   1.048  -0.907  1.00  0.00     0.169 HD
BRANCH  10  14
HETATM   14  C3  UNL     1      -5.541   0.538  -0.264  1.00  0.00     0.150 C 
BRANCH  14  15
HETATM   15  C2  UNL     1      -5.860   0.403   1.173  1.00  0.00    -0.018 C 
HETATM   16  C1  UNL     1      -6.736   1.240   1.740  1.00  0.00     0.008 C 
ENDBRANCH  14  15
ENDBRANCH  10  14
ENDBRANCH   1   8
BRANCH   1  17
HETATM   17  C6  UNL     1       0.473   0.486  -0.826  1.00  0.00     0.234 C 
HETATM   18  O2  UNL     1       0.135   0.830  -2.002  1.00  0.00    -0.288 OA
BRANCH  17  19
HETATM   19  C7  UNL     1       1.689   0.988  -0.238  1.00  0.00     0.290 C 
BRANCH  19  20
HETATM   20  N3  UNL     1       1.721   0.892   1.159  1.00  0.00    -0.065 N 
ATOM     21  H33 UNL     1       0.907   1.350   1.570  1.00  0.00     0.275 HD
ATOM     22  H32 UNL     1       1.546  -0.068   1.458  1.00  0.00     0.275 HD
ATOM     23  H31 UNL     1       2.582   1.247   1.575  1.00  0.00     0.275 HD
ENDBRANCH  19  20
BRANCH  19  24
HETATM   24  C8  UNL     1       2.917   0.537  -0.999  1.00  0.00     0.186 C 
BRANCH  24  25
HETATM   25  O3  UNL     1       2.565   0.712  -2.391  1.00  0.00    -0.390 OA
ATOM     26  H3  UNL     1       3.336   0.429  -2.869  1.00  0.00     0.210 HD
ENDBRANCH  24  25
BRANCH  24  27
HETATM   27  C9  UNL     1       4.107   1.427  -0.876  1.00  0.00     0.174 C 
BRANCH  27  28
HETATM   28  O4  UNL     1       5.031   0.946  -1.851  1.00  0.00    -0.391 OA
ATOM     29  H4  UNL     1       5.789   1.513  -1.773  1.00  0.00     0.210 HD
ENDBRANCH  27  28
BRANCH  27  30
HETATM   30  C10 UNL     1       4.851   1.419   0.406  1.00  0.00     0.263 C 
BRANCH  30  31
HETATM   31  N4  UNL     1       5.339   0.076   0.763  1.00  0.00    -0.077 N 
ATOM     32  H43 UNL     1       4.576  -0.601   0.776  1.00  0.00     0.274 HD
ATOM     33  H42 UNL     1       5.899  -0.324   0.010  1.00  0.00     0.274 HD
ATOM     34  H41 UNL     1       5.851   0.070   1.645  1.00  0.00     0.274 HD
ENDBRANCH  30  31
ENDBRANCH  27  30
ENDBRANCH  24  27
ENDBRANCH  19  24
ENDBRANCH  17  19
ENDBRANCH   1  17
BRANCH   7  35
HETATM   35  N7  UNL     1       1.044  -1.824   0.751  1.00  0.00    -0.030 NA
BRANCH  35  36
HETATM   36  N8  UNL     1       1.055  -2.748   1.803  1.00  0.00    -0.332 N 
ATOM     37  H82 UNL     1       0.345  -2.876   2.524  1.00  0.00     0.173 HD
ATOM     38  H81 UNL     1       1.932  -3.251   1.670  1.00  0.00     0.173 HD
ENDBRANCH  35  36
ENDBRANCH   7  35
TORSDOF 14
