REMARK  6 active torsions:
REMARK  status: ('A' for Active; 'I' for Inactive)
REMARK       I    between atoms: C1_2  and  N1_3 
REMARK    1  A    between atoms: C1_2  and  C14_21 
REMARK    2  A    between atoms: N1_3  and  C2_5 
REMARK    3  A    between atoms: C2_5  and  C3_6 
REMARK    4  A    between atoms: C6_9  and  C7_10 
REMARK    5  A    between atoms: C7_10  and  N2_11 
REMARK    6  A    between atoms: N2_11  and  C8_14 
ROOT
HETATM    1  C3  UNL     1       1.588  -0.297   1.085  1.00  0.00     0.003 C 
HETATM    2  C4  UNL     1       0.778  -0.908   2.238  1.00  0.00     0.007 C 
HETATM    3  C5  UNL     1      -0.611  -0.338   2.212  1.00  0.00     0.007 C 
HETATM    4  C6  UNL     1      -1.290  -0.442   0.869  1.00  0.00     0.011 C 
HETATM    5  C12 UNL     1      -0.439  -1.184  -0.112  1.00  0.00     0.007 C 
HETATM    6  C13 UNL     1       0.973  -0.711  -0.213  1.00  0.00     0.007 C 
ENDROOT
BRANCH   4   7
HETATM    7  C7  UNL     1      -2.646  -1.079   0.969  1.00  0.00     0.237 C 
BRANCH   7   8
HETATM    8  N2  UNL     1      -3.314  -1.187  -0.293  1.00  0.00    -0.068 N 
ATOM      9  H22 UNL     1      -2.763  -1.709  -0.974  1.00  0.00     0.277 HD
ATOM     10  H21 UNL     1      -4.121  -1.809  -0.247  1.00  0.00     0.277 HD
BRANCH   8  11
HETATM   11  C8  UNL     1      -3.669   0.131  -0.776  1.00  0.00     0.211 C 
HETATM   12  C9  UNL     1      -4.566   0.046  -1.989  1.00  0.00     0.061 C 
HETATM   13  C10 UNL     1      -5.445   1.239  -1.823  1.00  0.00     0.169 C 
HETATM   14  O2  UNL     1      -5.169   1.830  -0.602  1.00  0.00    -0.389 OA
HETATM   15  C11 UNL     1      -4.570   0.862   0.194  1.00  0.00     0.200 C 
ENDBRANCH   8  11
ENDBRANCH   7   8
ENDBRANCH   4   7
BRANCH   1  16
HETATM   16  C2  UNL     1       3.019  -0.705   1.213  1.00  0.00     0.127 C 
BRANCH  16  17
HETATM   17  N1  UNL     1       3.879  -0.197   0.181  1.00  0.00    -0.360 N 
HETATM   18  C1  UNL     1       4.061   1.195  -0.004  1.00  0.00     0.221 C 
HETATM   19  O1  UNL     1       3.476   2.006   0.734  1.00  0.00    -0.273 OA
ATOM     20  H1  UNL     1       4.368  -0.851  -0.430  1.00  0.00     0.162 HD
BRANCH  18  21
HETATM   21  C14 UNL     1       4.960   1.719  -1.091  1.00  0.00     0.078 A 
HETATM   22  C15 UNL     1       6.186   0.884  -1.351  1.00  0.00     0.015 A 
HETATM   23  C16 UNL     1       5.008   0.873  -2.325  1.00  0.00     0.015 A 
ENDBRANCH  18  21
ENDBRANCH  16  17
ENDBRANCH   1  16
TORSDOF 6
