REMARK  3 active torsions:
REMARK  status: ('A' for Active; 'I' for Inactive)
REMARK    1  A    between atoms: C1_1  and  C8_10 
REMARK    2  A    between atoms: C2_2  and  C3_3 
REMARK    3  A    between atoms: C8_10  and  N2_11 
ROOT
HETATM    1  N2  UNL     1      -0.642  -1.483   0.217  1.00  0.00     0.110 N 
HETATM    2  C9  UNL     1      -0.832  -0.383   1.101  1.00  0.00     0.315 C 
HETATM    3  C10 UNL     1      -1.969   0.473   0.756  1.00  0.00    -0.003 A 
HETATM    4  C11 UNL     1      -1.983   1.600   1.578  1.00  0.00     0.011 A 
HETATM    5  C12 UNL     1      -2.965   2.554   1.451  1.00  0.00     0.001 A 
HETATM    6  C13 UNL     1      -3.958   2.384   0.481  1.00  0.00     0.002 A 
HETATM    7  C14 UNL     1      -3.969   1.282  -0.344  1.00  0.00     0.031 A 
HETATM    8  C15 UNL     1      -2.986   0.348  -0.200  1.00  0.00     0.049 A 
HETATM    9  N3  UNL     1      -3.089  -0.751  -1.108  1.00  0.00    -0.293 N 
HETATM   10  C16 UNL     1      -3.763  -0.683  -2.261  1.00  0.00     0.206 A 
HETATM   11  N4  UNL     1      -3.634  -1.909  -2.828  1.00  0.00    -0.294 N 
ATOM     12  H4  UNL     1      -4.039  -2.179  -3.724  1.00  0.00     0.187 HD
HETATM   13  N5  UNL     1      -2.911  -2.705  -2.060  1.00  0.00    -0.286 N 
ATOM     14  H5  UNL     1      -2.667  -3.676  -2.255  1.00  0.00     0.188 HD
HETATM   15  C17 UNL     1      -2.565  -2.010  -0.996  1.00  0.00     0.132 A 
HETATM   16  C18 UNL     1      -1.730  -2.438   0.180  1.00  0.00     0.352 C 
ENDROOT
BRANCH   1  17
HETATM   17  C8  UNL     1       0.588  -2.184   0.491  1.00  0.00     0.367 C 
BRANCH  17  18
HETATM   18  C1  UNL     1       1.766  -1.382   0.172  1.00  0.00    -0.069 C 
HETATM   19  C2  UNL     1       2.726  -0.702  -0.087  1.00  0.00    -0.047 C 
BRANCH  19  20
HETATM   20  C3  UNL     1       3.870   0.128  -0.377  1.00  0.00     0.086 A 
HETATM   21  C4  UNL     1       4.745  -0.212  -1.382  1.00  0.00     0.039 A 
HETATM   22  C5  UNL     1       5.835   0.609  -1.634  1.00  0.00     0.004 A 
HETATM   23  C6  UNL     1       6.060   1.754  -0.903  1.00  0.00     0.017 A 
HETATM   24  C7  UNL     1       5.160   2.066   0.101  1.00  0.00     0.089 A 
HETATM   25  N1  UNL     1       4.110   1.257   0.329  1.00  0.00    -0.359 N 
ATOM     26  H1  UNL     1       3.460   1.508   1.074  1.00  0.00     0.166 HD
ENDBRANCH  19  20
ENDBRANCH  17  18
ENDBRANCH   1  17
TORSDOF 3
