REMARK  8 active torsions:
REMARK  status: ('A' for Active; 'I' for Inactive)
REMARK    1  A    between atoms: C2_2  and  C3_3 
REMARK    2  A    between atoms: C2_2  and  N1_6 
REMARK    3  A    between atoms: C3_3  and  O1_4 
REMARK    4  A    between atoms: C5_11  and  N3_12 
REMARK    5  A    between atoms: C6_13  and  C7_14 
REMARK    6  A    between atoms: C7_14  and  N4_15 
REMARK    7  A    between atoms: C16_29  and  N8_30 
REMARK    8  A    between atoms: N8_30  and  C17_32 
ROOT
HETATM    1  N1  UNL     1       1.875  -2.602   0.951  1.00  0.00    -0.219 N 
ATOM      2  H1  UNL     1       1.101  -3.263   1.020  1.00  0.00     0.178 HD
HETATM    3  C4  UNL     1       1.463  -1.474   0.582  1.00  0.00     0.707 A 
HETATM    4  N2  UNL     1       0.114  -1.318   0.348  1.00  0.00    -0.021 N 
ATOM      5  H2  UNL     1      -0.498  -2.122   0.488  1.00  0.00     0.203 HD
HETATM    6  C5  UNL     1      -0.442  -0.150  -0.059  1.00  0.00     0.719 A 
HETATM    7  N7  UNL     1       0.352   0.869  -0.231  1.00  0.00    -0.020 N 
ATOM      8  H7  UNL     1      -0.057   1.752  -0.536  1.00  0.00     0.203 HD
HETATM    9  C16 UNL     1       1.732   0.818  -0.021  1.00  0.00     0.712 A 
HETATM   10  N11 UNL     1       2.224  -0.383   0.383  1.00  0.00    -0.021 N 
ATOM     11  H11 UNL     1       3.228  -0.461   0.545  1.00  0.00     0.203 HD
ENDROOT
BRANCH   6  12
HETATM   12  N3  UNL     1      -1.825  -0.151  -0.345  1.00  0.00    -0.131 N 
HETATM   13  C6  UNL     1      -2.859  -0.110   0.494  1.00  0.00     0.089 A 
HETATM   14  C10 UNL     1      -4.033  -0.298  -0.201  1.00  0.00     0.082 A 
HETATM   15  N5  UNL     1      -5.379  -0.341   0.270  1.00  0.00    -0.100 NA
HETATM   16  C11 UNL     1      -3.624  -0.448  -1.527  1.00  0.00     0.013 A 
HETATM   17  C12 UNL     1      -2.269  -0.362  -1.609  1.00  0.00     0.133 A 
HETATM   18  C15 UNL     1      -4.409  -0.566  -2.762  1.00  0.00     0.046 C 
HETATM   19  N6  UNL     1      -1.662  -0.533  -2.884  1.00  0.00    -0.375 N 
HETATM   20  C13 UNL     1      -2.316  -1.203  -3.985  1.00  0.00     0.121 C 
ATOM     21  H6  UNL     1      -0.721  -0.166  -3.028  1.00  0.00     0.161 HD
HETATM   22  C14 UNL     1      -3.783  -1.452  -3.762  1.00  0.00     0.024 C 
BRANCH  13  23
HETATM   23  C7  UNL     1      -2.867   0.010   1.996  1.00  0.00     0.331 C 
BRANCH  23  24
HETATM   24  N4  UNL     1      -2.557   1.458   2.302  1.00  0.00     0.085 N 
HETATM   25  C8  UNL     1      -2.223   1.624   3.699  1.00  0.00     0.309 C 
HETATM   26  C9  UNL     1      -3.939   2.084   2.238  1.00  0.00     0.309 C 
ENDBRANCH  23  24
ENDBRANCH  13  23
ENDBRANCH   6  12
BRANCH   9  27
HETATM   27  N8  UNL     1       2.414   1.811  -0.202  1.00  0.00    -0.188 N 
ATOM     28  H8  UNL     1       1.717   2.496  -0.494  1.00  0.00     0.184 HD
BRANCH  27  29
HETATM   29  C17 UNL     1       3.536   2.523  -0.241  1.00  0.00     0.083 A 
HETATM   30  C18 UNL     1       4.746   2.309   0.445  1.00  0.00     0.138 A 
HETATM   31  N9  UNL     1       5.608   3.247   0.092  1.00  0.00    -0.308 N 
HETATM   32  N10 UNL     1       5.062   4.085  -0.788  1.00  0.00    -0.306 N 
ATOM     33  H9  UNL     1       6.562   3.319   0.446  1.00  0.00     0.186 HD
HETATM   34  C19 UNL     1       5.791   5.223  -1.365  1.00  0.00     0.177 C 
HETATM   35  C20 UNL     1       3.834   3.678  -1.005  1.00  0.00     0.141 A 
ENDBRANCH  27  29
ENDBRANCH   9  27
BRANCH   1  36
HETATM   36  C2  UNL     1       3.070  -3.212   1.292  1.00  0.00     0.118 C 
HETATM   37  C1  UNL     1       2.911  -4.200   2.466  1.00  0.00     0.035 C 
BRANCH  36  38
HETATM   38  C3  UNL     1       3.761  -4.033   0.206  1.00  0.00     0.189 C 
BRANCH  38  39
HETATM   39  O1  UNL     1       2.965  -5.120  -0.203  1.00  0.00    -0.399 OA
ATOM     40  H1  UNL     1       3.395  -5.631  -0.879  1.00  0.00     0.209 HD
ENDBRANCH  38  39
ENDBRANCH  36  38
ENDBRANCH   1  36
TORSDOF 8
