REMARK  6 active torsions:
REMARK  status: ('A' for Active; 'I' for Inactive)
REMARK    1  A    between atoms: C2_2  and  C3_3 
REMARK    2  A    between atoms: C3_3  and  S1_4 
REMARK    3  A    between atoms: S1_4  and  C4_7 
REMARK    4  A    between atoms: C8_12  and  C9_13 
REMARK    5  A    between atoms: C9_13  and  C11_16 
REMARK    6  A    between atoms: C17_25  and  O3_26 
ROOT
HETATM    1  C9  UNL     1      -2.884   0.802  -0.855  1.00  0.00     0.053 C 
HETATM    2  C10 UNL     1      -3.472   0.380  -2.195  1.00  0.00     0.100 C 
HETATM    3  N1  UNL     1      -3.923   0.064  -3.236  1.00  0.00    -0.191 NA
ENDROOT
BRANCH   1   4
HETATM    4  C8  UNL     1      -2.355  -0.285  -0.033  1.00  0.00     0.020 A 
HETATM    5  C7  UNL     1      -1.000  -0.579  -0.074  1.00  0.00     0.024 A 
HETATM    6  C6  UNL     1      -0.100   0.117  -0.818  1.00  0.00     0.026 A 
HETATM    7  C16 UNL     1      -0.501  -1.635   0.736  1.00  0.00     0.079 A 
HETATM    8  C5  UNL     1       1.281  -0.166  -0.806  1.00  0.00     0.046 A 
HETATM    9 BR1  UNL     1      -0.669   1.514  -1.977  1.00  0.00    -0.050 Br
HETATM   10  C4  UNL     1       1.766  -1.169  -0.033  1.00  0.00     0.096 A 
HETATM   11  C17 UNL     1       0.853  -1.902   0.740  1.00  0.00     0.115 A 
HETATM   12  N3  UNL     1      -1.281  -2.370   1.539  1.00  0.00    -0.361 N 
HETATM   13  C15 UNL     1      -2.567  -2.147   1.622  1.00  0.00     0.112 A 
ATOM     14  H3  UNL     1      -0.865  -3.117   2.096  1.00  0.00     0.165 HD
HETATM   15  C13 UNL     1      -3.069  -1.129   0.843  1.00  0.00     0.072 A 
HETATM   16  C14 UNL     1      -4.537  -1.045   0.751  1.00  0.00     0.102 C 
HETATM   17  N2  UNL     1      -5.704  -1.018   0.663  1.00  0.00    -0.191 NA
BRANCH  10  18
HETATM   18  S1  UNL     1       3.453  -1.513   0.132  1.00  0.00     0.178 S 
HETATM   19  O1  UNL     1       3.612  -3.000  -0.201  1.00  0.00    -0.223 OA
HETATM   20  O2  UNL     1       3.756  -1.454   1.615  1.00  0.00    -0.223 OA
BRANCH  18  21
HETATM   21  C3  UNL     1       4.562  -0.651  -0.850  1.00  0.00     0.145 C 
BRANCH  21  22
HETATM   22  C2  UNL     1       4.640   0.814  -0.837  1.00  0.00     0.011 C 
HETATM   23  C1  UNL     1       4.900   1.497   0.471  1.00  0.00     0.006 C 
ENDBRANCH  21  22
ENDBRANCH  18  21
ENDBRANCH  10  18
BRANCH  11  24
HETATM   24  O3  UNL     1       1.376  -2.912   1.526  1.00  0.00    -0.357 OA
ATOM     25  H3  UNL     1       0.758  -3.408   2.049  1.00  0.00     0.217 HD
ENDBRANCH  11  24
ENDBRANCH   1   4
BRANCH   1  26
HETATM   26  C11 UNL     1      -3.351   2.123  -0.358  1.00  0.00    -0.007 C 
HETATM   27  C12 UNL     1      -4.432   2.365   0.635  1.00  0.00     0.037 C 
ENDBRANCH   1  26
TORSDOF 6
