REMARK  9 active torsions:
REMARK  status: ('A' for Active; 'I' for Inactive)
REMARK    1  A    between atoms: C1_1  and  N1_2 
REMARK    2  A    between atoms: C1_1  and  N5_12 
REMARK    3  A    between atoms: N1_2  and  C2_4 
REMARK    4  A    between atoms: C2_4  and  C3_5 
REMARK    5  A    between atoms: C3_5  and  N2_6 
REMARK    6  A    between atoms: N5_12  and  C5_14 
REMARK    7  A    between atoms: C5_14  and  C6_15 
REMARK    8  A    between atoms: C6_15  and  C7_16 
REMARK    9  A    between atoms: C7_16  and  N6_17 
ROOT
HETATM    1  C1  UNL     1       0.193   0.153  -0.097  1.00  0.00     0.171 C 
ENDROOT
BRANCH   1   2
HETATM    2  N1  UNL     1       1.361   0.552  -0.473  1.00  0.00    -0.385 N 
ATOM      3  H1  UNL     1       1.464   1.310  -1.148  1.00  0.00     0.160 HD
BRANCH   2   4
HETATM    4  C2  UNL     1       2.513  -0.102   0.086  1.00  0.00     0.142 C 
BRANCH   4   5
HETATM    5  C3  UNL     1       3.703  -0.099  -0.839  1.00  0.00     0.171 C 
BRANCH   5   6
HETATM    6  N2  UNL     1       4.786  -0.783  -0.164  1.00  0.00    -0.271 N 
HETATM    7  C4  UNL     1       5.241  -2.067  -0.072  1.00  0.00     0.219 A 
HETATM    8  N3  UNL     1       6.232  -1.687   0.740  1.00  0.00    -0.280 N 
HETATM    9  N4  UNL     1       5.798  -0.449   0.655  1.00  0.00    -0.239 N 
ATOM     10  H3  UNL     1       6.999  -2.157   1.221  1.00  0.00     0.189 HD
ATOM     11  H4  UNL     1       6.112   0.434   1.059  1.00  0.00     0.208 HD
ENDBRANCH   5   6
ENDBRANCH   4   5
ENDBRANCH   2   4
ENDBRANCH   1   2
BRANCH   1  12
HETATM   12  N5  UNL     1      -0.987   0.764  -0.616  1.00  0.00    -0.386 N 
ATOM     13  H5  UNL     1      -0.960   1.214  -1.531  1.00  0.00     0.160 HD
BRANCH  12  14
HETATM   14  C5  UNL     1      -2.225   0.754   0.139  1.00  0.00     0.122 C 
BRANCH  14  15
HETATM   15  C6  UNL     1      -3.270   1.482  -0.694  1.00  0.00     0.041 C 
BRANCH  15  16
HETATM   16  C7  UNL     1      -4.614   1.542  -0.012  1.00  0.00     0.151 C 
BRANCH  16  17
HETATM   17  N6  UNL     1      -5.079   0.200   0.216  1.00  0.00    -0.285 N 
HETATM   18  C8  UNL     1      -6.059  -0.650  -0.060  1.00  0.00     0.216 A 
HETATM   19  N7  UNL     1      -4.984  -1.072   0.761  1.00  0.00    -0.292 N 
ATOM     20  H7  UNL     1      -4.505  -1.775   1.324  1.00  0.00     0.188 HD
ENDBRANCH  16  17
ENDBRANCH  15  16
ENDBRANCH  14  15
ENDBRANCH  12  14
ENDBRANCH   1  12
TORSDOF 9
