REMARK  7 active torsions:
REMARK  status: ('A' for Active; 'I' for Inactive)
REMARK    1  A    between atoms: N1_2  and  C2_3 
REMARK    2  A    between atoms: N1_2  and  C8_14 
REMARK    3  A    between atoms: C2_3  and  C3_4 
REMARK    4  A    between atoms: C3_4  and  N2_5 
REMARK    5  A    between atoms: N2_5  and  C5_8 
REMARK    6  A    between atoms: C5_8  and  C6_9 
REMARK    7  A    between atoms: C8_14  and  C9_15 
ROOT
HETATM    1  N2  UNL     1      -1.797  -0.827   1.049  1.00  0.00     0.033 N 
HETATM    2  C4  UNL     1      -2.110   0.166   2.030  1.00  0.00     0.362 C 
HETATM    3  O1  UNL     1      -1.291  -1.892   1.799  1.00  0.00    -0.061 OA
ENDROOT
BRANCH   1   4
HETATM    4  C3  UNL     1      -0.645  -0.436   0.232  1.00  0.00     0.347 C 
BRANCH   4   5
HETATM    5  C2  UNL     1       0.354   0.356   1.011  1.00  0.00     0.308 C 
BRANCH   5   6
HETATM    6  N1  UNL     1       1.468   0.714   0.157  1.00  0.00     0.086 N 
HETATM    7  C1  UNL     1       1.074   1.130  -1.154  1.00  0.00     0.310 C 
BRANCH   6   8
HETATM    8  C8  UNL     1       2.418  -0.384   0.108  1.00  0.00     0.276 C 
BRANCH   8   9
HETATM    9  C9  UNL     1       3.506  -0.125  -0.902  1.00  0.00     0.014 A 
HETATM   10  C10 UNL     1       4.384   1.059  -0.759  1.00  0.00     0.007 A 
HETATM   11  C11 UNL     1       4.943  -0.315  -0.377  1.00  0.00     0.007 A 
ENDBRANCH   8   9
ENDBRANCH   6   8
ENDBRANCH   5   6
ENDBRANCH   4   5
ENDBRANCH   1   4
BRANCH   1  12
HETATM   12  C5  UNL     1      -2.816  -1.357   0.255  1.00  0.00     0.281 C 
BRANCH  12  13
HETATM   13  C6  UNL     1      -4.059  -0.640  -0.037  1.00  0.00     0.266 A 
HETATM   14  C7  UNL     1      -3.873   0.703  -0.758  1.00  0.00     0.272 A 
HETATM   15  N3  UNL     1      -4.585   0.551   0.466  1.00  0.00    -0.062 N 
ATOM     16  H32 UNL     1      -5.533   0.813   0.736  1.00  0.00     0.278 HD
ATOM     17  H31 UNL     1      -4.482   1.009   1.372  1.00  0.00     0.278 HD
ENDBRANCH  12  13
ENDBRANCH   1  12
TORSDOF 7
