REMARK  3 active torsions:
REMARK  status: ('A' for Active; 'I' for Inactive)
REMARK    1  A    between atoms: C6_6  and  N1_7 
REMARK    2  A    between atoms: N1_7  and  C7_9 
REMARK    3  A    between atoms: N2_10  and  N3_12 
ROOT
HETATM    1  N1  UNL     1       1.760  -1.211   0.046  1.00  0.00    -0.380 N 
ATOM      2  H1  UNL     1       1.964  -1.637   0.950  1.00  0.00     0.160 HD
ENDROOT
BRANCH   1   3
HETATM    3  C6  UNL     1       0.367  -1.073  -0.402  1.00  0.00     0.083 C 
HETATM    4  C5  UNL     1      -0.571  -1.621   0.619  1.00  0.00     0.026 C 
HETATM    5  C4  UNL     1      -1.496  -0.502   0.953  1.00  0.00     0.011 C 
HETATM    6  C2  UNL     1      -1.422   0.508  -0.142  1.00  0.00    -0.046 C 
HETATM    7  C1  UNL     1      -2.328   0.227  -1.303  1.00  0.00     0.015 C 
HETATM    8  C3  UNL     1      -1.702   1.860   0.472  1.00  0.00     0.015 C 
HETATM    9  C8  UNL     1       0.012   0.386  -0.610  1.00  0.00     0.034 C 
ENDBRANCH   1   3
BRANCH   1  10
HETATM   10  C7  UNL     1       2.823  -0.752  -0.777  1.00  0.00     0.192 C 
HETATM   11  N2  UNL     1       3.645   0.169  -0.451  1.00  0.00    -0.303 N 
ATOM     12  H2  UNL     1       4.374   0.422  -1.118  1.00  0.00     0.187 HD
BRANCH  11  13
HETATM   13  N3  UNL     1       3.602   0.839   0.751  1.00  0.00    -0.344 N 
ATOM     14  H32 UNL     1       2.867   0.573   1.406  1.00  0.00     0.176 HD
ATOM     15  H31 UNL     1       4.259   1.575   1.011  1.00  0.00     0.176 HD
ENDBRANCH  11  13
ENDBRANCH   1  10
TORSDOF 3
