REMARK  3 active torsions:
REMARK  status: ('A' for Active; 'I' for Inactive)
REMARK       I    between atoms: C1_4  and  N3_6 
REMARK    1  A    between atoms: N3_6  and  C2_8 
REMARK    2  A    between atoms: C7_13  and  C8_14 
REMARK    3  A    between atoms: C8_14  and  N4_15 
ROOT
HETATM    1  C2  UNL     1       0.231  -0.414  -0.765  1.00  0.00     0.089 C 
HETATM    2  C3  UNL     1       0.475  -1.748  -0.073  1.00  0.00     0.026 C 
HETATM    3  C4  UNL     1      -0.814  -2.429   0.272  1.00  0.00     0.002 C 
HETATM    4  C5  UNL     1      -1.831  -1.555   0.907  1.00  0.00     0.001 C 
HETATM    5  C6  UNL     1      -1.903  -0.167   0.375  1.00  0.00     0.008 C 
HETATM    6  C7  UNL     1      -0.569   0.481   0.146  1.00  0.00     0.034 C 
ENDROOT
BRANCH   1   7
HETATM    7  N3  UNL     1       1.491   0.114  -1.151  1.00  0.00    -0.360 N 
HETATM    8  C1  UNL     1       2.566   0.432  -0.303  1.00  0.00     0.182 C 
HETATM    9  N1  UNL     1       3.701  -0.125  -0.512  1.00  0.00    -0.374 N 
HETATM   10  N2  UNL     1       2.492   1.341   0.788  1.00  0.00    -0.064 NA
ATOM     11  H12 UNL     1       4.481   0.106   0.103  1.00  0.00     0.158 HD
ATOM     12  H11 UNL     1       3.754  -0.777  -1.295  1.00  0.00     0.158 HD
ATOM     13  H3  UNL     1       1.631   0.280  -2.148  1.00  0.00     0.162 HD
ENDBRANCH   1   7
BRANCH   6  14
HETATM   14  C8  UNL     1      -0.832   1.784  -0.605  1.00  0.00     0.236 C 
BRANCH  14  15
HETATM   15  N4  UNL     1      -1.604   2.657   0.264  1.00  0.00    -0.079 N 
ATOM     16  H43 UNL     1      -2.460   2.218   0.604  1.00  0.00     0.274 HD
ATOM     17  H42 UNL     1      -1.158   2.807   1.169  1.00  0.00     0.274 HD
ATOM     18  H41 UNL     1      -1.780   3.528  -0.238  1.00  0.00     0.274 HD
ENDBRANCH  14  15
ENDBRANCH   6  14
TORSDOF 3
