REMARK  12 active torsions:
REMARK  status: ('A' for Active; 'I' for Inactive)
REMARK    1  A    between atoms: C2_2  and  C9_23 
REMARK    2  A    between atoms: N1_3  and  O1_5 
REMARK    3  A    between atoms: O1_5  and  C3_6 
REMARK    4  A    between atoms: C3_6  and  C4_8 
REMARK    5  A    between atoms: C4_8  and  O3_9 
REMARK    6  A    between atoms: C4_8  and  C5_11 
REMARK    7  A    between atoms: C8_17  and  N3_18 
REMARK    8  A    between atoms: C9_23  and  O6_25 
REMARK    9  A    between atoms: O6_25  and  N5_26 
REMARK   10  A    between atoms: C10_28  and  C11_29 
REMARK   11  A    between atoms: C10_28  and  N6_31 
REMARK   12  A    between atoms: N6_31  and  N7_33 
ROOT
HETATM    1  O1  UNL     1       0.693  -1.398   0.027  1.00  0.00    -0.197 OA
ENDROOT
BRANCH   1   2
HETATM    2  N1  UNL     1      -0.452  -0.866  -0.497  1.00  0.00    -0.256 N 
HETATM    3  C2  UNL     1      -1.350  -0.399   0.281  1.00  0.00     0.105 C 
HETATM    4  C1  UNL     1      -1.230  -0.395   1.763  1.00  0.00     0.077 C 
ATOM      5  H1  UNL     1      -0.589  -0.842  -1.508  1.00  0.00     0.195 HD
BRANCH   3   6
HETATM    6  C9  UNL     1      -2.577   0.169  -0.318  1.00  0.00     0.329 C 
HETATM    7  O5  UNL     1      -2.733   0.192  -1.562  1.00  0.00    -0.256 OA
BRANCH   6   8
HETATM    8  O6  UNL     1      -3.588   0.691   0.474  1.00  0.00    -0.192 OA
BRANCH   8   9
HETATM    9  N5  UNL     1      -4.702   1.204  -0.137  1.00  0.00    -0.237 N 
HETATM   10  C10 UNL     1      -5.790   0.547  -0.095  1.00  0.00     0.178 C 
ATOM     11  H5  UNL     1      -4.659   2.102  -0.619  1.00  0.00     0.197 HD
BRANCH  10  12
HETATM   12  C11 UNL     1      -5.854  -0.723   0.588  1.00  0.00     0.310 C 
HETATM   13  O7  UNL     1      -6.907  -1.399   0.651  1.00  0.00    -0.298 OA
ENDBRANCH  10  12
BRANCH  10  14
HETATM   14  N6  UNL     1      -6.946   1.061  -0.719  1.00  0.00    -0.288 N 
ATOM     15  H6  UNL     1      -7.204   0.698  -1.637  1.00  0.00     0.188 HD
BRANCH  14  16
HETATM   16  N7  UNL     1      -7.760   2.050  -0.137  1.00  0.00    -0.343 N 
ATOM     17  H72 UNL     1      -7.487   2.402   0.781  1.00  0.00     0.176 HD
ATOM     18  H71 UNL     1      -8.596   2.422  -0.588  1.00  0.00     0.176 HD
ENDBRANCH  14  16
ENDBRANCH  10  14
ENDBRANCH   8   9
ENDBRANCH   6   8
ENDBRANCH   3   6
ENDBRANCH   1   2
BRANCH   1  19
HETATM   19  C3  UNL     1       1.700  -0.576   0.493  1.00  0.00     0.315 C 
HETATM   20  O2  UNL     1       1.521   0.666   0.415  1.00  0.00    -0.260 OA
BRANCH  19  21
HETATM   21  C4  UNL     1       2.974  -1.090   1.076  1.00  0.00     0.270 C 
BRANCH  21  22
HETATM   22  O3  UNL     1       3.003  -2.480   1.085  1.00  0.00    -0.379 OA
ATOM     23  H3  UNL     1       3.814  -2.807   1.456  1.00  0.00     0.211 HD
ENDBRANCH  21  22
BRANCH  21  24
HETATM   24  C5  UNL     1       4.090  -0.553   0.255  1.00  0.00     0.070 A 
HETATM   25  C6  UNL     1       4.386  -1.088  -0.979  1.00  0.00     0.103 A 
HETATM   26  C7  UNL     1       5.430  -0.563  -1.714  1.00  0.00     0.261 A 
HETATM   27  O4  UNL     1       5.743  -1.020  -2.856  1.00  0.00    -0.268 OA
HETATM   28  N2  UNL     1       6.134   0.468  -1.193  1.00  0.00    -0.156 N 
HETATM   29  C8  UNL     1       5.857   1.000   0.008  1.00  0.00     0.679 A 
ATOM     30  H2  UNL     1       6.906   0.857  -1.734  1.00  0.00     0.187 HD
HETATM   31  N4  UNL     1       4.836   0.470   0.702  1.00  0.00    -0.192 N 
ATOM     32  H4  UNL     1       4.616   0.865   1.616  1.00  0.00     0.184 HD
BRANCH  29  33
HETATM   33  N3  UNL     1       6.523   1.982   0.512  1.00  0.00    -0.234 N 
ATOM     34  H32 UNL     1       7.298   2.384  -0.015  1.00  0.00     0.174 HD
ATOM     35  H31 UNL     1       6.313   2.386   1.425  1.00  0.00     0.174 HD
ENDBRANCH  29  33
ENDBRANCH  21  24
ENDBRANCH  19  21
ENDBRANCH   1  19
TORSDOF 12
