REMARK  1 active torsions:
REMARK  status: ('A' for Active; 'I' for Inactive)
REMARK       I    between atoms: C2_4  and  N2_5 
REMARK       I    between atoms: C2_4  and  N5_15 
REMARK    1  A    between atoms: N2_5  and  C3_7 
ROOT
HETATM    1  C1  UNL     1      -3.273  -0.378  -0.529  1.00  0.00     0.165 C 
HETATM    2  N1  UNL     1      -2.056  -0.700   0.171  1.00  0.00    -0.230 N 
ATOM      3  H1  UNL     1      -1.841  -1.685   0.325  1.00  0.00     0.177 HD
HETATM    4  C2  UNL     1      -1.227   0.168   0.612  1.00  0.00     0.688 C 
HETATM    5  N2  UNL     1      -0.059  -0.246   1.286  1.00  0.00    -0.175 N 
ATOM      6  H2  UNL     1      -0.069  -0.390   2.296  1.00  0.00     0.186 HD
HETATM    7  N5  UNL     1      -1.452   1.552   0.440  1.00  0.00    -0.126 N 
ATOM      8  H5  UNL     1      -1.522   1.918  -0.510  1.00  0.00     0.197 HD
HETATM    9  C7  UNL     1      -1.584   2.451   1.516  1.00  0.00     0.196 C 
HETATM   10  N6  UNL     1      -1.702   3.184   2.409  1.00  0.00    -0.171 NA
ENDROOT
BRANCH   5  11
HETATM   11  C3  UNL     1       1.020  -0.440   0.610  1.00  0.00     0.135 A 
HETATM   12  C4  UNL     1       2.195  -0.846   1.215  1.00  0.00     0.052 A 
HETATM   13  C5  UNL     1       3.314  -1.039   0.464  1.00  0.00     0.022 A 
HETATM   14  C6  UNL     1       3.293  -0.836  -0.895  1.00  0.00     0.107 A 
HETATM   15  N3  UNL     1       2.117  -0.440  -1.425  1.00  0.00    -0.310 N 
HETATM   16  N4  UNL     1       1.031  -0.249  -0.720  1.00  0.00    -0.285 N 
ATOM     17  H3  UNL     1       2.072  -0.281  -2.431  1.00  0.00     0.186 HD
ATOM     18  H4  UNL     1       0.176   0.051  -1.189  1.00  0.00     0.188 HD
ENDBRANCH   5  11
TORSDOF 1
