REMARK  1 active torsions:
REMARK  status: ('A' for Active; 'I' for Inactive)
REMARK    1  A    between atoms: N3_4  and  N4_6 
REMARK       I    between atoms: C2_8  and  N6_10 
ROOT
HETATM    1  N4  UNL     1       0.336   0.199   0.995  1.00  0.00    -0.272 N 
ATOM      2  H4  UNL     1      -0.551   0.696   1.074  1.00  0.00     0.189 HD
HETATM    3  C2  UNL     1       0.596  -0.158  -0.177  1.00  0.00     0.205 C 
HETATM    4  N5  UNL     1       1.759  -0.858  -0.554  1.00  0.00    -0.062 NA
HETATM    5  N6  UNL     1      -0.322   0.158  -1.249  1.00  0.00    -0.350 N 
HETATM    6  C3  UNL     1      -1.664  -0.379  -1.166  1.00  0.00     0.151 C 
HETATM    7  C4  UNL     1      -2.584   0.850  -1.216  1.00  0.00     0.187 C 
HETATM    8  O1  UNL     1      -2.308   1.661  -2.287  1.00  0.00    -0.388 OA
HETATM    9  C5  UNL     1      -1.017   2.108  -2.369  1.00  0.00     0.187 C 
HETATM   10  C6  UNL     1      -0.006   0.971  -2.382  1.00  0.00     0.151 C 
ENDROOT
BRANCH   1  11
HETATM   11  N3  UNL     1       0.955   0.073   2.139  1.00  0.00    -0.274 N 
HETATM   12  C1  UNL     1       1.274  -0.838   2.924  1.00  0.00     0.215 C 
HETATM   13  N1  UNL     1       1.984  -0.459   4.123  1.00  0.00    -0.065 NA
HETATM   14  N2  UNL     1       0.978  -2.187   2.703  1.00  0.00    -0.065 NA
ATOM     15  H3  UNL     1       1.265   0.980   2.488  1.00  0.00     0.189 HD
ENDBRANCH   1  11
TORSDOF 1
