REMARK  12 active torsions:
REMARK  status: ('A' for Active; 'I' for Inactive)
REMARK    1  A    between atoms: C4_4  and  C5_5 
REMARK    2  A    between atoms: C5_5  and  C6_6 
REMARK    3  A    between atoms: C6_6  and  C7_8 
REMARK    4  A    between atoms: C7_8  and  C8_9 
REMARK    5  A    between atoms: C8_9  and  O3_11 
REMARK    6  A    between atoms: O3_11  and  C9_12 
REMARK    7  A    between atoms: C9_12  and  O4_13 
REMARK    8  A    between atoms: C10_15  and  C11_16 
REMARK    9  A    between atoms: C12_17  and  C13_18 
REMARK   10  A    between atoms: C13_18  and  C14_19 
REMARK   11  A    between atoms: C14_19  and  C15_20 
REMARK   12  A    between atoms: C15_20  and  C16_21 
ROOT
HETATM    1  C9  UNL     1       0.761   0.907   0.060  1.00  0.00     0.186 C 
HETATM    2  C10 UNL     1      -0.189   1.775  -0.137  1.00  0.00     0.064 C 
ENDROOT
BRANCH   1   3
HETATM    3  O3  UNL     1       2.086   1.272  -0.104  1.00  0.00    -0.255 OA
BRANCH   3   4
HETATM    4  C8  UNL     1       2.692   1.118  -1.338  1.00  0.00     0.272 C 
HETATM    5  O2  UNL     1       2.024   0.645  -2.292  1.00  0.00    -0.264 OA
BRANCH   4   6
HETATM    6  C7  UNL     1       4.108   1.501  -1.542  1.00  0.00     0.190 C 
BRANCH   6   7
HETATM    7  C6  UNL     1       4.915   0.250  -1.352  1.00  0.00     0.139 C 
HETATM    8  O1  UNL     1       5.024  -0.556  -2.254  1.00  0.00    -0.297 OA
BRANCH   7   9
HETATM    9  C5  UNL     1       5.592  -0.026  -0.059  1.00  0.00     0.106 C 
BRANCH   9  10
HETATM   10  C4  UNL     1       7.044   0.270  -0.164  1.00  0.00    -0.017 C 
HETATM   11  C2  UNL     1       7.921  -0.691   0.059  1.00  0.00    -0.091 C 
HETATM   12  C1  UNL     1       7.455  -2.045   0.408  1.00  0.00     0.042 C 
HETATM   13  C3  UNL     1       9.372  -0.410  -0.043  1.00  0.00     0.042 C 
ENDBRANCH   9  10
ENDBRANCH   7   9
ENDBRANCH   6   7
ENDBRANCH   4   6
ENDBRANCH   3   4
ENDBRANCH   1   3
BRANCH   1  14
HETATM   14  O4  UNL     1       0.503  -0.406   0.438  1.00  0.00    -0.341 OA
ATOM     15  H4  UNL     1      -0.406  -0.657   0.551  1.00  0.00     0.220 HD
ENDBRANCH   1  14
BRANCH   2  16
HETATM   16  C11 UNL     1      -1.630   1.434   0.025  1.00  0.00     0.005 C 
HETATM   17  C12 UNL     1      -2.539   2.325  -0.179  1.00  0.00     0.000 C 
BRANCH  17  18
HETATM   18  C13 UNL     1      -3.974   2.374  -0.124  1.00  0.00    -0.000 C 
BRANCH  18  19
HETATM   19  C14 UNL     1      -4.847   1.304   0.222  1.00  0.00    -0.004 C 
BRANCH  19  20
HETATM   20  C15 UNL     1      -4.650   0.085   0.563  1.00  0.00    -0.022 C 
BRANCH  20  21
HETATM   21  C16 UNL     1      -5.785  -0.870   0.887  1.00  0.00     0.008 C 
HETATM   22  C17 UNL     1      -5.879  -1.998  -0.097  1.00  0.00     0.008 C 
HETATM   23  C18 UNL     1      -7.234  -2.591   0.246  1.00  0.00     0.001 C 
HETATM   24  C19 UNL     1      -8.044  -1.456   0.863  1.00  0.00     0.001 C 
HETATM   25  C20 UNL     1      -7.131  -0.226   0.756  1.00  0.00     0.008 C 
ENDBRANCH  20  21
ENDBRANCH  19  20
ENDBRANCH  18  19
ENDBRANCH  17  18
ENDBRANCH   2  16
TORSDOF 12
