REMARK  6 active torsions:
REMARK  status: ('A' for Active; 'I' for Inactive)
REMARK       I    between atoms: C1_2  and  N1_3 
REMARK    1  A    between atoms: C1_2  and  C12_18 
REMARK    2  A    between atoms: N1_3  and  C2_5 
REMARK    3  A    between atoms: C5_8  and  C6_9 
REMARK       I    between atoms: C6_9  and  N2_11 
REMARK    4  A    between atoms: C16_22  and  C17_23 
REMARK    5  A    between atoms: C17_23  and  O3_24 
REMARK    6  A    between atoms: N3_26  and  O4_28 
ROOT
HETATM    1  O1  UNL     1       2.064   0.009  -1.439  1.00  0.00    -0.273 OA
HETATM    2  C1  UNL     1       2.331  -0.380  -0.283  1.00  0.00     0.223 C 
HETATM    3  N1  UNL     1       1.285  -0.458   0.658  1.00  0.00    -0.356 N 
ATOM      4  H1  UNL     1       1.507  -0.776   1.601  1.00  0.00     0.162 HD
ENDROOT
BRANCH   3   5
HETATM    5  C2  UNL     1      -0.089  -0.111   0.358  1.00  0.00     0.085 C 
HETATM    6  C3  UNL     1      -0.672   0.896   1.290  1.00  0.00     0.026 C 
HETATM    7  C4  UNL     1      -2.168   0.769   1.032  1.00  0.00     0.016 C 
HETATM    8  C5  UNL     1      -2.400  -0.682   0.761  1.00  0.00     0.080 C 
HETATM    9  C11 UNL     1      -1.021  -1.306   0.600  1.00  0.00     0.039 C 
BRANCH   8  10
HETATM   10  C6  UNL     1      -3.246  -0.949  -0.416  1.00  0.00     0.224 C 
HETATM   11  O2  UNL     1      -2.704  -1.576  -1.390  1.00  0.00    -0.273 OA
HETATM   12  N2  UNL     1      -4.599  -0.564  -0.535  1.00  0.00    -0.350 N 
HETATM   13  C7  UNL     1      -5.346  -0.874  -1.753  1.00  0.00     0.136 C 
HETATM   14  C10 UNL     1      -5.273   0.132   0.528  1.00  0.00     0.136 C 
HETATM   15  C8  UNL     1      -6.789  -0.468  -1.673  1.00  0.00     0.093 C 
HETATM   16  S1  UNL     1      -6.845   1.322  -1.267  1.00  0.00    -0.166 SA
HETATM   17  C9  UNL     1      -5.571   1.554   0.036  1.00  0.00     0.093 C 
ENDBRANCH   8  10
ENDBRANCH   3   5
BRANCH   2  18
HETATM   18  C12 UNL     1       3.683  -0.742   0.081  1.00  0.00     0.089 C 
HETATM   19  C13 UNL     1       4.295  -0.001   1.230  1.00  0.00     0.015 C 
HETATM   20  C14 UNL     1       5.794  -0.094   0.976  1.00  0.00     0.002 C 
HETATM   21  C15 UNL     1       5.962  -1.052  -0.211  1.00  0.00     0.013 C 
HETATM   22  C16 UNL     1       4.709  -0.653  -1.022  1.00  0.00     0.075 C 
BRANCH  22  23
HETATM   23  C17 UNL     1       4.974   0.706  -1.502  1.00  0.00     0.140 C 
HETATM   24  N3  UNL     1       4.439   1.777  -1.031  1.00  0.00    -0.251 N 
ATOM     25  H3  UNL     1       3.777   1.676  -0.262  1.00  0.00     0.196 HD
BRANCH  23  26
HETATM   26  O3  UNL     1       5.875   0.849  -2.549  1.00  0.00    -0.348 OA
ATOM     27  H3  UNL     1       6.047   1.730  -2.860  1.00  0.00     0.219 HD
ENDBRANCH  23  26
BRANCH  24  28
HETATM   28  O4  UNL     1       4.690   3.026  -1.480  1.00  0.00    -0.288 OA
ATOM     29  H4  UNL     1       4.295   3.817  -1.132  1.00  0.00     0.244 HD
ENDBRANCH  24  28
ENDBRANCH  22  23
ENDBRANCH   2  18
TORSDOF 6
