REMARK  2 active torsions:
REMARK  status: ('A' for Active; 'I' for Inactive)
REMARK    1  A    between atoms: C2_2  and  C5_5 
REMARK    2  A    between atoms: C7_8  and  N1_9 
ROOT
HETATM    1  C5  UNL     1      -2.190  -0.322   0.383  1.00  0.00     0.025 A 
HETATM    2  C6  UNL     1      -2.216  -1.643   0.750  1.00  0.00     0.079 A 
HETATM    3  S1  UNL     1      -0.541  -2.030   0.724  1.00  0.00    -0.064 SA
HETATM    4  C7  UNL     1       0.063  -0.506   0.254  1.00  0.00     0.148 A 
HETATM    5  N4  UNL     1      -1.045   0.217   0.143  1.00  0.00    -0.339 N 
ATOM      6  H4  UNL     1      -0.990   1.198  -0.132  1.00  0.00     0.168 HD
ENDROOT
BRANCH   4   7
HETATM    7  N1  UNL     1       1.427  -0.110  -0.006  1.00  0.00    -0.335 N 
HETATM    8  C8  UNL     1       1.594   1.286  -0.366  1.00  0.00     0.134 C 
HETATM    9  C9  UNL     1       2.926   1.810   0.171  1.00  0.00     0.092 C 
HETATM   10  C10 UNL     1       4.007   0.826  -0.074  1.00  0.00     0.092 C 
HETATM   11  N2  UNL     1       5.319   1.375  -0.282  1.00  0.00    -0.088 NA
HETATM   12  N3  UNL     1       3.770  -0.409  -0.100  1.00  0.00    -0.356 N 
HETATM   13  C11 UNL     1       2.501  -1.053   0.091  1.00  0.00     0.101 C 
ATOM     14  H3  UNL     1       4.567  -1.020  -0.276  1.00  0.00     0.163 HD
HETATM   15  C12 UNL     1       2.569  -1.813   1.385  1.00  0.00     0.063 C 
HETATM   16  C13 UNL     1       2.407  -2.091  -1.044  1.00  0.00     0.063 C 
ENDBRANCH   4   7
BRANCH   1  17
HETATM   17  C2  UNL     1      -3.503   0.422   0.234  1.00  0.00    -0.008 C 
HETATM   18  C1  UNL     1      -4.205   0.560   1.561  1.00  0.00     0.021 C 
HETATM   19  C3  UNL     1      -3.324   1.774  -0.365  1.00  0.00     0.021 C 
HETATM   20  C4  UNL     1      -4.432  -0.425  -0.641  1.00  0.00     0.021 C 
ENDBRANCH   1  17
TORSDOF 2
