REMARK  12 active torsions:
REMARK  status: ('A' for Active; 'I' for Inactive)
REMARK    1  A    between atoms: C2_2  and  N1_3 
REMARK    2  A    between atoms: N1_3  and  C3_5 
REMARK    3  A    between atoms: C3_5  and  C5_7 
REMARK    4  A    between atoms: C8_10  and  C9_11 
REMARK    5  A    between atoms: C9_11  and  C10_12 
REMARK       I    between atoms: C10_12  and  N2_14 
REMARK    6  A    between atoms: N2_14  and  C11_16 
REMARK    7  A    between atoms: C12_21  and  C13_22 
REMARK    8  A    between atoms: C13_22  and  C14_23 
REMARK    9  A    between atoms: C14_23  and  C15_24 
REMARK   10  A    between atoms: C15_24  and  C16_25 
REMARK   11  A    between atoms: C16_25  and  C17_26 
REMARK       I    between atoms: N7_32  and  C19_34 
REMARK   12  A    between atoms: C19_34  and  C20_36 
REMARK       I    between atoms: C20_36  and  N8_38 
ROOT
HETATM    1  C11 UNL     1      -1.989  -0.725   1.578  1.00  0.00     0.167 A 
HETATM    2  N3  UNL     1      -1.297  -1.641   1.058  1.00  0.00    -0.279 N 
ATOM      3  H3  UNL     1      -1.691  -2.581   1.018  1.00  0.00     0.189 HD
HETATM    4  N4  UNL     1      -0.122  -1.453   0.576  1.00  0.00    -0.296 N 
ATOM      5  H4  UNL     1       0.391  -2.232   0.163  1.00  0.00     0.187 HD
HETATM    6  C12 UNL     1       0.416  -0.266   0.614  1.00  0.00     0.069 A 
HETATM    7  S2  UNL     1      -0.850   0.640   1.389  1.00  0.00    -0.038 SA
ENDROOT
BRANCH   6   8
HETATM    8  C13 UNL     1       1.654   0.380   0.072  1.00  0.00     0.066 C 
BRANCH   8   9
HETATM    9  C14 UNL     1       2.387  -0.384  -0.919  1.00  0.00     0.007 C 
BRANCH   9  10
HETATM   10  C15 UNL     1       3.047  -1.654  -0.451  1.00  0.00     0.007 C 
BRANCH  10  11
HETATM   11  C16 UNL     1       4.057  -1.334   0.649  1.00  0.00     0.066 C 
BRANCH  11  12
HETATM   12  C17 UNL     1       5.054  -0.324   0.148  1.00  0.00     0.069 A 
HETATM   13  N5  UNL     1       4.859   0.986   0.182  1.00  0.00    -0.296 N 
HETATM   14  N6  UNL     1       5.740   1.793  -0.218  1.00  0.00    -0.279 N 
ATOM     15  H5  UNL     1       3.976   1.349   0.540  1.00  0.00     0.187 HD
HETATM   16  C18 UNL     1       6.883   1.304  -0.683  1.00  0.00     0.168 A 
ATOM     17  H6  UNL     1       5.578   2.800  -0.185  1.00  0.00     0.189 HD
HETATM   18  N7  UNL     1       7.953   1.941  -1.153  1.00  0.00    -0.298 N 
HETATM   19  S1  UNL     1       6.612  -0.399  -0.500  1.00  0.00    -0.038 SA
HETATM   20  C19 UNL     1       9.015   1.056  -1.564  1.00  0.00     0.315 C 
ATOM     21  H7  UNL     1       8.016   2.957  -1.216  1.00  0.00     0.171 HD
HETATM   22  O2  UNL     1       9.816   0.373  -1.890  1.00  0.00    -0.262 OA
BRANCH  20  23
HETATM   23  C20 UNL     1      10.085   1.698  -0.303  1.00  0.00     0.311 C 
HETATM   24  O3  UNL     1       9.833   2.815  -0.041  1.00  0.00    -0.262 OA
HETATM   25  N8  UNL     1      10.990   0.770   0.083  1.00  0.00    -0.353 N 
HETATM   26  C21 UNL     1      12.303   1.128   0.661  1.00  0.00     0.152 C 
HETATM   27  C22 UNL     1      10.680  -0.686   0.174  1.00  0.00     0.152 C 
ENDBRANCH  20  23
ENDBRANCH  11  12
ENDBRANCH  10  11
ENDBRANCH   9  10
ENDBRANCH   8   9
ENDBRANCH   6   8
BRANCH   1  28
HETATM   28  N2  UNL     1      -3.200  -0.414   2.032  1.00  0.00    -0.306 N 
HETATM   29  C10 UNL     1      -4.153  -1.535   1.915  1.00  0.00     0.228 C 
HETATM   30  O1  UNL     1      -4.703  -1.942   2.909  1.00  0.00    -0.273 OA
ATOM     31  H2  UNL     1      -3.443   0.498   2.418  1.00  0.00     0.171 HD
BRANCH  29  32
HETATM   32  C9  UNL     1      -4.309  -2.022   0.556  1.00  0.00     0.149 C 
BRANCH  32  33
HETATM   33  C8  UNL     1      -5.591  -1.550  -0.050  1.00  0.00    -0.008 A 
HETATM   34  C7  UNL     1      -6.656  -2.243  -0.514  1.00  0.00     0.016 A 
HETATM   35  C6  UNL     1      -7.704  -1.540  -0.997  1.00  0.00     0.018 A 
HETATM   36  C5  UNL     1      -7.607  -0.165  -0.967  1.00  0.00     0.005 A 
HETATM   37  S3  UNL     1      -6.074   0.106  -0.284  1.00  0.00    -0.097 SA
BRANCH  36  38
HETATM   38  C3  UNL     1      -8.616   0.880  -1.394  1.00  0.00     0.116 C 
HETATM   39  C4  UNL     1      -8.046   2.191  -1.023  1.00  0.00     0.038 C 
BRANCH  38  40
HETATM   40  N1  UNL     1      -9.880   0.626  -0.823  1.00  0.00    -0.394 N 
ATOM     41  H1  UNL     1     -10.687   0.573  -1.445  1.00  0.00     0.159 HD
BRANCH  40  42
HETATM   42  C2  UNL     1     -10.089   0.443   0.543  1.00  0.00     0.052 C 
HETATM   43  C1  UNL     1      -9.876   1.575   1.475  1.00  0.00     0.054 C 
ENDBRANCH  40  42
ENDBRANCH  38  40
ENDBRANCH  36  38
ENDBRANCH  32  33
ENDBRANCH  29  32
ENDBRANCH   1  28
TORSDOF 12
