REMARK  15 active torsions:
REMARK  status: ('A' for Active; 'I' for Inactive)
REMARK    1  A    between atoms: C2_2  and  C3_3 
REMARK    2  A    between atoms: C3_3  and  C5_5 
REMARK    3  A    between atoms: C7_10  and  C8_11 
REMARK    4  A    between atoms: C11_14  and  O2_15 
REMARK    5  A    between atoms: C12_19  and  C13_20 
REMARK    6  A    between atoms: C13_20  and  C14_21 
REMARK    7  A    between atoms: C17_24  and  O3_25 
REMARK    8  A    between atoms: C18_29  and  C19_30 
REMARK    9  A    between atoms: C19_30  and  C20_31 
REMARK   10  A    between atoms: C24_38  and  C25_39 
REMARK   11  A    between atoms: C25_39  and  C26_40 
REMARK   12  A    between atoms: C29_43  and  O5_44 
REMARK   13  A    between atoms: C30_48  and  C31_49 
REMARK   14  A    between atoms: C31_49  and  C32_50 
REMARK   15  A    between atoms: C33_53  and  O7_54 
ROOT
HETATM    1  C5  UNL     1      -4.034  -0.139  -0.269  1.00  0.00     0.085 C 
HETATM    2  C6  UNL     1      -3.230  -1.135   0.364  1.00  0.00     0.265 C 
HETATM    3  O1  UNL     1      -3.088  -1.184   1.652  1.00  0.00    -0.266 OA
HETATM    4  N1  UNL     1      -2.507  -2.174  -0.280  1.00  0.00    -0.344 N 
ATOM      5  H1  UNL     1      -2.483  -3.066   0.215  1.00  0.00     0.163 HD
HETATM    6  C7  UNL     1      -1.807  -2.141  -1.530  1.00  0.00     0.162 C 
HETATM    7  C11 UNL     1      -0.385  -1.793  -1.488  1.00  0.00     0.135 C 
HETATM    8  N2  UNL     1       0.588  -1.886  -0.492  1.00  0.00    -0.361 N 
ATOM      9  H2  UNL     1       0.775  -0.992  -0.039  1.00  0.00     0.162 HD
HETATM   10  C12 UNL     1       1.380  -2.948   0.036  1.00  0.00     0.158 C 
HETATM   11  C17 UNL     1       2.781  -2.632   0.368  1.00  0.00     0.135 C 
HETATM   12  N3  UNL     1       3.532  -1.509   0.555  1.00  0.00    -0.359 N 
ATOM     13  H3  UNL     1       3.929  -1.514   1.495  1.00  0.00     0.162 HD
HETATM   14  C18 UNL     1       3.944  -0.330  -0.133  1.00  0.00     0.175 C 
HETATM   15  C23 UNL     1       3.345   0.069  -1.376  1.00  0.00     0.241 C 
HETATM   16  O4  UNL     1       3.374  -0.761  -2.361  1.00  0.00    -0.271 OA
HETATM   17  N4  UNL     1       2.733   1.338  -1.546  1.00  0.00    -0.347 N 
ATOM     18  H4  UNL     1       2.999   1.870  -2.375  1.00  0.00     0.163 HD
HETATM   19  C24 UNL     1       1.758   1.958  -0.649  1.00  0.00     0.159 C 
HETATM   20  C29 UNL     1       0.411   1.966  -1.263  1.00  0.00     0.135 C 
HETATM   21  N5  UNL     1      -0.831   1.776  -0.661  1.00  0.00    -0.360 N 
ATOM     22  H5  UNL     1      -1.462   1.215  -1.233  1.00  0.00     0.162 HD
HETATM   23  C30 UNL     1      -1.416   2.179   0.553  1.00  0.00     0.166 C 
HETATM   24  C33 UNL     1      -2.908   2.052   0.556  1.00  0.00     0.141 C 
HETATM   25  N7  UNL     1      -3.807   1.274  -0.145  1.00  0.00    -0.333 N 
HETATM   26  C34 UNL     1      -4.807   2.011  -0.986  1.00  0.00     0.158 C 
ENDROOT
BRANCH   1  27
HETATM   27  C3  UNL     1      -5.532  -0.511  -0.235  1.00  0.00     0.037 C 
HETATM   28  C4  UNL     1      -5.696  -1.859  -0.980  1.00  0.00     0.016 C 
BRANCH  27  29
HETATM   29  C2  UNL     1      -6.110  -0.719   1.104  1.00  0.00     0.006 C 
HETATM   30  C1  UNL     1      -6.109   0.444   2.055  1.00  0.00     0.006 C 
ENDBRANCH  27  29
ENDBRANCH   1  27
BRANCH  24  31
HETATM   31  O7  UNL     1      -3.453   2.865   1.415  1.00  0.00    -0.348 OA
ATOM     32  H7  UNL     1      -4.400   2.784   1.417  1.00  0.00     0.219 HD
ENDBRANCH  24  31
BRANCH   6  33
HETATM   33  C8  UNL     1      -2.128  -3.338  -2.405  1.00  0.00     0.008 C 
HETATM   34  C9  UNL     1      -1.785  -4.660  -1.798  1.00  0.00     0.012 C 
HETATM   35  C10 UNL     1      -1.527  -3.169  -3.794  1.00  0.00     0.012 C 
ENDBRANCH   6  33
BRANCH  23  36
HETATM   36  C31 UNL     1      -0.859   1.644   1.809  1.00  0.00     0.133 C 
BRANCH  36  37
HETATM   37  C32 UNL     1      -1.523   2.094   3.056  1.00  0.00     0.233 C 
HETATM   38  N6  UNL     1      -1.126   3.335   3.673  1.00  0.00    -0.062 NA
HETATM   39  O6  UNL     1      -2.435   1.471   3.651  1.00  0.00    -0.277 OA
ENDBRANCH  36  37
ENDBRANCH  23  36
BRANCH   7  40
HETATM   40  O2  UNL     1       0.033  -1.292  -2.625  1.00  0.00    -0.348 OA
ATOM     41  H2  UNL     1       0.955  -1.066  -2.598  1.00  0.00     0.219 HD
ENDBRANCH   7  40
BRANCH  20  42
HETATM   42  O5  UNL     1       0.486   2.181  -2.548  1.00  0.00    -0.348 OA
ATOM     43  H5  UNL     1      -0.378   2.186  -2.942  1.00  0.00     0.219 HD
ENDBRANCH  20  42
BRANCH  10  44
HETATM   44  C13 UNL     1       0.701  -3.665   1.184  1.00  0.00     0.037 C 
BRANCH  44  45
HETATM   45  C14 UNL     1       0.338  -2.881   2.373  1.00  0.00    -0.020 C 
HETATM   46  C15 UNL     1       1.482  -2.238   3.104  1.00  0.00     0.009 C 
HETATM   47  C16 UNL     1      -0.310  -3.864   3.371  1.00  0.00     0.009 C 
ENDBRANCH  44  45
ENDBRANCH  10  44
BRANCH  19  48
HETATM   48  C25 UNL     1       2.193   3.222  -0.030  1.00  0.00     0.037 C 
BRANCH  48  49
HETATM   49  C26 UNL     1       2.556   4.389  -0.846  1.00  0.00    -0.020 C 
HETATM   50  C27 UNL     1       1.496   4.979  -1.713  1.00  0.00     0.009 C 
HETATM   51  C28 UNL     1       3.133   5.465   0.101  1.00  0.00     0.009 C 
ENDBRANCH  48  49
ENDBRANCH  19  48
BRANCH  11  52
HETATM   52  O3  UNL     1       3.455  -3.760   0.517  1.00  0.00    -0.348 OA
ATOM     53  H3  UNL     1       4.358  -3.556   0.731  1.00  0.00     0.219 HD
ENDBRANCH  11  52
BRANCH  14  54
HETATM   54  C19 UNL     1       5.474  -0.425  -0.414  1.00  0.00     0.038 C 
BRANCH  54  55
HETATM   55  C20 UNL     1       6.010   0.758  -1.127  1.00  0.00    -0.020 C 
HETATM   56  C21 UNL     1       5.859   2.060  -0.406  1.00  0.00     0.009 C 
HETATM   57  C22 UNL     1       7.515   0.511  -1.313  1.00  0.00     0.009 C 
ENDBRANCH  54  55
ENDBRANCH  14  54
TORSDOF 15
