REMARK  13 active torsions:
REMARK  status: ('A' for Active; 'I' for Inactive)
REMARK    1  A    between atoms: O1_2  and  C2_3 
REMARK    2  A    between atoms: C2_3  and  C3_5 
REMARK    3  A    between atoms: C3_5  and  N1_6 
REMARK    4  A    between atoms: C3_5  and  C16_25 
REMARK       I    between atoms: N1_6  and  C4_8 
REMARK    5  A    between atoms: C4_8  and  C5_10 
REMARK    6  A    between atoms: C5_10  and  O4_11 
REMARK    7  A    between atoms: O4_11  and  C6_12 
REMARK    8  A    between atoms: C6_12  and  C7_14 
REMARK    9  A    between atoms: C7_14  and  C8_15 
REMARK   10  A    between atoms: C8_15  and  C9_16 
REMARK   11  A    between atoms: C9_16  and  O6_17 
REMARK   12  A    between atoms: O6_17  and  C10_18 
REMARK   13  A    between atoms: C19_28  and  N2_29 
ROOT
HETATM    1  N1  UNL     1      -2.381  -0.550   0.989  1.00  0.00    -0.341 N 
ATOM      2  H1  UNL     1      -2.434  -1.321   1.654  1.00  0.00     0.163 HD
HETATM    3  C4  UNL     1      -1.272  -0.468   0.107  1.00  0.00     0.242 C 
HETATM    4  O3  UNL     1      -1.181   0.490  -0.737  1.00  0.00    -0.271 OA
ENDROOT
BRANCH   3   5
HETATM    5  C5  UNL     1      -0.238  -1.504   0.189  1.00  0.00     0.281 C 
BRANCH   5   6
HETATM    6  O4  UNL     1       0.837  -1.356  -0.680  1.00  0.00    -0.312 OA
BRANCH   6   7
HETATM    7  C6  UNL     1       1.727  -0.304  -0.732  1.00  0.00     0.259 C 
HETATM    8  O5  UNL     1       1.549   0.633   0.106  1.00  0.00    -0.265 OA
BRANCH   7   9
HETATM    9  C7  UNL     1       2.858  -0.242  -1.718  1.00  0.00     0.113 C 
BRANCH   9  10
HETATM   10  C8  UNL     1       3.601   1.073  -1.475  1.00  0.00     0.036 C 
BRANCH  10  11
HETATM   11  C9  UNL     1       4.730   1.128  -2.465  1.00  0.00     0.176 C 
BRANCH  11  12
HETATM   12  O6  UNL     1       5.634   0.114  -2.376  1.00  0.00    -0.351 OA
BRANCH  12  13
HETATM   13  C10 UNL     1       6.489  -0.237  -1.404  1.00  0.00     0.068 A 
HETATM   14  C11 UNL     1       6.664   0.415  -0.225  1.00  0.00     0.038 A 
HETATM   15  C12 UNL     1       7.570  -0.010   0.742  1.00  0.00     0.022 A 
HETATM   16  C13 UNL     1       8.335  -1.123   0.538  1.00  0.00     0.011 A 
HETATM   17 BR1  UNL     1       9.573  -1.691   1.877  1.00  0.00    -0.051 Br
HETATM   18  C14 UNL     1       8.181  -1.801  -0.642  1.00  0.00     0.022 A 
HETATM   19  C15 UNL     1       7.290  -1.385  -1.596  1.00  0.00     0.038 A 
ENDBRANCH  12  13
ENDBRANCH  11  12
ENDBRANCH  10  11
ENDBRANCH   9  10
ENDBRANCH   7   9
ENDBRANCH   6   7
ENDBRANCH   5   6
ENDBRANCH   3   5
BRANCH   1  20
HETATM   20  C3  UNL     1      -3.462   0.460   0.964  1.00  0.00     0.217 C 
BRANCH  20  21
HETATM   21  C2  UNL     1      -3.613   1.106   2.269  1.00  0.00     0.286 C 
HETATM   22  O2  UNL     1      -2.927   0.731   3.286  1.00  0.00    -0.263 OA
BRANCH  21  23
HETATM   23  O1  UNL     1      -4.500   2.144   2.439  1.00  0.00    -0.325 OA
HETATM   24  C1  UNL     1      -4.655   2.775   3.675  1.00  0.00     0.213 C 
ENDBRANCH  21  23
ENDBRANCH  20  21
BRANCH  20  25
HETATM   25  C16 UNL     1      -4.677  -0.227   0.489  1.00  0.00    -0.026 A 
HETATM   26  C17 UNL     1      -4.570  -0.986  -0.679  1.00  0.00     0.012 A 
HETATM   27  C18 UNL     1      -5.627  -1.677  -1.215  1.00  0.00     0.037 A 
HETATM   28  C19 UNL     1      -6.844  -1.617  -0.571  1.00  0.00     0.102 A 
HETATM   29  C20 UNL     1      -7.001  -0.882   0.585  1.00  0.00     0.037 A 
HETATM   30  C21 UNL     1      -5.897  -0.192   1.099  1.00  0.00     0.012 A 
BRANCH  28  31
HETATM   31  N2  UNL     1      -7.960  -2.312  -1.090  1.00  0.00    -0.116 N 
HETATM   32  O7  UNL     1      -9.052  -2.246  -0.498  1.00  0.00    -0.532 OA
HETATM   33  O8  UNL     1      -7.808  -3.046  -2.243  1.00  0.00    -0.532 OA
ENDBRANCH  28  31
ENDBRANCH  20  25
ENDBRANCH   1  20
TORSDOF 13
