REMARK  12 active torsions:
REMARK  status: ('A' for Active; 'I' for Inactive)
REMARK    1  A    between atoms: N1_2  and  C3_4 
REMARK    2  A    between atoms: C3_4  and  C4_5 
REMARK    3  A    between atoms: C6_7  and  N2_8 
REMARK    4  A    between atoms: N2_8  and  N3_9 
REMARK    5  A    between atoms: N3_9  and  C7_11 
REMARK    6  A    between atoms: N5_14  and  N6_15 
REMARK    7  A    between atoms: C9_18  and  N7_19 
REMARK    8  A    between atoms: N7_19  and  C10_21 
REMARK    9  A    between atoms: C10_21  and  C11_22 
REMARK   10  A    between atoms: C12_24  and  N8_25 
REMARK   11  A    between atoms: C15_37  and  O4_38 
REMARK   12  A    between atoms: C18_47  and  C19_48 
ROOT
HETATM    1  C7  UNL     1      -0.474  -1.628   1.031  1.00  0.00     0.172 A 
HETATM    2  C8  UNL     1       0.429  -1.125   1.978  1.00  0.00     0.190 A 
HETATM    3  N4  UNL     1       0.069  -1.195   3.342  1.00  0.00    -0.077 NA
HETATM    4  N5  UNL     1       1.587  -0.612   1.566  1.00  0.00    -0.076 N 
HETATM    5  C9  UNL     1       1.843  -0.646   0.187  1.00  0.00     0.703 A 
HETATM    6  N12 UNL     1       0.968  -1.145  -0.680  1.00  0.00    -0.152 N 
ATOM      7  H12 UNL     1       1.199  -1.146  -1.673  1.00  0.00     0.187 HD
HETATM    8  C16 UNL     1      -0.217  -1.650  -0.282  1.00  0.00     0.292 A 
HETATM    9  O5  UNL     1      -0.997  -2.134  -1.172  1.00  0.00    -0.265 OA
ENDROOT
BRANCH   5  10
HETATM   10  N7  UNL     1       2.991  -0.345  -0.150  1.00  0.00    -0.222 N 
ATOM     11  H7  UNL     1       3.419  -0.132   0.751  1.00  0.00     0.177 HD
BRANCH  10  12
HETATM   12  C10 UNL     1       4.041  -0.124  -1.011  1.00  0.00     0.175 C 
BRANCH  12  13
HETATM   13  C11 UNL     1       4.924  -1.377  -0.923  1.00  0.00     0.200 C 
HETATM   14  O1  UNL     1       6.010  -1.521  -1.623  1.00  0.00    -0.331 OA
HETATM   15  C12 UNL     1       7.092  -1.646  -0.668  1.00  0.00     0.401 C 
HETATM   16  O3  UNL     1       6.556  -2.035   0.503  1.00  0.00    -0.309 OA
HETATM   17  C15 UNL     1       5.321  -1.443   0.557  1.00  0.00     0.292 C 
BRANCH  15  18
HETATM   18  N8  UNL     1       7.736  -0.376  -0.641  1.00  0.00    -0.173 N 
HETATM   19  N9  UNL     1       8.282   0.346   0.349  1.00  0.00    -0.122 N 
HETATM   20  C13 UNL     1       8.753   1.477  -0.101  1.00  0.00     0.695 A 
ATOM     21  H9  UNL     1       8.324   0.050   1.324  1.00  0.00     0.206 HD
HETATM   22  N10 UNL     1       9.326   2.453   0.577  1.00  0.00    -0.233 N 
HETATM   23  N11 UNL     1       8.525   1.546  -1.450  1.00  0.00    -0.139 N 
ATOM     24 2H10 UNL     1       9.496   2.402   1.581  1.00  0.00     0.174 HD
ATOM     25 1H10 UNL     1       9.694   3.337   0.225  1.00  0.00     0.174 HD
HETATM   26  C14 UNL     1       7.919   0.423  -1.764  1.00  0.00     0.360 A 
ATOM     27  H11 UNL     1       8.774   2.309  -2.079  1.00  0.00     0.189 HD
HETATM   28  O2  UNL     1       7.512  -0.045  -2.837  1.00  0.00    -0.244 OA
ENDBRANCH  15  18
BRANCH  17  29
HETATM   29  O4  UNL     1       5.500  -0.144   1.018  1.00  0.00    -0.368 OA
ATOM     30  H4  UNL     1       5.746  -0.185   1.935  1.00  0.00     0.212 HD
ENDBRANCH  17  29
ENDBRANCH  12  13
ENDBRANCH  10  12
ENDBRANCH   5  10
BRANCH   4  31
HETATM   31  N6  UNL     1       2.446  -0.021   2.539  1.00  0.00    -0.323 N 
ATOM     32  H62 UNL     1       2.260   0.004   3.542  1.00  0.00     0.178 HD
ATOM     33  H61 UNL     1       3.333   0.372   2.223  1.00  0.00     0.178 HD
ENDBRANCH   4  31
BRANCH   1  34
HETATM   34  N3  UNL     1      -1.859  -1.978   1.520  1.00  0.00    -0.226 N 
ATOM     35  H3  UNL     1      -2.141  -2.807   2.043  1.00  0.00     0.202 HD
BRANCH  34  36
HETATM   36  N2  UNL     1      -2.550  -1.079   1.165  1.00  0.00    -0.319 NA
BRANCH  36  37
HETATM   37  C6  UNL     1      -3.460  -0.136   0.828  1.00  0.00     0.207 A 
HETATM   38  C5  UNL     1      -4.783  -0.438   0.460  1.00  0.00     0.069 A 
HETATM   39  C4  UNL     1      -5.510   0.492  -0.239  1.00  0.00     0.024 A 
HETATM   40  C18 UNL     1      -4.916   1.656  -0.502  1.00  0.00     0.167 A 
HETATM   41  O7  UNL     1      -3.677   1.967  -0.163  1.00  0.00    -0.265 OA
HETATM   42  C17 UNL     1      -2.961   1.055   0.501  1.00  0.00     0.331 A 
HETATM   43  O6  UNL     1      -1.826   1.405   0.768  1.00  0.00    -0.256 OA
BRANCH  39  44
HETATM   44  C3  UNL     1      -6.784   0.080  -0.902  1.00  0.00     0.099 C 
BRANCH  44  45
HETATM   45  N1  UNL     1      -7.945  -0.008  -0.152  1.00  0.00    -0.398 N 
HETATM   46  C1  UNL     1      -8.084  -0.152   1.223  1.00  0.00     0.148 C 
HETATM   47  C2  UNL     1      -8.945  -0.829  -0.849  1.00  0.00     0.148 C 
ENDBRANCH  44  45
ENDBRANCH  39  44
BRANCH  40  48
HETATM   48  C19 UNL     1      -5.691   2.698  -1.277  1.00  0.00     0.235 C 
HETATM   49  O8  UNL     1      -6.982   2.835  -0.830  1.00  0.00    -0.642 OA
HETATM   50  O9  UNL     1      -4.998   3.825  -1.594  1.00  0.00    -0.642 OA
ENDBRANCH  40  48
ENDBRANCH  36  37
ENDBRANCH  34  36
ENDBRANCH   1  34
TORSDOF 12
