REMARK  1 active torsions:
REMARK  status: ('A' for Active; 'I' for Inactive)
REMARK    1  A    between atoms: C1_2  and  N1_3 
ROOT
HETATM    1  N1  UNL     1      -1.846   0.626   0.294  1.00  0.00    -0.165 N 
ATOM      2  H1  UNL     1      -2.070   1.548   0.669  1.00  0.00     0.186 HD
HETATM    3  C2  UNL     1      -0.612   0.359   0.118  1.00  0.00     0.713 A 
HETATM    4  N2  UNL     1       0.356   1.356   0.453  1.00  0.00    -0.127 N 
ATOM      5  H2  UNL     1       0.038   2.252   0.823  1.00  0.00     0.206 HD
HETATM    6  N3  UNL     1       1.731   1.137   0.287  1.00  0.00    -0.236 N 
ATOM      7  H3  UNL     1       2.397   1.869   0.535  1.00  0.00     0.192 HD
HETATM    8  C3  UNL     1       2.200  -0.105  -0.227  1.00  0.00     0.354 A 
HETATM    9  O2  UNL     1       3.444  -0.326  -0.386  1.00  0.00    -0.244 OA
HETATM   10  N4  UNL     1       1.254  -1.123  -0.572  1.00  0.00    -0.236 N 
ATOM     11  H4  UNL     1       1.570  -2.019  -0.942  1.00  0.00     0.192 HD
HETATM   12  N5  UNL     1      -0.112  -0.869  -0.393  1.00  0.00    -0.127 N 
ATOM     13  H5  UNL     1      -0.779  -1.600  -0.641  1.00  0.00     0.206 HD
ENDROOT
BRANCH   1  14
HETATM   14  C1  UNL     1      -2.921  -0.226   0.021  1.00  0.00     0.368 C 
HETATM   15  O1  UNL     1      -2.990  -1.401   0.477  1.00  0.00    -0.283 OA
ENDBRANCH   1  14
TORSDOF 1
