REMARK  6 active torsions:
REMARK  status: ('A' for Active; 'I' for Inactive)
REMARK    1  A    between atoms: C2_2  and  C4_4 
REMARK    2  A    between atoms: C4_4  and  C5_5 
REMARK    3  A    between atoms: C5_5  and  C6_6 
REMARK    4  A    between atoms: C6_6  and  O1_7 
REMARK    5  A    between atoms: C12_14  and  O2_16 
REMARK    6  A    between atoms: C17_24  and  O5_26 
ROOT
HETATM    1  C6  UNL     1       0.822   0.691  -0.121  1.00  0.00     0.089 C 
HETATM    2  C7  UNL     1       0.051  -0.036   0.918  1.00  0.00     0.056 C 
HETATM    3  C8  UNL     1      -1.414   0.208   0.900  1.00  0.00     0.019 C 
HETATM    4  C9  UNL     1      -1.721   1.574   1.501  1.00  0.00     0.021 C 
HETATM    5  C10 UNL     1      -2.038   0.120  -0.473  1.00  0.00     0.016 C 
HETATM    6  C11 UNL     1      -1.326   1.087  -1.376  1.00  0.00     0.046 C 
HETATM    7  C12 UNL     1       0.147   0.878  -1.430  1.00  0.00     0.085 C 
HETATM    8  C13 UNL     1       0.756   2.118  -2.100  1.00  0.00     0.049 C 
HETATM    9  C14 UNL     1      -3.473   0.477  -0.335  1.00  0.00     0.113 C 
HETATM   10  C15 UNL     1      -4.465  -0.369  -1.074  1.00  0.00     0.187 C 
HETATM   11  O3  UNL     1      -4.788  -0.985   0.133  1.00  0.00    -0.328 OA
HETATM   12  C16 UNL     1      -4.156   0.008   0.877  1.00  0.00     0.328 C 
HETATM   13  F1  UNL     1      -5.139   0.933   1.271  1.00  0.00    -0.180 F 
HETATM   14  O4  UNL     1      -3.422  -0.370   1.937  1.00  0.00    -0.292 OA
HETATM   15  C17 UNL     1      -2.155  -0.815   1.738  1.00  0.00     0.172 C 
HETATM   16  C18 UNL     1      -2.049  -2.198   1.188  1.00  0.00     0.080 C 
ENDROOT
BRANCH   1  17
HETATM   17  C5  UNL     1       2.137  -0.060  -0.341  1.00  0.00     0.041 C 
BRANCH  17  18
HETATM   18  C4  UNL     1       2.834  -0.132   0.974  1.00  0.00     0.007 C 
BRANCH  18  19
HETATM   19  C2  UNL     1       4.161  -0.852   0.907  1.00  0.00    -0.023 C 
HETATM   20  C1  UNL     1       4.030  -2.266   0.442  1.00  0.00     0.009 C 
HETATM   21  C3  UNL     1       5.077  -0.050   0.012  1.00  0.00     0.009 C 
ENDBRANCH  18  19
ENDBRANCH  17  18
ENDBRANCH   1  17
BRANCH   1  22
HETATM   22  O1  UNL     1       1.197   1.959   0.358  1.00  0.00    -0.387 OA
ATOM     23  H1  UNL     1       0.381   2.425   0.495  1.00  0.00     0.210 HD
ENDBRANCH   1  22
BRANCH   7  24
HETATM   24  O2  UNL     1       0.413  -0.185  -2.291  1.00  0.00    -0.387 OA
ATOM     25  H2  UNL     1      -0.019  -0.065  -3.129  1.00  0.00     0.210 HD
ENDBRANCH   7  24
BRANCH  15  26
HETATM   26  O5  UNL     1      -1.504  -0.811   2.996  1.00  0.00    -0.365 OA
ATOM     27  H5  UNL     1      -1.968  -1.452   3.521  1.00  0.00     0.213 HD
ENDBRANCH  15  26
TORSDOF 6
