REMARK  9 active torsions:
REMARK  status: ('A' for Active; 'I' for Inactive)
REMARK       I    between atoms: C1_2  and  N1_3 
REMARK    1  A    between atoms: C1_2  and  C9_17 
REMARK    2  A    between atoms: N1_3  and  N2_5 
REMARK    3  A    between atoms: C2_7  and  C3_8 
REMARK    4  A    between atoms: C8_13  and  N3_14 
REMARK       I    between atoms: C9_17  and  N4_19 
REMARK    5  A    between atoms: N4_19  and  N5_21 
REMARK    6  A    between atoms: C10_23  and  C11_24 
REMARK    7  A    between atoms: C12_25  and  O5_26 
REMARK    8  A    between atoms: N7_32  and  C14_33 
REMARK    9  A    between atoms: C14_33  and  O7_34 
ROOT
HETATM    1  C9  UNL     1      -0.548  -1.112  -0.779  1.00  0.00     0.329 C 
HETATM    2  O4  UNL     1      -0.840  -1.355   0.413  1.00  0.00    -0.261 OA
HETATM    3  N4  UNL     1      -1.503  -0.468  -1.599  1.00  0.00    -0.262 N 
ATOM      4  H4  UNL     1      -1.269  -0.268  -2.571  1.00  0.00     0.190 HD
ENDROOT
BRANCH   1   5
HETATM    5  C1  UNL     1       0.733  -1.477  -1.316  1.00  0.00     0.329 C 
HETATM    6  O1  UNL     1       1.007  -1.229  -2.509  1.00  0.00    -0.261 OA
HETATM    7  N1  UNL     1       1.691  -2.118  -0.501  1.00  0.00    -0.262 N 
ATOM      8  H1  UNL     1       1.464  -2.319   0.473  1.00  0.00     0.190 HD
BRANCH   7   9
HETATM    9  N2  UNL     1       2.891  -2.468  -0.980  1.00  0.00    -0.308 N 
HETATM   10  C2  UNL     1       4.047  -2.042  -0.855  1.00  0.00     0.121 C 
ATOM     11  H2  UNL     1       2.841  -3.280  -1.595  1.00  0.00     0.186 HD
BRANCH  10  12
HETATM   12  C3  UNL     1       4.589  -0.927  -0.095  1.00  0.00     0.014 A 
HETATM   13  C4  UNL     1       3.767  -0.180   0.744  1.00  0.00     0.015 A 
HETATM   14  C5  UNL     1       4.251   0.862   1.534  1.00  0.00     0.001 A 
HETATM   15  C6  UNL     1       5.592   1.134   1.458  1.00  0.00     0.002 A 
HETATM   16  C7  UNL     1       6.398   0.407   0.638  1.00  0.00     0.037 A 
HETATM   17  C8  UNL     1       5.939  -0.649  -0.171  1.00  0.00     0.114 A 
BRANCH  17  18
HETATM   18  N3  UNL     1       6.890  -1.319  -0.981  1.00  0.00    -0.115 N 
HETATM   19  O2  UNL     1       8.076  -1.354  -0.506  1.00  0.00    -0.532 OA
HETATM   20  O3  UNL     1       6.735  -1.927  -2.173  1.00  0.00    -0.532 OA
ENDBRANCH  17  18
ENDBRANCH  10  12
ENDBRANCH   7   9
ENDBRANCH   1   5
BRANCH   3  21
HETATM   21  N5  UNL     1      -2.753  -0.101  -1.114  1.00  0.00    -0.307 N 
HETATM   22  C10 UNL     1      -2.935   0.967  -0.429  1.00  0.00     0.141 C 
ATOM     23  H5  UNL     1      -3.553  -0.702  -1.310  1.00  0.00     0.186 HD
BRANCH  22  24
HETATM   24  C11 UNL     1      -4.260   1.312   0.059  1.00  0.00     0.108 A 
HETATM   25  C12 UNL     1      -4.561   2.449   0.821  1.00  0.00     0.173 A 
HETATM   26  N6  UNL     1      -5.863   2.469   1.108  1.00  0.00    -0.287 N 
HETATM   27  C13 UNL     1      -6.377   1.369   0.540  1.00  0.00     0.331 A 
ATOM     28  H6  UNL     1      -6.364   3.175   1.648  1.00  0.00     0.172 HD
HETATM   29  O6  UNL     1      -7.593   1.026   0.586  1.00  0.00    -0.246 OA
HETATM   30  N7  UNL     1      -5.424   0.662  -0.095  1.00  0.00    -0.272 N 
BRANCH  25  31
HETATM   31  O5  UNL     1      -3.637   3.414   1.218  1.00  0.00    -0.344 OA
ATOM     32  H5  UNL     1      -3.841   4.185   1.735  1.00  0.00     0.219 HD
ENDBRANCH  25  31
BRANCH  30  33
HETATM   33  C14 UNL     1      -5.676  -0.571  -0.813  1.00  0.00     0.300 C 
BRANCH  33  34
HETATM   34  O7  UNL     1      -5.502  -1.678   0.011  1.00  0.00    -0.382 OA
ATOM     35  H7  UNL     1      -5.667  -2.486  -0.460  1.00  0.00     0.211 HD
ENDBRANCH  33  34
ENDBRANCH  30  33
ENDBRANCH  22  24
ENDBRANCH   3  21
TORSDOF 9
