REMARK  8 active torsions:
REMARK  status: ('A' for Active; 'I' for Inactive)
REMARK    1  A    between atoms: N1_1  and  N2_4 
REMARK       I    between atoms: N2_4  and  C1_6 
REMARK       I    between atoms: C1_6  and  N3_8 
REMARK    2  A    between atoms: N3_8  and  C2_10 
REMARK    3  A    between atoms: C5_13  and  C6_14 
REMARK       I    between atoms: C6_14  and  N4_16 
REMARK    4  A    between atoms: N4_16  and  C7_18 
REMARK    5  A    between atoms: C9_20  and  C10_21 
REMARK       I    between atoms: C10_21  and  N5_23 
REMARK    6  A    between atoms: N5_23  and  C11_25 
REMARK    7  A    between atoms: C20_37  and  S1_38 
REMARK    8  A    between atoms: S1_38  and  C21_39 
ROOT
HETATM    1  C2  UNL     1      -4.056   0.822  -1.390  1.00  0.00     0.053 A 
HETATM    2  C3  UNL     1      -3.232   0.699  -2.487  1.00  0.00     0.032 A 
HETATM    3  C4  UNL     1      -1.855   0.646  -2.326  1.00  0.00     0.019 A 
HETATM    4  C5  UNL     1      -1.270   0.711  -1.092  1.00  0.00     0.033 A 
HETATM    5  C19 UNL     1      -2.125   0.833  -0.014  1.00  0.00     0.038 A 
HETATM    6  C20 UNL     1      -3.488   0.892  -0.103  1.00  0.00     0.033 A 
ENDROOT
BRANCH   4   7
HETATM    7  C6  UNL     1       0.198   0.664  -0.887  1.00  0.00     0.256 C 
HETATM    8  O2  UNL     1       0.561   0.403   0.268  1.00  0.00    -0.267 OA
HETATM    9  N4  UNL     1       1.108   0.898  -1.919  1.00  0.00    -0.318 N 
ATOM     10  H4  UNL     1       0.682   1.105  -2.823  1.00  0.00     0.169 HD
BRANCH   9  11
HETATM   11  C7  UNL     1       2.496   0.896  -1.920  1.00  0.00     0.104 A 
HETATM   12  C8  UNL     1       3.260   0.634  -0.817  1.00  0.00     0.053 A 
HETATM   13  C9  UNL     1       4.644   0.661  -0.947  1.00  0.00     0.050 A 
HETATM   14  C17 UNL     1       5.272   0.937  -2.124  1.00  0.00     0.108 A 
HETATM   15  N6  UNL     1       4.521   1.190  -3.194  1.00  0.00    -0.331 N 
HETATM   16  C18 UNL     1       3.184   1.172  -3.102  1.00  0.00     0.272 A 
ATOM     17  H6  UNL     1       4.965   1.399  -4.088  1.00  0.00     0.168 HD
HETATM   18  O4  UNL     1       2.560   1.425  -4.168  1.00  0.00    -0.266 OA
BRANCH  13  19
HETATM   19  C10 UNL     1       5.472   0.380   0.269  1.00  0.00     0.257 C 
HETATM   20  O3  UNL     1       4.897   0.635   1.341  1.00  0.00    -0.267 OA
HETATM   21  N5  UNL     1       6.753  -0.120   0.105  1.00  0.00    -0.323 N 
ATOM     22  H5  UNL     1       7.076  -0.279  -0.849  1.00  0.00     0.169 HD
BRANCH  21  23
HETATM   23  C11 UNL     1       7.648  -0.427   1.152  1.00  0.00     0.035 A 
HETATM   24  C12 UNL     1       8.834  -1.102   0.785  1.00  0.00     0.029 A 
HETATM   25  C13 UNL     1       9.765  -1.440   1.702  1.00  0.00     0.002 A 
HETATM   26  C14 UNL     1       9.565  -1.122   3.039  1.00  0.00     0.000 A 
HETATM   27  C15 UNL     1       8.432  -0.472   3.420  1.00  0.00     0.002 A 
HETATM   28  C16 UNL     1       7.470  -0.122   2.479  1.00  0.00     0.029 A 
ENDBRANCH  21  23
ENDBRANCH  13  19
ENDBRANCH   9  11
ENDBRANCH   4   7
BRANCH   6  29
HETATM   29  S1  UNL     1      -4.492   1.054   1.363  1.00  0.00    -0.086 SA
BRANCH  29  30
HETATM   30  C21 UNL     1      -4.886  -0.576   1.975  1.00  0.00     0.029 A 
HETATM   31  C22 UNL     1      -4.447  -1.733   1.368  1.00  0.00     0.021 A 
HETATM   32  C23 UNL     1      -4.759  -2.982   1.852  1.00  0.00     0.001 A 
HETATM   33  C24 UNL     1      -5.534  -3.127   2.980  1.00  0.00     0.002 A 
HETATM   34  C25 UNL     1      -5.984  -1.985   3.605  1.00  0.00     0.028 A 
HETATM   35  C26 UNL     1      -5.662  -0.723   3.105  1.00  0.00     0.063 A 
HETATM   36  N7  UNL     1      -6.137   0.438   3.766  1.00  0.00    -0.101 NA
ENDBRANCH  29  30
ENDBRANCH   6  29
BRANCH   1  37
HETATM   37  N3  UNL     1      -5.467   0.887  -1.425  1.00  0.00    -0.306 N 
HETATM   38  C1  UNL     1      -6.308   0.848  -2.557  1.00  0.00     0.339 C 
HETATM   39  N2  UNL     1      -7.724   0.929  -2.373  1.00  0.00    -0.258 N 
HETATM   40  O1  UNL     1      -5.917   0.747  -3.737  1.00  0.00    -0.245 OA
ATOM     41  H2  UNL     1      -8.115   1.013  -1.435  1.00  0.00     0.191 HD
ATOM     42  H3  UNL     1      -5.934   0.972  -0.522  1.00  0.00     0.171 HD
BRANCH  39  43
HETATM   43  N1  UNL     1      -8.560   0.893  -3.475  1.00  0.00    -0.341 N 
ATOM     44  H12 UNL     1      -8.153   0.809  -4.406  1.00  0.00     0.177 HD
ATOM     45  H11 UNL     1      -9.570   0.951  -3.344  1.00  0.00     0.177 HD
ENDBRANCH  39  43
ENDBRANCH   1  37
TORSDOF 8
