REMARK  9 active torsions:
REMARK  status: ('A' for Active; 'I' for Inactive)
REMARK    1  A    between atoms: N1_1  and  C1_4 
REMARK    2  A    between atoms: C2_9  and  C3_10 
REMARK    3  A    between atoms: N5_15  and  C6_16 
REMARK    4  A    between atoms: C8_21  and  N7_22 
REMARK    5  A    between atoms: N9_28  and  O2_30 
REMARK    6  A    between atoms: O2_30  and  C10_31 
REMARK    7  A    between atoms: C10_31  and  C11_32 
REMARK    8  A    between atoms: C11_32  and  C12_33 
REMARK    9  A    between atoms: C12_33  and  N10_34 
ROOT
HETATM    1  C3  UNL     1      -1.122   0.251  -0.057  1.00  0.00     0.085 A 
HETATM    2  C4  UNL     1      -2.216  -0.399   0.451  1.00  0.00     0.083 A 
HETATM    3  N4  UNL     1      -3.422   0.176   0.550  1.00  0.00    -0.348 N 
ATOM      4  H4  UNL     1      -3.566   1.138   0.242  1.00  0.00     0.167 HD
HETATM    5  C5  UNL     1      -4.432  -0.534   1.059  1.00  0.00     0.209 A 
HETATM    6  N5  UNL     1      -4.269  -1.805   1.471  1.00  0.00    -0.226 N 
HETATM    7  N6  UNL     1      -3.104  -2.423   1.397  1.00  0.00    -0.285 N 
ATOM      8  H6  UNL     1      -3.021  -3.387   1.720  1.00  0.00     0.188 HD
HETATM    9  C7  UNL     1      -2.035  -1.795   0.903  1.00  0.00     0.120 A 
HETATM   10  C8  UNL     1      -0.803  -2.380   0.801  1.00  0.00     0.131 A 
HETATM   11  N8  UNL     1       0.222  -1.681   0.293  1.00  0.00    -0.325 N 
ATOM     12  H8  UNL     1       1.132  -2.137   0.226  1.00  0.00     0.169 HD
HETATM   13  C9  UNL     1       0.113  -0.411  -0.133  1.00  0.00     0.143 A 
HETATM   14  N9  UNL     1       1.096   0.248  -0.616  1.00  0.00    -0.249 N 
ATOM     15  H9  UNL     1       0.960   1.211  -0.924  1.00  0.00     0.196 HD
ENDROOT
BRANCH   1  16
HETATM   16  C2  UNL     1      -1.176   1.615  -0.530  1.00  0.00     0.152 A 
HETATM   17  N3  UNL     1      -0.130   2.328  -1.048  1.00  0.00    -0.270 N 
HETATM   18  N2  UNL     1      -0.515   3.539  -1.383  1.00  0.00    -0.131 N 
ATOM     19  H3  UNL     1       0.818   1.969  -1.159  1.00  0.00     0.189 HD
HETATM   20  C1  UNL     1      -1.811   3.676  -1.105  1.00  0.00     0.692 A 
ATOM     21  H2  UNL     1       0.082   4.259  -1.790  1.00  0.00     0.205 HD
HETATM   22  N11 UNL     1      -2.195   2.476  -0.580  1.00  0.00    -0.173 N 
ATOM     23  H11 UNL     1      -3.142   2.264  -0.265  1.00  0.00     0.186 HD
BRANCH  20  24
HETATM   24  N1  UNL     1      -2.554   4.705  -1.284  1.00  0.00    -0.233 N 
ATOM     25  H12 UNL     1      -2.267   5.602  -1.676  1.00  0.00     0.174 HD
ATOM     26  H11 UNL     1      -3.546   4.810  -1.071  1.00  0.00     0.174 HD
ENDBRANCH  20  24
ENDBRANCH   1  16
BRANCH  14  27
HETATM   27  O2  UNL     1       2.335  -0.336  -0.721  1.00  0.00    -0.279 OA
BRANCH  27  28
HETATM   28  C10 UNL     1       3.336   0.373  -1.393  1.00  0.00     0.203 C 
BRANCH  28  29
HETATM   29  C11 UNL     1       4.647  -0.369  -1.442  1.00  0.00     0.056 C 
BRANCH  29  30
HETATM   30  C12 UNL     1       5.207  -0.671  -0.089  1.00  0.00     0.231 C 
BRANCH  30  31
HETATM   31  N10 UNL     1       5.461   0.527   0.688  1.00  0.00    -0.079 N 
ATOM     32 3H10 UNL     1       6.062   1.174   0.178  1.00  0.00     0.274 HD
ATOM     33 2H10 UNL     1       4.622   1.103   0.758  1.00  0.00     0.274 HD
ATOM     34 1H10 UNL     1       5.843   0.321   1.611  1.00  0.00     0.274 HD
ENDBRANCH  30  31
ENDBRANCH  29  30
ENDBRANCH  28  29
ENDBRANCH  27  28
ENDBRANCH  14  27
BRANCH  10  35
HETATM   35  N7  UNL     1      -0.619  -3.608   1.192  1.00  0.00    -0.383 N 
ATOM     36  H72 UNL     1      -1.399  -4.140   1.579  1.00  0.00     0.157 HD
ATOM     37  H71 UNL     1       0.300  -4.044   1.116  1.00  0.00     0.157 HD
ENDBRANCH  10  35
BRANCH   6  38
HETATM   38  C6  UNL     1      -5.398  -2.511   2.008  1.00  0.00     0.377 C 
HETATM   39  O1  UNL     1      -6.526  -1.992   2.108  1.00  0.00    -0.281 OA
ENDBRANCH   6  38
TORSDOF 9
