REMARK  1 active torsions:
REMARK  status: ('A' for Active; 'I' for Inactive)
REMARK    1  A    between atoms: C6_6  and  N1_7 
ROOT
HETATM    1  C1  UNL     1      -1.409  -1.240  -1.162  1.00  0.00     0.018 C 
HETATM    2  C2  UNL     1      -0.480  -0.527  -0.208  1.00  0.00    -0.013 C 
HETATM    3  C3  UNL     1       0.328  -1.436   0.633  1.00  0.00     0.012 C 
HETATM    4  C4  UNL     1       1.789  -1.431   0.457  1.00  0.00     0.005 C 
HETATM    5  C5  UNL     1       2.414  -0.170  -0.007  1.00  0.00     0.062 C 
HETATM    6  C6  UNL     1       1.389   0.953  -0.044  1.00  0.00     0.208 C 
HETATM    7  C7  UNL     1       0.359   0.431  -1.050  1.00  0.00     0.074 C 
HETATM    8  N2  UNL     1       0.829   1.218   1.225  1.00  0.00    -0.304 N 
ATOM      9  H2  UNL     1       1.452   1.642   1.913  1.00  0.00     0.182 HD
HETATM   10  N3  UNL     1      -0.315   0.999   1.596  1.00  0.00    -0.328 N 
ATOM     11  H3  UNL     1      -0.590   1.242   2.548  1.00  0.00     0.180 HD
HETATM   12  C8  UNL     1      -1.272   0.408   0.717  1.00  0.00     0.053 A 
HETATM   13  C9  UNL     1      -2.366   1.231   0.179  1.00  0.00     0.036 A 
HETATM   14  C10 UNL     1      -2.633   0.101   1.121  1.00  0.00     0.036 A 
ENDROOT
BRANCH   6  15
HETATM   15  N1  UNL     1       1.993   2.119  -0.658  1.00  0.00    -0.051 N 
ATOM     16  H13 UNL     1       2.859   2.397  -0.196  1.00  0.00     0.277 HD
ATOM     17  H12 UNL     1       2.382   1.916  -1.579  1.00  0.00     0.277 HD
ATOM     18  H11 UNL     1       1.306   2.872  -0.683  1.00  0.00     0.277 HD
ENDBRANCH   6  15
TORSDOF 1
