REMARK  3 active torsions:
REMARK  status: ('A' for Active; 'I' for Inactive)
REMARK    1  A    between atoms: O1_2  and  C2_3 
REMARK    2  A    between atoms: C2_3  and  C3_5 
REMARK    3  A    between atoms: C4_6  and  C5_7 
ROOT
HETATM    1  C5  UNL     1       0.554  -0.245   0.339  1.00  0.00     0.015 C 
HETATM    2  C6  UNL     1      -0.749  -0.036   0.243  1.00  0.00    -0.013 C 
HETATM    3  C7  UNL     1      -1.259   0.921  -0.735  1.00  0.00     0.083 C 
HETATM    4  C8  UNL     1      -2.684   1.341  -0.495  1.00  0.00     0.180 C 
HETATM    5  F1  UNL     1      -3.072   2.079  -1.621  1.00  0.00    -0.249 F 
HETATM    6  C9  UNL     1      -3.645   0.200  -0.369  1.00  0.00     0.101 C 
HETATM    7  C10 UNL     1      -3.472  -0.546   0.893  1.00  0.00     0.047 C 
HETATM    8  N1  UNL     1      -4.429  -0.888   1.643  1.00  0.00    -0.397 N 
ATOM      9  H11 UNL     1      -4.309  -1.403   2.515  1.00  0.00     0.156 HD
ATOM     10  H12 UNL     1      -5.385  -0.646   1.382  1.00  0.00     0.156 HD
HETATM   11  S1  UNL     1      -1.804  -0.968   1.349  1.00  0.00    -0.082 SA
ENDROOT
BRANCH   1  12
HETATM   12  C4  UNL     1       1.119  -1.181   1.289  1.00  0.00     0.007 C 
HETATM   13  C3  UNL     1       2.377  -1.438   1.441  1.00  0.00     0.082 C 
BRANCH  13  14
HETATM   14  C2  UNL     1       3.535  -0.917   0.766  1.00  0.00     0.282 C 
HETATM   15  O2  UNL     1       4.718  -1.300   1.061  1.00  0.00    -0.260 OA
BRANCH  14  16
HETATM   16  O1  UNL     1       3.463   0.016  -0.229  1.00  0.00    -0.323 OA
HETATM   17  C1  UNL     1       4.604   0.524  -0.889  1.00  0.00     0.213 C 
ENDBRANCH  14  16
ENDBRANCH  13  14
ENDBRANCH   1  12
TORSDOF 3
