REMARK  5 active torsions:
REMARK  status: ('A' for Active; 'I' for Inactive)
REMARK    1  A    between atoms: O1_1  and  C1_3 
REMARK    2  A    between atoms: C1_3  and  C2_4 
REMARK    3  A    between atoms: C1_3  and  C10_18 
REMARK    4  A    between atoms: C2_4  and  N1_5 
REMARK    5  A    between atoms: C5_11  and  C6_12 
ROOT
HETATM    1  N1  UNL     1      -0.335  -1.185   0.582  1.00  0.00    -0.319 N 
HETATM    2  C3  UNL     1      -0.664  -2.500   0.390  1.00  0.00     0.122 A 
HETATM    3 CL1  UNL     1      -2.256  -3.220   0.383  1.00  0.00    -0.063 Cl
HETATM    4  C4  UNL     1       0.496  -3.209   0.192  1.00  0.00     0.132 A 
HETATM    5  N2  UNL     1       1.479  -2.319   0.269  1.00  0.00    -0.348 N 
ATOM      6  H2  UNL     1       2.471  -2.533   0.164  1.00  0.00     0.167 HD
HETATM    7  C5  UNL     1       0.982  -1.110   0.502  1.00  0.00     0.127 A 
ENDROOT
BRANCH   1   8
HETATM    8  C2  UNL     1      -1.336  -0.170   0.821  1.00  0.00     0.166 C 
BRANCH   8   9
HETATM    9  C1  UNL     1      -1.846   0.445  -0.456  1.00  0.00     0.169 C 
BRANCH   9  10
HETATM   10  O1  UNL     1      -2.436  -0.496  -1.296  1.00  0.00    -0.391 OA
ATOM     11  H1  UNL     1      -2.758  -0.108  -2.101  1.00  0.00     0.210 HD
ENDBRANCH   9  10
BRANCH   9  12
HETATM   12  C10 UNL     1      -2.771   1.608  -0.197  1.00  0.00     0.208 C 
HETATM   13 CL3  UNL     1      -4.285   1.090   0.574  1.00  0.00    -0.105 Cl
HETATM   14 CL4  UNL     1      -3.184   2.445  -1.708  1.00  0.00    -0.105 Cl
ENDBRANCH   9  12
ENDBRANCH   8   9
ENDBRANCH   1   8
BRANCH   7  15
HETATM   15  C6  UNL     1       1.813   0.105   0.647  1.00  0.00     0.070 A 
HETATM   16  S1  UNL     1       1.339   1.707   0.962  1.00  0.00    -0.097 SA
HETATM   17  C7  UNL     1       2.863   2.462   0.978  1.00  0.00     0.052 A 
HETATM   18  C8  UNL     1       3.721   1.418   0.731  1.00  0.00     0.032 A 
HETATM   19  C9  UNL     1       3.174   0.203   0.560  1.00  0.00     0.055 A 
HETATM   20 CL2  UNL     1       4.178  -1.249   0.231  1.00  0.00    -0.083 Cl
ENDBRANCH   7  15
TORSDOF 5
