REMARK  2 active torsions:
REMARK  status: ('A' for Active; 'I' for Inactive)
REMARK       I    between atoms: C1_4  and  N3_6 
REMARK    1  A    between atoms: N3_6  and  N4_8 
REMARK    2  A    between atoms: C2_10  and  C3_11 
ROOT
HETATM    1  C3  UNL     1       1.253  -0.095  -0.167  1.00  0.00     0.133 A 
HETATM    2  N5  UNL     1       2.053   0.110  -1.232  1.00  0.00    -0.290 N 
ATOM      3  H5  UNL     1       1.691  -0.118  -2.158  1.00  0.00     0.187 HD
HETATM    4  N6  UNL     1       3.281   0.590  -1.141  1.00  0.00    -0.251 N 
ATOM      5  H6  UNL     1       3.857   0.731  -1.971  1.00  0.00     0.191 HD
HETATM    6  C4  UNL     1       3.741   0.885   0.088  1.00  0.00     0.341 A 
HETATM    7  O1  UNL     1       4.898   1.343   0.226  1.00  0.00    -0.245 OA
HETATM    8  N7  UNL     1       3.012   0.712   1.205  1.00  0.00    -0.272 N 
ATOM      9  H7  UNL     1       3.388   0.945   2.124  1.00  0.00     0.173 HD
HETATM   10  C5  UNL     1       1.765   0.219   1.064  1.00  0.00     0.279 A 
HETATM   11  O2  UNL     1       1.069   0.052   2.115  1.00  0.00    -0.265 OA
ENDROOT
BRANCH   1  12
HETATM   12  C2  UNL     1      -0.099  -0.628  -0.308  1.00  0.00     0.143 C 
HETATM   13  N4  UNL     1      -0.789  -0.791   0.764  1.00  0.00    -0.307 N 
ATOM     14  H4  UNL     1      -0.366  -0.543   1.659  1.00  0.00     0.186 HD
BRANCH  13  15
HETATM   15  N3  UNL     1      -2.091  -1.292   0.757  1.00  0.00    -0.274 N 
HETATM   16  C1  UNL     1      -3.086  -0.586   0.031  1.00  0.00     0.200 C 
HETATM   17  N1  UNL     1      -3.272  -0.916  -1.199  1.00  0.00    -0.372 N 
HETATM   18  N2  UNL     1      -3.836   0.441   0.652  1.00  0.00    -0.062 NA
ATOM     19  H12 UNL     1      -3.987  -0.409  -1.721  1.00  0.00     0.158 HD
ATOM     20  H11 UNL     1      -2.731  -1.656  -1.647  1.00  0.00     0.158 HD
ATOM     21  H3  UNL     1      -2.323  -2.147   1.263  1.00  0.00     0.189 HD
ENDBRANCH  13  15
ENDBRANCH   1  12
TORSDOF 2
