REMARK  10 active torsions:
REMARK  status: ('A' for Active; 'I' for Inactive)
REMARK    1  A    between atoms: O1_2  and  C2_3 
REMARK    2  A    between atoms: C2_3  and  C3_5 
REMARK    3  A    between atoms: N1_10  and  C8_11 
REMARK    4  A    between atoms: C8_11  and  C9_12 
REMARK    5  A    between atoms: C9_12  and  C10_13 
REMARK    6  A    between atoms: N2_16  and  C13_17 
REMARK    7  A    between atoms: C13_17  and  O3_19 
REMARK    8  A    between atoms: O3_19  and  C14_20 
REMARK    9  A    between atoms: C14_20  and  C15_21 
REMARK   10  A    between atoms: C15_21  and  N3_22 
REMARK       I    between atoms: N3_22  and  C16_24 
REMARK       I    between atoms: C16_24  and  N4_26 
ROOT
HETATM    1  C13 UNL     1       1.966   1.142   1.107  1.00  0.00     0.216 C 
HETATM    2  S1  UNL     1       2.189   2.651   0.399  1.00  0.00    -0.033 SA
ENDROOT
BRANCH   1   3
HETATM    3  N2  UNL     1       0.633   0.872   1.461  1.00  0.00    -0.352 N 
HETATM    4  C12 UNL     1       0.271  -0.367   2.100  1.00  0.00     0.126 C 
HETATM    5  C11 UNL     1      -1.123  -0.385   2.673  1.00  0.00     0.024 C 
HETATM    6  C10 UNL     1      -2.163   0.373   1.934  1.00  0.00    -0.010 C 
HETATM    7  C23 UNL     1      -1.608   0.997   0.699  1.00  0.00     0.024 C 
HETATM    8  C22 UNL     1      -0.420   1.857   1.174  1.00  0.00     0.126 C 
BRANCH   6   9
HETATM    9  C9  UNL     1      -3.390  -0.507   1.663  1.00  0.00     0.035 C 
BRANCH   9  10
HETATM   10  C8  UNL     1      -4.402   0.303   0.922  1.00  0.00     0.274 C 
BRANCH  10  11
HETATM   11  N1  UNL     1      -5.601  -0.477   0.650  1.00  0.00     0.107 N 
HETATM   12  C3  UNL     1      -6.549   0.326  -0.101  1.00  0.00     0.242 C 
HETATM   13  C4  UNL     1      -5.923   1.357  -0.970  1.00  0.00     0.061 C 
HETATM   14  C5  UNL     1      -7.403   1.010   0.957  1.00  0.00     0.054 C 
HETATM   15  C6  UNL     1      -7.593  -0.137   1.930  1.00  0.00     0.033 C 
HETATM   16  C7  UNL     1      -6.288  -0.847   1.873  1.00  0.00     0.274 C 
BRANCH  12  17
HETATM   17  C2  UNL     1      -7.472  -0.520  -0.897  1.00  0.00     0.297 C 
HETATM   18  O2  UNL     1      -8.359   0.020  -1.594  1.00  0.00    -0.262 OA
BRANCH  17  19
HETATM   19  O1  UNL     1      -7.378  -1.897  -0.890  1.00  0.00    -0.324 OA
HETATM   20  C1  UNL     1      -8.279  -2.655  -1.662  1.00  0.00     0.213 C 
ENDBRANCH  17  19
ENDBRANCH  12  17
ENDBRANCH  10  11
ENDBRANCH   9  10
ENDBRANCH   6   9
ENDBRANCH   1   3
BRANCH   1  21
HETATM   21  O3  UNL     1       3.048   0.339   1.280  1.00  0.00    -0.295 OA
BRANCH  21  22
HETATM   22  C14 UNL     1       3.317  -0.972   1.300  1.00  0.00     0.162 C 
BRANCH  22  23
HETATM   23  C15 UNL     1       3.188  -1.892   0.163  1.00  0.00     0.117 C 
BRANCH  23  24
HETATM   24  N3  UNL     1       3.965  -1.753  -0.986  1.00  0.00    -0.317 N 
HETATM   25  C16 UNL     1       4.088  -0.762  -1.960  1.00  0.00     0.326 C 
HETATM   26  O4  UNL     1       3.431   0.281  -1.954  1.00  0.00    -0.247 OA
HETATM   27  N4  UNL     1       4.995  -0.955  -3.005  1.00  0.00    -0.287 N 
HETATM   28  C17 UNL     1       6.172  -0.455  -3.034  1.00  0.00     0.170 A 
ATOM     29  H4  UNL     1       4.700  -1.530  -3.794  1.00  0.00     0.172 HD
HETATM   30  N5  UNL     1       6.819   0.327  -2.165  1.00  0.00    -0.276 N 
HETATM   31  S2  UNL     1       7.384  -0.654  -4.264  1.00  0.00    -0.026 SA
HETATM   32  N6  UNL     1       8.015   0.694  -2.410  1.00  0.00    -0.277 N 
ATOM     33  H5  UNL     1       6.357   0.630  -1.307  1.00  0.00     0.189 HD
HETATM   34  C18 UNL     1       8.596   0.284  -3.546  1.00  0.00     0.132 A 
HETATM   35  C21 UNL     1       8.927   1.562  -1.616  1.00  0.00     0.151 C 
HETATM   36  S3  UNL     1      10.300   0.754  -3.937  1.00  0.00    -0.103 SA
HETATM   37  C19 UNL     1      11.173   0.688  -2.330  1.00  0.00     0.083 C 
HETATM   38  C20 UNL     1      10.165   0.840  -1.198  1.00  0.00     0.032 C 
ATOM     39  H3  UNL     1       4.578  -2.551  -1.151  1.00  0.00     0.170 HD
ENDBRANCH  23  24
ENDBRANCH  22  23
ENDBRANCH  21  22
ENDBRANCH   1  21
TORSDOF 10
