REMARK  4 active torsions:
REMARK  status: ('A' for Active; 'I' for Inactive)
REMARK    1  A    between atoms: C2_3  and  C3_4 
REMARK    2  A    between atoms: C3_4  and  O1_5 
REMARK    3  A    between atoms: C3_4  and  N2_7 
REMARK    4  A    between atoms: N2_7  and  C4_10 
ROOT
HETATM    1  N1  UNL     1       4.236   0.527   2.125  1.00  0.00    -0.197 NA
HETATM    2  C1  UNL     1       3.812   0.045   1.162  1.00  0.00     0.063 C 
HETATM    3  C2  UNL     1       3.311  -0.581  -0.068  1.00  0.00     0.184 C 
ENDROOT
BRANCH   3   4
HETATM    4  C3  UNL     1       2.076   0.108  -0.583  1.00  0.00     0.332 C 
BRANCH   4   5
HETATM    5  O1  UNL     1       2.423   1.451  -0.854  1.00  0.00    -0.369 OA
ATOM      6  H1  UNL     1       1.643   1.886  -1.179  1.00  0.00     0.212 HD
ENDBRANCH   4   5
BRANCH   4   7
HETATM    7  N2  UNL     1       1.003   0.160   0.373  1.00  0.00    -0.043 N 
ATOM      8  H22 UNL     1       1.313  -0.194   1.278  1.00  0.00     0.280 HD
ATOM      9  H21 UNL     1       0.796   1.126   0.626  1.00  0.00     0.280 HD
BRANCH   7  10
HETATM   10  C4  UNL     1      -0.204  -0.523  -0.053  1.00  0.00     0.206 C 
HETATM   11  C5  UNL     1      -0.772   0.111  -1.307  1.00  0.00     0.034 C 
HETATM   12  C6  UNL     1      -1.753   1.217  -0.970  1.00  0.00     0.002 C 
HETATM   13  C7  UNL     1      -2.976   0.667  -0.264  1.00  0.00     0.001 C 
HETATM   14  C8  UNL     1      -2.613  -0.403   0.736  1.00  0.00     0.021 C 
HETATM   15  C9  UNL     1      -1.155  -0.416   1.119  1.00  0.00     0.123 C 
HETATM   16  C10 UNL     1      -0.941  -1.522   2.056  1.00  0.00     0.066 C 
HETATM   17  N3  UNL     1      -0.750  -2.399   2.817  1.00  0.00    -0.197 NA
ENDBRANCH   7  10
ENDBRANCH   4   7
ENDBRANCH   3   4
TORSDOF 4
