REMARK  7 active torsions:
REMARK  status: ('A' for Active; 'I' for Inactive)
REMARK    1  A    between atoms: C1_2  and  N1_3 
REMARK    2  A    between atoms: N1_3  and  C2_5 
REMARK    3  A    between atoms: C2_5  and  C3_6 
REMARK    4  A    between atoms: C3_6  and  N2_7 
REMARK    5  A    between atoms: N2_7  and  C4_10 
REMARK    6  A    between atoms: C4_10  and  O2_11 
REMARK    7  A    between atoms: C4_10  and  C5_13 
ROOT
HETATM    1  C4  UNL     1       0.325   0.026  -0.677  1.00  0.00     0.353 C 
ENDROOT
BRANCH   1   2
HETATM    2  N2  UNL     1       1.285  -0.930  -0.075  1.00  0.00    -0.043 N 
ATOM      3  H22 UNL     1       1.050  -1.893  -0.317  1.00  0.00     0.280 HD
ATOM      4  H21 UNL     1       1.167  -0.986   0.937  1.00  0.00     0.280 HD
BRANCH   2   5
HETATM    5  C3  UNL     1       2.653  -0.618  -0.428  1.00  0.00     0.255 C 
BRANCH   5   6
HETATM    6  C2  UNL     1       3.176   0.637   0.163  1.00  0.00     0.149 C 
BRANCH   6   7
HETATM    7  N1  UNL     1       4.532   0.869  -0.236  1.00  0.00    -0.367 N 
ATOM      8  H1  UNL     1       4.731   1.713  -0.772  1.00  0.00     0.161 HD
BRANCH   7   9
HETATM    9  C1  UNL     1       5.603   0.016   0.060  1.00  0.00     0.348 C 
HETATM   10  O1  UNL     1       5.429  -1.033   0.718  1.00  0.00    -0.284 OA
ENDBRANCH   7   9
ENDBRANCH   6   7
ENDBRANCH   5   6
ENDBRANCH   2   5
ENDBRANCH   1   2
BRANCH   1  11
HETATM   11  O2  UNL     1       0.491   0.004  -2.070  1.00  0.00    -0.366 OA
ATOM     12  H2  UNL     1      -0.124   0.617  -2.456  1.00  0.00     0.212 HD
ENDBRANCH   1  11
BRANCH   1  13
HETATM   13  C5  UNL     1      -0.999  -0.557  -0.338  1.00  0.00     0.008 A 
HETATM   14  C6  UNL     1      -1.192  -1.939  -0.476  1.00  0.00     0.012 A 
HETATM   15  C7  UNL     1      -2.378  -2.537  -0.167  1.00  0.00     0.002 A 
HETATM   16  C8  UNL     1      -3.402  -1.763   0.287  1.00  0.00     0.012 A 
HETATM   17  C9  UNL     1      -3.300  -0.387   0.453  1.00  0.00    -0.025 A 
HETATM   18  C10 UNL     1      -4.361   0.354   0.911  1.00  0.00     0.012 A 
HETATM   19  C14 UNL     1      -2.063   0.176   0.123  1.00  0.00    -0.015 A 
HETATM   20  C11 UNL     1      -4.229   1.703   1.060  1.00  0.00     0.001 A 
HETATM   21  C12 UNL     1      -3.026   2.277   0.741  1.00  0.00     0.001 A 
HETATM   22  C13 UNL     1      -1.965   1.539   0.284  1.00  0.00     0.013 A 
ENDBRANCH   1  13
TORSDOF 7
