REMARK  4 active torsions:
REMARK  status: ('A' for Active; 'I' for Inactive)
REMARK    1  A    between atoms: C4_8  and  C5_9 
REMARK    2  A    between atoms: C5_9  and  N3_10 
REMARK    3  A    between atoms: N3_10  and  N4_12 
REMARK    4  A    between atoms: C7_17  and  N6_18 
ROOT
HETATM    1  N3  UNL     1       1.126  -0.283   0.555  1.00  0.00    -0.295 N 
ATOM      2  H3  UNL     1       0.631  -0.827   1.262  1.00  0.00     0.187 HD
ENDROOT
BRANCH   1   3
HETATM    3  C5  UNL     1       0.430   0.312  -0.342  1.00  0.00     0.158 C 
BRANCH   3   4
HETATM    4  C4  UNL     1      -1.023   0.231  -0.376  1.00  0.00     0.154 A 
HETATM    5  N2  UNL     1      -1.824  -0.452   0.493  1.00  0.00    -0.171 N 
HETATM    6  C3  UNL     1      -3.118  -0.311   0.166  1.00  0.00     0.722 A 
ATOM      7  H2  UNL     1      -1.484  -0.997   1.285  1.00  0.00     0.186 HD
HETATM    8  N1  UNL     1      -4.389  -0.627   0.477  1.00  0.00    -0.176 N 
HETATM    9  N9  UNL     1      -3.122   0.475  -0.925  1.00  0.00    -0.017 N 
HETATM   10  C2  UNL     1      -5.205  -0.041  -0.418  1.00  0.00     0.110 A 
ATOM     11  H1  UNL     1      -4.684  -1.212   1.259  1.00  0.00     0.185 HD
HETATM   12  C1  UNL     1      -6.707  -0.117  -0.464  1.00  0.00     0.091 C 
HETATM   13  N10 UNL     1      -4.402   0.624  -1.261  1.00  0.00    -0.253 N 
ATOM     14  H10 UNL     1      -4.729   1.173  -2.056  1.00  0.00     0.191 HD
HETATM   15  N8  UNL     1      -1.879   0.796  -1.246  1.00  0.00    -0.247 N 
ATOM     16  H8  UNL     1      -1.610   1.384  -2.035  1.00  0.00     0.191 HD
ENDBRANCH   3   4
ENDBRANCH   1   3
BRANCH   1  17
HETATM   17  N4  UNL     1       2.511  -0.233   0.624  1.00  0.00    -0.177 N 
HETATM   18  C6  UNL     1       3.222  -1.009  -0.202  1.00  0.00     0.362 A 
HETATM   19  O1  UNL     1       2.603  -1.761  -1.019  1.00  0.00    -0.244 OA
HETATM   20  N5  UNL     1       4.565  -0.975  -0.151  1.00  0.00    -0.140 N 
HETATM   21  C7  UNL     1       5.244  -0.188   0.704  1.00  0.00     0.682 A 
ATOM     22  H5  UNL     1       5.092  -1.572  -0.788  1.00  0.00     0.189 HD
HETATM   23  N7  UNL     1       4.521   0.584   1.526  1.00  0.00    -0.164 N 
HETATM   24  C8  UNL     1       3.175   0.552   1.477  1.00  0.00     0.216 A 
ATOM     25  H7  UNL     1       4.991   1.198   2.191  1.00  0.00     0.186 HD
HETATM   26  S1  UNL     1       2.326   1.506   2.494  1.00  0.00    -0.038 SA
BRANCH  21  27
HETATM   27  N6  UNL     1       6.519  -0.139   0.771  1.00  0.00    -0.234 N 
ATOM     28  H62 UNL     1       7.070  -0.727   0.145  1.00  0.00     0.174 HD
ATOM     29  H61 UNL     1       7.034   0.457   1.419  1.00  0.00     0.174 HD
ENDBRANCH  21  27
ENDBRANCH   1  17
TORSDOF 4
