REMARK  3 active torsions:
REMARK  status: ('A' for Active; 'I' for Inactive)
REMARK    1  A    between atoms: N3_9  and  N4_10 
REMARK    2  A    between atoms: C9_17  and  C10_18 
REMARK    3  A    between atoms: C10_18  and  C11_19 
ROOT
HETATM    1  N4  UNL     1       1.017  -0.007   0.735  1.00  0.00    -0.298 N 
ATOM      2  H4  UNL     1       0.944  -0.652   1.521  1.00  0.00     0.187 HD
HETATM    3  C4  UNL     1      -0.079   0.396   0.220  1.00  0.00     0.009 C 
HETATM    4  C5  UNL     1      -0.055   1.324  -0.913  1.00  0.00     0.054 C 
HETATM    5  C6  UNL     1      -1.313   1.266  -1.770  1.00  0.00     0.006 C 
HETATM    6  C7  UNL     1      -2.452   1.472  -0.761  1.00  0.00     0.001 C 
HETATM    7  C8  UNL     1      -2.542   0.129  -0.016  1.00  0.00     0.011 C 
HETATM    8  C9  UNL     1      -1.335  -0.111   0.814  1.00  0.00     0.041 C 
ENDROOT
BRANCH   1   9
HETATM    9  N3  UNL     1       2.284   0.340   0.338  1.00  0.00    -0.216 N 
HETATM   10  C2  UNL     1       3.104  -0.406  -0.429  1.00  0.00     0.117 A 
HETATM   11  C1  UNL     1       2.886  -1.739  -1.032  1.00  0.00     0.092 C 
HETATM   12  N1  UNL     1       4.246   0.288  -0.586  1.00  0.00    -0.285 N 
HETATM   13  N2  UNL     1       4.161   1.446   0.063  1.00  0.00    -0.273 N 
ATOM     14  H1  UNL     1       5.055  -0.026  -1.122  1.00  0.00     0.188 HD
HETATM   15  C3  UNL     1       2.942   1.477   0.637  1.00  0.00     0.213 A 
ATOM     16  H2  UNL     1       4.878   2.169   0.116  1.00  0.00     0.189 HD
HETATM   17  S1  UNL     1       2.420   2.744   1.543  1.00  0.00    -0.037 SA
ENDBRANCH   1   9
BRANCH   8  18
HETATM   18  C10 UNL     1      -1.236  -1.559   1.183  1.00  0.00     0.128 C 
BRANCH  18  19
HETATM   19  C11 UNL     1      -2.480  -2.119   1.794  1.00  0.00     0.388 C 
HETATM   20  F1  UNL     1      -2.176  -3.470   2.078  1.00  0.00    -0.171 F 
HETATM   21  F2  UNL     1      -2.880  -1.499   2.939  1.00  0.00    -0.171 F 
HETATM   22  F3  UNL     1      -3.551  -2.187   0.911  1.00  0.00    -0.171 F 
ENDBRANCH  18  19
ENDBRANCH   8  18
TORSDOF 3
