REMARK  2 active torsions:
REMARK  status: ('A' for Active; 'I' for Inactive)
REMARK    1  A    between atoms: C2_2  and  C4_4 
REMARK    2  A    between atoms: N3_11  and  C6_12 
ROOT
HETATM    1  C4  UNL     1      -1.659   0.716  -0.060  1.00  0.00     0.104 A 
HETATM    2  N1  UNL     1      -2.492   1.774  -0.078  1.00  0.00    -0.286 N 
ATOM      3  H1  UNL     1      -3.507   1.735   0.010  1.00  0.00     0.188 HD
HETATM    4  N2  UNL     1      -1.769   2.875  -0.230  1.00  0.00    -0.275 N 
ATOM      5  H2  UNL     1      -2.121   3.831  -0.280  1.00  0.00     0.189 HD
HETATM    6  C5  UNL     1      -0.482   2.489  -0.306  1.00  0.00     0.194 A 
HETATM    7  S1  UNL     1       0.755   3.514  -0.496  1.00  0.00    -0.039 SA
HETATM    8  N3  UNL     1      -0.380   1.159  -0.205  1.00  0.00    -0.306 N 
ENDROOT
BRANCH   8   9
HETATM    9  C6  UNL     1       0.755   0.310  -0.230  1.00  0.00     0.093 C 
HETATM   10  C7  UNL     1       1.983   0.883  -0.836  1.00  0.00     0.026 C 
HETATM   11  C8  UNL     1       2.922  -0.298  -1.135  1.00  0.00     0.002 C 
HETATM   12  C9  UNL     1       3.292  -0.966   0.191  1.00  0.00     0.000 C 
HETATM   13  C10 UNL     1       2.036  -1.460   0.837  1.00  0.00     0.002 C 
HETATM   14  C11 UNL     1       1.130  -0.256   1.133  1.00  0.00     0.026 C 
ENDBRANCH   8   9
BRANCH   1  15
HETATM   15  C2  UNL     1      -2.136  -0.677   0.096  1.00  0.00     0.047 C 
HETATM   16  C1  UNL     1      -3.094  -1.033  -1.029  1.00  0.00     0.017 C 
HETATM   17  C3  UNL     1      -2.897  -0.780   1.415  1.00  0.00     0.017 C 
ENDBRANCH   1  15
TORSDOF 2
