REMARK  8 active torsions:
REMARK  status: ('A' for Active; 'I' for Inactive)
REMARK    1  A    between atoms: C2_2  and  C3_3 
REMARK    2  A    between atoms: C2_2  and  C4_6 
REMARK    3  A    between atoms: C3_3  and  O1_4 
REMARK    4  A    between atoms: C4_6  and  C5_7 
REMARK    5  A    between atoms: C5_7  and  C8_10 
REMARK    6  A    between atoms: C11_13  and  C12_14 
REMARK    7  A    between atoms: C12_14  and  O2_15 
REMARK    8  A    between atoms: C12_14  and  C13_17 
ROOT
HETATM    1  C8  UNL     1       0.662  -0.198   0.832  1.00  0.00     0.063 C 
HETATM    2  C9  UNL     1      -0.467   0.700   1.289  1.00  0.00     0.013 C 
HETATM    3  C10 UNL     1      -1.813   0.063   1.156  1.00  0.00     0.009 C 
HETATM    4  C11 UNL     1      -2.135  -0.617  -0.104  1.00  0.00     0.026 C 
HETATM    5  C17 UNL     1      -0.938  -0.748  -1.054  1.00  0.00     0.058 C 
HETATM    6  C18 UNL     1      -0.781   0.454  -1.950  1.00  0.00     0.018 C 
HETATM    7  C19 UNL     1       0.285  -1.071  -0.269  1.00  0.00     0.136 C 
HETATM    8  O3  UNL     1       0.913  -2.054  -0.583  1.00  0.00    -0.297 OA
ENDROOT
BRANCH   1   9
HETATM    9  C5  UNL     1       1.965   0.504   0.695  1.00  0.00    -0.037 C 
HETATM   10  C6  UNL     1       1.999   1.731  -0.134  1.00  0.00     0.015 C 
HETATM   11  C7  UNL     1       2.406   0.932   2.127  1.00  0.00     0.015 C 
BRANCH   9  12
HETATM   12  C4  UNL     1       3.011  -0.471   0.249  1.00  0.00     0.015 C 
BRANCH  12  13
HETATM   13  C2  UNL     1       4.432  -0.083   0.346  1.00  0.00     0.006 C 
HETATM   14  C1  UNL     1       4.932   1.085  -0.404  1.00  0.00     0.012 C 
BRANCH  13  15
HETATM   15  C3  UNL     1       5.215  -1.297  -0.211  1.00  0.00     0.168 C 
BRANCH  15  16
HETATM   16  O1  UNL     1       6.564  -1.140  -0.023  1.00  0.00    -0.400 OA
ATOM     17  H1  UNL     1       7.044  -1.885  -0.365  1.00  0.00     0.209 HD
ENDBRANCH  15  16
ENDBRANCH  13  15
ENDBRANCH  12  13
ENDBRANCH   9  12
ENDBRANCH   1   9
BRANCH   4  18
HETATM   18  C12 UNL     1      -3.259  -0.067  -0.914  1.00  0.00     0.131 C 
BRANCH  18  19
HETATM   19  O2  UNL     1      -3.380  -0.884  -2.063  1.00  0.00    -0.394 OA
ATOM     20  H2  UNL     1      -4.096  -0.533  -2.579  1.00  0.00     0.210 HD
ENDBRANCH  18  19
BRANCH  18  21
HETATM   21  C13 UNL     1      -4.587  -0.028  -0.242  1.00  0.00    -0.018 A 
HETATM   22  C14 UNL     1      -5.236  -1.286   0.256  1.00  0.00     0.018 C 
HETATM   23  C15 UNL     1      -5.589   0.943  -0.952  1.00  0.00     0.012 A 
HETATM   24  C16 UNL     1      -4.998   1.314   0.351  1.00  0.00     0.012 A 
ENDBRANCH  18  21
ENDBRANCH   4  18
TORSDOF 8
