REMARK  5 active torsions:
REMARK  status: ('A' for Active; 'I' for Inactive)
REMARK    1  A    between atoms: N2_5  and  C4_6 
REMARK    2  A    between atoms: C4_6  and  C5_7 
REMARK    3  A    between atoms: C5_7  and  C6_8 
REMARK    4  A    between atoms: C6_8  and  C7_9 
REMARK    5  A    between atoms: C8_10  and  C9_11 
ROOT
HETATM    1  C6  UNL     1      -0.335  -1.791   0.936  1.00  0.00     0.095 C 
ENDROOT
BRANCH   1   2
HETATM    2  C5  UNL     1       0.572  -2.047  -0.247  1.00  0.00     0.042 C 
BRANCH   2   3
HETATM    3  C4  UNL     1       1.087  -0.802  -0.883  1.00  0.00     0.273 C 
BRANCH   3   4
HETATM    4  N2  UNL     1       1.856   0.055  -0.048  1.00  0.00     0.091 N 
HETATM    5  C3  UNL     1       2.282   1.210  -0.787  1.00  0.00     0.302 C 
HETATM    6  C2  UNL     1       3.595   0.909  -1.466  1.00  0.00     0.302 C 
HETATM    7  N1  UNL     1       4.571   0.724  -0.406  1.00  0.00     0.087 N 
HETATM    8  C1  UNL     1       4.568   1.887   0.443  1.00  0.00     0.310 C 
HETATM    9  C14 UNL     1       4.236  -0.493   0.278  1.00  0.00     0.302 C 
HETATM   10  C13 UNL     1       2.826  -0.535   0.783  1.00  0.00     0.302 C 
ENDBRANCH   3   4
ENDBRANCH   2   3
ENDBRANCH   1   2
BRANCH   1  11
HETATM   11  C7  UNL     1      -1.512  -1.012   0.550  1.00  0.00    -0.106 C 
HETATM   12  C8  UNL     1      -2.484  -0.379   0.213  1.00  0.00    -0.100 C 
BRANCH  12  13
HETATM   13  C9  UNL     1      -3.669   0.383  -0.222  1.00  0.00     0.092 C 
HETATM   14  C10 UNL     1      -4.179   1.159   0.952  1.00  0.00     0.046 C 
HETATM   15  C11 UNL     1      -5.680   1.163   0.777  1.00  0.00     0.233 C 
HETATM   16  N3  UNL     1      -6.007   0.205  -0.230  1.00  0.00    -0.074 N 
HETATM   17  C12 UNL     1      -4.823  -0.542  -0.543  1.00  0.00     0.249 C 
ATOM     18  H32 UNL     1      -6.789  -0.393   0.036  1.00  0.00     0.277 HD
ATOM     19  H31 UNL     1      -6.432   0.631  -1.054  1.00  0.00     0.277 HD
ENDBRANCH  12  13
ENDBRANCH   1  11
TORSDOF 5
