REMARK  7 active torsions:
REMARK  status: ('A' for Active; 'I' for Inactive)
REMARK    1  A    between atoms: C3_3  and  C4_4 
REMARK    2  A    between atoms: C4_4  and  O1_6 
REMARK    3  A    between atoms: C4_4  and  C6_8 
REMARK    4  A    between atoms: C7_9  and  N1_10 
REMARK    5  A    between atoms: N1_10  and  S1_12 
REMARK    6  A    between atoms: S1_12  and  N2_14 
REMARK    7  A    between atoms: N2_14  and  N3_15 
ROOT
HETATM    1  C6  UNL     1      -0.572   0.273  -0.853  1.00  0.00     0.133 C 
HETATM    2  C7  UNL     1      -1.560   0.827   0.105  1.00  0.00     0.171 C 
HETATM    3  C8  UNL     1      -0.934   2.100   0.497  1.00  0.00     0.158 C 
HETATM    4  F1  UNL     1      -1.033   2.701   1.710  1.00  0.00    -0.205 F 
HETATM    5  C9  UNL     1      -0.246   2.552  -0.576  1.00  0.00     0.202 C 
HETATM    6  F2  UNL     1       0.455   3.699  -0.583  1.00  0.00    -0.201 F 
HETATM    7  C10 UNL     1      -0.405   1.558  -1.700  1.00  0.00     0.308 C 
HETATM    8  F3  UNL     1      -1.601   1.796  -2.299  1.00  0.00    -0.198 F 
HETATM    9  F4  UNL     1       0.656   1.530  -2.527  1.00  0.00    -0.198 F 
ENDROOT
BRANCH   2  10
HETATM   10  N1  UNL     1      -2.086   0.001   1.107  1.00  0.00    -0.299 N 
ATOM     11  H1  UNL     1      -1.906   0.082   2.108  1.00  0.00     0.173 HD
BRANCH  10  12
HETATM   12  S1  UNL     1      -3.135  -1.228   0.314  1.00  0.00     0.311 S 
HETATM   13  O2  UNL     1      -3.897  -0.808  -1.182  1.00  0.00    -0.195 OA
BRANCH  12  14
HETATM   14  N2  UNL     1      -3.732  -2.382   1.204  1.00  0.00    -0.245 NA
BRANCH  14  15
HETATM   15  N3  UNL     1      -4.349  -3.203   1.873  1.00  0.00    -0.269 N 
ATOM     16  H32 UNL     1      -5.179  -2.651   1.655  1.00  0.00     0.192 HD
ATOM     17  H31 UNL     1      -4.736  -3.950   2.449  1.00  0.00     0.192 HD
ENDBRANCH  14  15
ENDBRANCH  12  14
ENDBRANCH  10  12
ENDBRANCH   2  10
BRANCH   1  18
HETATM   18  C4  UNL     1       0.749  -0.165  -0.308  1.00  0.00     0.084 C 
HETATM   19  C5  UNL     1       1.514  -0.741  -1.517  1.00  0.00     0.051 C 
BRANCH  18  20
HETATM   20  C3  UNL     1       0.738  -1.203   0.697  1.00  0.00     0.006 C 
HETATM   21  C2  UNL     1       1.775  -1.461   1.462  1.00  0.00    -0.032 C 
HETATM   22  C1  UNL     1       3.058  -0.741   1.396  1.00  0.00     0.036 C 
ENDBRANCH  18  20
BRANCH  18  23
HETATM   23  O1  UNL     1       1.496   0.917   0.154  1.00  0.00    -0.386 OA
ATOM     24  H1  UNL     1       1.503   1.599  -0.507  1.00  0.00     0.211 HD
ENDBRANCH  18  23
ENDBRANCH   1  18
TORSDOF 7
