REMARK  4 active torsions:
REMARK  status: ('A' for Active; 'I' for Inactive)
REMARK    1  A    between atoms: C2_2  and  C3_3 
REMARK    2  A    between atoms: C3_3  and  C4_4 
REMARK    3  A    between atoms: C4_4  and  C6_6 
REMARK    4  A    between atoms: C6_6  and  N1_7 
ROOT
HETATM    1  N1  UNL     1       0.417   0.496  -0.433  1.00  0.00     0.088 N 
HETATM    2  C7  UNL     1      -0.276  -0.529   0.321  1.00  0.00     0.275 C 
HETATM    3  C8  UNL     1      -1.631  -0.728  -0.318  1.00  0.00     0.062 C 
HETATM    4  C9  UNL     1      -2.494   0.463  -0.014  1.00  0.00     0.045 C 
HETATM    5  C10 UNL     1      -1.635   1.694   0.224  1.00  0.00     0.062 C 
HETATM    6  C11 UNL     1      -0.387   1.684  -0.604  1.00  0.00     0.275 C 
HETATM    7  C12 UNL     1      -3.282   0.273   1.289  1.00  0.00     0.153 C 
HETATM    8  N2  UNL     1      -4.103  -0.907   1.135  1.00  0.00    -0.357 N 
ATOM      9  H2  UNL     1      -4.273  -1.553   1.906  1.00  0.00     0.162 HD
HETATM   10  C13 UNL     1      -4.663  -1.113  -0.169  1.00  0.00     0.234 C 
HETATM   11  O1  UNL     1      -5.211  -2.236  -0.364  1.00  0.00    -0.272 OA
HETATM   12  C14 UNL     1      -4.568  -0.037  -1.162  1.00  0.00     0.218 C 
HETATM   13  N3  UNL     1      -3.350   0.716  -1.124  1.00  0.00    -0.403 N 
ATOM     14  H3  UNL     1      -3.110   1.393  -1.848  1.00  0.00     0.154 HD
ENDROOT
BRANCH   1  15
HETATM   15  C6  UNL     1       1.716   0.791   0.136  1.00  0.00     0.277 C 
BRANCH  15  16
HETATM   16  C4  UNL     1       2.647  -0.362  -0.033  1.00  0.00     0.013 C 
HETATM   17  C5  UNL     1       2.946  -0.682  -1.481  1.00  0.00     0.012 C 
BRANCH  16  18
HETATM   18  C3  UNL     1       3.979   0.050   0.609  1.00  0.00     0.032 C 
BRANCH  18  19
HETATM   19  C2  UNL     1       4.916  -1.103   0.484  1.00  0.00    -0.037 C 
HETATM   20  C1  UNL     1       6.052  -0.961  -0.157  1.00  0.00     0.007 C 
ENDBRANCH  18  19
ENDBRANCH  16  18
ENDBRANCH  15  16
ENDBRANCH   1  15
TORSDOF 4
