REMARK  10 active torsions:
REMARK  status: ('A' for Active; 'I' for Inactive)
REMARK    1  A    between atoms: S1_2  and  C2_3 
REMARK    2  A    between atoms: C2_3  and  C3_4 
REMARK    3  A    between atoms: C2_3  and  C5_10 
REMARK    4  A    between atoms: C3_4  and  C4_5 
REMARK    5  A    between atoms: C4_5  and  N1_6 
REMARK    6  A    between atoms: C5_10  and  N2_12 
REMARK    7  A    between atoms: N2_12  and  C7_14 
REMARK    8  A    between atoms: C7_14  and  C8_15 
REMARK    9  A    between atoms: C9_16  and  C10_17 
REMARK   10  A    between atoms: C10_17  and  N3_18 
ROOT
HETATM    1  N2  UNL     1       1.364  -1.414  -0.769  1.00  0.00    -0.385 N 
ATOM      2  H2  UNL     1       1.486  -2.404  -0.984  1.00  0.00     0.160 HD
ENDROOT
BRANCH   1   3
HETATM    3  C5  UNL     1       2.126  -0.766   0.258  1.00  0.00    -0.007 C 
HETATM    4  C6  UNL     1       2.568  -1.692   1.352  1.00  0.00     0.064 C 
BRANCH   3   5
HETATM    5  C2  UNL     1       3.096   0.243  -0.202  1.00  0.00     0.093 C 
BRANCH   5   6
HETATM    6  S1  UNL     1       3.535   1.318   1.209  1.00  0.00    -0.163 SA
HETATM    7  C1  UNL     1       4.325   2.852   0.609  1.00  0.00     0.090 C 
ENDBRANCH   5   6
BRANCH   5   8
HETATM    8  C3  UNL     1       4.332  -0.230  -0.871  1.00  0.00     0.048 C 
BRANCH   8   9
HETATM    9  C4  UNL     1       5.316  -1.013  -0.109  1.00  0.00     0.231 C 
BRANCH   9  10
HETATM   10  N1  UNL     1       6.432  -1.360  -0.978  1.00  0.00    -0.079 N 
ATOM     11  H13 UNL     1       6.128  -1.840  -1.825  1.00  0.00     0.274 HD
ATOM     12  H12 UNL     1       6.848  -0.540  -1.419  1.00  0.00     0.274 HD
ATOM     13  H11 UNL     1       7.115  -1.903  -0.449  1.00  0.00     0.274 HD
ENDBRANCH   9  10
ENDBRANCH   8   9
ENDBRANCH   5   8
ENDBRANCH   3   5
ENDBRANCH   1   3
BRANCH   1  14
HETATM   14  C7  UNL     1       0.417  -0.594  -1.482  1.00  0.00     0.214 C 
BRANCH  14  15
HETATM   15  C8  UNL     1      -0.728  -0.259  -0.590  1.00  0.00    -0.081 C 
HETATM   16  C9  UNL     1      -1.668  -0.022   0.128  1.00  0.00    -0.060 C 
BRANCH  16  17
HETATM   17  C10 UNL     1      -2.827   0.225   0.993  1.00  0.00     0.151 C 
BRANCH  17  18
HETATM   18  N3  UNL     1      -4.006   0.562   0.374  1.00  0.00    -0.379 N 
HETATM   19  C11 UNL     1      -4.244   1.759  -0.286  1.00  0.00     0.123 C 
HETATM   20  C12 UNL     1      -5.680   1.719  -0.823  1.00  0.00     0.022 C 
HETATM   21  C13 UNL     1      -6.282   0.494  -0.214  1.00  0.00     0.026 C 
HETATM   22  C14 UNL     1      -5.166  -0.228   0.479  1.00  0.00     0.080 C 
HETATM   23  C15 UNL     1      -5.078  -1.608  -0.110  1.00  0.00     0.032 C 
ENDBRANCH  17  18
ENDBRANCH  16  17
ENDBRANCH  14  15
ENDBRANCH   1  14
TORSDOF 10
