REMARK  6 active torsions:
REMARK  status: ('A' for Active; 'I' for Inactive)
REMARK    1  A    between atoms: C1_4  and  C2_5 
REMARK    2  A    between atoms: C2_5  and  C3_6 
REMARK    3  A    between atoms: C3_6  and  N2_7 
REMARK    4  A    between atoms: N2_7  and  C4_10 
REMARK    5  A    between atoms: C4_10  and  C5_11 
REMARK    6  A    between atoms: C5_11  and  C6_12 
ROOT
HETATM    1  N2  UNL     1       0.934   0.238   0.166  1.00  0.00    -0.075 N 
ATOM      2  H21 UNL     1       0.786  -0.435   0.918  1.00  0.00     0.277 HD
ATOM      3  H22 UNL     1       0.492  -0.265  -0.603  1.00  0.00     0.277 HD
ENDROOT
BRANCH   1   4
HETATM    4  C3  UNL     1       2.344   0.417  -0.087  1.00  0.00     0.237 C 
BRANCH   4   5
HETATM    5  C2  UNL     1       2.934  -0.947  -0.353  1.00  0.00     0.071 C 
BRANCH   5   6
HETATM    6  C1  UNL     1       4.389  -0.899  -0.629  1.00  0.00     0.054 C 
HETATM    7  N1  UNL     1       5.020   0.143  -0.968  1.00  0.00    -0.411 N 
ATOM      8  H12 UNL     1       4.475   1.001  -1.053  1.00  0.00     0.155 HD
ATOM      9  H11 UNL     1       6.022   0.176  -1.158  1.00  0.00     0.155 HD
ENDBRANCH   5   6
ENDBRANCH   4   5
ENDBRANCH   1   4
BRANCH   1  10
HETATM   10  C4  UNL     1       0.239   1.455   0.436  1.00  0.00     0.232 C 
BRANCH  10  11
HETATM   11  C5  UNL     1      -1.217   1.135   0.681  1.00  0.00     0.032 C 
BRANCH  11  12
HETATM   12  C6  UNL     1      -1.906   0.476  -0.464  1.00  0.00    -0.013 C 
HETATM   13  C7  UNL     1      -3.372   0.229  -0.063  1.00  0.00     0.005 C 
HETATM   14  C8  UNL     1      -2.902  -1.107   0.473  1.00  0.00     0.001 C 
HETATM   15  C9  UNL     1      -1.802  -1.024  -0.584  1.00  0.00     0.005 C 
ENDBRANCH  11  12
ENDBRANCH  10  11
ENDBRANCH   1  10
TORSDOF 6
