REMARK  13 active torsions:
REMARK  status: ('A' for Active; 'I' for Inactive)
REMARK    1  A    between atoms: C2_2  and  C3_3 
REMARK    2  A    between atoms: C3_3  and  C4_4 
REMARK    3  A    between atoms: C4_4  and  C5_5 
REMARK    4  A    between atoms: C5_5  and  C6_6 
REMARK    5  A    between atoms: C6_6  and  O1_7 
REMARK    6  A    between atoms: C9_13  and  C10_14 
REMARK    7  A    between atoms: C13_17  and  O3_18 
REMARK    8  A    between atoms: C15_24  and  O5_25 
REMARK    9  A    between atoms: C17_27  and  O6_28 
REMARK   10  A    between atoms: C18_32  and  C20_34 
REMARK   11  A    between atoms: C20_34  and  C21_35 
REMARK   12  A    between atoms: C23_37  and  O7_38 
REMARK   13  A    between atoms: O7_38  and  C24_39 
ROOT
HETATM    1  C5  UNL     1      -0.677  -0.450   0.495  1.00  0.00     0.090 C 
HETATM    2  C8  UNL     1       0.470  -0.612   1.473  1.00  0.00     0.232 C 
HETATM    3  O2  UNL     1       0.260   0.200   2.465  1.00  0.00    -0.273 OA
HETATM    4  N1  UNL     1       1.600  -1.370   1.551  1.00  0.00    -0.348 N 
ATOM      5  H1  UNL     1       1.427  -2.061   2.281  1.00  0.00     0.163 HD
HETATM    6  C9  UNL     1       2.890  -1.623   1.077  1.00  0.00     0.162 C 
HETATM    7  C13 UNL     1       3.787  -0.784   0.364  1.00  0.00     0.141 C 
HETATM    8  N2  UNL     1       4.001  -0.436  -0.983  1.00  0.00    -0.307 N 
ATOM      9  H2  UNL     1       4.922  -0.672  -1.352  1.00  0.00     0.170 HD
HETATM   10  C14 UNL     1       3.126   0.194  -1.902  1.00  0.00     0.260 C 
HETATM   11  O4  UNL     1       2.798  -0.430  -2.947  1.00  0.00    -0.270 OA
HETATM   12  C15 UNL     1       2.545   1.567  -1.738  1.00  0.00     0.286 C 
HETATM   13  C17 UNL     1       1.107   1.619  -2.128  1.00  0.00     0.151 C 
HETATM   14  N3  UNL     1      -0.021   2.082  -1.495  1.00  0.00    -0.360 N 
ATOM     15  H3  UNL     1      -0.274   2.940  -1.986  1.00  0.00     0.162 HD
HETATM   16  C18 UNL     1      -0.977   1.931  -0.503  1.00  0.00     0.055 C 
HETATM   17  C19 UNL     1      -2.320   2.141  -1.306  1.00  0.00     0.041 C 
HETATM   18  C23 UNL     1      -1.287   0.878   0.455  1.00  0.00     0.169 C 
ENDROOT
BRANCH   1  19
HETATM   19  C4  UNL     1      -0.528  -1.309  -0.691  1.00  0.00     0.024 C 
BRANCH  19  20
HETATM   20  C3  UNL     1      -1.634  -1.618  -1.567  1.00  0.00     0.001 C 
BRANCH  20  21
HETATM   21  C2  UNL     1      -1.084  -2.555  -2.675  1.00  0.00    -0.005 C 
HETATM   22  C1  UNL     1      -2.203  -2.903  -3.612  1.00  0.00     0.005 C 
ENDBRANCH  20  21
ENDBRANCH  19  20
ENDBRANCH   1  19
BRANCH   1  23
HETATM   23  C6  UNL     1      -1.761  -1.331   1.230  1.00  0.00     0.189 C 
BRANCH  23  24
HETATM   24  O1  UNL     1      -1.174  -2.628   1.420  1.00  0.00    -0.395 OA
HETATM   25  C7  UNL     1      -2.164  -3.361   2.067  1.00  0.00     0.201 C 
ENDBRANCH  23  24
ENDBRANCH   1  23
BRANCH  18  26
HETATM   26  O7  UNL     1      -2.673   0.815   0.687  1.00  0.00    -0.378 OA
BRANCH  26  27
HETATM   27  C24 UNL     1      -3.310   1.252   1.744  1.00  0.00     0.114 C 
HETATM   28  C25 UNL     1      -4.349   2.309   1.299  1.00  0.00     0.039 C 
HETATM   29  C26 UNL     1      -4.239   0.329   2.542  1.00  0.00     0.039 C 
ENDBRANCH  26  27
ENDBRANCH  18  26
BRANCH  16  30
HETATM   30  C20 UNL     1      -0.865   3.258   0.286  1.00  0.00     0.033 C 
BRANCH  30  31
HETATM   31  C21 UNL     1       0.521   3.516   0.844  1.00  0.00    -0.002 C 
HETATM   32  C22 UNL     1       0.475   4.848   1.616  1.00  0.00     0.005 C 
ENDBRANCH  30  31
ENDBRANCH  16  30
BRANCH   6  33
HETATM   33  C10 UNL     1       2.829  -2.962   0.282  1.00  0.00     0.008 C 
HETATM   34  C11 UNL     1       4.220  -3.282  -0.247  1.00  0.00     0.012 C 
HETATM   35  C12 UNL     1       2.356  -4.092   1.113  1.00  0.00     0.012 C 
ENDBRANCH   6  33
BRANCH   7  36
HETATM   36  O3  UNL     1       4.634  -0.178   1.159  1.00  0.00    -0.348 OA
ATOM     37  H3  UNL     1       5.234   0.383   0.682  1.00  0.00     0.219 HD
ENDBRANCH   7  36
BRANCH  13  38
HETATM   38  O6  UNL     1       1.054   1.091  -3.322  1.00  0.00    -0.347 OA
ATOM     39  H6  UNL     1       0.138   1.124  -3.571  1.00  0.00     0.219 HD
ENDBRANCH  13  38
BRANCH  12  40
HETATM   40  O5  UNL     1       3.301   2.495  -2.453  1.00  0.00    -0.373 OA
HETATM   41  C16 UNL     1       3.998   3.396  -1.713  1.00  0.00     0.203 C 
ENDBRANCH  12  40
TORSDOF 13
