REMARK  10 active torsions:
REMARK  status: ('A' for Active; 'I' for Inactive)
REMARK    1  A    between atoms: C2_2  and  C3_3 
REMARK    2  A    between atoms: C3_3  and  C4_4 
REMARK    3  A    between atoms: C4_4  and  C5_5 
REMARK    4  A    between atoms: C5_5  and  C6_6 
REMARK    5  A    between atoms: C6_6  and  N1_7 
REMARK    6  A    between atoms: C8_9  and  C9_10 
REMARK       I    between atoms: C9_10  and  N2_12 
REMARK    7  A    between atoms: N2_12  and  C10_14 
REMARK    8  A    between atoms: C11_15  and  N3_16 
REMARK       I    between atoms: N3_16  and  C12_18 
REMARK       I    between atoms: C12_18  and  N4_20 
REMARK    9  A    between atoms: C15_24  and  N5_25 
REMARK   10  A    between atoms: C20_34  and  N8_35 
ROOT
HETATM    1  N3  UNL     1      -2.443   2.161  -0.151  1.00  0.00    -0.318 N 
ATOM      2  H3  UNL     1      -3.321   2.405  -0.610  1.00  0.00     0.170 HD
HETATM    3  C12 UNL     1      -2.549   1.953   1.277  1.00  0.00     0.324 C 
HETATM    4  O2  UNL     1      -1.547   1.632   1.919  1.00  0.00    -0.247 OA
HETATM    5  N4  UNL     1      -3.795   2.127   1.901  1.00  0.00    -0.308 N 
ATOM      6  H4  UNL     1      -3.890   2.816   2.647  1.00  0.00     0.170 HD
HETATM    7  C13 UNL     1      -4.808   1.439   1.552  1.00  0.00     0.043 A 
HETATM    8  C14 UNL     1      -4.807   0.478   0.578  1.00  0.00     0.080 A 
HETATM    9  C15 UNL     1      -5.981  -0.120   0.115  1.00  0.00     0.130 A 
HETATM   10  N7  UNL     1      -7.140   0.283   0.663  1.00  0.00    -0.324 N 
ATOM     11  H7  UNL     1      -8.010  -0.141   0.341  1.00  0.00     0.169 HD
HETATM   12  C20 UNL     1      -7.194   1.232   1.628  1.00  0.00     0.149 A 
HETATM   13  C24 UNL     1      -6.034   1.814   2.082  1.00  0.00     0.082 A 
ENDROOT
BRANCH   1  14
HETATM   14  C11 UNL     1      -1.357   2.085  -0.997  1.00  0.00     0.110 C 
HETATM   15  C10 UNL     1      -0.283   1.512  -1.665  1.00  0.00     0.108 C 
BRANCH  15  16
HETATM   16  N2  UNL     1       0.897   0.993  -0.980  1.00  0.00    -0.332 N 
HETATM   17  C9  UNL     1       1.963   0.484  -1.717  1.00  0.00     0.259 C 
HETATM   18  O1  UNL     1       1.922   0.413  -2.985  1.00  0.00    -0.267 OA
ATOM     19  H2  UNL     1       0.941   1.003   0.039  1.00  0.00     0.168 HD
BRANCH  17  20
HETATM   20  C8  UNL     1       3.171   0.036  -1.009  1.00  0.00     0.073 A 
HETATM   21  C7  UNL     1       4.499   0.268  -1.428  1.00  0.00     0.129 A 
HETATM   22  N1  UNL     1       5.342  -0.169  -0.486  1.00  0.00    -0.300 N 
HETATM   23  N11 UNL     1       4.608  -0.660   0.491  1.00  0.00    -0.298 N 
HETATM   24  C25 UNL     1       3.280  -0.559   0.207  1.00  0.00     0.041 A 
HETATM   25  C27 UNL     1       5.198  -1.157   1.741  1.00  0.00     0.178 C 
HETATM   26  C26 UNL     1       2.153  -1.083   1.061  1.00  0.00     0.071 C 
BRANCH  22  27
HETATM   27  C6  UNL     1       6.799  -0.093  -0.543  1.00  0.00     0.148 C 
BRANCH  27  28
HETATM   28  C5  UNL     1       7.332  -1.348  -1.198  1.00  0.00     0.022 C 
BRANCH  28  29
HETATM   29  C4  UNL     1       8.830  -1.367  -1.320  1.00  0.00     0.002 C 
BRANCH  29  30
HETATM   30  C3  UNL     1       9.568  -1.368  -0.045  1.00  0.00    -0.000 C 
BRANCH  30  31
HETATM   31  C2  UNL     1      11.063  -1.350  -0.254  1.00  0.00    -0.005 C 
HETATM   32  C1  UNL     1      11.495  -0.123  -0.989  1.00  0.00     0.005 C 
ENDBRANCH  30  31
ENDBRANCH  29  30
ENDBRANCH  28  29
ENDBRANCH  27  28
ENDBRANCH  22  27
ENDBRANCH  17  20
ENDBRANCH  15  16
ENDBRANCH   1  14
BRANCH   9  33
HETATM   33  N5  UNL     1      -5.863  -1.124  -0.891  1.00  0.00    -0.251 N 
HETATM   34  C16 UNL     1      -4.744  -1.293  -1.656  1.00  0.00     0.120 A 
HETATM   35  C17 UNL     1      -4.952  -2.347  -2.531  1.00  0.00     0.045 A 
HETATM   36  C18 UNL     1      -6.237  -2.786  -2.245  1.00  0.00     0.024 A 
HETATM   37  C19 UNL     1      -7.016  -3.880  -2.860  1.00  0.00     0.070 C 
HETATM   38  N6  UNL     1      -6.711  -2.014  -1.261  1.00  0.00    -0.297 N 
ATOM     39  H6  UNL     1      -7.639  -2.120  -0.852  1.00  0.00     0.187 HD
ENDBRANCH   9  33
BRANCH  12  40
HETATM   40  N8  UNL     1      -8.429   1.694   2.179  1.00  0.00    -0.180 N 
HETATM   41  N9  UNL     1      -9.473   2.136   1.402  1.00  0.00    -0.287 N 
HETATM   42  C21 UNL     1     -10.417   2.524   2.307  1.00  0.00     0.135 A 
ATOM     43  H9  UNL     1      -9.529   2.167   0.384  1.00  0.00     0.188 HD
HETATM   44  C22 UNL     1      -9.934   2.308   3.578  1.00  0.00     0.041 A 
HETATM   45  C23 UNL     1     -10.691   2.623   4.851  1.00  0.00     0.071 C 
HETATM   46  N10 UNL     1      -8.730   1.805   3.422  1.00  0.00    -0.281 N 
ATOM     47  H10 UNL     1      -8.114   1.537   4.190  1.00  0.00     0.189 HD
ENDBRANCH  12  40
TORSDOF 10
