REMARK  13 active torsions:
REMARK  status: ('A' for Active; 'I' for Inactive)
REMARK    1  A    between atoms: C2_2  and  N1_3 
REMARK    2  A    between atoms: C2_2  and  O4_39 
REMARK    3  A    between atoms: C5_9  and  N3_10 
REMARK    4  A    between atoms: C8_13  and  C9_14 
REMARK    5  A    between atoms: N6_24  and  C14_25 
REMARK    6  A    between atoms: C14_25  and  C15_26 
REMARK    7  A    between atoms: C15_26  and  C16_27 
REMARK    8  A    between atoms: N7_30  and  C19_31 
REMARK    9  A    between atoms: C19_31  and  C20_32 
REMARK   10  A    between atoms: C20_32  and  C21_33 
REMARK   11  A    between atoms: C21_33  and  O2_34 
REMARK   12  A    between atoms: O4_39  and  C24_40 
REMARK   13  A    between atoms: C24_40  and  C25_41 
ROOT
HETATM    1  N1  UNL     1       2.817  -2.221  -0.237  1.00  0.00    -0.346 N 
ATOM      2  H1  UNL     1       2.275  -2.937  -0.720  1.00  0.00     0.163 HD
HETATM    3  C3  UNL     1       2.180  -1.147   0.033  1.00  0.00     0.172 A 
HETATM    4  N2  UNL     1       2.726  -0.105   0.660  1.00  0.00    -0.344 N 
ATOM      5  H2  UNL     1       3.704  -0.142   0.948  1.00  0.00     0.167 HD
HETATM    6  C4  UNL     1       1.998   0.991   0.914  1.00  0.00     0.139 A 
HETATM    7  C5  UNL     1       0.647   1.101   0.541  1.00  0.00     0.131 A 
HETATM    8  N6  UNL     1       0.088   0.057  -0.091  1.00  0.00    -0.296 N 
HETATM    9  C23 UNL     1       0.833  -1.029  -0.336  1.00  0.00     0.293 A 
HETATM   10  O3  UNL     1       0.336  -2.016  -0.924  1.00  0.00    -0.264 OA
ENDROOT
BRANCH   7  11
HETATM   11  N3  UNL     1      -0.040   2.308   0.842  1.00  0.00    -0.292 N 
HETATM   12  C6  UNL     1      -0.165   3.396  -0.104  1.00  0.00     0.177 A 
HETATM   13  C7  UNL     1      -0.908   4.474   0.596  1.00  0.00     0.018 A 
HETATM   14  C8  UNL     1      -1.390   5.730   0.412  1.00  0.00     0.039 A 
HETATM   15  C12 UNL     1      -1.210   4.032   1.865  1.00  0.00     0.126 A 
HETATM   16  N4  UNL     1      -2.000   6.070   1.587  1.00  0.00    -0.303 N 
HETATM   17  N5  UNL     1      -1.892   5.068   2.439  1.00  0.00    -0.295 N 
ATOM     18  H4  UNL     1      -2.465   6.958   1.776  1.00  0.00     0.186 HD
ATOM     19  H5  UNL     1      -2.264   5.067   3.389  1.00  0.00     0.187 HD
HETATM   20  C13 UNL     1      -0.686   2.692   2.049  1.00  0.00     0.278 A 
HETATM   21  O1  UNL     1      -0.795   1.996   3.111  1.00  0.00    -0.265 OA
BRANCH  14  22
HETATM   22  C9  UNL     1      -1.319   6.624  -0.774  1.00  0.00     0.029 C 
HETATM   23  C10 UNL     1      -1.997   7.938  -0.495  1.00  0.00     0.016 C 
HETATM   24  C11 UNL     1       0.142   6.947  -1.113  1.00  0.00     0.016 C 
ENDBRANCH  14  22
ENDBRANCH   7  11
BRANCH   8  25
HETATM   25  C14 UNL     1      -1.304   0.039  -0.517  1.00  0.00     0.134 C 
BRANCH  25  26
HETATM   26  C15 UNL     1      -2.228  -0.559   0.502  1.00  0.00     0.027 C 
BRANCH  26  27
HETATM   27  C16 UNL     1      -3.663  -0.593   0.048  1.00  0.00     0.017 C 
HETATM   28  C17 UNL     1      -4.500  -1.217   1.161  1.00  0.00     0.036 C 
HETATM   29  C18 UNL     1      -4.539  -2.663   0.705  1.00  0.00     0.273 C 
HETATM   30  N7  UNL     1      -4.667  -2.563  -0.690  1.00  0.00     0.088 N 
HETATM   31  C22 UNL     1      -3.906  -1.445  -1.133  1.00  0.00     0.277 C 
BRANCH  30  32
HETATM   32  C19 UNL     1      -5.954  -2.741  -1.263  1.00  0.00     0.274 C 
BRANCH  32  33
HETATM   33  C20 UNL     1      -6.325  -4.218  -1.061  1.00  0.00     0.056 C 
BRANCH  33  34
HETATM   34  C21 UNL     1      -7.687  -4.414  -1.672  1.00  0.00     0.165 C 
BRANCH  34  35
HETATM   35  O2  UNL     1      -8.575  -3.582  -1.025  1.00  0.00    -0.401 OA
ATOM     36  H2  UNL     1      -9.434  -3.706  -1.411  1.00  0.00     0.209 HD
ENDBRANCH  34  35
ENDBRANCH  33  34
ENDBRANCH  32  33
ENDBRANCH  30  32
ENDBRANCH  26  27
ENDBRANCH  25  26
ENDBRANCH   8  25
BRANCH   1  37
HETATM   37  C2  UNL     1       4.166  -2.567   0.035  1.00  0.00     0.218 C 
HETATM   38  C1  UNL     1       4.290  -3.939   0.677  1.00  0.00     0.063 C 
BRANCH  37  39
HETATM   39  O4  UNL     1       4.830  -2.567  -1.219  1.00  0.00    -0.363 OA
BRANCH  39  40
HETATM   40  C24 UNL     1       5.851  -1.653  -1.246  1.00  0.00     0.204 C 
BRANCH  40  41
HETATM   41  C25 UNL     1       6.881  -1.959  -0.221  1.00  0.00    -0.060 C 
HETATM   42  C26 UNL     1       7.212  -1.111   0.772  1.00  0.00    -0.022 C 
HETATM   43  C27 UNL     1       8.283  -1.733   1.625  1.00  0.00     0.028 C 
HETATM   44  C28 UNL     1       8.054  -3.226   1.360  1.00  0.00     0.008 C 
HETATM   45  C29 UNL     1       7.710  -3.184  -0.112  1.00  0.00     0.036 C 
ENDBRANCH  40  41
ENDBRANCH  39  40
ENDBRANCH  37  39
ENDBRANCH   1  37
TORSDOF 13
