REMARK  5 active torsions:
REMARK  status: ('A' for Active; 'I' for Inactive)
REMARK    1  A    between atoms: N1_1  and  C1_4 
REMARK    2  A    between atoms: C4_11  and  N4_12 
REMARK    3  A    between atoms: N6_21  and  C12_22 
REMARK    4  A    between atoms: C12_22  and  C13_23 
REMARK    5  A    between atoms: C13_23  and  C14_24 
ROOT
HETATM    1  C1  UNL     1       4.818  -1.489  -0.334  1.00  0.00     0.678 A 
HETATM    2  N2  UNL     1       3.882  -0.577  -0.644  1.00  0.00    -0.174 N 
ATOM      3  H2  UNL     1       4.152   0.254  -1.171  1.00  0.00     0.186 HD
HETATM    4  C2  UNL     1       2.588  -0.734  -0.274  1.00  0.00     0.169 A 
HETATM    5  C3  UNL     1       2.184  -1.842   0.438  1.00  0.00     0.136 A 
HETATM    6  N3  UNL     1       0.866  -1.730   0.660  1.00  0.00    -0.183 N 
ATOM      7  H3  UNL     1       0.297  -2.409   1.166  1.00  0.00     0.184 HD
HETATM    8  C4  UNL     1       0.404  -0.584   0.114  1.00  0.00     0.700 A 
HETATM    9  N6  UNL     1       1.465   0.010  -0.450  1.00  0.00    -0.164 N 
HETATM   10  C15 UNL     1       3.165  -2.767   0.745  1.00  0.00     0.163 A 
HETATM   11  N8  UNL     1       2.766  -3.914   1.479  1.00  0.00    -0.080 NA
HETATM   12  N9  UNL     1       4.441  -2.576   0.360  1.00  0.00    -0.177 N 
ATOM     13  H9  UNL     1       5.142  -3.277   0.602  1.00  0.00     0.185 HD
ENDROOT
BRANCH   8  14
HETATM   14  N4  UNL     1      -0.964  -0.164   0.166  1.00  0.00    -0.127 N 
HETATM   15  C5  UNL     1      -1.521   0.583   1.295  1.00  0.00     0.168 C 
HETATM   16  C6  UNL     1      -3.017   0.237   1.292  1.00  0.00     0.007 C 
HETATM   17  C7  UNL     1      -3.805   1.119   0.420  1.00  0.00     0.006 C 
HETATM   18  C11 UNL     1      -3.103  -1.225   1.007  1.00  0.00     0.029 C 
HETATM   19  C8  UNL     1      -4.185   0.627  -0.915  1.00  0.00     0.002 C 
HETATM   20  C9  UNL     1      -4.191  -0.863  -1.090  1.00  0.00     0.023 C 
HETATM   21  C10 UNL     1      -2.886  -1.369  -0.507  1.00  0.00     0.100 C 
HETATM   22  N5  UNL     1      -1.854  -0.446  -0.877  1.00  0.00    -0.119 NA
ENDBRANCH   8  14
BRANCH   9  23
HETATM   23  C12 UNL     1       1.432   1.275  -1.161  1.00  0.00     0.158 C 
BRANCH  23  24
HETATM   24  C13 UNL     1       1.680   2.438  -0.238  1.00  0.00     0.120 C 
BRANCH  24  25
HETATM   25  C14 UNL     1       1.648   3.732  -0.952  1.00  0.00     0.232 C 
HETATM   26  N7  UNL     1       1.788   4.948  -0.249  1.00  0.00    -0.062 NA
HETATM   27  O1  UNL     1       1.496   3.755  -2.188  1.00  0.00    -0.277 OA
ENDBRANCH  24  25
ENDBRANCH  23  24
ENDBRANCH   9  23
BRANCH   1  28
HETATM   28  N1  UNL     1       6.060  -1.361  -0.676  1.00  0.00    -0.234 N 
ATOM     29  H12 UNL     1       6.346  -0.536  -1.203  1.00  0.00     0.174 HD
ATOM     30  H11 UNL     1       6.771  -2.054  -0.441  1.00  0.00     0.174 HD
ENDBRANCH   1  28
TORSDOF 5
