REMARK  2 active torsions:
REMARK  status: ('A' for Active; 'I' for Inactive)
REMARK    1  A    between atoms: C2_2  and  C3_3 
REMARK    2  A    between atoms: C9_13  and  O1_14 
ROOT
HETATM    1  C3  UNL     1      -0.630  -0.635  -0.673  1.00  0.00     0.022 A 
HETATM    2  C4  UNL     1       0.620  -1.127  -1.325  1.00  0.00     0.287 C 
HETATM    3  N1  UNL     1       1.787  -1.161  -0.499  1.00  0.00     0.114 N 
HETATM    4  C5  UNL     1       2.674  -0.086  -0.921  1.00  0.00     0.277 C 
HETATM    5  C6  UNL     1       1.791   1.169  -0.850  1.00  0.00     0.066 C 
HETATM    6  C7  UNL     1       0.881   1.098   0.348  1.00  0.00     0.224 C 
HETATM    7  N2  UNL     1       1.423   0.227   1.376  1.00  0.00    -0.042 N 
ATOM      8  H21 UNL     1       0.862   0.267   2.227  1.00  0.00     0.279 HD
ATOM      9  H22 UNL     1       2.302   0.592   1.744  1.00  0.00     0.279 HD
HETATM   10  C8  UNL     1       1.574  -1.128   0.914  1.00  0.00     0.503 C 
HETATM   11  C9  UNL     1      -0.502   0.624   0.093  1.00  0.00     0.099 A 
HETATM   12  C11 UNL     1      -1.142   0.705  -1.235  1.00  0.00     0.055 A 
ENDROOT
BRANCH   1  13
HETATM   13  C2  UNL     1      -1.676  -1.670  -0.399  1.00  0.00     0.010 C 
HETATM   14  C1  UNL     1      -2.919  -1.208   0.257  1.00  0.00     0.006 C 
ENDBRANCH   1  13
BRANCH  11  15
HETATM   15  O1  UNL     1      -1.378   0.772   1.158  1.00  0.00    -0.382 OA
HETATM   16  C10 UNL     1      -1.194   1.934   1.840  1.00  0.00     0.202 C 
ENDBRANCH  11  15
TORSDOF 2
