REMARK  2 active torsions:
REMARK  status: ('A' for Active; 'I' for Inactive)
REMARK    1  A    between atoms: O1_2  and  C2_3 
REMARK    2  A    between atoms: C11_14  and  O4_15 
ROOT
HETATM    1  C2  UNL     1      -2.173   0.096  -0.286  1.00  0.00     0.158 C 
HETATM    2  C3  UNL     1      -1.257   0.351   0.861  1.00  0.00     0.045 C 
HETATM    3  C4  UNL     1      -1.100  -0.797   1.797  1.00  0.00     0.015 C 
HETATM    4  C5  UNL     1       0.086   0.620   0.190  1.00  0.00     0.160 C 
HETATM    5  O2  UNL     1       1.098   0.056   0.941  1.00  0.00    -0.370 OA
HETATM    6  C6  UNL     1       2.318   0.198   0.317  1.00  0.00     0.075 C 
HETATM    7  C7  UNL     1       3.239  -0.905   0.829  1.00  0.00     0.048 C 
HETATM    8  C8  UNL     1       2.891   1.559   0.543  1.00  0.00     0.048 C 
HETATM    9  C9  UNL     1       2.224  -0.010  -1.193  1.00  0.00     0.205 C 
HETATM   10  O3  UNL     1       1.098  -0.831  -1.392  1.00  0.00    -0.378 OA
HETATM   11  C10 UNL     1      -0.013  -0.020  -1.189  1.00  0.00     0.182 C 
HETATM   12  C11 UNL     1      -1.303  -0.783  -1.193  1.00  0.00     0.179 C 
ENDROOT
BRANCH   1  13
HETATM   13  O1  UNL     1      -3.358  -0.505   0.031  1.00  0.00    -0.388 OA
HETATM   14  C1  UNL     1      -4.395   0.316  -0.465  1.00  0.00     0.202 C 
ENDBRANCH   1  13
BRANCH  12  15
HETATM   15  O4  UNL     1      -1.192  -2.062  -0.708  1.00  0.00    -0.390 OA
ATOM     16  H4  UNL     1      -0.653  -2.606  -1.270  1.00  0.00     0.210 HD
ENDBRANCH  12  15
TORSDOF 2
