REMARK  3 active torsions:
REMARK  status: ('A' for Active; 'I' for Inactive)
REMARK    1  A    between atoms: C2_2  and  N1_3 
REMARK    2  A    between atoms: C4_5  and  O1_6 
REMARK    3  A    between atoms: C6_9  and  O2_10 
ROOT
HETATM    1  N1  UNL     1       0.776  -0.123  -0.142  1.00  0.00    -0.369 N 
HETATM    2  C3  UNL     1       0.063   1.014  -0.514  1.00  0.00     0.094 C 
HETATM    3  C4  UNL     1      -1.423   0.980  -0.416  1.00  0.00     0.159 C 
HETATM    4  C5  UNL     1      -1.984  -0.186   0.337  1.00  0.00     0.074 C 
HETATM    5  C6  UNL     1      -1.313  -1.450  -0.114  1.00  0.00     0.159 C 
HETATM    6  C7  UNL     1       0.173  -1.390  -0.136  1.00  0.00     0.094 C 
ENDROOT
BRANCH   1   7
HETATM    7  C2  UNL     1       1.905   0.035   0.716  1.00  0.00     0.122 C 
HETATM    8  C1  UNL     1       3.058   0.671  -0.023  1.00  0.00     0.027 C 
ENDBRANCH   1   7
BRANCH   3   9
HETATM    9  O1  UNL     1      -1.933   2.130   0.210  1.00  0.00    -0.390 OA
ATOM     10  H1  UNL     1      -2.881   2.108   0.272  1.00  0.00     0.210 HD
ENDBRANCH   3   9
BRANCH   5  11
HETATM   11  O2  UNL     1      -1.795  -2.463   0.733  1.00  0.00    -0.390 OA
ATOM     12  H2  UNL     1      -1.370  -3.263   0.447  1.00  0.00     0.210 HD
ENDBRANCH   5  11
TORSDOF 3
