REMARK  7 active torsions:
REMARK  status: ('A' for Active; 'I' for Inactive)
REMARK    1  A    between atoms: C3_3  and  N1_4 
REMARK    2  A    between atoms: N2_8  and  C6_9 
REMARK    3  A    between atoms: C6_9  and  C7_10 
REMARK    4  A    between atoms: C10_15  and  C11_16 
REMARK    5  A    between atoms: N4_23  and  C16_24 
REMARK    6  A    between atoms: C16_24  and  C17_25 
REMARK    7  A    between atoms: C17_25  and  O2_26 
ROOT
HETATM    1  C1  UNL     1      -5.559  -2.194  -0.914  1.00  0.00     0.014 C 
HETATM    2  C2  UNL     1      -5.050  -1.917   0.156  1.00  0.00    -0.098 C 
HETATM    3  C3  UNL     1      -4.434  -1.607   1.473  1.00  0.00     0.214 C 
ENDROOT
BRANCH   3   4
HETATM    4  N1  UNL     1      -3.035  -1.430   1.370  1.00  0.00    -0.368 N 
HETATM    5  C4  UNL     1      -2.302  -0.722   0.653  1.00  0.00     0.094 C 
HETATM    6  C5  UNL     1      -0.823  -0.829   0.859  1.00  0.00     0.202 C 
HETATM    7  N4  UNL     1      -2.734   0.178  -0.348  1.00  0.00    -0.359 N 
HETATM    8  N2  UNL     1      -0.133  -0.979  -0.407  1.00  0.00    -0.339 N 
HETATM    9  C14 UNL     1      -0.754  -0.535  -1.599  1.00  0.00     0.238 C 
HETATM   10  O1  UNL     1      -0.168  -0.672  -2.725  1.00  0.00    -0.272 OA
HETATM   11  C15 UNL     1      -2.076   0.096  -1.644  1.00  0.00     0.227 C 
ATOM     12  H1  UNL     1      -2.511  -2.009   2.026  1.00  0.00     0.161 HD
BRANCH   8  13
HETATM   13  C6  UNL     1       1.130  -1.638  -0.398  1.00  0.00     0.168 C 
BRANCH  13  14
HETATM   14  C7  UNL     1       2.339  -0.816  -0.312  1.00  0.00     0.001 A 
HETATM   15  C8  UNL     1       3.616  -1.409  -0.252  1.00  0.00     0.015 A 
HETATM   16  C9  UNL     1       3.888  -2.878  -0.240  1.00  0.00     0.069 C 
HETATM   17  N3  UNL     1       4.520  -0.433  -0.207  1.00  0.00    -0.362 N 
HETATM   18  C10 UNL     1       3.928   0.767  -0.234  1.00  0.00     0.027 A 
ATOM     19  H3  UNL     1       5.528  -0.580  -0.158  1.00  0.00     0.165 HD
HETATM   20  C13 UNL     1       2.556   0.503  -0.300  1.00  0.00     0.043 A 
HETATM   21 BR1  UNL     1       1.277   1.929  -0.387  1.00  0.00    -0.048 Br
BRANCH  18  22
HETATM   22  C11 UNL     1       4.605   2.085  -0.201  1.00  0.00     0.054 C 
HETATM   23  C12 UNL     1       4.485   2.713   1.164  1.00  0.00     0.011 C 
ENDBRANCH  18  22
ENDBRANCH  13  14
ENDBRANCH   8  13
BRANCH   7  24
HETATM   24  C16 UNL     1      -3.763   1.148  -0.168  1.00  0.00     0.150 C 
BRANCH  24  25
HETATM   25  C17 UNL     1      -3.168   2.562  -0.211  1.00  0.00     0.183 C 
BRANCH  25  26
HETATM   26  O2  UNL     1      -2.239   2.707   0.790  1.00  0.00    -0.399 OA
ATOM     27  H2  UNL     1      -1.871   3.582   0.763  1.00  0.00     0.209 HD
ENDBRANCH  25  26
ENDBRANCH  24  25
ENDBRANCH   7  24
ENDBRANCH   3   4
TORSDOF 7
