REMARK  8 active torsions:
REMARK  status: ('A' for Active; 'I' for Inactive)
REMARK    1  A    between atoms: N1_4  and  C4_5 
REMARK    2  A    between atoms: C4_5  and  C5_6 
REMARK    3  A    between atoms: C5_6  and  C6_7 
REMARK    4  A    between atoms: C6_7  and  C7_8 
REMARK    5  A    between atoms: C6_7  and  N2_14 
REMARK    6  A    between atoms: C14_16  and  O1_17 
REMARK    7  A    between atoms: C17_21  and  C18_22 
REMARK    8  A    between atoms: C18_22  and  N3_23 
ROOT
HETATM    1  C1  UNL     1       2.764  -1.400  -2.941  1.00  0.00     0.041 C 
HETATM    2  C2  UNL     1       2.094  -0.412  -1.960  1.00  0.00     0.146 C 
HETATM    3  C3  UNL     1       0.745  -0.956  -1.695  1.00  0.00     0.303 C 
HETATM    4  N1  UNL     1       0.449  -0.962  -0.299  1.00  0.00     0.093 N 
HETATM    5  C16 UNL     1       1.498  -1.551   0.497  1.00  0.00     0.306 C 
HETATM    6  C17 UNL     1       2.865  -1.039   0.167  1.00  0.00     0.170 C 
HETATM    7  O2  UNL     1       2.958  -0.267  -0.938  1.00  0.00    -0.376 OA
ENDROOT
BRANCH   4   8
HETATM    8  C4  UNL     1       0.134   0.333   0.236  1.00  0.00     0.275 C 
BRANCH   8   9
HETATM    9  C5  UNL     1      -1.126   0.946  -0.235  1.00  0.00     0.060 C 
BRANCH   9  10
HETATM   10  C6  UNL     1      -2.411   0.255  -0.009  1.00  0.00     0.114 C 
BRANCH  10  11
HETATM   11  C7  UNL     1      -3.522   1.075  -0.595  1.00  0.00    -0.036 A 
HETATM   12  C8  UNL     1      -3.264   2.302  -1.130  1.00  0.00     0.009 A 
HETATM   13  C9  UNL     1      -4.262   3.098  -1.695  1.00  0.00     0.001 A 
HETATM   14  C10 UNL     1      -5.539   2.585  -1.690  1.00  0.00     0.000 A 
HETATM   15  C11 UNL     1      -5.831   1.352  -1.159  1.00  0.00     0.001 A 
HETATM   16  C12 UNL     1      -4.814   0.603  -0.613  1.00  0.00     0.009 A 
ENDBRANCH  10  11
BRANCH  10  17
HETATM   17  N2  UNL     1      -2.633  -0.244   1.225  1.00  0.00    -0.399 N 
HETATM   18  C13 UNL     1      -2.043  -1.233   1.980  1.00  0.00     0.151 C 
HETATM   19  C14 UNL     1      -3.187  -1.116   2.993  1.00  0.00     0.153 C 
HETATM   20  C15 UNL     1      -3.533   0.153   2.211  1.00  0.00     0.151 C 
BRANCH  19  21
HETATM   21  O1  UNL     1      -4.123  -2.116   2.948  1.00  0.00    -0.392 OA
ATOM     22  H1  UNL     1      -4.832  -2.043   3.576  1.00  0.00     0.210 HD
ENDBRANCH  19  21
ENDBRANCH  10  17
ENDBRANCH   9  10
ENDBRANCH   8   9
ENDBRANCH   4   8
BRANCH   6  23
HETATM   23  C18 UNL     1       3.540  -0.394   1.388  1.00  0.00     0.181 C 
BRANCH  23  24
HETATM   24  N3  UNL     1       4.854   0.075   0.993  1.00  0.00    -0.300 N 
HETATM   25  C19 UNL     1       6.023  -0.612   1.041  1.00  0.00     0.130 A 
HETATM   26  C20 UNL     1       6.998   0.245   0.562  1.00  0.00     0.044 A 
HETATM   27 BR1  UNL     1       8.837  -0.249   0.424  1.00  0.00    -0.048 Br
HETATM   28  C21 UNL     1       6.391   1.434   0.234  1.00  0.00     0.127 A 
HETATM   29  N4  UNL     1       5.087   1.292   0.510  1.00  0.00    -0.309 N 
ATOM     30  H4  UNL     1       4.378   2.012   0.370  1.00  0.00     0.186 HD
ENDBRANCH  23  24
ENDBRANCH   6  23
TORSDOF 8
