REMARK  4 active torsions:
REMARK  status: ('A' for Active; 'I' for Inactive)
REMARK    1  A    between atoms: N1_1  and  C1_4 
REMARK    2  A    between atoms: C6_11  and  C7_12 
REMARK    3  A    between atoms: C7_12  and  O2_14 
REMARK    4  A    between atoms: O2_14  and  N3_15 
ROOT
HETATM    1  C1  UNL     1      -3.225  -0.552   0.712  1.00  0.00     0.169 A 
HETATM    2  N2  UNL     1      -3.515   0.588   0.060  1.00  0.00    -0.346 N 
ATOM      3  H2  UNL     1      -4.478   0.915  -0.019  1.00  0.00     0.167 HD
HETATM    4  C2  UNL     1      -2.503   1.286  -0.485  1.00  0.00     0.119 A 
HETATM    5  C3  UNL     1      -1.200   0.836  -0.375  1.00  0.00     0.057 A 
HETATM    6  C4  UNL     1      -0.179   1.579  -0.949  1.00  0.00     0.032 A 
HETATM    7  C5  UNL     1       1.118   1.123  -0.833  1.00  0.00     0.021 A 
HETATM    8  C6  UNL     1       1.435  -0.040  -0.171  1.00  0.00     0.057 A 
HETATM    9  C8  UNL     1       0.382  -0.744   0.384  1.00  0.00     0.118 A 
HETATM   10  N4  UNL     1      -0.887  -0.302   0.273  1.00  0.00    -0.284 N 
HETATM   11  C9  UNL     1      -1.923  -0.995   0.819  1.00  0.00     0.295 A 
HETATM   12  O3  UNL     1      -1.649  -2.061   1.428  1.00  0.00    -0.263 OA
ENDROOT
BRANCH   8  13
HETATM   13  C7  UNL     1       2.817  -0.496  -0.066  1.00  0.00     0.316 C 
HETATM   14  O1  UNL     1       3.110  -1.548   0.532  1.00  0.00    -0.257 OA
BRANCH  13  15
HETATM   15  O2  UNL     1       3.816   0.261  -0.646  1.00  0.00    -0.202 OA
BRANCH  15  16
HETATM   16  N3  UNL     1       5.122  -0.168  -0.549  1.00  0.00    -0.302 N 
ATOM     17  H32 UNL     1       5.331  -1.034  -0.053  1.00  0.00     0.184 HD
ATOM     18  H31 UNL     1       5.860   0.391  -0.977  1.00  0.00     0.184 HD
ENDBRANCH  15  16
ENDBRANCH  13  15
ENDBRANCH   8  13
BRANCH   1  19
HETATM   19  N1  UNL     1      -4.198  -1.224   1.238  1.00  0.00    -0.381 N 
ATOM     20  H12 UNL     1      -5.161  -0.896   1.159  1.00  0.00     0.157 HD
ATOM     21  H11 UNL     1      -3.978  -2.089   1.732  1.00  0.00     0.157 HD
ENDBRANCH   1  19
TORSDOF 4
