REMARK  2 active torsions:
REMARK  status: ('A' for Active; 'I' for Inactive)
REMARK    1  A    between atoms: C1_2  and  N1_3 
REMARK    2  A    between atoms: N1_3  and  C2_5 
ROOT
HETATM    1  C2  UNL     1       1.178   0.068   0.038  1.00  0.00     0.131 A 
HETATM    2  N2  UNL     1       1.533  -1.230   0.066  1.00  0.00    -0.293 N 
ATOM      3  H2  UNL     1       2.522  -1.476   0.102  1.00  0.00     0.172 HD
HETATM    4  C3  UNL     1       0.609  -2.211   0.047  1.00  0.00     0.327 A 
HETATM    5  O2  UNL     1       0.996  -3.406   0.075  1.00  0.00    -0.247 OA
HETATM    6  N3  UNL     1      -0.712  -1.947  -0.003  1.00  0.00    -0.293 N 
ATOM      7  H3  UNL     1      -1.392  -2.707  -0.018  1.00  0.00     0.172 HD
HETATM    8  C4  UNL     1      -1.121  -0.662  -0.033  1.00  0.00     0.132 A 
HETATM    9  N4  UNL     1      -2.453  -0.393  -0.083  1.00  0.00    -0.293 N 
ATOM     10  H4  UNL     1      -3.150  -1.138  -0.098  1.00  0.00     0.172 HD
HETATM   11  C5  UNL     1      -2.804   0.901  -0.111  1.00  0.00     0.328 A 
HETATM   12  O3  UNL     1      -4.030   1.175  -0.157  1.00  0.00    -0.247 OA
HETATM   13  N5  UNL     1      -1.908   1.905  -0.093  1.00  0.00    -0.275 N 
ATOM     14  H5  UNL     1      -2.237   2.870  -0.117  1.00  0.00     0.173 HD
HETATM   15  C6  UNL     1      -0.584   1.657  -0.044  1.00  0.00     0.267 A 
HETATM   16  O4  UNL     1       0.280   2.569  -0.025  1.00  0.00    -0.267 OA
HETATM   17  C7  UNL     1      -0.173   0.353  -0.013  1.00  0.00     0.120 A 
ENDROOT
BRANCH   1  18
HETATM   18  N1  UNL     1       2.007   1.028   0.054  1.00  0.00    -0.319 N 
ATOM     19  H1  UNL     1       1.626   1.974   0.028  1.00  0.00     0.169 HD
BRANCH  18  20
HETATM   20  C1  UNL     1       3.406   0.900   0.104  1.00  0.00     0.354 C 
HETATM   21  O1  UNL     1       4.106   1.005   1.135  1.00  0.00    -0.283 OA
ENDBRANCH  18  20
ENDBRANCH   1  18
TORSDOF 2
