REMARK  2 active torsions:
REMARK  status: ('A' for Active; 'I' for Inactive)
REMARK    1  A    between atoms: C4_8  and  N2_9 
REMARK    2  A    between atoms: N2_9  and  C5_11 
ROOT
HETATM    1  N2  UNL     1      -0.118  -0.678   0.611  1.00  0.00    -0.199 N 
ATOM      2  H2  UNL     1       0.221  -1.615   0.829  1.00  0.00     0.183 HD
ENDROOT
BRANCH   1   3
HETATM    3  C4  UNL     1       0.722   0.450   0.753  1.00  0.00     0.141 C 
HETATM    4  C3  UNL     1       1.969   0.370   0.258  1.00  0.00     0.121 A 
HETATM    5  C2  UNL     1       2.580  -0.755  -0.421  1.00  0.00     0.277 A 
HETATM    6  N5  UNL     1       2.925   1.409   0.320  1.00  0.00    -0.303 N 
HETATM    7  N1  UNL     1       3.906  -0.401  -0.771  1.00  0.00    -0.274 N 
HETATM    8  O2  UNL     1       2.015  -1.856  -0.654  1.00  0.00    -0.266 OA
HETATM    9  C1  UNL     1       4.101   0.925  -0.311  1.00  0.00     0.327 A 
ATOM     10  H1  UNL     1       4.586  -0.985  -1.258  1.00  0.00     0.173 HD
HETATM   11  O1  UNL     1       5.149   1.617  -0.422  1.00  0.00    -0.247 OA
ATOM     12  H5  UNL     1       2.795   2.330   0.738  1.00  0.00     0.171 HD
ENDBRANCH   1   3
BRANCH   1  13
HETATM   13  C5  UNL     1      -1.319  -0.490   0.200  1.00  0.00     0.684 A 
HETATM   14  N3  UNL     1      -1.836   0.710  -0.107  1.00  0.00    -0.201 N 
HETATM   15  C6  UNL     1      -3.092   0.877  -0.534  1.00  0.00     0.111 A 
ATOM     16  H3  UNL     1      -1.242   1.534  -0.010  1.00  0.00     0.183 HD
HETATM   17  C7  UNL     1      -3.905  -0.219  -0.670  1.00  0.00     0.092 A 
HETATM   18  C8  UNL     1      -3.383  -1.443  -0.358  1.00  0.00     0.260 A 
HETATM   19  O3  UNL     1      -4.064  -2.494  -0.457  1.00  0.00    -0.268 OA
HETATM   20  N4  UNL     1      -2.114  -1.566   0.068  1.00  0.00    -0.156 N 
ATOM     21  H4  UNL     1      -1.748  -2.491   0.295  1.00  0.00     0.187 HD
ENDBRANCH   1  13
TORSDOF 2
