REMARK  8 active torsions:
REMARK  status: ('A' for Active; 'I' for Inactive)
REMARK    1  A    between atoms: N1_1  and  C1_4 
REMARK    2  A    between atoms: N4_13  and  C5_14 
REMARK    3  A    between atoms: C5_14  and  C6_15 
REMARK    4  A    between atoms: C6_15  and  N5_16 
REMARK    5  A    between atoms: N5_16  and  C7_18 
REMARK    6  A    between atoms: N7_23  and  N8_24 
REMARK    7  A    between atoms: N9_30  and  C12_31 
REMARK    8  A    between atoms: C12_31  and  C13_32 
ROOT
HETATM    1  C1  UNL     1      -2.673   3.373  -0.384  1.00  0.00     0.680 A 
HETATM    2  N2  UNL     1      -3.110   2.089  -0.526  1.00  0.00    -0.174 N 
ATOM      3  H2  UNL     1      -4.108   1.882  -0.562  1.00  0.00     0.186 HD
HETATM    4  C2  UNL     1      -2.203   1.101  -0.618  1.00  0.00     0.152 A 
HETATM    5  C3  UNL     1      -0.832   1.405  -0.567  1.00  0.00     0.151 A 
HETATM    6  C4  UNL     1      -0.427   2.713  -0.421  1.00  0.00     0.290 A 
HETATM    7  O1  UNL     1       0.777   2.989  -0.373  1.00  0.00    -0.265 OA
HETATM    8  N3  UNL     1      -1.356   3.677  -0.332  1.00  0.00    -0.154 N 
ATOM      9  H3  UNL     1      -1.066   4.649  -0.224  1.00  0.00     0.187 HD
HETATM   10  N4  UNL     1       0.157   0.392  -0.699  1.00  0.00    -0.307 N 
HETATM   11  C10 UNL     1      -0.394  -0.935  -0.891  1.00  0.00     0.242 C 
HETATM   12  O2  UNL     1       0.258  -1.834  -1.467  1.00  0.00    -0.271 OA
HETATM   13  C11 UNL     1      -1.760  -1.272  -0.405  1.00  0.00     0.227 C 
HETATM   14  N9  UNL     1      -2.702  -0.231  -0.747  1.00  0.00    -0.356 N 
ENDROOT
BRANCH  10  15
HETATM   15  C5  UNL     1       1.569   0.571  -0.648  1.00  0.00     0.153 C 
BRANCH  15  16
HETATM   16  C6  UNL     1       2.145   0.444   0.746  1.00  0.00     0.158 C 
BRANCH  16  17
HETATM   17  N5  UNL     1       3.552   0.651   0.738  1.00  0.00    -0.223 N 
ATOM     18  H5  UNL     1       3.893   1.497   1.195  1.00  0.00     0.177 HD
BRANCH  17  19
HETATM   19  C7  UNL     1       4.516  -0.188   0.167  1.00  0.00     0.690 C 
HETATM   20  N6  UNL     1       5.279   0.058  -0.857  1.00  0.00    -0.223 N 
HETATM   21  C8  UNL     1       6.147  -1.033  -1.160  1.00  0.00     0.160 C 
ATOM     22  H6  UNL     1       5.259   0.931  -1.384  1.00  0.00     0.177 HD
HETATM   23  C9  UNL     1       6.150  -1.837   0.144  1.00  0.00     0.187 C 
HETATM   24  N7  UNL     1       4.823  -1.490   0.642  1.00  0.00    -0.129 N 
BRANCH  24  25
HETATM   25  N8  UNL     1       4.043  -2.298   1.423  1.00  0.00    -0.329 N 
ATOM     26  H82 UNL     1       3.115  -2.055   1.771  1.00  0.00     0.177 HD
ATOM     27  H81 UNL     1       4.264  -3.234   1.764  1.00  0.00     0.177 HD
ENDBRANCH  24  25
ENDBRANCH  17  19
ENDBRANCH  16  17
ENDBRANCH  15  16
ENDBRANCH  10  15
BRANCH  14  28
HETATM   28  C12 UNL     1      -4.019  -0.548  -1.193  1.00  0.00     0.129 C 
BRANCH  28  29
HETATM   29  C13 UNL     1      -4.985  -1.138  -0.261  1.00  0.00     0.004 A 
HETATM   30  C14 UNL     1      -5.433  -0.485   0.991  1.00  0.00     0.007 A 
HETATM   31  C15 UNL     1      -4.676  -1.795   1.026  1.00  0.00     0.007 A 
ENDBRANCH  28  29
ENDBRANCH  14  28
BRANCH   1  32
HETATM   32  N1  UNL     1      -3.560   4.287  -0.302  1.00  0.00    -0.234 N 
ATOM     33  H12 UNL     1      -4.553   4.058  -0.341  1.00  0.00     0.174 HD
ATOM     34  H11 UNL     1      -3.233   5.247  -0.196  1.00  0.00     0.174 HD
ENDBRANCH   1  32
TORSDOF 8
