REMARK  1 active torsions:
REMARK  status: ('A' for Active; 'I' for Inactive)
REMARK    1  A    between atoms: N3_11  and  C5_12 
ROOT
HETATM    1  N1  UNL     1      -0.941   2.243   0.852  1.00  0.00    -0.388 N 
ATOM      2  H11 UNL     1       0.019   2.258   1.197  1.00  0.00     0.157 HD
ATOM      3  H12 UNL     1      -1.510   3.089   0.823  1.00  0.00     0.157 HD
HETATM    4  C1  UNL     1      -1.424   1.095   0.442  1.00  0.00     0.093 C 
HETATM    5  C2  UNL     1      -2.810   1.073  -0.057  1.00  0.00     0.198 C 
HETATM    6  N2  UNL     1      -3.112  -0.100  -0.831  1.00  0.00    -0.353 N 
ATOM      7  H2  UNL     1      -3.738  -0.053  -1.635  1.00  0.00     0.162 HD
HETATM    8  C3  UNL     1      -2.516  -1.316  -0.445  1.00  0.00     0.235 C 
HETATM    9  O1  UNL     1      -3.013  -2.408  -0.811  1.00  0.00    -0.272 OA
HETATM   10  C4  UNL     1      -1.300  -1.352   0.393  1.00  0.00     0.229 C 
HETATM   11  N3  UNL     1      -0.631  -0.084   0.482  1.00  0.00    -0.338 N 
ENDROOT
BRANCH  11  12
HETATM   12  C5  UNL     1       0.783   0.077   0.612  1.00  0.00     0.205 C 
HETATM   13  C6  UNL     1       1.583  -1.187   0.639  1.00  0.00     0.169 C 
HETATM   14  N4  UNL     1       2.909  -0.619   0.312  1.00  0.00    -0.361 N 
HETATM   15  C7  UNL     1       2.598   0.469  -0.578  1.00  0.00     0.185 C 
ATOM     16  H4  UNL     1       3.825  -0.925   0.639  1.00  0.00     0.162 HD
HETATM   17  N5  UNL     1       3.482   1.052  -1.528  1.00  0.00    -0.064 NA
HETATM   18  N6  UNL     1       1.392   0.860  -0.406  1.00  0.00    -0.342 N 
ATOM     19  H6  UNL     1       0.938   1.616  -0.919  1.00  0.00     0.164 HD
ENDBRANCH  11  12
TORSDOF 1
