REMARK  7 active torsions:
REMARK  status: ('A' for Active; 'I' for Inactive)
REMARK    1  A    between atoms: C2_2  and  C3_3 
REMARK    2  A    between atoms: C3_3  and  C4_4 
REMARK    3  A    between atoms: C4_4  and  C5_5 
REMARK    4  A    between atoms: C5_5  and  C6_6 
REMARK    5  A    between atoms: C6_6  and  N1_7 
REMARK    6  A    between atoms: C10_11  and  C11_12 
REMARK    7  A    between atoms: C15_22  and  N4_23 
ROOT
HETATM    1  C11 UNL     1      -3.029  -0.567   0.144  1.00  0.00     0.139 C 
HETATM    2  C12 UNL     1      -3.225  -1.099  -1.264  1.00  0.00     0.041 C 
HETATM    3  C13 UNL     1      -4.241  -0.974   0.924  1.00  0.00     0.245 C 
HETATM    4  O1  UNL     1      -4.327  -1.448   2.055  1.00  0.00    -0.271 OA
HETATM    5  N2  UNL     1      -5.476  -0.738   0.172  1.00  0.00    -0.302 N 
ATOM      6  H2  UNL     1      -6.242  -1.410   0.217  1.00  0.00     0.171 HD
HETATM    7  C14 UNL     1      -5.597   0.437  -0.622  1.00  0.00     0.179 C 
HETATM    8  S1  UNL     1      -6.915   0.785  -1.494  1.00  0.00    -0.040 SA
HETATM    9  N3  UNL     1      -4.436   1.311  -0.590  1.00  0.00    -0.322 N 
ATOM     10  H3  UNL     1      -4.422   2.178  -1.126  1.00  0.00     0.169 HD
HETATM   11  C15 UNL     1      -3.315   0.929   0.209  1.00  0.00     0.103 C 
ENDROOT
BRANCH   1  12
HETATM   12  C10 UNL     1      -1.789  -1.004   0.729  1.00  0.00     0.053 A 
HETATM   13  C9  UNL     1      -1.751  -2.014   1.669  1.00  0.00     0.030 A 
HETATM   14  C8  UNL     1      -0.572  -2.493   2.233  1.00  0.00     0.021 A 
HETATM   15  C7  UNL     1       0.577  -1.901   1.797  1.00  0.00     0.110 A 
HETATM   16  N1  UNL     1       0.573  -0.917   0.878  1.00  0.00    -0.301 N 
HETATM   17  N5  UNL     1      -0.576  -0.491   0.367  1.00  0.00    -0.297 N 
HETATM   18  C17 UNL     1      -0.452   0.510  -0.651  1.00  0.00     0.178 C 
BRANCH  16  19
HETATM   19  C6  UNL     1       1.864  -0.331   0.515  1.00  0.00     0.148 C 
BRANCH  19  20
HETATM   20  C5  UNL     1       2.624  -1.084  -0.511  1.00  0.00     0.022 C 
BRANCH  20  21
HETATM   21  C4  UNL     1       3.935  -0.387  -0.843  1.00  0.00     0.002 C 
BRANCH  21  22
HETATM   22  C3  UNL     1       4.833  -0.252   0.355  1.00  0.00    -0.000 C 
BRANCH  22  23
HETATM   23  C2  UNL     1       6.107   0.447  -0.101  1.00  0.00    -0.005 C 
HETATM   24  C1  UNL     1       5.751   1.809  -0.656  1.00  0.00     0.005 C 
ENDBRANCH  22  23
ENDBRANCH  21  22
ENDBRANCH  20  21
ENDBRANCH  19  20
ENDBRANCH  16  19
ENDBRANCH   1  12
BRANCH  11  25
HETATM   25  N4  UNL     1      -2.696   1.738   0.948  1.00  0.00    -0.383 N 
HETATM   26  C16 UNL     1      -2.974   3.137   0.999  1.00  0.00     0.147 C 
ATOM     27  H4  UNL     1      -1.953   1.373   1.544  1.00  0.00     0.160 HD
ENDBRANCH  11  25
TORSDOF 7
