REMARK  2 active torsions:
REMARK  status: ('A' for Active; 'I' for Inactive)
REMARK    1  A    between atoms: N1_1  and  C1_4 
REMARK    2  A    between atoms: C2_8  and  N3_9 
ROOT
HETATM    1  C1  UNL     1       0.911  -0.377  -0.042  1.00  0.00     0.699 A 
HETATM    2  N2  UNL     1       0.732   0.817   0.541  1.00  0.00    -0.088 N 
ATOM      3  H2  UNL     1       1.459   1.397   0.959  1.00  0.00     0.214 HD
HETATM    4  O1  UNL     1      -0.532   1.103   0.478  1.00  0.00    -0.186 OA
HETATM    5  C2  UNL     1      -1.213   0.179  -0.110  1.00  0.00     0.256 A 
HETATM    6  N4  UNL     1      -0.304  -0.781  -0.452  1.00  0.00    -0.152 N 
ATOM      7  H4  UNL     1      -0.511  -1.655  -0.936  1.00  0.00     0.188 HD
ENDROOT
BRANCH   1   8
HETATM    8  N1  UNL     1       2.033  -1.039  -0.196  1.00  0.00    -0.233 N 
ATOM      9  H12 UNL     1       2.955  -0.732   0.115  1.00  0.00     0.174 HD
ATOM     10  H11 UNL     1       2.169  -1.947  -0.640  1.00  0.00     0.174 HD
ENDBRANCH   1   8
BRANCH   5  11
HETATM   11  N3  UNL     1      -2.478   0.117  -0.352  1.00  0.00    -0.363 N 
ATOM     12  H32 UNL     1      -3.157   0.834  -0.097  1.00  0.00     0.159 HD
ATOM     13  H31 UNL     1      -3.017  -0.614  -0.817  1.00  0.00     0.159 HD
ENDBRANCH   5  11
TORSDOF 2
