REMARK  3 active torsions:
REMARK  status: ('A' for Active; 'I' for Inactive)
REMARK    1  A    between atoms: C3_4  and  N2_5 
REMARK    2  A    between atoms: N2_5  and  N3_7 
REMARK    3  A    between atoms: C4_10  and  N4_11 
ROOT
HETATM    1  C1  UNL     1      -2.784   0.618  -0.530  1.00  0.00     0.177 C 
HETATM    2  N1  UNL     1      -1.437   0.112  -0.346  1.00  0.00    -0.304 N 
HETATM    3  C2  UNL     1      -0.346   0.822  -0.005  1.00  0.00     0.144 A 
HETATM    4  C3  UNL     1       0.762   0.017   0.080  1.00  0.00     0.109 A 
HETATM    5  C4  UNL     1       0.278  -1.257  -0.235  1.00  0.00     0.143 A 
HETATM    6  N5  UNL     1      -1.046  -1.147  -0.483  1.00  0.00    -0.282 N 
ATOM      7  H5  UNL     1      -1.657  -1.922  -0.739  1.00  0.00     0.189 HD
ENDROOT
BRANCH   4   8
HETATM    8  N2  UNL     1       2.086   0.390   0.423  1.00  0.00    -0.302 N 
ATOM      9  H2  UNL     1       2.363   0.290   1.399  1.00  0.00     0.186 HD
BRANCH   8  10
HETATM   10  N3  UNL     1       3.036   0.881  -0.464  1.00  0.00    -0.345 N 
ATOM     11  H32 UNL     1       2.741   0.974  -1.436  1.00  0.00     0.176 HD
ATOM     12  H31 UNL     1       3.989   1.149  -0.217  1.00  0.00     0.176 HD
ENDBRANCH   8  10
ENDBRANCH   4   8
BRANCH   5  13
HETATM   13  N4  UNL     1       1.017  -2.324  -0.268  1.00  0.00    -0.383 N 
ATOM     14  H42 UNL     1       2.016  -2.407  -0.081  1.00  0.00     0.157 HD
ATOM     15  H41 UNL     1       0.664  -3.253  -0.498  1.00  0.00     0.157 HD
ENDBRANCH   5  13
TORSDOF 3
