REMARK  3 active torsions:
REMARK  status: ('A' for Active; 'I' for Inactive)
REMARK    1  A    between atoms: N1_1  and  C1_4 
REMARK    2  A    between atoms: C2_9  and  S1_10 
REMARK    3  A    between atoms: S1_10  and  N4_11 
ROOT
HETATM    1  C1  UNL     1      -1.529  -0.190   0.058  1.00  0.00     0.692 A 
HETATM    2  N2  UNL     1      -1.535  -1.489  -0.291  1.00  0.00    -0.130 N 
ATOM      3  H2  UNL     1      -2.351  -2.091  -0.402  1.00  0.00     0.205 HD
HETATM    4  N3  UNL     1      -0.254  -1.829  -0.462  1.00  0.00    -0.264 N 
ATOM      5  H3  UNL     1       0.077  -2.755  -0.732  1.00  0.00     0.189 HD
HETATM    6  C2  UNL     1       0.537  -0.759  -0.223  1.00  0.00     0.194 A 
HETATM    7  N5  UNL     1      -0.266   0.269   0.103  1.00  0.00    -0.166 N 
ATOM      8  H5  UNL     1       0.027   1.217   0.339  1.00  0.00     0.186 HD
ENDROOT
BRANCH   6   9
HETATM    9  S1  UNL     1       2.321  -0.697  -0.317  1.00  0.00     0.017 SA
BRANCH   9  10
HETATM   10  N4  UNL     1       2.876   0.926   0.085  1.00  0.00    -0.367 N 
ATOM     11  H42 UNL     1       2.261   1.701   0.332  1.00  0.00     0.164 HD
ATOM     12  H41 UNL     1       3.894   0.961   0.031  1.00  0.00     0.164 HD
ENDBRANCH   9  10
ENDBRANCH   6   9
BRANCH   1  13
HETATM   13  N1  UNL     1      -2.582   0.517   0.314  1.00  0.00    -0.233 N 
ATOM     14  H12 UNL     1      -3.540   0.169   0.280  1.00  0.00     0.174 HD
ATOM     15  H11 UNL     1      -2.577   1.502   0.579  1.00  0.00     0.174 HD
ENDBRANCH   1  13
TORSDOF 3
