REMARK  3 active torsions:
REMARK  status: ('A' for Active; 'I' for Inactive)
REMARK    1  A    between atoms: C3_4  and  N1_5 
REMARK    2  A    between atoms: N1_5  and  N2_7 
REMARK    3  A    between atoms: N2_7  and  C4_9 
ROOT
HETATM    1  O1  UNL     1      -2.582  -2.858  -1.170  1.00  0.00    -0.268 OA
HETATM    2  C1  UNL     1      -2.623  -1.830  -0.463  1.00  0.00     0.251 C 
HETATM    3  C2  UNL     1      -1.456  -1.067  -0.403  1.00  0.00     0.124 C 
HETATM    4  C3  UNL     1      -1.210   0.043   0.405  1.00  0.00     0.128 C 
HETATM    5  N4  UNL     1      -2.175   0.951   0.735  1.00  0.00    -0.304 N 
ATOM      6  H4  UNL     1      -1.838   1.872   1.015  1.00  0.00     0.171 HD
HETATM    7  C9  UNL     1      -3.525   0.792   0.740  1.00  0.00     0.315 C 
HETATM    8  O2  UNL     1      -4.197   1.860   0.833  1.00  0.00    -0.262 OA
HETATM    9  C10 UNL     1      -4.213  -0.413   0.655  1.00  0.00     0.316 C 
HETATM   10  O3  UNL     1      -5.369  -0.370   1.119  1.00  0.00    -0.262 OA
HETATM   11  N5  UNL     1      -3.805  -1.605   0.144  1.00  0.00    -0.286 N 
ATOM     12  H5  UNL     1      -4.446  -2.394   0.227  1.00  0.00     0.172 HD
ENDROOT
BRANCH   4  13
HETATM   13  N1  UNL     1       0.095   0.220   0.892  1.00  0.00    -0.285 N 
ATOM     14  H1  UNL     1       0.401  -0.442   1.605  1.00  0.00     0.188 HD
BRANCH  13  15
HETATM   15  N2  UNL     1       1.010   1.177   0.524  1.00  0.00    -0.299 N 
ATOM     16  H2  UNL     1       0.772   2.168   0.563  1.00  0.00     0.187 HD
BRANCH  15  17
HETATM   17  C4  UNL     1       2.311   0.750   0.083  1.00  0.00     0.050 A 
HETATM   18  C5  UNL     1       2.606  -0.592  -0.009  1.00  0.00     0.048 A 
HETATM   19  C6  UNL     1       3.855  -0.988  -0.414  1.00  0.00     0.090 A 
HETATM   20  N3  UNL     1       4.832  -0.101  -0.734  1.00  0.00    -0.375 N 
HETATM   21  C7  UNL     1       4.542   1.208  -0.643  1.00  0.00     0.090 A 
ATOM     22  H3  UNL     1       5.754  -0.417  -1.033  1.00  0.00     0.164 HD
HETATM   23  C8  UNL     1       3.303   1.647  -0.242  1.00  0.00     0.048 A 
ENDBRANCH  15  17
ENDBRANCH  13  15
ENDBRANCH   4  13
TORSDOF 3
