REMARK  5 active torsions:
REMARK  status: ('A' for Active; 'I' for Inactive)
REMARK    1  A    between atoms: C2_2  and  C3_3 
REMARK    2  A    between atoms: C3_3  and  C5_5 
REMARK    3  A    between atoms: C9_11  and  C10_12 
REMARK    4  A    between atoms: C9_11  and  C11_14 
REMARK    5  A    between atoms: C16_21  and  C17_22 
ROOT
HETATM    1  C5  UNL     1      -0.691   1.655  -0.352  1.00  0.00     0.098 C 
HETATM    2  N1  UNL     1       0.628   1.637  -0.902  1.00  0.00    -0.389 N 
ATOM      3  H1  UNL     1       0.960   2.416  -1.470  1.00  0.00     0.159 HD
HETATM    4  C6  UNL     1       1.394   0.626  -0.673  1.00  0.00     0.002 C 
HETATM    5  C7  UNL     1       2.741   0.539  -1.186  1.00  0.00     0.101 C 
HETATM    6  C8  UNL     1       3.272  -0.829  -1.268  1.00  0.00     0.008 C 
HETATM    7  C9  UNL     1       4.461  -1.195  -1.495  1.00  0.00     0.095 C 
HETATM    8  S1  UNL     1       1.822  -1.861  -0.883  1.00  0.00    -0.121 SA
HETATM    9  C12 UNL     1       0.999  -0.550   0.106  1.00  0.00     0.103 C 
HETATM   10  C13 UNL     1      -0.454  -0.736   0.235  1.00  0.00     0.026 C 
HETATM   11  C14 UNL     1      -0.926  -2.144  -0.037  1.00  0.00     0.021 C 
HETATM   12  C15 UNL     1      -0.121  -3.102   0.818  1.00  0.00     0.013 C 
HETATM   13  C16 UNL     1      -2.399  -2.333   0.415  1.00  0.00     0.189 C 
HETATM   14  N3  UNL     1      -3.041  -1.038   0.403  1.00  0.00    -0.346 N 
ATOM     15  H3  UNL     1      -3.865  -0.956   0.999  1.00  0.00     0.163 HD
HETATM   16  C18 UNL     1      -2.704   0.104  -0.296  1.00  0.00     0.225 C 
HETATM   17  O4  UNL     1      -3.541   0.887  -0.645  1.00  0.00    -0.273 OA
HETATM   18  C19 UNL     1      -1.268   0.285  -0.523  1.00  0.00     0.107 C 
ENDROOT
BRANCH   7  19
HETATM   19  C10 UNL     1       5.518  -0.308  -1.730  1.00  0.00     0.103 C 
HETATM   20  N2  UNL     1       6.405   0.471  -1.723  1.00  0.00    -0.191 NA
ENDBRANCH   7  19
BRANCH   7  21
HETATM   21  C11 UNL     1       4.860  -2.653  -1.353  1.00  0.00     0.282 C 
HETATM   22  O1  UNL     1       5.896  -3.008  -1.712  1.00  0.00    -0.301 OA
ENDBRANCH   7  21
BRANCH   1  23
HETATM   23  C3  UNL     1      -0.509   2.029   1.111  1.00  0.00     0.004 C 
HETATM   24  C4  UNL     1      -1.844   2.237   1.774  1.00  0.00     0.012 C 
BRANCH  23  25
HETATM   25  C2  UNL     1       0.173   3.393   1.055  1.00  0.00     0.002 C 
HETATM   26  C1  UNL     1      -0.576   4.430   0.301  1.00  0.00     0.005 C 
ENDBRANCH  23  25
ENDBRANCH   1  23
BRANCH  13  27
HETATM   27  C17 UNL     1      -3.107  -3.093  -0.678  1.00  0.00     0.197 C 
HETATM   28  O2  UNL     1      -2.567  -3.776  -1.548  1.00  0.00    -0.646 OA
HETATM   29  O3  UNL     1      -4.514  -2.983  -0.716  1.00  0.00    -0.646 OA
ENDBRANCH  13  27
TORSDOF 5
