REMARK  5 active torsions:
REMARK  status: ('A' for Active; 'I' for Inactive)
REMARK    1  A    between atoms: O1_2  and  N1_3 
REMARK    2  A    between atoms: N1_3  and  C2_5 
REMARK    3  A    between atoms: C2_5  and  N2_6 
REMARK    4  A    between atoms: N2_6  and  S1_8 
REMARK    5  A    between atoms: S1_8  and  C3_11 
ROOT
HETATM    1  S1  UNL     1       0.449  -1.202  -0.018  1.00  0.00     0.270 S 
HETATM    2  O2  UNL     1       1.208  -0.797   1.189  1.00  0.00    -0.200 OA
HETATM    3  O3  UNL     1       0.386  -2.724  -0.010  1.00  0.00    -0.200 OA
ENDROOT
BRANCH   1   4
HETATM    4  N2  UNL     1       1.215  -0.752  -1.488  1.00  0.00    -0.229 N 
ATOM      5  H2  UNL     1       0.720  -0.793  -2.379  1.00  0.00     0.190 HD
BRANCH   4   6
HETATM    6  C2  UNL     1       2.434  -0.363  -1.419  1.00  0.00     0.084 C 
BRANCH   6   7
HETATM    7  N1  UNL     1       3.622   0.079  -1.306  1.00  0.00    -0.215 N 
ATOM      8  H1  UNL     1       4.400  -0.403  -1.757  1.00  0.00     0.205 HD
BRANCH   7   9
HETATM    9  O1  UNL     1       3.834   1.186  -0.587  1.00  0.00    -0.277 OA
HETATM   10  C1  UNL     1       4.145   1.325   0.752  1.00  0.00     0.238 C 
ENDBRANCH   7   9
ENDBRANCH   6   7
ENDBRANCH   4   6
ENDBRANCH   1   4
BRANCH   1  11
HETATM   11  C3  UNL     1      -1.205  -0.645   0.043  1.00  0.00     0.080 A 
HETATM   12  C4  UNL     1      -2.269  -1.392  -0.414  1.00  0.00     0.025 A 
HETATM   13  C5  UNL     1      -3.571  -0.945  -0.362  1.00  0.00     0.002 A 
HETATM   14  C6  UNL     1      -3.828   0.289   0.163  1.00  0.00     0.000 A 
HETATM   15  C7  UNL     1      -2.786   1.062   0.629  1.00  0.00     0.002 A 
HETATM   16  C8  UNL     1      -1.489   0.593   0.567  1.00  0.00     0.025 A 
ENDBRANCH   1  11
TORSDOF 5
