REMARK  5 active torsions:
REMARK  status: ('A' for Active; 'I' for Inactive)
REMARK    1  A    between atoms: O1_2  and  C2_3 
REMARK    2  A    between atoms: C3_5  and  C5_7 
REMARK    3  A    between atoms: C5_7  and  O3_9 
REMARK    4  A    between atoms: C5_7  and  C9_13 
REMARK    5  A    between atoms: O3_9  and  C7_10 
ROOT
HETATM    1  C5  UNL     1      -0.511  -0.124  -0.491  1.00  0.00     0.105 C 
HETATM    2  C6  UNL     1      -1.004  -0.206  -1.873  1.00  0.00     0.050 C 
ENDROOT
BRANCH   1   3
HETATM    3  C3  UNL     1       0.904  -0.837  -0.508  1.00  0.00     0.141 A 
HETATM    4  C2  UNL     1       2.017  -0.260   0.084  1.00  0.00     0.297 A 
HETATM    5  O2  UNL     1       1.746   0.130  -1.347  1.00  0.00    -0.339 OA
HETATM    6  C4  UNL     1       0.971  -2.116  -1.288  1.00  0.00     0.054 C 
BRANCH   4   7
HETATM    7  O1  UNL     1       2.101   0.898   0.810  1.00  0.00    -0.363 OA
HETATM    8  C1  UNL     1       3.382   1.012   1.335  1.00  0.00     0.204 C 
ENDBRANCH   4   7
ENDBRANCH   1   3
BRANCH   1   9
HETATM    9  O3  UNL     1      -0.194   1.181  -0.048  1.00  0.00    -0.307 OA
BRANCH   9  10
HETATM   10  C7  UNL     1      -0.945   2.283   0.046  1.00  0.00     0.255 C 
HETATM   11  C8  UNL     1      -0.454   3.598   0.577  1.00  0.00     0.126 C 
HETATM   12  O4  UNL     1      -2.134   2.275  -0.317  1.00  0.00    -0.266 OA
ENDBRANCH   9  10
ENDBRANCH   1   9
BRANCH   1  13
HETATM   13  C9  UNL     1      -1.252  -0.861   0.568  1.00  0.00     0.016 C 
HETATM   14  C10 UNL     1      -2.685  -0.429   0.815  1.00  0.00     0.012 C 
HETATM   15  C11 UNL     1      -1.177  -2.356   0.574  1.00  0.00     0.012 C 
ENDBRANCH   1  13
TORSDOF 5
