REMARK  8 active torsions:
REMARK  status: ('A' for Active; 'I' for Inactive)
REMARK    1  A    between atoms: O1_2  and  N1_3 
REMARK    2  A    between atoms: N1_3  and  C2_5 
REMARK    3  A    between atoms: C5_11  and  S1_12 
REMARK    4  A    between atoms: S1_12  and  N4_13 
REMARK    5  A    between atoms: C7_19  and  N7_20 
REMARK    6  A    between atoms: N7_20  and  C8_22 
REMARK    7  A    between atoms: C8_22  and  C9_23 
REMARK    8  A    between atoms: C9_23  and  O2_24 
ROOT
HETATM    1  C2  UNL     1       1.545  -1.819  -0.215  1.00  0.00     0.731 A 
HETATM    2  N2  UNL     1       1.958  -0.543  -0.126  1.00  0.00    -0.019 N 
ATOM      3  H2  UNL     1       2.958  -0.351  -0.187  1.00  0.00     0.203 HD
HETATM    4  C3  UNL     1       1.112   0.496   0.040  1.00  0.00     0.722 A 
HETATM    5  N3  UNL     1       1.325   1.827   0.150  1.00  0.00    -0.175 N 
HETATM    6  C4  UNL     1       2.619   2.500   0.111  1.00  0.00     0.176 C 
HETATM    7  C5  UNL     1       0.142   2.444   0.304  1.00  0.00     0.151 A 
HETATM    8  C6  UNL     1      -0.812   1.444   0.285  1.00  0.00     0.193 A 
HETATM    9  N5  UNL     1      -2.212   1.669   0.419  1.00  0.00    -0.078 NA
HETATM   10  N6  UNL     1      -0.220   0.247   0.124  1.00  0.00     0.040 N 
HETATM   11  C7  UNL     1      -0.664  -1.020   0.038  1.00  0.00     0.715 A 
HETATM   12  N8  UNL     1       0.221  -2.036  -0.130  1.00  0.00    -0.019 N 
ATOM     13  H8  UNL     1      -0.129  -2.992  -0.194  1.00  0.00     0.203 HD
ENDROOT
BRANCH  11  14
HETATM   14  N7  UNL     1      -1.937  -1.224   0.121  1.00  0.00    -0.223 N 
ATOM     15  H7  UNL     1      -2.585  -0.446   0.248  1.00  0.00     0.177 HD
BRANCH  14  16
HETATM   16  C8  UNL     1      -2.417  -2.577   0.030  1.00  0.00     0.164 C 
BRANCH  16  17
HETATM   17  C9  UNL     1      -3.933  -2.540  -0.101  1.00  0.00     0.184 C 
BRANCH  17  18
HETATM   18  O2  UNL     1      -4.411  -1.900   1.049  1.00  0.00    -0.399 OA
ATOM     19  H2  UNL     1      -5.357  -1.877   0.967  1.00  0.00     0.209 HD
ENDBRANCH  17  18
ENDBRANCH  16  17
ENDBRANCH  14  16
ENDBRANCH  11  14
BRANCH   1  20
HETATM   20  N1  UNL     1       2.357  -2.820  -0.375  1.00  0.00    -0.096 N 
ATOM     21  H1  UNL     1       1.957  -3.757  -0.432  1.00  0.00     0.213 HD
BRANCH  20  22
HETATM   22  O1  UNL     1       3.700  -2.696  -0.471  1.00  0.00    -0.271 OA
HETATM   23  C1  UNL     1       4.448  -1.722   0.206  1.00  0.00     0.238 C 
ENDBRANCH  20  22
ENDBRANCH   1  20
BRANCH   7  24
HETATM   24  S1  UNL     1      -0.171   4.205   0.497  1.00  0.00     0.001 SA
BRANCH  24  25
HETATM   25  N4  UNL     1      -0.393   4.933  -1.086  1.00  0.00    -0.368 N 
ATOM     26  H42 UNL     1      -0.348   4.423  -1.968  1.00  0.00     0.164 HD
ATOM     27  H41 UNL     1      -0.570   5.931  -0.977  1.00  0.00     0.164 HD
ENDBRANCH  24  25
ENDBRANCH   7  24
TORSDOF 8
