REMARK  11 active torsions:
REMARK  status: ('A' for Active; 'I' for Inactive)
REMARK    1  A    between atoms: O1_2  and  C2_3 
REMARK    2  A    between atoms: C2_3  and  C3_4 
REMARK    3  A    between atoms: C2_3  and  N7_28 
REMARK    4  A    between atoms: C3_4  and  O2_5 
REMARK    5  A    between atoms: C3_4  and  C4_7 
REMARK    6  A    between atoms: C4_7  and  N1_8 
REMARK    7  A    between atoms: N1_8  and  C5_10 
REMARK    8  A    between atoms: C6_13  and  N3_14 
REMARK    9  A    between atoms: N7_28  and  C12_30 
REMARK   10  A    between atoms: C12_30  and  C13_31 
REMARK   11  A    between atoms: C13_31  and  N8_32 
ROOT
HETATM    1  C5  UNL     1      -2.785  -0.047  -0.122  1.00  0.00     0.136 A 
HETATM    2  N2  UNL     1      -3.020  -1.360  -0.041  1.00  0.00    -0.176 N 
ATOM      3  H2  UNL     1      -2.240  -2.004  -0.173  1.00  0.00     0.186 HD
HETATM    4  C6  UNL     1      -4.241  -1.869   0.207  1.00  0.00     0.679 A 
HETATM    5  N4  UNL     1      -5.271  -1.033   0.381  1.00  0.00    -0.176 N 
ATOM      6  H4  UNL     1      -6.199  -1.411   0.569  1.00  0.00     0.186 HD
HETATM    7  C7  UNL     1      -5.100   0.300   0.311  1.00  0.00     0.141 A 
HETATM    8  N5  UNL     1      -6.160   1.088   0.491  1.00  0.00    -0.337 N 
ATOM      9  H5  UNL     1      -7.080   0.690   0.679  1.00  0.00     0.168 HD
HETATM   10  C8  UNL     1      -5.990   2.412   0.420  1.00  0.00     0.184 A 
HETATM   11  N6  UNL     1      -4.778   2.952   0.173  1.00  0.00    -0.319 N 
ATOM     12  H6  UNL     1      -4.681   3.966   0.125  1.00  0.00     0.169 HD
HETATM   13  C9  UNL     1      -3.708   2.184  -0.009  1.00  0.00     0.264 A 
HETATM   14  O3  UNL     1      -2.552   2.620  -0.242  1.00  0.00    -0.267 OA
HETATM   15  C10 UNL     1      -3.852   0.813   0.059  1.00  0.00     0.121 A 
ENDROOT
BRANCH   1  16
HETATM   16  N1  UNL     1      -1.642   0.482  -0.351  1.00  0.00    -0.372 N 
ATOM     17  H1  UNL     1      -1.589   1.500  -0.390  1.00  0.00     0.161 HD
BRANCH  16  18
HETATM   18  C4  UNL     1      -0.418  -0.266  -0.559  1.00  0.00     0.157 C 
BRANCH  18  19
HETATM   19  C3  UNL     1       0.751   0.603  -0.150  1.00  0.00     0.184 C 
BRANCH  19  20
HETATM   20  C2  UNL     1       2.094  -0.147  -0.320  1.00  0.00     0.252 C 
BRANCH  20  21
HETATM   21  O1  UNL     1       1.914  -1.335   0.352  1.00  0.00    -0.369 OA
HETATM   22  C1  UNL     1       1.850  -2.458  -0.471  1.00  0.00     0.204 C 
ENDBRANCH  20  21
BRANCH  20  23
HETATM   23  N7  UNL     1       3.159   0.600   0.139  1.00  0.00    -0.368 N 
HETATM   24  C11 UNL     1       3.408   1.852  -0.538  1.00  0.00     0.151 C 
BRANCH  23  25
HETATM   25  C12 UNL     1       4.087   0.236   1.097  1.00  0.00     0.087 C 
BRANCH  25  26
HETATM   26  C13 UNL     1       5.046  -0.815   0.617  1.00  0.00     0.274 C 
BRANCH  26  27
HETATM   27  N8  UNL     1       5.768  -0.342  -0.562  1.00  0.00    -0.075 N 
ATOM     28  H83 UNL     1       5.133  -0.040  -1.301  1.00  0.00     0.274 HD
ATOM     29  H82 UNL     1       6.234   0.549  -0.391  1.00  0.00     0.274 HD
ATOM     30  H81 UNL     1       6.419  -1.056  -0.888  1.00  0.00     0.274 HD
ENDBRANCH  26  27
ENDBRANCH  25  26
ENDBRANCH  23  25
ENDBRANCH  20  23
ENDBRANCH  19  20
BRANCH  19  31
HETATM   31  O2  UNL     1       0.552   0.886   1.202  1.00  0.00    -0.390 OA
ATOM     32  H2  UNL     1      -0.272   1.346   1.306  1.00  0.00     0.210 HD
ENDBRANCH  19  31
ENDBRANCH  18  19
ENDBRANCH  16  18
ENDBRANCH   1  16
BRANCH   4  33
HETATM   33  N3  UNL     1      -4.411  -3.160   0.278  1.00  0.00    -0.234 N 
ATOM     34  H32 UNL     1      -3.626  -3.797   0.145  1.00  0.00     0.174 HD
ATOM     35  H31 UNL     1      -5.336  -3.546   0.466  1.00  0.00     0.174 HD
ENDBRANCH   4  33
TORSDOF 11
