REMARK  6 active torsions:
REMARK  status: ('A' for Active; 'I' for Inactive)
REMARK    1  A    between atoms: C3_6  and  C4_7 
REMARK    2  A    between atoms: C4_7  and  C5_8 
REMARK    3  A    between atoms: C5_8  and  N3_9 
REMARK    4  A    between atoms: N3_9  and  C6_12 
REMARK    5  A    between atoms: C6_12  and  C7_13 
REMARK    6  A    between atoms: C7_13  and  N4_14 
ROOT
HETATM    1  C5  UNL     1      -0.130  -2.060   0.498  1.00  0.00     0.238 C 
ENDROOT
BRANCH   1   2
HETATM    2  C4  UNL     1      -0.933  -1.617  -0.672  1.00  0.00     0.086 C 
BRANCH   2   3
HETATM    3  C3  UNL     1      -1.952  -0.608  -0.359  1.00  0.00     0.027 A 
HETATM    4  N2  UNL     1      -2.274  -0.025   0.806  1.00  0.00    -0.354 N 
HETATM    5  C2  UNL     1      -3.279   0.846   0.616  1.00  0.00     0.182 A 
ATOM      6  H2  UNL     1      -1.823  -0.215   1.701  1.00  0.00     0.166 HD
HETATM    7  N1  UNL     1      -3.622   0.843  -0.661  1.00  0.00    -0.355 N 
HETATM    8  C1  UNL     1      -4.645   1.604  -1.356  1.00  0.00     0.156 C 
HETATM    9  C9  UNL     1      -2.812  -0.051  -1.280  1.00  0.00     0.116 A 
ENDBRANCH   2   3
ENDBRANCH   1   2
BRANCH   1  10
HETATM   10  N3  UNL     1       0.614  -1.051   1.171  1.00  0.00    -0.073 N 
ATOM     11  H32 UNL     1      -0.003  -0.303   1.487  1.00  0.00     0.277 HD
ATOM     12  H31 UNL     1       0.947  -1.394   2.072  1.00  0.00     0.277 HD
BRANCH  10  13
HETATM   13  C6  UNL     1       1.712  -0.509   0.398  1.00  0.00     0.251 C 
BRANCH  13  14
HETATM   14  C7  UNL     1       2.437   0.541   1.233  1.00  0.00     0.147 C 
BRANCH  14  15
HETATM   15  N4  UNL     1       3.543   1.141   0.556  1.00  0.00    -0.386 N 
HETATM   16  C8  UNL     1       4.614   0.513   0.220  1.00  0.00     0.185 C 
HETATM   17  N5  UNL     1       5.696   1.139  -0.452  1.00  0.00    -0.097 NA
ATOM     18  H4  UNL     1       3.479   2.132   0.324  1.00  0.00     0.159 HD
ENDBRANCH  14  15
ENDBRANCH  13  14
ENDBRANCH  10  13
ENDBRANCH   1  10
TORSDOF 6
