REMARK  7 active torsions:
REMARK  status: ('A' for Active; 'I' for Inactive)
REMARK    1  A    between atoms: N1_1  and  C1_5 
REMARK    2  A    between atoms: C1_5  and  C2_6 
REMARK    3  A    between atoms: C2_6  and  N2_7 
REMARK    4  A    between atoms: N2_7  and  C3_9 
REMARK    5  A    between atoms: C3_9  and  N3_10 
REMARK    6  A    between atoms: C4_12  and  C5_13 
REMARK    7  A    between atoms: C5_13  and  C6_14 
ROOT
HETATM    1  N3  UNL     1       0.234   1.021   1.194  1.00  0.00    -0.365 N 
ATOM      2  H3  UNL     1       0.005   1.290   2.151  1.00  0.00     0.165 HD
HETATM    3  C4  UNL     1      -0.640   1.075   0.277  1.00  0.00     0.068 C 
ENDROOT
BRANCH   1   4
HETATM    4  C3  UNL     1       1.568   0.568   0.849  1.00  0.00     0.179 C 
BRANCH   4   5
HETATM    5  N2  UNL     1       1.462  -0.643   0.170  1.00  0.00    -0.364 N 
ATOM      6  H2  UNL     1       0.535  -0.995  -0.067  1.00  0.00     0.165 HD
BRANCH   5   7
HETATM    7  C2  UNL     1       2.591  -1.398  -0.201  1.00  0.00     0.088 C 
BRANCH   7   8
HETATM    8  C1  UNL     1       3.408  -0.763  -1.277  1.00  0.00     0.274 C 
BRANCH   8   9
HETATM    9  N1  UNL     1       3.940   0.491  -0.821  1.00  0.00    -0.075 N 
ATOM     10  H13 UNL     1       3.208   1.114  -0.480  1.00  0.00     0.274 HD
ATOM     11  H12 UNL     1       4.466   0.389   0.047  1.00  0.00     0.274 HD
ATOM     12  H11 UNL     1       4.498   0.925  -1.556  1.00  0.00     0.274 HD
ENDBRANCH   8   9
ENDBRANCH   7   8
ENDBRANCH   5   7
ENDBRANCH   4   5
ENDBRANCH   1   4
BRANCH   3  13
HETATM   13  C5  UNL     1      -2.024   1.539   0.605  1.00  0.00     0.103 C 
BRANCH  13  14
HETATM   14  C6  UNL     1      -3.003   0.454   0.321  1.00  0.00     0.030 A 
HETATM   15  C7  UNL     1      -3.684   0.229  -0.839  1.00  0.00     0.114 A 
HETATM   16  N4  UNL     1      -4.466  -0.849  -0.680  1.00  0.00    -0.360 N 
HETATM   17  C8  UNL     1      -4.247  -1.273   0.599  1.00  0.00     0.180 A 
ATOM     18  H4  UNL     1      -5.092  -1.264  -1.369  1.00  0.00     0.166 HD
HETATM   19  N5  UNL     1      -3.360  -0.484   1.208  1.00  0.00    -0.354 N 
ATOM     20  H5  UNL     1      -3.019  -0.577   2.165  1.00  0.00     0.166 HD
ENDBRANCH  13  14
ENDBRANCH   3  13
TORSDOF 7
