REMARK  5 active torsions:
REMARK  status: ('A' for Active; 'I' for Inactive)
REMARK    1  A    between atoms: C1_4  and  N2_5 
REMARK    2  A    between atoms: N2_5  and  C2_7 
REMARK    3  A    between atoms: C2_7  and  C3_8 
REMARK    4  A    between atoms: C5_10  and  C6_11 
REMARK    5  A    between atoms: C6_11  and  N3_12 
ROOT
HETATM    1  C3  UNL     1       0.831  -0.569  -0.141  1.00  0.00     0.009 A 
HETATM    2  C4  UNL     1       0.391   0.699   0.413  1.00  0.00     0.013 A 
HETATM    3  C5  UNL     1       0.010  -0.560   1.154  1.00  0.00     0.011 A 
ENDROOT
BRANCH   3   4
HETATM    4  C6  UNL     1      -1.408  -1.022   1.128  1.00  0.00     0.155 C 
BRANCH   4   5
HETATM    5  N3  UNL     1      -2.270  -0.264   0.250  1.00  0.00    -0.283 N 
HETATM    6  C7  UNL     1      -2.971   0.813   0.586  1.00  0.00     0.187 A 
HETATM    7  C8  UNL     1      -3.660   1.225  -0.556  1.00  0.00     0.278 A 
HETATM    8  O1  UNL     1      -4.437   2.212  -0.657  1.00  0.00    -0.265 OA
HETATM    9  N4  UNL     1      -3.324   0.357  -1.515  1.00  0.00    -0.251 N 
HETATM   10  N5  UNL     1      -2.488  -0.530  -1.008  1.00  0.00    -0.238 N 
ATOM     11  H4  UNL     1      -3.658   0.377  -2.479  1.00  0.00     0.192 HD
ATOM     12  H5  UNL     1      -2.074  -1.307  -1.523  1.00  0.00     0.208 HD
ENDBRANCH   4   5
ENDBRANCH   3   4
BRANCH   1  13
HETATM   13  C2  UNL     1       2.198  -1.150   0.013  1.00  0.00     0.125 C 
BRANCH  13  14
HETATM   14  N2  UNL     1       3.273  -0.372  -0.504  1.00  0.00    -0.386 N 
ATOM     15  H2  UNL     1       3.774  -0.718  -1.323  1.00  0.00     0.160 HD
BRANCH  14  16
HETATM   16  C1  UNL     1       3.680   0.861   0.066  1.00  0.00     0.168 C 
HETATM   17  N1  UNL     1       4.389   1.709  -0.617  1.00  0.00    -0.396 N 
ATOM     18  H12 UNL     1       4.648   1.469  -1.574  1.00  0.00     0.156 HD
ATOM     19  H11 UNL     1       4.682   2.596  -0.207  1.00  0.00     0.156 HD
ENDBRANCH  14  16
ENDBRANCH  13  14
ENDBRANCH   1  13
TORSDOF 5
