REMARK  7 active torsions:
REMARK  status: ('A' for Active; 'I' for Inactive)
REMARK    1  A    between atoms: N1_2  and  S1_4 
REMARK    2  A    between atoms: S1_4  and  C2_7 
REMARK    3  A    between atoms: C4_10  and  C5_11 
REMARK    4  A    between atoms: C5_11  and  C6_12 
REMARK    5  A    between atoms: C6_12  and  O3_13 
REMARK    6  A    between atoms: N3_15  and  O4_17 
REMARK    7  A    between atoms: C8_21  and  N5_22 
ROOT
HETATM    1  C2  UNL     1      -1.928   0.564  -0.579  1.00  0.00     0.167 A 
HETATM    2  C3  UNL     1      -1.190  -0.566  -0.260  1.00  0.00     0.155 A 
HETATM    3  N2  UNL     1       0.172  -0.563  -0.291  1.00  0.00    -0.114 N 
HETATM    4  C4  UNL     1       0.856   0.538  -0.624  1.00  0.00     0.159 A 
HETATM    5  N4  UNL     1       0.100   1.650  -0.940  1.00  0.00    -0.325 N 
ATOM      6  H4  UNL     1       0.594   2.503  -1.202  1.00  0.00     0.169 HD
HETATM    7  C8  UNL     1      -1.205   1.681  -0.925  1.00  0.00     0.128 A 
HETATM    8  C9  UNL     1       0.849  -1.784  -0.068  1.00  0.00     0.684 C 
HETATM    9  N6  UNL     1       2.123  -1.927  -0.155  1.00  0.00    -0.234 N 
ATOM     10  H61 UNL     1       2.611  -2.808   0.006  1.00  0.00     0.174 HD
ATOM     11  H62 UNL     1       2.676  -1.090  -0.338  1.00  0.00     0.174 HD
HETATM   12  N7  UNL     1       0.067  -2.967   0.190  1.00  0.00    -0.206 N 
HETATM   13  C10 UNL     1       0.769  -4.088   0.777  1.00  0.00     0.170 C 
HETATM   14  C11 UNL     1      -1.332  -3.068  -0.105  1.00  0.00     0.265 C 
HETATM   15  N8  UNL     1      -1.899  -1.737   0.126  1.00  0.00    -0.357 N 
ATOM     16  H8  UNL     1      -2.814  -1.649   0.569  1.00  0.00     0.162 HD
ENDROOT
BRANCH   4  17
HETATM   17  C5  UNL     1       2.271   0.744  -0.506  1.00  0.00     0.100 C 
HETATM   18  N3  UNL     1       3.146   0.179   0.160  1.00  0.00    -0.266 N 
ATOM     19  H3  UNL     1       2.873  -0.596   0.764  1.00  0.00     0.194 HD
BRANCH  17  20
HETATM   20  C6  UNL     1       2.797   1.873  -1.425  1.00  0.00     0.227 C 
BRANCH  20  21
HETATM   21  O3  UNL     1       2.138   3.011  -0.971  1.00  0.00    -0.395 OA
ATOM     22  H3  UNL     1       2.461   3.704  -1.535  1.00  0.00     0.209 HD
ENDBRANCH  20  21
ENDBRANCH  17  20
BRANCH  18  23
HETATM   23  O4  UNL     1       4.490   0.552   0.124  1.00  0.00    -0.285 OA
HETATM   24  C7  UNL     1       5.040   1.102   1.307  1.00  0.00     0.237 C 
ENDBRANCH  18  23
ENDBRANCH   4  17
BRANCH   7  25
HETATM   25  N5  UNL     1      -1.926   2.724  -1.224  1.00  0.00    -0.384 N 
ATOM     26  H52 UNL     1      -2.946   2.748  -1.212  1.00  0.00     0.157 HD
ATOM     27  H51 UNL     1      -1.390   3.553  -1.481  1.00  0.00     0.157 HD
ENDBRANCH   7  25
BRANCH   1  28
HETATM   28  S1  UNL     1      -3.651   0.514  -0.543  1.00  0.00     0.265 S 
HETATM   29  O1  UNL     1      -4.252  -0.712  -1.160  1.00  0.00    -0.200 OA
HETATM   30  O2  UNL     1      -4.117   1.663  -1.443  1.00  0.00    -0.200 OA
BRANCH  28  31
HETATM   31  N1  UNL     1      -4.305   0.867   1.012  1.00  0.00    -0.320 N 
HETATM   32  C1  UNL     1      -3.969   2.184   1.459  1.00  0.00     0.159 C 
ATOM     33  H1  UNL     1      -4.868   0.211   1.553  1.00  0.00     0.171 HD
ENDBRANCH  28  31
ENDBRANCH   1  28
TORSDOF 7
