REMARK  10 active torsions:
REMARK  status: ('A' for Active; 'I' for Inactive)
REMARK    1  A    between atoms: N1_1  and  N2_4 
REMARK    2  A    between atoms: N2_4  and  N3_5 
REMARK    3  A    between atoms: N3_5  and  C1_7 
REMARK    4  A    between atoms: C3_13  and  C4_14 
REMARK       I    between atoms: C4_14  and  N6_16 
REMARK    5  A    between atoms: N6_16  and  C5_18 
REMARK    6  A    between atoms: C6_21  and  N8_22 
REMARK    7  A    between atoms: C7_27  and  N10_28 
REMARK    8  A    between atoms: C8_35  and  C9_36 
REMARK    9  A    between atoms: C9_36  and  N13_37 
REMARK   10  A    between atoms: C9_36  and  C10_41 
ROOT
HETATM    1  C1  UNL     1      -1.957   1.546   0.667  1.00  0.00     0.245 C 
HETATM    2  N4  UNL     1      -2.295   2.709  -0.081  1.00  0.00    -0.025 NA
HETATM    3  O1  UNL     1      -1.146   3.483   0.352  1.00  0.00    -0.161 OA
HETATM    4  N5  UNL     1      -0.105   2.571   0.095  1.00  0.00    -0.243 N 
ATOM      5  H5  UNL     1       0.843   2.826  -0.180  1.00  0.00     0.196 HD
HETATM    6  C2  UNL     1      -0.528   1.368   0.259  1.00  0.00     0.121 C 
HETATM    7  C3  UNL     1      -0.019   0.032   0.046  1.00  0.00     0.131 C 
HETATM    8  N12 UNL     1      -0.819  -1.009   0.062  1.00  0.00    -0.350 N 
ATOM      9  H12 UNL     1      -0.441  -1.940  -0.112  1.00  0.00     0.166 HD
HETATM   10  C8  UNL     1      -2.226  -0.848   0.323  1.00  0.00     0.074 C 
HETATM   11  C11 UNL     1      -2.748   0.332   0.591  1.00  0.00     0.104 C 
HETATM   12  N15 UNL     1      -4.134   0.438   0.849  1.00  0.00    -0.100 NA
ENDROOT
BRANCH   7  13
HETATM   13  C4  UNL     1       1.373  -0.231  -0.195  1.00  0.00     0.288 C 
HETATM   14  O2  UNL     1       1.757  -1.442  -0.385  1.00  0.00    -0.265 OA
HETATM   15  N6  UNL     1       2.361   0.756  -0.238  1.00  0.00    -0.153 N 
ATOM     16  H6  UNL     1       2.111   1.734  -0.093  1.00  0.00     0.187 HD
BRANCH  15  17
HETATM   17  C5  UNL     1       3.736   0.393  -0.488  1.00  0.00     0.702 A 
HETATM   18  N7  UNL     1       4.125  -0.871  -0.685  1.00  0.00    -0.154 N 
HETATM   19  C6  UNL     1       5.376  -1.252  -0.917  1.00  0.00     0.278 A 
ATOM     20  H7  UNL     1       3.408  -1.596  -0.655  1.00  0.00     0.187 HD
HETATM   21  N9  UNL     1       6.316  -0.288  -0.956  1.00  0.00    -0.155 N 
HETATM   22  C7  UNL     1       5.989   1.002  -0.765  1.00  0.00     0.693 A 
ATOM     23  H9  UNL     1       7.288  -0.540  -1.133  1.00  0.00     0.187 HD
HETATM   24  N11 UNL     1       4.706   1.330  -0.534  1.00  0.00    -0.022 N 
ATOM     25  H11 UNL     1       4.460   2.309  -0.390  1.00  0.00     0.203 HD
BRANCH  19  26
HETATM   26  N8  UNL     1       5.714  -2.626  -1.119  1.00  0.00    -0.078 N 
HETATM   27  O3  UNL     1       6.896  -2.946  -1.334  1.00  0.00    -0.529 OA
HETATM   28  O4  UNL     1       4.766  -3.599  -1.080  1.00  0.00    -0.529 OA
ENDBRANCH  19  26
BRANCH  22  29
HETATM   29  N10 UNL     1       6.915   1.889  -0.810  1.00  0.00    -0.234 N 
ATOM     30 2H10 UNL     1       7.889   1.640  -0.985  1.00  0.00     0.174 HD
ATOM     31 1H10 UNL     1       6.667   2.868  -0.665  1.00  0.00     0.174 HD
ENDBRANCH  22  29
ENDBRANCH  15  17
ENDBRANCH   7  13
BRANCH   1  32
HETATM   32  N3  UNL     1      -1.942   2.026   2.088  1.00  0.00    -0.212 N 
ATOM     33  H3  UNL     1      -1.152   1.825   2.701  1.00  0.00     0.200 HD
BRANCH  32  34
HETATM   34  N2  UNL     1      -2.917   2.674   2.497  1.00  0.00    -0.246 NA
BRANCH  34  35
HETATM   35  N1  UNL     1      -3.702   3.549   2.857  1.00  0.00    -0.261 N 
ATOM     36  H12 UNL     1      -3.025   4.290   2.676  1.00  0.00     0.193 HD
ATOM     37  H11 UNL     1      -4.504   4.082   3.193  1.00  0.00     0.193 HD
ENDBRANCH  34  35
ENDBRANCH  32  34
ENDBRANCH   1  32
BRANCH  10  38
HETATM   38  C9  UNL     1      -3.049  -2.059   0.297  1.00  0.00     0.323 C 
BRANCH  38  39
HETATM   39  N13 UNL     1      -3.116  -2.628   1.642  1.00  0.00    -0.061 N 
ATOM     40 3H13 UNL     1      -2.191  -2.798   2.036  1.00  0.00     0.275 HD
ATOM     41 2H13 UNL     1      -3.445  -1.952   2.331  1.00  0.00     0.275 HD
ATOM     42 1H13 UNL     1      -3.689  -3.471   1.624  1.00  0.00     0.275 HD
ENDBRANCH  38  39
BRANCH  38  43
HETATM   43  C10 UNL     1      -4.394  -1.948  -0.263  1.00  0.00     0.267 C 
HETATM   44  N14 UNL     1      -4.561  -1.490  -1.588  1.00  0.00    -0.060 NA
HETATM   45  O5  UNL     1      -5.396  -2.252   0.404  1.00  0.00    -0.274 OA
ENDBRANCH  38  43
ENDBRANCH  10  38
TORSDOF 10
