REMARK  8 active torsions:
REMARK  status: ('A' for Active; 'I' for Inactive)
REMARK    1  A    between atoms: C2_2  and  O1_3 
REMARK    2  A    between atoms: C2_2  and  C12_34 
REMARK    3  A    between atoms: O1_3  and  N1_4 
REMARK    4  A    between atoms: C3_5  and  C4_6 
REMARK    5  A    between atoms: N4_11  and  N5_12 
REMARK    6  A    between atoms: N5_12  and  C5_14 
REMARK    7  A    between atoms: C6_19  and  C7_20 
REMARK    8  A    between atoms: C13_40  and  N15_41 
ROOT
HETATM    1  C4  UNL     1       0.226  -0.945  -1.487  1.00  0.00     0.141 A 
HETATM    2  N2  UNL     1       0.566   0.235  -2.032  1.00  0.00    -0.278 N 
ATOM      3  H2  UNL     1      -0.088   0.947  -2.358  1.00  0.00     0.189 HD
HETATM    4  N3  UNL     1       1.880   0.325  -2.078  1.00  0.00    -0.219 N 
ATOM      5  H3  UNL     1       2.406   1.118  -2.445  1.00  0.00     0.210 HD
HETATM    6  N4  UNL     1       2.412  -0.785  -1.569  1.00  0.00    -0.162 N 
HETATM    7  C8  UNL     1       1.406  -1.594  -1.192  1.00  0.00     0.189 A 
HETATM    8  N10 UNL     1       1.474  -2.871  -0.604  1.00  0.00    -0.076 NA
ENDROOT
BRANCH   1   9
HETATM    9  C3  UNL     1      -1.117  -1.438  -1.253  1.00  0.00     0.173 C 
HETATM   10  N1  UNL     1      -2.276  -0.635  -0.911  1.00  0.00    -0.211 N 
HETATM   11  C9  UNL     1      -3.382  -1.508  -0.976  1.00  0.00     0.143 C 
HETATM   12  N12 UNL     1      -2.787  -2.856  -1.054  1.00  0.00    -0.106 NA
HETATM   13  C10 UNL     1      -4.208  -1.383  -2.247  1.00  0.00     0.062 C 
HETATM   14  C11 UNL     1      -4.293  -1.540   0.209  1.00  0.00     0.062 C 
HETATM   15  N11 UNL     1      -1.454  -2.663  -1.320  1.00  0.00    -0.283 N 
ATOM     16  H11 UNL     1      -0.806  -3.418  -1.546  1.00  0.00     0.184 HD
BRANCH  10  17
HETATM   17  O1  UNL     1      -2.158   0.646  -0.627  1.00  0.00    -0.263 OA
BRANCH  17  18
HETATM   18  C2  UNL     1      -2.274   1.043   0.671  1.00  0.00     0.204 C 
HETATM   19  C1  UNL     1      -0.888   1.131   1.345  1.00  0.00     0.049 C 
BRANCH  18  20
HETATM   20  C12 UNL     1      -2.873   2.383   0.751  1.00  0.00     0.110 A 
HETATM   21  N13 UNL     1      -2.352   3.395   1.497  1.00  0.00    -0.239 N 
HETATM   22  O3  UNL     1      -3.078   4.447   1.399  1.00  0.00    -0.155 OA
ATOM     23  H13 UNL     1      -1.502   3.326   2.056  1.00  0.00     0.196 HD
HETATM   24  N14 UNL     1      -4.076   4.197   0.616  1.00  0.00    -0.224 N 
HETATM   25  C13 UNL     1      -3.997   2.928   0.185  1.00  0.00     0.148 A 
ATOM     26  H14 UNL     1      -4.809   4.860   0.365  1.00  0.00     0.198 HD
BRANCH  25  27
HETATM   27  N15 UNL     1      -4.800   2.340  -0.607  1.00  0.00    -0.382 N 
ATOM     28 2H15 UNL     1      -4.740   1.376  -0.934  1.00  0.00     0.157 HD
ATOM     29 1H15 UNL     1      -5.636   2.745  -1.028  1.00  0.00     0.157 HD
ENDBRANCH  25  27
ENDBRANCH  18  20
ENDBRANCH  17  18
ENDBRANCH  10  17
ENDBRANCH   1   9
BRANCH   6  30
HETATM   30  N5  UNL     1       3.756  -1.104  -1.424  1.00  0.00    -0.239 N 
ATOM     31  H5  UNL     1       4.187  -1.840  -1.983  1.00  0.00     0.193 HD
BRANCH  30  32
HETATM   32  C5  UNL     1       4.452  -0.426  -0.543  1.00  0.00     0.262 A 
HETATM   33  N6  UNL     1       4.013   0.561   0.255  1.00  0.00    -0.262 N 
HETATM   34  N7  UNL     1       5.036   0.966   0.984  1.00  0.00    -0.274 N 
ATOM     35  H6  UNL     1       3.063   0.930   0.291  1.00  0.00     0.190 HD
HETATM   36  C6  UNL     1       6.144   0.235   0.655  1.00  0.00     0.207 A 
ATOM     37  H7  UNL     1       5.005   1.708   1.683  1.00  0.00     0.189 HD
HETATM   38  O2  UNL     1       5.721  -0.583  -0.269  1.00  0.00    -0.255 OA
BRANCH  36  39
HETATM   39  C7  UNL     1       7.462   0.383   1.237  1.00  0.00     0.163 C 
HETATM   40  N8  UNL     1       8.426  -0.358   0.849  1.00  0.00    -0.384 N 
ATOM     41  H82 UNL     1       8.267  -1.059   0.125  1.00  0.00     0.157 HD
ATOM     42  H81 UNL     1       9.354  -0.254   1.259  1.00  0.00     0.157 HD
HETATM   43  N9  UNL     1       7.682   1.351   2.236  1.00  0.00    -0.079 NA
ENDBRANCH  36  39
ENDBRANCH  30  32
ENDBRANCH   6  30
TORSDOF 8
