REMARK  17 active torsions:
REMARK  status: ('A' for Active; 'I' for Inactive)
REMARK    1  A    between atoms: C2_2  and  C3_3 
REMARK    2  A    between atoms: C3_3  and  C4_4 
REMARK    3  A    between atoms: C4_4  and  C5_5 
REMARK    4  A    between atoms: C5_5  and  C6_6 
REMARK    5  A    between atoms: C6_6  and  C7_7 
REMARK    6  A    between atoms: C11_14  and  C12_15 
REMARK    7  A    between atoms: C13_16  and  C14_17 
REMARK    8  A    between atoms: C14_17  and  N2_18 
REMARK    9  A    between atoms: C16_25  and  C17_26 
REMARK   10  A    between atoms: C17_26  and  C18_27 
REMARK   11  A    between atoms: C18_27  and  C19_28 
REMARK   12  A    between atoms: C19_28  and  C20_29 
REMARK   13  A    between atoms: C20_29  and  C21_30 
REMARK   14  A    between atoms: C21_30  and  C22_31 
REMARK   15  A    between atoms: C24_38  and  C25_39 
REMARK   16  A    between atoms: C25_39  and  C26_40 
REMARK   17  A    between atoms: C29_45  and  O7_46 
ROOT
HETATM    1  C7  UNL     1      -2.674   0.419  -0.752  1.00  0.00     0.159 C 
HETATM    2  N1  UNL     1      -2.201   1.505  -1.535  1.00  0.00    -0.349 N 
ATOM      3  H1  UNL     1      -1.751   1.197  -2.397  1.00  0.00     0.163 HD
HETATM    4  C8  UNL     1      -2.206   2.881  -1.405  1.00  0.00     0.218 C 
HETATM    5  O1  UNL     1      -2.660   3.510  -2.448  1.00  0.00    -0.274 OA
HETATM    6  C9  UNL     1      -1.795   3.762  -0.313  1.00  0.00     0.105 C 
HETATM    7  C10 UNL     1      -0.429   4.360  -0.469  1.00  0.00     0.046 C 
HETATM    8  C11 UNL     1       0.624   3.399  -0.966  1.00  0.00     0.155 C 
HETATM    9  O2  UNL     1       0.722   2.359  -0.096  1.00  0.00    -0.310 OA
HETATM   10  C15 UNL     1       1.628   1.683   0.600  1.00  0.00     0.282 C 
HETATM   11  O3  UNL     1       1.811   1.832   1.864  1.00  0.00    -0.263 OA
HETATM   12  C16 UNL     1       2.508   0.690  -0.031  1.00  0.00     0.184 C 
HETATM   13  N3  UNL     1       1.984  -0.025  -1.156  1.00  0.00    -0.345 N 
ATOM     14  H3  UNL     1       2.533   0.060  -2.011  1.00  0.00     0.163 HD
HETATM   15  C23 UNL     1       0.829  -0.829  -1.271  1.00  0.00     0.241 C 
HETATM   16  O6  UNL     1       0.300  -0.780  -2.439  1.00  0.00    -0.271 OA
HETATM   17  C24 UNL     1       0.156  -1.685  -0.305  1.00  0.00     0.175 C 
HETATM   18  N4  UNL     1      -0.963  -1.184   0.418  1.00  0.00    -0.359 N 
ATOM     19  H4  UNL     1      -1.195  -1.768   1.222  1.00  0.00     0.162 HD
HETATM   20  C29 UNL     1      -1.810  -0.103   0.298  1.00  0.00     0.135 C 
ENDROOT
BRANCH  12  21
HETATM   21  C17 UNL     1       3.138  -0.253   1.012  1.00  0.00     0.035 C 
BRANCH  21  22
HETATM   22  C18 UNL     1       4.016  -1.239   0.311  1.00  0.00     0.002 C 
BRANCH  22  23
HETATM   23  C19 UNL     1       4.633  -2.186   1.308  1.00  0.00     0.001 C 
BRANCH  23  24
HETATM   24  C20 UNL     1       5.477  -1.530   2.340  1.00  0.00     0.010 C 
BRANCH  24  25
HETATM   25  C21 UNL     1       6.105  -2.460   3.336  1.00  0.00     0.113 C 
BRANCH  25  26
HETATM   26  C22 UNL     1       7.040  -3.443   2.800  1.00  0.00     0.172 C 
HETATM   27  O4  UNL     1       7.352  -3.434   1.586  1.00  0.00    -0.648 OA
HETATM   28  O5  UNL     1       7.609  -4.420   3.632  1.00  0.00    -0.648 OA
ENDBRANCH  25  26
ENDBRANCH  24  25
ENDBRANCH  23  24
ENDBRANCH  22  23
ENDBRANCH  21  22
ENDBRANCH  12  21
BRANCH   8  29
HETATM   29  C12 UNL     1       1.915   4.106  -1.157  1.00  0.00     0.003 C 
HETATM   30  C13 UNL     1       1.966   5.110  -2.010  1.00  0.00    -0.001 C 
BRANCH  30  31
HETATM   31  C14 UNL     1       3.203   5.891  -2.284  1.00  0.00     0.256 C 
BRANCH  31  32
HETATM   32  N2  UNL     1       3.502   5.747  -3.705  1.00  0.00    -0.076 N 
ATOM     33  H23 UNL     1       3.571   4.773  -4.001  1.00  0.00     0.274 HD
ATOM     34  H22 UNL     1       2.722   6.013  -4.306  1.00  0.00     0.274 HD
ATOM     35  H21 UNL     1       4.350   6.282  -3.893  1.00  0.00     0.274 HD
ENDBRANCH  31  32
ENDBRANCH  30  31
ENDBRANCH   8  29
BRANCH  17  36
HETATM   36  C25 UNL     1      -0.281  -3.046  -0.825  1.00  0.00     0.038 C 
BRANCH  36  37
HETATM   37  C26 UNL     1       0.767  -3.952  -1.306  1.00  0.00    -0.020 C 
HETATM   38  C27 UNL     1       0.041  -5.247  -1.752  1.00  0.00     0.009 C 
HETATM   39  C28 UNL     1       1.594  -3.549  -2.470  1.00  0.00     0.009 C 
ENDBRANCH  36  37
ENDBRANCH  17  36
BRANCH  20  40
HETATM   40  O7  UNL     1      -1.853   0.629   1.381  1.00  0.00    -0.348 OA
ATOM     41  H7  UNL     1      -1.289   0.289   2.066  1.00  0.00     0.219 HD
ENDBRANCH  20  40
BRANCH   1  42
HETATM   42  C6  UNL     1      -4.064   0.791  -0.180  1.00  0.00     0.033 C 
BRANCH  42  43
HETATM   43  C5  UNL     1      -4.599  -0.342   0.659  1.00  0.00     0.002 C 
BRANCH  43  44
HETATM   44  C4  UNL     1      -5.956   0.100   1.177  1.00  0.00     0.000 C 
BRANCH  44  45
HETATM   45  C3  UNL     1      -6.591  -0.969   2.040  1.00  0.00    -0.000 C 
BRANCH  45  46
HETATM   46  C2  UNL     1      -7.944  -0.414   2.499  1.00  0.00    -0.005 C 
HETATM   47  C1  UNL     1      -8.819  -0.109   1.304  1.00  0.00     0.005 C 
ENDBRANCH  45  46
ENDBRANCH  44  45
ENDBRANCH  43  44
ENDBRANCH  42  43
ENDBRANCH   1  42
TORSDOF 17
