REMARK  11 active torsions:
REMARK  status: ('A' for Active; 'I' for Inactive)
REMARK    1  A    between atoms: C2_2  and  C3_3 
REMARK    2  A    between atoms: C3_3  and  C4_4 
REMARK    3  A    between atoms: C4_4  and  C5_5 
REMARK    4  A    between atoms: C6_6  and  C7_7 
REMARK    5  A    between atoms: C7_7  and  C8_8 
REMARK    6  A    between atoms: C18_19  and  N2_20 
REMARK       I    between atoms: N2_20  and  C19_22 
REMARK    7  A    between atoms: C19_22  and  C20_24 
REMARK    8  A    between atoms: C20_24  and  N3_25 
REMARK    9  A    between atoms: C20_24  and  C21_29 
REMARK   10  A    between atoms: C21_29  and  C22_30 
REMARK   11  A    between atoms: C22_30  and  O2_31 
ROOT
HETATM    1  C8  UNL     1       0.206   0.287   1.390  1.00  0.00     0.018 C 
HETATM    2  C9  UNL     1      -0.063   1.645   0.863  1.00  0.00     0.027 C 
HETATM    3  C10 UNL     1      -0.467   1.836  -0.526  1.00  0.00     0.278 C 
HETATM    4  N1  UNL     1       0.133   3.115  -0.942  1.00  0.00     0.093 N 
HETATM    5  C11 UNL     1      -0.830   4.148  -1.155  1.00  0.00     0.310 C 
HETATM    6  C12 UNL     1       1.159   3.439  -0.007  1.00  0.00     0.156 C 
HETATM    7  C13 UNL     1       2.409   3.801  -0.751  1.00  0.00     0.049 C 
HETATM    8  C14 UNL     1       0.753   4.612   0.896  1.00  0.00     0.049 C 
HETATM    9  C15 UNL     1       1.327   2.248   0.902  1.00  0.00     0.035 C 
HETATM   10  C16 UNL     1       2.181   1.166   0.319  1.00  0.00     0.012 C 
HETATM   11  C17 UNL     1       3.605   1.274   0.785  1.00  0.00     0.012 C 
HETATM   12  C18 UNL     1       1.508  -0.114   0.798  1.00  0.00     0.093 C 
ENDROOT
BRANCH  12  13
HETATM   13  N2  UNL     1       1.489  -1.123  -0.209  1.00  0.00    -0.354 N 
HETATM   14  C19 UNL     1       2.087  -2.419  -0.052  1.00  0.00     0.248 C 
HETATM   15  O1  UNL     1       2.651  -2.646   1.044  1.00  0.00    -0.271 OA
ATOM     16  H2  UNL     1       1.024  -0.912  -1.092  1.00  0.00     0.162 HD
BRANCH  14  17
HETATM   17  C20 UNL     1       2.069  -3.453  -1.080  1.00  0.00     0.276 C 
BRANCH  17  18
HETATM   18  N3  UNL     1       1.303  -3.069  -2.255  1.00  0.00    -0.066 N 
ATOM     19  H33 UNL     1       0.355  -2.793  -1.998  1.00  0.00     0.275 HD
ATOM     20  H32 UNL     1       1.637  -2.183  -2.635  1.00  0.00     0.275 HD
ATOM     21  H31 UNL     1       1.290  -3.792  -2.974  1.00  0.00     0.275 HD
ENDBRANCH  17  18
BRANCH  17  22
HETATM   22  C21 UNL     1       3.444  -3.845  -1.547  1.00  0.00     0.068 C 
BRANCH  22  23
HETATM   23  C22 UNL     1       4.346  -4.394  -0.499  1.00  0.00     0.166 C 
BRANCH  23  24
HETATM   24  O2  UNL     1       3.831  -5.544   0.107  1.00  0.00    -0.401 OA
ATOM     25  H2  UNL     1       4.407  -5.895   0.776  1.00  0.00     0.209 HD
ENDBRANCH  23  24
ENDBRANCH  22  23
ENDBRANCH  17  22
ENDBRANCH  14  17
ENDBRANCH  12  13
BRANCH   1  26
HETATM   26  C7  UNL     1      -0.877  -0.684   1.503  1.00  0.00     0.034 C 
BRANCH  26  27
HETATM   27  C6  UNL     1      -1.629  -1.095   0.326  1.00  0.00    -0.030 C 
HETATM   28  C5  UNL     1      -2.938  -0.932   0.152  1.00  0.00    -0.031 C 
BRANCH  28  29
HETATM   29  C4  UNL     1      -3.881  -0.315   1.094  1.00  0.00     0.027 C 
BRANCH  29  30
HETATM   30  C3  UNL     1      -4.928  -1.339   1.460  1.00  0.00     0.003 C 
BRANCH  30  31
HETATM   31  C2  UNL     1      -5.703  -1.831   0.270  1.00  0.00    -0.004 C 
HETATM   32  C1  UNL     1      -6.438  -0.754  -0.457  1.00  0.00     0.005 C 
ENDBRANCH  30  31
ENDBRANCH  29  30
ENDBRANCH  28  29
ENDBRANCH  26  27
ENDBRANCH   1  26
TORSDOF 11
