REMARK  12 active torsions:
REMARK  status: ('A' for Active; 'I' for Inactive)
REMARK    1  A    between atoms: C2_2  and  C3_3 
REMARK    2  A    between atoms: C3_3  and  N1_4 
REMARK    3  A    between atoms: N1_4  and  C4_6 
REMARK    4  A    between atoms: N3_10  and  C6_12 
REMARK    5  A    between atoms: C6_12  and  C7_13 
REMARK    6  A    between atoms: C7_13  and  C8_14 
REMARK    7  A    between atoms: C8_14  and  S1_15 
REMARK    8  A    between atoms: S1_15  and  C9_16 
REMARK    9  A    between atoms: C11_21  and  N5_22 
REMARK   10  A    between atoms: N5_22  and  C12_24 
REMARK   11  A    between atoms: C12_24  and  C13_25 
REMARK   12  A    between atoms: C13_25  and  C14_26 
ROOT
HETATM    1  C4  UNL     1       0.030   2.074  -0.133  1.00  0.00     0.707 A 
HETATM    2  N2  UNL     1       1.205   1.468   0.193  1.00  0.00    -0.022 N 
ATOM      3  H2  UNL     1       2.032   2.047   0.337  1.00  0.00     0.203 HD
HETATM    4  C5  UNL     1       1.316   0.139   0.332  1.00  0.00     0.707 A 
HETATM    5  N3  UNL     1       2.409  -0.449   0.637  1.00  0.00    -0.225 N 
ATOM      6  H3  UNL     1       2.382  -1.466   0.717  1.00  0.00     0.177 HD
HETATM    7  N4  UNL     1       0.177  -0.594   0.128  1.00  0.00    -0.022 N 
ATOM      8  H4  UNL     1       0.211  -1.609   0.222  1.00  0.00     0.203 HD
HETATM    9  C11 UNL     1      -0.985   0.001  -0.194  1.00  0.00     0.707 A 
HETATM   10  N6  UNL     1      -1.077   1.337  -0.329  1.00  0.00    -0.022 N 
ATOM     11  H6  UNL     1      -1.963   1.779  -0.574  1.00  0.00     0.203 HD
ENDROOT
BRANCH   5  12
HETATM   12  C6  UNL     1       3.652   0.180   0.874  1.00  0.00     0.139 C 
BRANCH  12  13
HETATM   13  C7  UNL     1       4.662  -0.455  -0.096  1.00  0.00     0.031 C 
BRANCH  13  14
HETATM   14  C8  UNL     1       4.687  -1.910   0.234  1.00  0.00     0.084 C 
BRANCH  14  15
HETATM   15  S1  UNL     1       5.812  -2.881  -0.787  1.00  0.00    -0.093 SA
BRANCH  15  16
HETATM   16  C9  UNL     1       7.477  -2.421  -0.415  1.00  0.00     0.182 C 
HETATM   17  C10 UNL     1       7.766  -1.421   0.629  1.00  0.00     0.104 C 
HETATM   18  O1  UNL     1       8.391  -2.932  -1.023  1.00  0.00    -0.286 OA
ENDBRANCH  15  16
ENDBRANCH  14  15
ENDBRANCH  13  14
ENDBRANCH  12  13
ENDBRANCH   5  12
BRANCH   1  19
HETATM   19  N1  UNL     1      -0.090   3.352  -0.272  1.00  0.00    -0.222 N 
ATOM     20  H1  UNL     1      -0.989   3.766  -0.518  1.00  0.00     0.178 HD
BRANCH  19  21
HETATM   21  C3  UNL     1       1.079   4.187  -0.071  1.00  0.00     0.164 C 
BRANCH  21  22
HETATM   22  C2  UNL     1       0.750   5.610  -0.172  1.00  0.00    -0.017 C 
HETATM   23  C1  UNL     1       1.325   6.369  -1.085  1.00  0.00     0.008 C 
ENDBRANCH  21  22
ENDBRANCH  19  21
ENDBRANCH   1  19
BRANCH   9  24
HETATM   24  N5  UNL     1      -2.038  -0.722  -0.381  1.00  0.00    -0.225 N 
ATOM     25  H5  UNL     1      -1.985  -1.736  -0.284  1.00  0.00     0.177 HD
BRANCH  24  26
HETATM   26  C12 UNL     1      -3.285  -0.095  -0.726  1.00  0.00     0.138 C 
BRANCH  26  27
HETATM   27  C13 UNL     1      -4.297  -1.172  -1.067  1.00  0.00     0.025 C 
BRANCH  27  28
HETATM   28  C14 UNL     1      -4.475  -2.055   0.136  1.00  0.00    -0.013 C 
HETATM   29  C15 UNL     1      -4.975  -1.226   1.297  1.00  0.00     0.005 C 
HETATM   30  C16 UNL     1      -6.189  -1.977   1.806  1.00  0.00     0.000 C 
HETATM   31  C17 UNL     1      -6.773  -2.481   0.485  1.00  0.00     0.000 C 
HETATM   32  C18 UNL     1      -5.547  -3.088  -0.164  1.00  0.00     0.005 C 
ENDBRANCH  27  28
ENDBRANCH  26  27
ENDBRANCH  24  26
ENDBRANCH   9  24
TORSDOF 12
