REMARK  12 active torsions:
REMARK  status: ('A' for Active; 'I' for Inactive)
REMARK    1  A    between atoms: C2_2  and  N1_3 
REMARK    2  A    between atoms: N1_3  and  C3_5 
REMARK    3  A    between atoms: C4_8  and  C5_9 
REMARK    4  A    between atoms: N3_12  and  C8_13 
REMARK    5  A    between atoms: C8_13  and  C9_14 
REMARK    6  A    between atoms: C9_14  and  C10_15 
REMARK    7  A    between atoms: C10_15  and  C11_16 
REMARK    8  A    between atoms: C11_16  and  C12_17 
REMARK    9  A    between atoms: C12_17  and  N4_18 
REMARK       I    between atoms: N4_18  and  C13_20 
REMARK   10  A    between atoms: C13_20  and  C14_22 
REMARK   11  A    between atoms: N5_25  and  C17_26 
REMARK   12  A    between atoms: C18_27  and  C19_28 
ROOT
HETATM    1  N4  UNL     1      -1.605   0.358   0.329  1.00  0.00    -0.340 N 
ATOM      2  H4  UNL     1      -1.907   1.192   0.832  1.00  0.00     0.167 HD
HETATM    3  C13 UNL     1      -2.540  -0.689   0.362  1.00  0.00     0.225 C 
HETATM    4  O1  UNL     1      -2.284  -1.761  -0.234  1.00  0.00    -0.273 OA
ENDROOT
BRANCH   1   5
HETATM    5  C12 UNL     1      -0.347   0.483  -0.254  1.00  0.00     0.064 C 
BRANCH   5   6
HETATM    6  C11 UNL     1       0.731  -0.467   0.307  1.00  0.00     0.045 C 
BRANCH   6   7
HETATM    7  C10 UNL     1       1.975  -0.021  -0.417  1.00  0.00     0.010 C 
BRANCH   7   8
HETATM    8  C9  UNL     1       3.265  -0.627  -0.070  1.00  0.00     0.044 C 
BRANCH   8   9
HETATM    9  C8  UNL     1       3.459  -2.079  -0.317  1.00  0.00     0.058 C 
BRANCH   9  10
HETATM   10  N3  UNL     1       4.729  -2.541   0.071  1.00  0.00    -0.393 N 
HETATM   11  C7  UNL     1       5.223  -3.792  -0.333  1.00  0.00     0.122 C 
HETATM   12  C6  UNL     1       6.700  -3.523  -0.773  1.00  0.00     0.032 C 
HETATM   13  C5  UNL     1       6.772  -2.067  -0.869  1.00  0.00     0.055 C 
HETATM   14  C26 UNL     1       5.796  -1.641   0.246  1.00  0.00     0.132 C 
BRANCH  13  15
HETATM   15  C4  UNL     1       8.138  -1.492  -0.521  1.00  0.00     0.023 A 
HETATM   16  N2  UNL     1       8.275  -0.182  -0.466  1.00  0.00    -0.340 N 
HETATM   17  C3  UNL     1       9.472   0.306  -0.163  1.00  0.00     0.144 A 
ATOM     18  H2  UNL     1       7.486   0.437  -0.650  1.00  0.00     0.168 HD
HETATM   19  S1  UNL     1      10.433  -1.082   0.048  1.00  0.00    -0.064 SA
HETATM   20  C27 UNL     1       9.240  -2.257  -0.264  1.00  0.00     0.078 A 
BRANCH  17  21
HETATM   21  N1  UNL     1       9.779   1.577  -0.059  1.00  0.00    -0.371 N 
ATOM     22  H1  UNL     1       9.061   2.283  -0.219  1.00  0.00     0.161 HD
BRANCH  21  23
HETATM   23  C2  UNL     1      11.105   1.984   0.275  1.00  0.00     0.117 C 
HETATM   24  C1  UNL     1      11.146   3.501   0.376  1.00  0.00     0.026 C 
ENDBRANCH  21  23
ENDBRANCH  17  21
ENDBRANCH  13  15
ENDBRANCH   9  10
ENDBRANCH   8   9
ENDBRANCH   7   8
ENDBRANCH   6   7
ENDBRANCH   5   6
ENDBRANCH   1   5
BRANCH   3  25
HETATM   25  C14 UNL     1      -3.846  -0.514   1.119  1.00  0.00     0.081 C 
HETATM   26  C15 UNL     1      -4.857  -1.410   0.551  1.00  0.00     0.034 C 
HETATM   27  C16 UNL     1      -6.280  -0.911   0.626  1.00  0.00     0.125 C 
HETATM   28  N5  UNL     1      -6.431   0.515   0.564  1.00  0.00    -0.366 N 
HETATM   29  C24 UNL     1      -5.570   1.271   1.466  1.00  0.00     0.125 C 
HETATM   30  C25 UNL     1      -4.148   0.936   1.149  1.00  0.00     0.034 C 
BRANCH  28  31
HETATM   31  C17 UNL     1      -7.332   1.236  -0.245  1.00  0.00     0.120 A 
HETATM   32  C18 UNL     1      -8.468   1.861   0.215  1.00  0.00     0.054 A 
HETATM   33  C21 UNL     1      -9.304   2.573  -0.650  1.00  0.00     0.259 A 
HETATM   34  O2  UNL     1     -10.320   3.122  -0.185  1.00  0.00    -0.267 OA
HETATM   35  N6  UNL     1      -9.019   2.660  -1.940  1.00  0.00    -0.275 N 
HETATM   36  C22 UNL     1      -7.923   2.056  -2.382  1.00  0.00     0.330 A 
ATOM     37  H6  UNL     1      -9.625   3.177  -2.577  1.00  0.00     0.173 HD
HETATM   38  O3  UNL     1      -7.661   2.148  -3.625  1.00  0.00    -0.246 OA
HETATM   39  N7  UNL     1      -7.088   1.354  -1.559  1.00  0.00    -0.289 N 
HETATM   40  C23 UNL     1      -5.947   0.748  -2.161  1.00  0.00     0.163 C 
BRANCH  32  41
HETATM   41  C19 UNL     1      -8.843   1.768   1.650  1.00  0.00     0.044 C 
HETATM   42  C20 UNL     1      -9.578   0.450   1.876  1.00  0.00     0.010 C 
ENDBRANCH  32  41
ENDBRANCH  28  31
ENDBRANCH   3  25
TORSDOF 12
