REMARK  14 active torsions:
REMARK  status: ('A' for Active; 'I' for Inactive)
REMARK    1  A    between atoms: C2_2  and  C3_3 
REMARK    2  A    between atoms: C3_3  and  O1_4 
REMARK    3  A    between atoms: C3_3  and  C4_6 
REMARK    4  A    between atoms: C4_6  and  C5_7 
REMARK    5  A    between atoms: C5_7  and  C6_8 
REMARK    6  A    between atoms: C6_8  and  C7_9 
REMARK    7  A    between atoms: C7_9  and  C9_11 
REMARK    8  A    between atoms: C9_11  and  C10_12 
REMARK    9  A    between atoms: C15_20  and  C16_21 
REMARK   10  A    between atoms: C16_21  and  C17_22 
REMARK   11  A    between atoms: C26_31  and  O5_32 
REMARK   12  A    between atoms: C26_31  and  C27_34 
REMARK   13  A    between atoms: C27_34  and  O6_35 
REMARK   14  A    between atoms: C28_37  and  O7_38 
ROOT
HETATM    1  C10 UNL     1      -0.283  -0.738  -0.216  1.00  0.00     0.021 C 
HETATM    2  C11 UNL     1       0.024   0.656   0.151  1.00  0.00     0.047 C 
HETATM    3  C12 UNL     1       1.379   1.103   0.298  1.00  0.00     0.091 A 
HETATM    4  O2  UNL     1       1.583   2.209   1.197  1.00  0.00    -0.306 OA
HETATM    5  C13 UNL     1       2.071   3.270   0.393  1.00  0.00     0.290 C 
HETATM    6  O3  UNL     1       2.082   4.488   0.671  1.00  0.00    -0.262 OA
HETATM    7  C14 UNL     1       2.548   2.630  -0.811  1.00  0.00     0.237 C 
HETATM    8  O4  UNL     1       3.876   2.558  -1.138  1.00  0.00    -0.358 OA
HETATM    9  C15 UNL     1       3.923   1.371  -0.496  1.00  0.00     0.097 C 
HETATM   10  C21 UNL     1       4.451   0.147  -1.139  1.00  0.00     0.009 C 
HETATM   11  C22 UNL     1       3.751  -0.962  -1.303  1.00  0.00    -0.019 C 
HETATM   12  C23 UNL     1       2.352  -0.974  -0.813  1.00  0.00     0.055 C 
HETATM   13  C24 UNL     1       2.316   0.099   0.229  1.00  0.00     0.050 A 
HETATM   14  C25 UNL     1       2.468   1.256  -0.598  1.00  0.00     0.070 A 
HETATM   15  C26 UNL     1       1.765  -2.198  -0.306  1.00  0.00     0.112 C 
HETATM   16  C28 UNL     1       0.522  -1.812   0.478  1.00  0.00     0.162 C 
ENDROOT
BRANCH   1  17
HETATM   17  C9  UNL     1      -1.729  -0.970   0.168  1.00  0.00     0.011 C 
BRANCH  17  18
HETATM   18  C7  UNL     1      -2.663  -0.027  -0.563  1.00  0.00    -0.018 C 
HETATM   19  C8  UNL     1      -2.594  -0.105  -2.050  1.00  0.00     0.010 C 
BRANCH  18  20
HETATM   20  C6  UNL     1      -4.077  -0.348  -0.106  1.00  0.00     0.004 C 
BRANCH  20  21
HETATM   21  C5  UNL     1      -5.096   0.590  -0.655  1.00  0.00     0.003 C 
BRANCH  21  22
HETATM   22  C4  UNL     1      -6.449   0.140  -0.101  1.00  0.00     0.032 C 
BRANCH  22  23
HETATM   23  C3  UNL     1      -7.556   1.043  -0.609  1.00  0.00     0.117 C 
BRANCH  23  24
HETATM   24  C2  UNL     1      -8.861   0.569  -0.047  1.00  0.00     0.027 C 
HETATM   25  C1  UNL     1      -8.903   0.543   1.445  1.00  0.00     0.007 C 
ENDBRANCH  23  24
BRANCH  23  26
HETATM   26  O1  UNL     1      -7.590   1.041  -1.982  1.00  0.00    -0.396 OA
ATOM     27  H1  UNL     1      -6.762   1.342  -2.338  1.00  0.00     0.210 HD
ENDBRANCH  23  26
ENDBRANCH  22  23
ENDBRANCH  21  22
ENDBRANCH  20  21
ENDBRANCH  18  20
ENDBRANCH  17  18
ENDBRANCH   1  17
BRANCH  16  28
HETATM   28  O7  UNL     1      -0.255  -2.919   0.775  1.00  0.00    -0.387 OA
HETATM   29  C29 UNL     1      -0.390  -3.233   2.097  1.00  0.00     0.202 C 
ENDBRANCH  16  28
BRANCH  15  30
HETATM   30  O5  UNL     1       1.400  -3.000  -1.421  1.00  0.00    -0.384 OA
ATOM     31  H5  UNL     1       1.015  -3.802  -1.089  1.00  0.00     0.210 HD
ENDBRANCH  15  30
BRANCH  15  32
HETATM   32  C27 UNL     1       2.732  -3.041   0.463  1.00  0.00     0.205 C 
BRANCH  32  33
HETATM   33  O6  UNL     1       3.255  -2.492   1.601  1.00  0.00    -0.398 OA
ATOM     34  H6  UNL     1       3.869  -3.027   2.089  1.00  0.00     0.209 HD
ENDBRANCH  32  33
ENDBRANCH  15  32
BRANCH   9  35
HETATM   35  C16 UNL     1       4.599   1.520   0.840  1.00  0.00     0.070 C 
BRANCH  35  36
HETATM   36  C17 UNL     1       5.976   2.024   0.581  1.00  0.00    -0.021 C 
HETATM   37  C18 UNL     1       7.077   1.383   0.940  1.00  0.00    -0.091 C 
HETATM   38  C19 UNL     1       8.442   1.922   0.662  1.00  0.00     0.042 C 
HETATM   39  C20 UNL     1       6.979   0.080   1.645  1.00  0.00     0.042 C 
ENDBRANCH  35  36
ENDBRANCH   9  35
TORSDOF 14
