REMARK  5 active torsions:
REMARK  status: ('A' for Active; 'I' for Inactive)
REMARK    1  A    between atoms: C9_13  and  N3_14 
REMARK    2  A    between atoms: C16_21  and  C17_22 
REMARK    3  A    between atoms: C17_22  and  C18_23 
REMARK    4  A    between atoms: C18_23  and  C19_24 
REMARK    5  A    between atoms: C19_24  and  O2_25 
ROOT
HETATM    1  N3  UNL     1      -0.879   0.455  -0.150  1.00  0.00     0.100 N 
HETATM    2  C10 UNL     1      -0.395  -0.830   0.301  1.00  0.00     0.273 C 
HETATM    3  C11 UNL     1       0.546  -1.359  -0.736  1.00  0.00     0.033 C 
HETATM    4  C12 UNL     1       1.240  -0.153  -1.386  1.00  0.00     0.039 C 
HETATM    5  C13 UNL     1       2.051   0.473  -0.305  1.00  0.00     0.063 C 
HETATM    6  C14 UNL     1       3.087   1.380  -0.987  1.00  0.00     0.040 C 
HETATM    7  C15 UNL     1       4.133   1.389   0.134  1.00  0.00     0.035 C 
HETATM    8  C16 UNL     1       4.038  -0.040   0.585  1.00  0.00     0.122 C 
HETATM    9  O3  UNL     1       2.810  -0.541   0.283  1.00  0.00    -0.375 OA
HETATM   10  C20 UNL     1       1.294   1.180   0.745  1.00  0.00     0.068 C 
HETATM   11  C21 UNL     1      -0.133   1.508   0.424  1.00  0.00     0.276 C 
ENDROOT
BRANCH   1  12
HETATM   12  C9  UNL     1      -2.290   0.478  -0.018  1.00  0.00     0.287 C 
HETATM   13  C1  UNL     1      -3.002   1.306  -1.040  1.00  0.00     0.129 C 
HETATM   14  N1  UNL     1      -2.478   2.669  -1.178  1.00  0.00    -0.085 NA
HETATM   15  N2  UNL     1      -3.959   0.972  -1.772  1.00  0.00    -0.317 N 
HETATM   16  C2  UNL     1      -4.780  -0.078  -2.052  1.00  0.00     0.222 C 
ATOM     17  H2  UNL     1      -4.214   1.761  -2.367  1.00  0.00     0.169 HD
HETATM   18  O1  UNL     1      -4.474  -1.035  -2.823  1.00  0.00    -0.273 OA
HETATM   19  C3  UNL     1      -6.147  -0.178  -1.454  1.00  0.00     0.103 C 
HETATM   20  C4  UNL     1      -6.263  -0.917  -0.182  1.00  0.00     0.009 C 
HETATM   21  C5  UNL     1      -5.123  -1.763   0.246  1.00  0.00     0.000 C 
HETATM   22  C6  UNL     1      -4.386  -1.250   1.456  1.00  0.00     0.000 C 
HETATM   23  C7  UNL     1      -4.216   0.208   1.571  1.00  0.00     0.002 C 
HETATM   24  C8  UNL     1      -2.794   0.690   1.374  1.00  0.00     0.043 C 
ENDBRANCH   1  12
BRANCH   8  25
HETATM   25  C17 UNL     1       5.103  -0.924  -0.009  1.00  0.00     0.034 C 
BRANCH  25  26
HETATM   26  C18 UNL     1       6.509  -0.504   0.363  1.00  0.00     0.028 C 
BRANCH  26  27
HETATM   27  C19 UNL     1       7.450  -1.497  -0.337  1.00  0.00     0.164 C 
BRANCH  27  28
HETATM   28  O2  UNL     1       8.775  -1.202  -0.056  1.00  0.00    -0.401 OA
ATOM     29  H2  UNL     1       9.357  -1.816  -0.489  1.00  0.00     0.209 HD
ENDBRANCH  27  28
ENDBRANCH  26  27
ENDBRANCH  25  26
ENDBRANCH   8  25
TORSDOF 5
