REMARK  1 active torsions:
REMARK  status: ('A' for Active; 'I' for Inactive)
REMARK    1  A    between atoms: C2_2  and  C3_3 
ROOT
HETATM    1  C3  UNL     1       1.931  -0.816  -0.385  1.00  0.00     0.082 C 
HETATM    2 CL1  UNL     1       3.493  -0.849  -1.293  1.00  0.00    -0.115 Cl
HETATM    3  C4  UNL     1       1.145  -1.998  -1.045  1.00  0.00     0.037 C 
HETATM    4  C5  UNL     1      -0.235  -1.631  -0.697  1.00  0.00     0.029 C 
HETATM    5  C6  UNL     1      -1.379  -1.938  -1.547  1.00  0.00     0.008 C 
HETATM    6  C7  UNL     1      -2.581  -1.538  -0.678  1.00  0.00     0.005 C 
HETATM    7  C8  UNL     1      -2.485  -0.364   0.146  1.00  0.00    -0.011 C 
HETATM    8  C9  UNL     1      -3.330  -0.509   1.397  1.00  0.00     0.010 C 
HETATM    9  C10 UNL     1      -1.084   0.102   0.621  1.00  0.00     0.033 C 
HETATM   10  C11 UNL     1      -1.299   1.449   1.179  1.00  0.00     0.034 C 
HETATM   11  C12 UNL     1      -0.245   2.467   0.986  1.00  0.00     0.172 C 
HETATM   12  O1  UNL     1       0.991   1.995   0.646  1.00  0.00    -0.350 OA
HETATM   13  C13 UNL     1       0.974   1.617  -0.673  1.00  0.00     0.235 C 
HETATM   14  C14 UNL     1       2.001   2.471  -1.406  1.00  0.00     0.086 C 
HETATM   15  O2  UNL     1      -0.313   1.821  -1.251  1.00  0.00    -0.196 OA
HETATM   16  O3  UNL     1      -0.832   0.627  -1.533  1.00  0.00    -0.222 OA
HETATM   17  C15 UNL     1      -0.290  -0.153  -0.521  1.00  0.00     0.147 C 
HETATM   18  C16 UNL     1       1.095   0.211  -0.847  1.00  0.00     0.217 C 
HETATM   19  F1  UNL     1       1.216   0.060  -2.272  1.00  0.00    -0.231 F 
ENDROOT
BRANCH   1  20
HETATM   20  C2  UNL     1       2.255  -1.081   1.013  1.00  0.00     0.025 C 
HETATM   21  C1  UNL     1       3.205  -0.041   1.564  1.00  0.00     0.007 C 
ENDBRANCH   1  20
TORSDOF 1
