REMARK  9 active torsions:
REMARK  status: ('A' for Active; 'I' for Inactive)
REMARK    1  A    between atoms: O1_2  and  C2_3 
REMARK    2  A    between atoms: C3_4  and  O2_5 
REMARK    3  A    between atoms: C4_7  and  C5_8 
REMARK    4  A    between atoms: N1_9  and  N2_11 
REMARK       I    between atoms: N2_11  and  C6_13 
REMARK    5  A    between atoms: C10_20  and  O4_21 
REMARK    6  A    between atoms: O4_21  and  C11_22 
REMARK    7  A    between atoms: C12_23  and  O5_24 
REMARK    8  A    between atoms: C12_23  and  C13_26 
REMARK    9  A    between atoms: C16_32  and  O8_33 
ROOT
HETATM    1  C2  UNL     1      -1.280   2.683  -0.490  1.00  0.00     0.136 A 
HETATM    2  C3  UNL     1      -2.157   1.556  -0.408  1.00  0.00     0.116 A 
HETATM    3  C4  UNL     1      -1.636   0.306  -0.285  1.00  0.00     0.045 A 
HETATM    4  C8  UNL     1      -0.244   0.111  -0.243  1.00  0.00     0.064 A 
HETATM    5  N3  UNL     1       0.311  -1.092  -0.098  1.00  0.00    -0.361 N 
ATOM      6  H3  UNL     1      -0.288  -1.916  -0.039  1.00  0.00     0.165 HD
HETATM    7  C9  UNL     1       1.650  -1.241  -0.028  1.00  0.00     0.130 A 
HETATM    8  C10 UNL     1       2.512  -0.153  -0.101  1.00  0.00     0.141 A 
HETATM    9  C14 UNL     1       1.989   1.099  -0.251  1.00  0.00     0.222 A 
HETATM   10  O7  UNL     1       2.712   2.125  -0.331  1.00  0.00    -0.284 OA
HETATM   11  C15 UNL     1       0.600   1.230  -0.324  1.00  0.00     0.081 A 
HETATM   12  C16 UNL     1       0.067   2.485  -0.448  1.00  0.00     0.118 A 
ENDROOT
BRANCH   3  13
HETATM   13  C5  UNL     1      -2.464  -0.859  -0.030  1.00  0.00     0.123 C 
HETATM   14  N1  UNL     1      -3.688  -0.729   0.087  1.00  0.00    -0.308 N 
ATOM     15  H1  UNL     1      -3.944   0.252  -0.028  1.00  0.00     0.186 HD
BRANCH  14  16
HETATM   16  N2  UNL     1      -4.806  -1.474   0.320  1.00  0.00    -0.271 N 
HETATM   17  C6  UNL     1      -5.246  -1.591   1.653  1.00  0.00     0.232 C 
HETATM   18  C7  UNL     1      -6.472  -2.310   2.027  1.00  0.00     0.119 C 
HETATM   19  O3  UNL     1      -4.603  -1.064   2.638  1.00  0.00    -0.272 OA
ATOM     20  H2  UNL     1      -5.306  -1.930  -0.443  1.00  0.00     0.190 HD
ENDBRANCH  14  16
ENDBRANCH   3  13
BRANCH   2  21
HETATM   21  O2  UNL     1      -3.477   1.861  -0.472  1.00  0.00    -0.357 OA
ATOM     22  H2  UNL     1      -4.059   1.112  -0.418  1.00  0.00     0.217 HD
ENDBRANCH   2  21
BRANCH   1  23
HETATM   23  O1  UNL     1      -1.842   3.921  -0.601  1.00  0.00    -0.351 OA
HETATM   24  C1  UNL     1      -2.294   4.506  -1.755  1.00  0.00     0.210 C 
ENDBRANCH   1  23
BRANCH  12  25
HETATM   25  O8  UNL     1       0.926   3.603  -0.530  1.00  0.00    -0.357 OA
ATOM     26  H8  UNL     1       1.865   3.465  -0.501  1.00  0.00     0.217 HD
ENDBRANCH  12  25
BRANCH   8  27
HETATM   27  O4  UNL     1       3.881  -0.402   0.007  1.00  0.00    -0.314 OA
BRANCH  27  28
HETATM   28  C11 UNL     1       4.397  -1.576   0.113  1.00  0.00     0.184 C 
HETATM   29  C12 UNL     1       5.713  -2.103   0.333  1.00  0.00     0.153 C 
BRANCH  29  30
HETATM   30  O5  UNL     1       5.838  -3.372   0.611  1.00  0.00    -0.355 OA
ATOM     31  H5  UNL     1       6.709  -3.721   0.757  1.00  0.00     0.218 HD
ENDBRANCH  29  30
BRANCH  29  32
HETATM   32  C13 UNL     1       6.939  -1.326   0.260  1.00  0.00     0.289 C 
HETATM   33  N4  UNL     1       8.151  -1.970   0.550  1.00  0.00    -0.055 NA
HETATM   34  O6  UNL     1       6.826  -0.109  -0.057  1.00  0.00    -0.269 OA
ENDBRANCH  29  32
ENDBRANCH  27  28
ENDBRANCH   8  27
TORSDOF 9
