REMARK  5 active torsions:
REMARK  status: ('A' for Active; 'I' for Inactive)
REMARK    1  A    between atoms: N1_7  and  C7_8 
REMARK    2  A    between atoms: C7_8  and  C8_9 
REMARK    3  A    between atoms: C8_9  and  C9_10 
REMARK    4  A    between atoms: C9_10  and  N2_11 
REMARK    5  A    between atoms: C10_16  and  N5_17 
ROOT
HETATM    1  N2  UNL     1       2.875   0.369  -0.265  1.00  0.00    -0.205 N 
HETATM    2  N3  UNL     1       3.761  -0.568  -0.569  1.00  0.00    -0.211 N 
ATOM      3  H3  UNL     1       3.665  -1.216  -1.351  1.00  0.00     0.210 HD
HETATM    4  N4  UNL     1       4.771  -0.560   0.255  1.00  0.00    -0.115 N 
ATOM      5  H4  UNL     1       5.578  -1.183   0.228  1.00  0.00     0.207 HD
HETATM    6  C10 UNL     1       4.549   0.428   1.152  1.00  0.00     0.707 A 
HETATM    7  N6  UNL     1       3.373   0.977   0.800  1.00  0.00    -0.113 N 
ATOM      8  H6  UNL     1       2.927   1.754   1.286  1.00  0.00     0.207 HD
ENDROOT
BRANCH   1   9
HETATM    9  C9  UNL     1       1.643   0.672  -0.931  1.00  0.00     0.173 C 
BRANCH   9  10
HETATM   10  C8  UNL     1       0.465  -0.124  -0.356  1.00  0.00     0.044 C 
BRANCH  10  11
HETATM   11  C7  UNL     1      -0.750   0.288  -1.138  1.00  0.00     0.130 C 
BRANCH  11  12
HETATM   12  N1  UNL     1      -1.964  -0.346  -0.752  1.00  0.00    -0.360 N 
HETATM   13  C2  UNL     1      -2.743   0.219   0.177  1.00  0.00     0.007 A 
HETATM   14  C1  UNL     1      -2.391   1.517   0.827  1.00  0.00     0.068 C 
HETATM   15  C3  UNL     1      -3.923  -0.369   0.581  1.00  0.00     0.025 A 
HETATM   16  C4  UNL     1      -4.303  -1.565   0.011  1.00  0.00     0.003 A 
HETATM   17  C5  UNL     1      -3.522  -2.149  -0.933  1.00  0.00     0.017 A 
HETATM   18  C6  UNL     1      -2.346  -1.507  -1.297  1.00  0.00     0.091 A 
ENDBRANCH  11  12
ENDBRANCH  10  11
ENDBRANCH   9  10
ENDBRANCH   1   9
BRANCH   6  19
HETATM   19  N5  UNL     1       5.313   0.761   2.133  1.00  0.00    -0.232 N 
ATOM     20  H52 UNL     1       6.205   0.345   2.400  1.00  0.00     0.174 HD
ATOM     21  H51 UNL     1       5.146   1.506   2.809  1.00  0.00     0.174 HD
ENDBRANCH   6  19
TORSDOF 5
