REMARK  5 active torsions:
REMARK  status: ('A' for Active; 'I' for Inactive)
REMARK    1  A    between atoms: C1_2  and  C2_4 
REMARK    2  A    between atoms: C2_4  and  C3_5 
REMARK    3  A    between atoms: C3_5  and  N2_6 
REMARK    4  A    between atoms: C3_5  and  C4_10 
REMARK    5  A    between atoms: C4_10  and  C5_12 
ROOT
HETATM    1  C3  UNL     1      -1.282   0.023  -0.805  1.00  0.00     0.263 C 
ENDROOT
BRANCH   1   2
HETATM    2  C2  UNL     1      -1.948   0.910   0.231  1.00  0.00     0.140 C 
BRANCH   2   3
HETATM    3  C1  UNL     1      -3.353   0.471   0.434  1.00  0.00     0.233 C 
HETATM    4  N1  UNL     1      -4.130   1.196   1.379  1.00  0.00    -0.062 NA
HETATM    5  O1  UNL     1      -3.872  -0.492  -0.178  1.00  0.00    -0.277 OA
ENDBRANCH   2   3
ENDBRANCH   1   2
BRANCH   1   6
HETATM    6  N2  UNL     1      -1.326  -1.325  -0.292  1.00  0.00    -0.068 N 
ATOM      7  H23 UNL     1      -0.915  -1.415   0.637  1.00  0.00     0.275 HD
ATOM      8  H22 UNL     1      -2.268  -1.631  -0.047  1.00  0.00     0.275 HD
ATOM      9  H21 UNL     1      -0.878  -1.921  -0.988  1.00  0.00     0.275 HD
ENDBRANCH   1   6
BRANCH   1  10
HETATM   10  C4  UNL     1       0.075   0.489  -1.145  1.00  0.00     0.188 C 
HETATM   11  O2  UNL     1       0.228   1.594  -1.598  1.00  0.00    -0.293 OA
BRANCH  10  12
HETATM   12  C5  UNL     1       1.230  -0.396  -0.931  1.00  0.00     0.257 C 
HETATM   13  C6  UNL     1       1.424  -0.725   0.534  1.00  0.00     0.042 C 
HETATM   14  C7  UNL     1       2.909  -0.607   0.788  1.00  0.00     0.030 C 
HETATM   15  C8  UNL     1       3.503  -0.200  -0.513  1.00  0.00     0.233 C 
HETATM   16  N3  UNL     1       2.431   0.291  -1.352  1.00  0.00    -0.064 N 
ATOM     17  H32 UNL     1       2.623   0.194  -2.349  1.00  0.00     0.278 HD
ATOM     18  H31 UNL     1       2.341   1.307  -1.338  1.00  0.00     0.278 HD
ENDBRANCH  10  12
ENDBRANCH   1  10
TORSDOF 5
