REMARK  8 active torsions:
REMARK  status: ('A' for Active; 'I' for Inactive)
REMARK    1  A    between atoms: O1_2  and  C2_3 
REMARK    2  A    between atoms: C4_5  and  C5_6 
REMARK    3  A    between atoms: C6_12  and  N3_13 
REMARK    4  A    between atoms: C7_16  and  C8_17 
REMARK    5  A    between atoms: C9_18  and  C10_19 
REMARK    6  A    between atoms: C10_19  and  C11_20 
REMARK    7  A    between atoms: C11_20  and  C12_21 
REMARK    8  A    between atoms: C15_27  and  O3_28 
ROOT
HETATM    1  C2  UNL     1      -3.170   1.452  -0.441  1.00  0.00     0.103 A 
HETATM    2  C3  UNL     1      -2.575   0.741   0.562  1.00  0.00     0.054 A 
HETATM    3  C4  UNL     1      -1.229   0.387   0.419  1.00  0.00     0.011 A 
HETATM    4  C7  UNL     1      -0.478   0.737  -0.716  1.00  0.00     0.001 A 
HETATM    5  C14 UNL     1      -1.146   1.453  -1.681  1.00  0.00     0.081 A 
HETATM    6 CL3  UNL     1      -0.325   1.940  -3.140  1.00  0.00    -0.080 Cl
HETATM    7  C15 UNL     1      -2.496   1.826  -1.570  1.00  0.00     0.121 A 
ENDROOT
BRANCH   3   8
HETATM    8  C5  UNL     1      -0.639  -0.337   1.534  1.00  0.00     0.113 A 
HETATM    9  N1  UNL     1       0.375   0.034   2.322  1.00  0.00    -0.237 N 
HETATM   10  O2  UNL     1       0.598  -0.911   3.191  1.00  0.00    -0.155 OA
ATOM     11  H1  UNL     1       0.889   0.912   2.254  1.00  0.00     0.197 HD
HETATM   12  N2  UNL     1      -0.216  -1.893   3.022  1.00  0.00    -0.224 N 
HETATM   13  C6  UNL     1      -1.024  -1.603   1.999  1.00  0.00     0.151 A 
ATOM     14  H2  UNL     1      -0.240  -2.749   3.576  1.00  0.00     0.198 HD
BRANCH  13  15
HETATM   15  N3  UNL     1      -1.994  -2.281   1.461  1.00  0.00    -0.382 N 
ATOM     16  H32 UNL     1      -2.611  -2.060   0.680  1.00  0.00     0.157 HD
ATOM     17  H31 UNL     1      -2.274  -3.202   1.799  1.00  0.00     0.157 HD
ENDBRANCH  13  15
ENDBRANCH   3   8
BRANCH   4  18
HETATM   18  C8  UNL     1       0.885   0.283  -0.789  1.00  0.00     0.010 C 
HETATM   19  C9  UNL     1       1.825   0.478  -1.666  1.00  0.00    -0.025 C 
BRANCH  19  20
HETATM   20  C10 UNL     1       3.176  -0.157  -1.440  1.00  0.00     0.031 C 
BRANCH  20  21
HETATM   21  C11 UNL     1       3.288  -0.917  -0.170  1.00  0.00     0.033 C 
BRANCH  21  22
HETATM   22  C12 UNL     1       4.644  -1.519   0.013  1.00  0.00     0.010 C 
HETATM   23  C13 UNL     1       5.403  -1.226   1.045  1.00  0.00     0.099 C 
HETATM   24 CL1  UNL     1       6.981  -1.942   1.236  1.00  0.00    -0.071 Cl
HETATM   25 CL2  UNL     1       4.841  -0.100   2.263  1.00  0.00    -0.071 Cl
ENDBRANCH  21  22
ENDBRANCH  20  21
ENDBRANCH  19  20
ENDBRANCH   4  18
BRANCH   1  26
HETATM   26  O1  UNL     1      -4.494   1.823  -0.342  1.00  0.00    -0.353 OA
HETATM   27  C1  UNL     1      -5.271   1.490   0.775  1.00  0.00     0.210 C 
ENDBRANCH   1  26
BRANCH   7  28
HETATM   28  O3  UNL     1      -3.121   2.543  -2.562  1.00  0.00    -0.356 OA
ATOM     29  H3  UNL     1      -2.653   2.803  -3.347  1.00  0.00     0.218 HD
ENDBRANCH   7  28
TORSDOF 8
