REMARK  8 active torsions:
REMARK  status: ('A' for Active; 'I' for Inactive)
REMARK    1  A    between atoms: C2_2  and  C4_4 
REMARK    2  A    between atoms: C4_4  and  N1_5 
REMARK    3  A    between atoms: N1_5  and  C5_7 
REMARK    4  A    between atoms: C5_7  and  C6_8 
REMARK    5  A    between atoms: C6_8  and  N2_9 
REMARK    6  A    between atoms: N2_9  and  C7_11 
REMARK    7  A    between atoms: C8_12  and  O1_13 
REMARK    8  A    between atoms: C10_19  and  C11_20 
ROOT
HETATM    1  C7  UNL     1       2.045  -0.791  -0.229  1.00  0.00     0.089 A 
HETATM    2  C8  UNL     1       2.079  -2.014  -0.855  1.00  0.00     0.137 A 
HETATM    3  S1  UNL     1       3.736  -2.143  -1.324  1.00  0.00    -0.044 SA
HETATM    4  C9  UNL     1       4.309  -0.654  -0.711  1.00  0.00     0.097 A 
HETATM    5  N3  UNL     1       5.457  -0.010  -0.648  1.00  0.00    -0.343 N 
ATOM      6  H3  UNL     1       6.294  -0.422  -1.059  1.00  0.00     0.167 HD
HETATM    7  C10 UNL     1       5.525   1.147  -0.064  1.00  0.00     0.107 A 
HETATM    8  S2  UNL     1       3.883   1.361   0.434  1.00  0.00    -0.067 SA
HETATM    9  C12 UNL     1       3.216  -0.116  -0.174  1.00  0.00     0.070 A 
ENDROOT
BRANCH   1  10
HETATM   10  N2  UNL     1       0.824  -0.339   0.353  1.00  0.00    -0.385 N 
ATOM     11  H2  UNL     1       0.789   0.629   0.673  1.00  0.00     0.159 HD
BRANCH  10  12
HETATM   12  C6  UNL     1      -0.370  -1.138   0.528  1.00  0.00     0.139 C 
BRANCH  12  13
HETATM   13  C5  UNL     1      -1.440  -0.279   1.212  1.00  0.00     0.138 C 
BRANCH  13  14
HETATM   14  N1  UNL     1      -1.826   0.816   0.447  1.00  0.00    -0.400 N 
ATOM     15  H1  UNL     1      -1.534   1.748   0.742  1.00  0.00     0.158 HD
BRANCH  14  16
HETATM   16  C4  UNL     1      -2.599   0.689  -0.710  1.00  0.00     0.059 C 
BRANCH  16  17
HETATM   17  C2  UNL     1      -4.059   0.326  -0.503  1.00  0.00     0.015 C 
HETATM   18  C1  UNL     1      -4.773   1.365   0.340  1.00  0.00     0.015 C 
HETATM   19  C3  UNL     1      -4.218  -1.069  -0.027  1.00  0.00     0.015 C 
ENDBRANCH  16  17
ENDBRANCH  14  16
ENDBRANCH  13  14
ENDBRANCH  12  13
ENDBRANCH  10  12
ENDBRANCH   1  10
BRANCH   2  20
HETATM   20  O1  UNL     1       1.087  -2.959  -1.092  1.00  0.00    -0.352 OA
ATOM     21  H1  UNL     1       1.111  -3.804  -1.525  1.00  0.00     0.218 HD
ENDBRANCH   2  20
BRANCH   7  22
HETATM   22  C11 UNL     1       6.692   2.083   0.149  1.00  0.00     0.237 C 
HETATM   23 CL1  UNL     1       6.323   3.063   1.593  1.00  0.00    -0.076 Cl
HETATM   24 CL2  UNL     1       6.788   3.097  -1.309  1.00  0.00    -0.076 Cl
HETATM   25 CL3  UNL     1       8.129   1.087   0.354  1.00  0.00    -0.076 Cl
ENDBRANCH   7  22
TORSDOF 8
