REMARK  4 active torsions:
REMARK  status: ('A' for Active; 'I' for Inactive)
REMARK    1  A    between atoms: N1_1  and  S1_4 
REMARK    2  A    between atoms: S1_4  and  C1_7 
REMARK    3  A    between atoms: C8_14  and  N2_15 
REMARK    4  A    between atoms: N2_15  and  C9_17 
ROOT
HETATM    1  C1  UNL     1      -2.202   0.266   0.271  1.00  0.00     0.154 C 
HETATM    2  C2  UNL     1      -3.151  -0.703   0.944  1.00  0.00     0.051 C 
HETATM    3  C3  UNL     1      -2.273  -1.712   1.647  1.00  0.00     0.028 C 
HETATM    4  C4  UNL     1      -0.869  -1.458   1.092  1.00  0.00     0.083 C 
HETATM    5  C5  UNL     1      -0.346  -2.715   0.515  1.00  0.00     0.025 C 
HETATM    6  C6  UNL     1      -0.443  -2.673  -0.961  1.00  0.00     0.006 C 
HETATM    7  C7  UNL     1       0.252  -1.441  -1.494  1.00  0.00     0.053 C 
HETATM    8  C8  UNL     1      -0.216  -0.169  -0.913  1.00  0.00     0.099 C 
HETATM    9  C14 UNL     1      -1.248   0.405  -1.865  1.00  0.00     0.057 C 
HETATM   10  C15 UNL     1      -2.553   0.366  -1.169  1.00  0.00     0.053 C 
HETATM   11  N3  UNL     1      -0.906  -0.303   0.332  1.00  0.00    -0.360 N 
ENDROOT
BRANCH   8  12
HETATM   12  N2  UNL     1       0.808   0.821  -0.829  1.00  0.00    -0.393 N 
ATOM     13  H2  UNL     1       0.754   1.600  -1.485  1.00  0.00     0.156 HD
BRANCH  12  14
HETATM   14  C9  UNL     1       1.850   0.821   0.046  1.00  0.00     0.079 C 
HETATM   15  C10 UNL     1       2.861  -0.275  -0.032  1.00  0.00     0.025 C 
HETATM   16  C11 UNL     1       4.046   0.306   0.798  1.00  0.00     0.002 C 
HETATM   17  C12 UNL     1       4.149   1.650   0.080  1.00  0.00     0.002 C 
HETATM   18  C13 UNL     1       2.738   2.066  -0.295  1.00  0.00     0.025 C 
ENDBRANCH  12  14
ENDBRANCH   8  12
BRANCH   1  19
HETATM   19  S1  UNL     1      -2.317   1.794   1.166  1.00  0.00     0.251 S 
HETATM   20  O1  UNL     1      -3.752   2.216   1.277  1.00  0.00    -0.203 OA
HETATM   21  O2  UNL     1      -1.839   1.518   2.584  1.00  0.00    -0.203 OA
BRANCH  19  22
HETATM   22  N1  UNL     1      -1.305   3.028   0.519  1.00  0.00    -0.326 N 
ATOM     23  H12 UNL     1      -1.659   3.944   0.245  1.00  0.00     0.168 HD
ATOM     24  H11 UNL     1      -0.329   2.741   0.444  1.00  0.00     0.168 HD
ENDBRANCH  19  22
ENDBRANCH   1  19
TORSDOF 4
