REMARK  12 active torsions:
REMARK  status: ('A' for Active; 'I' for Inactive)
REMARK    1  A    between atoms: N1_1  and  C1_4 
REMARK    2  A    between atoms: C4_7  and  C5_8 
REMARK    3  A    between atoms: C5_8  and  C6_9 
REMARK    4  A    between atoms: C6_9  and  S1_10 
REMARK    5  A    between atoms: S1_10  and  N2_13 
REMARK    6  A    between atoms: N2_13  and  C7_15 
REMARK    7  A    between atoms: C7_15  and  C8_16 
REMARK    8  A    between atoms: C8_16  and  C9_17 
REMARK    9  A    between atoms: C9_17  and  C10_18 
REMARK   10  A    between atoms: C10_18  and  C11_19 
REMARK   11  A    between atoms: C11_19  and  O3_20 
REMARK   12  A    between atoms: O3_20  and  C12_21 
ROOT
HETATM    1  N2  UNL     1      -0.630  -1.090   1.052  1.00  0.00    -0.320 N 
ATOM      2  H2  UNL     1       0.025  -0.946   1.821  1.00  0.00     0.172 HD
ENDROOT
BRANCH   1   3
HETATM    3  S1  UNL     1      -2.263  -1.511   1.279  1.00  0.00     0.226 S 
HETATM    4  O1  UNL     1      -2.542  -2.813   0.601  1.00  0.00    -0.206 OA
HETATM    5  O2  UNL     1      -2.499  -1.707   2.750  1.00  0.00    -0.206 OA
BRANCH   3   6
HETATM    6  C6  UNL     1      -3.378  -0.288   0.638  1.00  0.00     0.168 C 
BRANCH   6   7
HETATM    7  C5  UNL     1      -4.802  -0.752   0.887  1.00  0.00     0.057 C 
BRANCH   7   8
HETATM    8  C4  UNL     1      -5.719   0.281   0.345  1.00  0.00    -0.042 A 
HETATM    9  C3  UNL     1      -6.159   0.223  -0.959  1.00  0.00     0.012 A 
HETATM   10  C2  UNL     1      -7.011   1.191  -1.447  1.00  0.00     0.048 A 
HETATM   11  C1  UNL     1      -7.414   2.219  -0.608  1.00  0.00     0.098 A 
HETATM   12  N4  UNL     1      -6.994   2.287   0.661  1.00  0.00    -0.352 N 
HETATM   13  C17 UNL     1      -6.162   1.336   1.130  1.00  0.00     0.096 A 
ATOM     14  H4  UNL     1      -7.300   3.049   1.266  1.00  0.00     0.166 HD
BRANCH  11  15
HETATM   15  N1  UNL     1      -8.203   3.107  -1.075  1.00  0.00    -0.385 N 
ATOM     16  H12 UNL     1      -8.523   3.055  -2.042  1.00  0.00     0.157 HD
ATOM     17  H11 UNL     1      -8.499   3.863  -0.458  1.00  0.00     0.157 HD
ENDBRANCH  11  15
ENDBRANCH   7   8
ENDBRANCH   6   7
ENDBRANCH   3   6
ENDBRANCH   1   3
BRANCH   1  18
HETATM   18  C7  UNL     1      -0.264  -0.956  -0.343  1.00  0.00     0.132 C 
BRANCH  18  19
HETATM   19  C8  UNL     1       1.220  -0.580  -0.390  1.00  0.00     0.020 C 
BRANCH  19  20
HETATM   20  C9  UNL     1       1.968  -1.689   0.276  1.00  0.00     0.004 C 
BRANCH  20  21
HETATM   21  C10 UNL     1       3.464  -1.472   0.317  1.00  0.00     0.027 C 
BRANCH  21  22
HETATM   22  C11 UNL     1       4.009  -1.353  -1.061  1.00  0.00     0.175 C 
BRANCH  22  23
HETATM   23  O3  UNL     1       5.360  -1.151  -1.158  1.00  0.00    -0.351 OA
BRANCH  23  24
HETATM   24  C12 UNL     1       6.184  -0.150  -0.744  1.00  0.00     0.075 A 
HETATM   25  C13 UNL     1       7.543  -0.320  -1.019  1.00  0.00     0.054 A 
HETATM   26  C14 UNL     1       8.433   0.649  -0.633  1.00  0.00     0.094 A 
HETATM   27  N3  UNL     1       8.026   1.759   0.005  1.00  0.00    -0.334 N 
HETATM   28  C15 UNL     1       6.740   1.945   0.279  1.00  0.00     0.247 A 
ATOM     29  H3  UNL     1       8.710   2.464   0.281  1.00  0.00     0.168 HD
HETATM   30  O4  UNL     1       6.309   2.982   0.882  1.00  0.00    -0.268 OA
HETATM   31  C16 UNL     1       5.814   0.992  -0.095  1.00  0.00     0.111 A 
ENDBRANCH  23  24
ENDBRANCH  22  23
ENDBRANCH  21  22
ENDBRANCH  20  21
ENDBRANCH  19  20
ENDBRANCH  18  19
ENDBRANCH   1  18
TORSDOF 12
