REMARK  1 active torsions:
REMARK  status: ('A' for Active; 'I' for Inactive)
REMARK    1  A    between atoms: C2_2  and  C3_5 
ROOT
HETATM    1  C3  UNL     1       1.512   0.530  -0.040  1.00  0.00     0.394 C 
HETATM    2  N1  UNL     1       0.378   0.663   0.821  1.00  0.00    -0.032 N 
ATOM      3  H11 UNL     1       0.254   1.606   1.189  1.00  0.00     0.281 HD
ATOM      4  H12 UNL     1       0.491   0.195   1.720  1.00  0.00     0.281 HD
HETATM    5  C4  UNL     1      -0.737   0.193   0.071  1.00  0.00     0.150 C 
HETATM    6  C5  UNL     1      -1.460  -0.902   0.825  1.00  0.00     0.041 C 
HETATM    7  C6  UNL     1      -2.706  -1.061   0.001  1.00  0.00     0.003 C 
HETATM    8  C7  UNL     1      -3.047   0.327  -0.433  1.00  0.00     0.003 C 
HETATM    9  C8  UNL     1      -1.838   1.202  -0.105  1.00  0.00     0.041 C 
HETATM   10  C9  UNL     1      -0.173  -0.303  -1.235  1.00  0.00     0.209 C 
HETATM   11  O1  UNL     1       1.170  -0.482  -0.937  1.00  0.00    -0.352 OA
ENDROOT
BRANCH   1  12
HETATM   12  C2  UNL     1       2.750   0.112   0.765  1.00  0.00     0.290 C 
HETATM   13  C1  UNL     1       3.907  -0.010  -0.198  1.00  0.00     0.095 C 
HETATM   14  F1  UNL     1       2.975   1.043   1.754  1.00  0.00    -0.202 F 
HETATM   15  F2  UNL     1       2.567  -1.109   1.352  1.00  0.00    -0.202 F 
ENDBRANCH   1  12
TORSDOF 1
