REMARK  13 active torsions:
REMARK  status: ('A' for Active; 'I' for Inactive)
REMARK    1  A    between atoms: C2_2  and  S1_3 
REMARK    2  A    between atoms: S1_3  and  C3_4 
REMARK    3  A    between atoms: C3_4  and  C4_5 
REMARK    4  A    between atoms: C4_5  and  N1_6 
REMARK    5  A    between atoms: N1_6  and  C5_7 
REMARK    6  A    between atoms: N1_6  and  C14_20 
REMARK    7  A    between atoms: C5_7  and  C6_8 
REMARK    8  A    between atoms: C6_8  and  O1_9 
REMARK    9  A    between atoms: O1_9  and  C7_10 
REMARK   10  A    between atoms: C7_10  and  C8_11 
REMARK   11  A    between atoms: C8_11  and  C9_12 
REMARK   12  A    between atoms: C9_12  and  C11_14 
REMARK   13  A    between atoms: C14_20  and  C15_21 
ROOT
HETATM    1  N1  UNL     1      -1.793   1.275  -0.081  1.00  0.00    -0.365 N 
ENDROOT
BRANCH   1   2
HETATM    2  C4  UNL     1      -2.643   0.157  -0.108  1.00  0.00     0.073 C 
BRANCH   2   3
HETATM    3  C3  UNL     1      -2.808  -0.319  -1.546  1.00  0.00     0.118 C 
BRANCH   3   4
HETATM    4  S1  UNL     1      -3.914  -1.774  -1.596  1.00  0.00    -0.164 SA
BRANCH   4   5
HETATM    5  C2  UNL     1      -3.018  -3.115  -0.736  1.00  0.00     0.069 C 
HETATM    6  C1  UNL     1      -1.799  -3.471  -1.566  1.00  0.00     0.016 C 
ENDBRANCH   4   5
ENDBRANCH   3   4
ENDBRANCH   2   3
ENDBRANCH   1   2
BRANCH   1   7
HETATM    7  C5  UNL     1      -0.436   1.039  -0.391  1.00  0.00     0.153 C 
BRANCH   7   8
HETATM    8  C6  UNL     1       0.267   0.218   0.664  1.00  0.00     0.187 C 
BRANCH   8   9
HETATM    9  O1  UNL     1       1.581  -0.033   0.401  1.00  0.00    -0.389 OA
BRANCH   9  10
HETATM   10  C7  UNL     1       1.857  -0.721  -0.745  1.00  0.00     0.168 C 
BRANCH  10  11
HETATM   11  C8  UNL     1       3.350  -0.902  -0.853  1.00  0.00     0.037 C 
BRANCH  11  12
HETATM   12  C9  UNL     1       3.958  -1.662   0.290  1.00  0.00     0.041 C 
HETATM   13  C10 UNL     1       3.732  -0.981   1.603  1.00  0.00     0.017 C 
BRANCH  12  14
HETATM   14  C11 UNL     1       5.450  -1.653   0.054  1.00  0.00     0.054 A 
HETATM   15  N2  UNL     1       6.235  -2.708  -0.097  1.00  0.00    -0.363 N 
HETATM   16  C12 UNL     1       7.505  -2.545  -0.293  1.00  0.00     0.095 A 
ATOM     17  H2  UNL     1       5.840  -3.648  -0.059  1.00  0.00     0.165 HD
HETATM   18  C13 UNL     1       7.977  -1.251  -0.331  1.00  0.00     0.068 A 
HETATM   19  S2  UNL     1       6.546  -0.355  -0.083  1.00  0.00    -0.087 SA
ENDBRANCH  12  14
ENDBRANCH  11  12
ENDBRANCH  10  11
ENDBRANCH   9  10
ENDBRANCH   8   9
ENDBRANCH   7   8
ENDBRANCH   1   7
BRANCH   1  20
HETATM   20  C14 UNL     1      -1.990   2.271   0.897  1.00  0.00     0.119 C 
BRANCH  20  21
HETATM   21  C15 UNL     1      -3.285   2.974   0.858  1.00  0.00     0.047 A 
HETATM   22  C16 UNL     1      -3.531   3.870   1.877  1.00  0.00     0.031 A 
HETATM   23  C17 UNL     1      -4.698   4.593   1.953  1.00  0.00     0.004 A 
HETATM   24  C18 UNL     1      -5.650   4.413   0.977  1.00  0.00     0.017 A 
HETATM   25  C19 UNL     1      -5.371   3.509  -0.027  1.00  0.00     0.088 A 
HETATM   26  N3  UNL     1      -4.225   2.811  -0.084  1.00  0.00    -0.365 N 
ATOM     27  H3  UNL     1      -4.069   2.153  -0.848  1.00  0.00     0.165 HD
ENDBRANCH  20  21
ENDBRANCH   1  20
TORSDOF 13
