REMARK  16 active torsions:
REMARK  status: ('A' for Active; 'I' for Inactive)
REMARK    1  A    between atoms: C2_2  and  O1_3 
REMARK    2  A    between atoms: C3_5  and  N1_6 
REMARK       I    between atoms: N1_6  and  C4_8 
REMARK    3  A    between atoms: C4_8  and  C5_10 
REMARK    4  A    between atoms: C5_10  and  N2_11 
REMARK    5  A    between atoms: C5_10  and  C6_15 
REMARK    6  A    between atoms: N2_11  and  O3_13 
REMARK    7  A    between atoms: C6_15  and  O4_16 
REMARK    8  A    between atoms: C6_15  and  C7_18 
REMARK    9  A    between atoms: C7_18  and  N3_19 
REMARK   10  A    between atoms: C8_22  and  N5_23 
REMARK   11  A    between atoms: C9_28  and  N7_29 
REMARK   12  A    between atoms: C12_35  and  N8_36 
REMARK   13  A    between atoms: N8_36  and  C13_38 
REMARK   14  A    between atoms: C14_44  and  N11_45 
REMARK   15  A    between atoms: C15_49  and  C16_50 
REMARK   16  A    between atoms: C17_55  and  C18_56 
ROOT
HETATM    1  C1  UNL     1      -1.369  -2.987   1.000  1.00  0.00     0.073 C 
HETATM    2  C2  UNL     1      -0.560  -1.887   0.357  1.00  0.00     0.154 C 
HETATM    3  C3  UNL     1       0.023  -0.887   1.309  1.00  0.00     0.172 C 
HETATM    4  C10 UNL     1      -0.386   0.124   0.282  1.00  0.00     0.177 C 
HETATM    5  S1  UNL     1      -1.421   1.419   1.001  1.00  0.00    -0.135 SA
HETATM    6  C11 UNL     1      -2.977   1.391   0.126  1.00  0.00     0.135 C 
HETATM    7  C12 UNL     1      -2.967   0.549  -1.093  1.00  0.00     0.052 C 
HETATM    8  C17 UNL     1      -2.208  -0.488  -1.338  1.00  0.00     0.123 C 
HETATM    9  N16 UNL     1      -1.219  -0.878  -0.367  1.00  0.00    -0.326 N 
ENDROOT
BRANCH   3  10
HETATM   10  N1  UNL     1       1.469  -1.010   1.465  1.00  0.00    -0.344 N 
HETATM   11  C4  UNL     1       2.009  -1.156   2.765  1.00  0.00     0.269 C 
HETATM   12  O2  UNL     1       1.296  -1.185   3.787  1.00  0.00    -0.266 OA
ATOM     13  H1  UNL     1       2.081  -0.991   0.649  1.00  0.00     0.163 HD
BRANCH  11  14
HETATM   14  C5  UNL     1       3.483  -1.283   2.952  1.00  0.00     0.129 C 
BRANCH  14  15
HETATM   15  N2  UNL     1       3.915  -1.409   4.135  1.00  0.00    -0.265 N 
ATOM     16  H2  UNL     1       4.922  -1.498   4.273  1.00  0.00     0.194 HD
BRANCH  15  17
HETATM   17  O3  UNL     1       3.114  -1.432   5.229  1.00  0.00    -0.289 OA
ATOM     18  H3  UNL     1       3.438  -1.527   6.117  1.00  0.00     0.244 HD
ENDBRANCH  15  17
ENDBRANCH  14  15
BRANCH  14  19
HETATM   19  C6  UNL     1       4.358  -1.267   1.776  1.00  0.00     0.196 C 
BRANCH  19  20
HETATM   20  O4  UNL     1       4.021  -2.452   1.050  1.00  0.00    -0.387 OA
ATOM     21  H4  UNL     1       4.588  -2.442   0.288  1.00  0.00     0.210 HD
ENDBRANCH  19  20
BRANCH  19  22
HETATM   22  C7  UNL     1       5.820  -1.328   1.968  1.00  0.00     0.206 C 
BRANCH  22  23
HETATM   23  N3  UNL     1       6.455  -0.296   2.712  1.00  0.00    -0.106 N 
HETATM   24  N4  UNL     1       6.837  -0.271   3.965  1.00  0.00    -0.115 N 
HETATM   25  C8  UNL     1       7.445   0.900   4.229  1.00  0.00     0.705 A 
ATOM     26  H4  UNL     1       6.695  -1.024   4.638  1.00  0.00     0.206 HD
HETATM   27  N6  UNL     1       7.433   1.612   3.095  1.00  0.00    -0.020 N 
HETATM   28  C9  UNL     1       6.830   0.894   2.156  1.00  0.00     0.707 A 
ATOM     29  H6  UNL     1       7.821   2.547   2.974  1.00  0.00     0.203 HD
BRANCH  25  30
HETATM   30  N5  UNL     1       7.960   1.291   5.368  1.00  0.00    -0.233 N 
ATOM     31  H52 UNL     1       7.969   0.749   6.232  1.00  0.00     0.174 HD
ATOM     32  H51 UNL     1       8.421   2.179   5.568  1.00  0.00     0.174 HD
ENDBRANCH  25  30
BRANCH  28  33
HETATM   33  N7  UNL     1       6.642   1.287   0.927  1.00  0.00    -0.233 N 
ATOM     34  H72 UNL     1       6.178   0.735   0.205  1.00  0.00     0.174 HD
ATOM     35  H71 UNL     1       6.922   2.176   0.512  1.00  0.00     0.174 HD
ENDBRANCH  28  33
ENDBRANCH  22  23
ENDBRANCH  19  22
ENDBRANCH  14  19
ENDBRANCH  11  14
ENDBRANCH   3  10
BRANCH   2  36
HETATM   36  O1  UNL     1       0.434  -2.482  -0.464  1.00  0.00    -0.369 OA
ATOM     37  H1  UNL     1       0.943  -1.790  -0.869  1.00  0.00     0.212 HD
ENDBRANCH   2  36
BRANCH   8  38
HETATM   38  C18 UNL     1      -2.260  -1.278  -2.590  1.00  0.00     0.283 C 
HETATM   39  N15 UNL     1      -3.101  -1.016  -3.673  1.00  0.00    -0.056 NA
HETATM   40  O8  UNL     1      -1.478  -2.283  -2.696  1.00  0.00    -0.269 OA
ENDBRANCH   8  38
BRANCH   7  41
HETATM   41  N8  UNL     1      -3.936   0.933  -2.099  1.00  0.00    -0.339 N 
ATOM     42  H8  UNL     1      -3.662   1.472  -2.920  1.00  0.00     0.167 HD
BRANCH  41  43
HETATM   43  C13 UNL     1      -5.162   0.565  -1.914  1.00  0.00     0.177 A 
HETATM   44  N9  UNL     1      -5.700  -0.139  -0.917  1.00  0.00    -0.222 N 
HETATM   45  O5  UNL     1      -6.988  -0.258  -1.123  1.00  0.00    -0.153 OA
ATOM     46  H9  UNL     1      -5.190  -0.523  -0.122  1.00  0.00     0.198 HD
HETATM   47  N10 UNL     1      -7.319   0.343  -2.226  1.00  0.00    -0.219 N 
HETATM   48  C14 UNL     1      -6.199   0.888  -2.777  1.00  0.00     0.211 A 
ATOM     49  H10 UNL     1      -8.260   0.398  -2.615  1.00  0.00     0.198 HD
BRANCH  48  50
HETATM   50  N11 UNL     1      -6.148   1.640  -3.985  1.00  0.00    -0.156 N 
HETATM   51  N12 UNL     1      -5.681   1.222  -5.157  1.00  0.00     0.004 NA
HETATM   52  N13 UNL     1      -5.813   2.231  -6.031  1.00  0.00    -0.261 N 
HETATM   53  C15 UNL     1      -6.360   3.289  -5.427  1.00  0.00     0.213 A 
ATOM     54  H13 UNL     1      -5.536   2.195  -7.012  1.00  0.00     0.186 HD
HETATM   55  N14 UNL     1      -6.561   2.902  -4.154  1.00  0.00    -0.257 N 
ATOM     56  H14 UNL     1      -6.969   3.486  -3.424  1.00  0.00     0.190 HD
BRANCH  53  57
HETATM   57  C16 UNL     1      -6.674   4.600  -6.019  1.00  0.00     0.247 C 
HETATM   58  O6  UNL     1      -7.189   5.477  -5.289  1.00  0.00    -0.642 OA
HETATM   59  O7  UNL     1      -6.419   4.875  -7.334  1.00  0.00    -0.642 OA
ENDBRANCH  53  57
ENDBRANCH  48  50
ENDBRANCH  41  43
ENDBRANCH   7  41
TORSDOF 16
