REMARK  5 active torsions:
REMARK  status: ('A' for Active; 'I' for Inactive)
REMARK    1  A    between atoms: C4_4  and  C5_5 
REMARK    2  A    between atoms: C7_9  and  C8_10 
REMARK    3  A    between atoms: C9_11  and  C10_12 
REMARK    4  A    between atoms: C18_23  and  C19_24 
REMARK    5  A    between atoms: C19_24  and  O6_25 
ROOT
HETATM    1  C5  UNL     1       1.452  -0.208  -0.718  1.00  0.00     0.163 C 
HETATM    2  O1  UNL     1       0.609   0.632  -1.458  1.00  0.00    -0.310 OA
HETATM    3  C6  UNL     1      -0.580   1.101  -0.985  1.00  0.00     0.272 C 
HETATM    4  O2  UNL     1      -1.101   2.099  -1.578  1.00  0.00    -0.264 OA
HETATM    5  C7  UNL     1      -1.314   0.513   0.194  1.00  0.00     0.072 C 
HETATM    6  C11 UNL     1      -2.535  -0.177  -0.233  1.00  0.00     0.026 C 
HETATM    7  C12 UNL     1      -2.488  -1.414  -1.023  1.00  0.00     0.028 C 
HETATM    8  C13 UNL     1      -1.770  -1.360  -2.337  1.00  0.00     0.175 C 
HETATM    9  O5  UNL     1      -0.445  -1.900  -2.265  1.00  0.00    -0.355 OA
HETATM   10  C14 UNL     1      -0.116  -2.671  -1.196  1.00  0.00     0.053 A 
HETATM   11  C15 UNL     1       0.395  -2.317  -0.051  1.00  0.00    -0.037 A 
HETATM   12  C16 UNL     1       0.116  -3.771  -0.255  1.00  0.00     0.102 A 
HETATM   13  C17 UNL     1       0.754  -0.969   0.383  1.00  0.00     0.058 C 
HETATM   14  C18 UNL     1      -0.346  -0.207   1.055  1.00  0.00     0.042 C 
ENDROOT
BRANCH   5  15
HETATM   15  C8  UNL     1      -1.779   1.715   0.951  1.00  0.00     0.000 C 
HETATM   16  C9  UNL     1      -2.727   1.751   1.838  1.00  0.00     0.081 C 
BRANCH  16  17
HETATM   17  C10 UNL     1      -3.054   3.018   2.484  1.00  0.00     0.198 C 
HETATM   18  O3  UNL     1      -3.969   3.079   3.346  1.00  0.00    -0.645 OA
HETATM   19  O4  UNL     1      -2.325   4.159   2.119  1.00  0.00    -0.645 OA
ENDBRANCH  16  17
ENDBRANCH   5  15
BRANCH  14  20
HETATM   20  C19 UNL     1      -0.952  -1.071   2.115  1.00  0.00     0.171 C 
BRANCH  20  21
HETATM   21  O6  UNL     1       0.047  -1.718   2.881  1.00  0.00    -0.400 OA
ATOM     22  H6  UNL     1      -0.338  -2.267   3.554  1.00  0.00     0.209 HD
ENDBRANCH  20  21
ENDBRANCH  14  20
BRANCH   1  23
HETATM   23  C4  UNL     1       2.498   0.681  -0.115  1.00  0.00     0.008 C 
HETATM   24  C2  UNL     1       3.677   0.872  -0.689  1.00  0.00    -0.089 C 
HETATM   25  C1  UNL     1       4.687   1.763  -0.058  1.00  0.00     0.042 C 
HETATM   26  C3  UNL     1       4.031   0.206  -1.982  1.00  0.00     0.042 C 
ENDBRANCH   1  23
TORSDOF 5
