REMARK  13 active torsions:
REMARK  status: ('A' for Active; 'I' for Inactive)
REMARK    1  A    between atoms: C2_2  and  C4_4 
REMARK    2  A    between atoms: C4_4  and  C5_5 
REMARK    3  A    between atoms: C5_5  and  C6_6 
REMARK    4  A    between atoms: C5_5  and  N4_26 
REMARK    5  A    between atoms: C6_6  and  N1_7 
REMARK    6  A    between atoms: C6_6  and  C15_23 
REMARK       I    between atoms: N1_7  and  C7_9 
REMARK    7  A    between atoms: C7_9  and  C8_11 
REMARK       I    between atoms: C8_11  and  N2_13 
REMARK    8  A    between atoms: N2_13  and  C9_15 
REMARK    9  A    between atoms: C9_15  and  N3_17 
REMARK   10  A    between atoms: C21_30  and  C22_31 
REMARK       I    between atoms: C22_31  and  N5_33 
REMARK   11  A    between atoms: N5_33  and  C23_35 
REMARK   12  A    between atoms: C23_35  and  C24_36 
REMARK   13  A    between atoms: C23_35  and  C30_44 
REMARK       I    between atoms: C24_36  and  N6_38 
ROOT
HETATM    1  C5  UNL     1      -0.509  -2.961  -0.311  1.00  0.00     0.013 C 
ENDROOT
BRANCH   1   2
HETATM    2  C4  UNL     1      -0.732  -3.927   0.837  1.00  0.00     0.059 C 
BRANCH   2   3
HETATM    3  C2  UNL     1       0.526  -4.182   1.609  1.00  0.00    -0.017 C 
HETATM    4  C1  UNL     1       0.173  -5.202   2.731  1.00  0.00     0.010 C 
HETATM    5  C3  UNL     1       0.953  -2.902   2.359  1.00  0.00     0.010 C 
ENDBRANCH   2   3
ENDBRANCH   1   2
BRANCH   1   6
HETATM    6  C6  UNL     1      -1.754  -2.623  -1.051  1.00  0.00     0.134 C 
BRANCH   6   7
HETATM    7  N1  UNL     1      -2.725  -1.987  -0.126  1.00  0.00    -0.343 N 
HETATM    8  C7  UNL     1      -3.201  -0.693  -0.345  1.00  0.00     0.310 C 
HETATM    9  O1  UNL     1      -2.781  -0.065  -1.365  1.00  0.00    -0.262 OA
ATOM     10  H1  UNL     1      -3.052  -2.507   0.688  1.00  0.00     0.163 HD
BRANCH   8  11
HETATM   11  C8  UNL     1      -4.150   0.010   0.499  1.00  0.00     0.310 C 
HETATM   12  O2  UNL     1      -4.578  -0.568   1.534  1.00  0.00    -0.262 OA
HETATM   13  N2  UNL     1      -4.618   1.313   0.212  1.00  0.00    -0.332 N 
ATOM     14  H2  UNL     1      -4.264   1.770  -0.628  1.00  0.00     0.165 HD
BRANCH  13  15
HETATM   15  C9  UNL     1      -5.560   2.040   1.023  1.00  0.00     0.182 C 
HETATM   16  C10 UNL     1      -6.906   2.071   0.311  1.00  0.00     0.056 C 
BRANCH  15  17
HETATM   17  N3  UNL     1      -5.065   3.324   1.363  1.00  0.00    -0.369 N 
HETATM   18  C11 UNL     1      -5.786   4.130   2.260  1.00  0.00     0.086 C 
HETATM   19  C12 UNL     1      -6.739   5.118   1.629  1.00  0.00     0.212 C 
HETATM   20  O3  UNL     1      -6.237   5.651   0.433  1.00  0.00    -0.385 OA
HETATM   21  C13 UNL     1      -4.846   5.516   0.406  1.00  0.00     0.187 C 
HETATM   22  C14 UNL     1      -4.479   4.056   0.293  1.00  0.00     0.150 C 
ENDBRANCH  15  17
ENDBRANCH  13  15
ENDBRANCH   8  11
ENDBRANCH   6   7
BRANCH   6  23
HETATM   23  C15 UNL     1      -2.523  -3.542  -1.867  1.00  0.00     0.006 C 
HETATM   24  C16 UNL     1      -3.077  -4.791  -1.215  1.00  0.00     0.012 C 
HETATM   25  C17 UNL     1      -2.187  -3.773  -3.296  1.00  0.00     0.012 C 
ENDBRANCH   6  23
ENDBRANCH   1   6
BRANCH   1  26
HETATM   26  N4  UNL     1       0.651  -3.260  -0.977  1.00  0.00    -0.352 N 
HETATM   27  C18 UNL     1       0.861  -4.492  -1.612  1.00  0.00     0.065 C 
HETATM   28  C19 UNL     1       1.553  -4.126  -2.904  1.00  0.00     0.047 C 
HETATM   29  C20 UNL     1       2.231  -2.825  -2.601  1.00  0.00     0.040 C 
HETATM   30  C21 UNL     1       1.779  -2.510  -1.148  1.00  0.00     0.181 C 
BRANCH  30  31
HETATM   31  C22 UNL     1       1.887  -1.093  -0.901  1.00  0.00     0.241 C 
HETATM   32  O4  UNL     1       0.943  -0.355  -0.584  1.00  0.00    -0.271 OA
HETATM   33  N5  UNL     1       3.158  -0.473  -1.023  1.00  0.00    -0.346 N 
ATOM     34  H5  UNL     1       3.956  -1.053  -1.284  1.00  0.00     0.163 HD
BRANCH  33  35
HETATM   35  C23 UNL     1       3.385   0.962  -0.793  1.00  0.00     0.180 C 
BRANCH  35  36
HETATM   36  C24 UNL     1       4.539   1.052   0.109  1.00  0.00     0.243 C 
HETATM   37  O5  UNL     1       5.309   0.014   0.155  1.00  0.00    -0.271 OA
HETATM   38  N6  UNL     1       4.946   2.097   0.949  1.00  0.00    -0.350 N 
HETATM   39  C25 UNL     1       4.208   3.312   1.089  1.00  0.00     0.126 C 
HETATM   40  C29 UNL     1       6.171   2.015   1.759  1.00  0.00     0.126 C 
HETATM   41  C26 UNL     1       4.271   3.830   2.528  1.00  0.00     0.020 C 
HETATM   42  C27 UNL     1       5.681   4.138   2.935  1.00  0.00     0.003 C 
HETATM   43  C28 UNL     1       6.668   3.415   2.083  1.00  0.00     0.020 C 
ENDBRANCH  35  36
BRANCH  35  44
HETATM   44  C30 UNL     1       3.711   1.564  -2.179  1.00  0.00     0.009 C 
HETATM   45  C31 UNL     1       4.933   0.980  -2.792  1.00  0.00     0.012 C 
HETATM   46  C32 UNL     1       3.645   3.050  -2.229  1.00  0.00     0.012 C 
ENDBRANCH  35  44
ENDBRANCH  33  35
ENDBRANCH  30  31
ENDBRANCH   1  26
TORSDOF 13
