REMARK  13 active torsions:
REMARK  status: ('A' for Active; 'I' for Inactive)
REMARK    1  A    between atoms: C2_2  and  C3_3 
REMARK    2  A    between atoms: C3_3  and  C4_4 
REMARK    3  A    between atoms: C4_4  and  C5_5 
REMARK    4  A    between atoms: C5_5  and  N1_6 
REMARK    5  A    between atoms: C5_5  and  C26_39 
REMARK       I    between atoms: N1_6  and  C6_8 
REMARK    6  A    between atoms: C6_8  and  C7_10 
REMARK    7  A    between atoms: C7_10  and  C8_11 
REMARK    8  A    between atoms: C7_10  and  N2_15 
REMARK    9  A    between atoms: C8_11  and  C9_12 
REMARK   10  A    between atoms: C13_17  and  C14_18 
REMARK       I    between atoms: C14_18  and  N3_20 
REMARK   11  A    between atoms: N3_20  and  C15_22 
REMARK   12  A    between atoms: C19_28  and  C20_29 
REMARK   13  A    between atoms: C20_29  and  C21_30 
REMARK       I    between atoms: C26_39  and  N7_41 
REMARK       I    between atoms: N8_44  and  C29_45 
ROOT
HETATM    1  C7  UNL     1      -1.042  -1.855  -1.667  1.00  0.00     0.183 C 
ENDROOT
BRANCH   1   2
HETATM    2  C6  UNL     1       0.228  -1.229  -1.300  1.00  0.00     0.241 C 
HETATM    3  N1  UNL     1       0.851  -1.400  -0.039  1.00  0.00    -0.346 N 
ATOM      4  H1  UNL     1       0.371  -1.998   0.634  1.00  0.00     0.163 HD
HETATM    5  O1  UNL     1       0.819  -0.497  -2.107  1.00  0.00    -0.271 OA
BRANCH   3   6
HETATM    6  C5  UNL     1       2.105  -0.809   0.390  1.00  0.00     0.176 C 
BRANCH   6   7
HETATM    7  C4  UNL     1       2.987  -1.836   1.029  1.00  0.00     0.035 C 
BRANCH   7   8
HETATM    8  C3  UNL     1       3.324  -2.980   0.118  1.00  0.00     0.002 C 
BRANCH   8   9
HETATM    9  C2  UNL     1       4.048  -2.638  -1.126  1.00  0.00    -0.004 C 
HETATM   10  C1  UNL     1       5.377  -1.988  -0.921  1.00  0.00     0.005 C 
ENDBRANCH   8   9
ENDBRANCH   7   8
ENDBRANCH   6   7
BRANCH   6  11
HETATM   11  C26 UNL     1       1.796   0.314   1.304  1.00  0.00     0.242 C 
HETATM   12  O3  UNL     1       0.563   0.453   1.663  1.00  0.00    -0.271 OA
HETATM   13  N7  UNL     1       2.722   1.239   1.807  1.00  0.00    -0.347 N 
HETATM   14  C27 UNL     1       4.106   1.213   1.467  1.00  0.00     0.145 C 
HETATM   15  C31 UNL     1       2.304   2.317   2.729  1.00  0.00     0.145 C 
HETATM   16  C28 UNL     1       4.707   2.628   1.498  1.00  0.00     0.147 C 
HETATM   17  N8  UNL     1       3.700   3.620   1.230  1.00  0.00    -0.333 N 
HETATM   18  C29 UNL     1       3.976   4.660   0.286  1.00  0.00     0.330 C 
HETATM   19  C30 UNL     1       2.410   3.595   1.892  1.00  0.00     0.147 C 
HETATM   20  N9  UNL     1       5.219   4.723  -0.386  1.00  0.00    -0.040 NA
HETATM   21  O4  UNL     1       3.114   5.540   0.034  1.00  0.00    -0.251 OA
ENDBRANCH   6  11
ENDBRANCH   3   6
ENDBRANCH   1   2
BRANCH   1  22
HETATM   22  C8  UNL     1      -1.274  -1.972  -3.113  1.00  0.00     0.039 C 
BRANCH  22  23
HETATM   23  C9  UNL     1      -0.456  -2.806  -3.982  1.00  0.00    -0.020 C 
HETATM   24  C10 UNL     1       0.995  -2.613  -4.156  1.00  0.00     0.009 C 
HETATM   25  C11 UNL     1      -0.699  -4.308  -3.785  1.00  0.00     0.009 C 
ENDBRANCH  22  23
ENDBRANCH   1  22
BRANCH   1  26
HETATM   26  N2  UNL     1      -2.094  -1.076  -0.991  1.00  0.00    -0.330 N 
HETATM   27  C12 UNL     1      -2.188   0.264  -0.942  1.00  0.00     0.128 A 
HETATM   28  C13 UNL     1      -3.299   0.636  -0.222  1.00  0.00     0.117 A 
HETATM   29  N4  UNL     1      -3.862  -0.511   0.154  1.00  0.00    -0.340 N 
HETATM   30  C19 UNL     1      -3.150  -1.565  -0.299  1.00  0.00     0.089 A 
ATOM     31  H4  UNL     1      -4.715  -0.583   0.709  1.00  0.00     0.167 HD
BRANCH  28  32
HETATM   32  C14 UNL     1      -3.706   2.007   0.042  1.00  0.00     0.270 C 
HETATM   33  O2  UNL     1      -4.728   2.187   0.723  1.00  0.00    -0.266 OA
HETATM   34  N3  UNL     1      -2.982   3.112  -0.446  1.00  0.00    -0.348 N 
ATOM     35  H3  UNL     1      -2.147   2.936  -1.005  1.00  0.00     0.163 HD
BRANCH  34  36
HETATM   36  C15 UNL     1      -3.365   4.486  -0.192  1.00  0.00     0.022 C 
HETATM   37  C16 UNL     1      -4.740   4.799  -0.716  1.00  0.00     0.037 C 
HETATM   38  C17 UNL     1      -3.321   4.828   1.273  1.00  0.00     0.037 C 
HETATM   39  C18 UNL     1      -2.397   5.429  -0.907  1.00  0.00     0.037 C 
ENDBRANCH  34  36
ENDBRANCH  28  32
BRANCH  30  40
HETATM   40  C20 UNL     1      -3.516  -2.957  -0.039  1.00  0.00     0.118 C 
BRANCH  40  41
HETATM   41  C21 UNL     1      -3.158  -3.498   1.283  1.00  0.00    -0.013 A 
HETATM   42  C22 UNL     1      -2.033  -4.305   1.397  1.00  0.00     0.098 A 
HETATM   43  N5  UNL     1      -1.644  -4.827   2.570  1.00  0.00    -0.361 N 
HETATM   44  C23 UNL     1      -2.351  -4.572   3.675  1.00  0.00     0.180 A 
ATOM     45  H5  UNL     1      -0.812  -5.416   2.618  1.00  0.00     0.166 HD
HETATM   46  N6  UNL     1      -3.436  -3.800   3.590  1.00  0.00    -0.356 N 
HETATM   47  C24 UNL     1      -3.861  -3.257   2.433  1.00  0.00     0.014 A 
ATOM     48  H6  UNL     1      -3.968  -3.613   4.440  1.00  0.00     0.166 HD
HETATM   49  C25 UNL     1      -5.118  -2.422   2.441  1.00  0.00     0.068 C 
ENDBRANCH  40  41
ENDBRANCH  30  40
ENDBRANCH   1  26
TORSDOF 13
