REMARK  15 active torsions:
REMARK  status: ('A' for Active; 'I' for Inactive)
REMARK    1  A    between atoms: C2_2  and  C3_3 
REMARK    2  A    between atoms: C3_3  and  C4_4 
REMARK    3  A    between atoms: C4_4  and  C5_5 
REMARK    4  A    between atoms: C5_5  and  O1_6 
REMARK    5  A    between atoms: O1_6  and  C6_7 
REMARK       I    between atoms: C6_7  and  N1_9 
REMARK       I    between atoms: N2_12  and  C9_13 
REMARK    6  A    between atoms: C9_13  and  C10_15 
REMARK    7  A    between atoms: C12_17  and  S1_18 
REMARK       I    between atoms: N3_21  and  C15_22 
REMARK    8  A    between atoms: C15_22  and  C16_24 
REMARK    9  A    between atoms: C16_24  and  C17_25 
REMARK   10  A    between atoms: C16_24  and  N7_33 
REMARK   11  A    between atoms: C17_25  and  C18_26 
REMARK   12  A    between atoms: C18_26  and  C19_27 
REMARK   13  A    between atoms: C19_27  and  N4_28 
REMARK       I    between atoms: N7_33  and  C21_35 
REMARK   14  A    between atoms: C21_35  and  O6_37 
REMARK   15  A    between atoms: O6_37  and  C22_38 
ROOT
HETATM    1  C10 UNL     1      -0.417  -0.858  -0.575  1.00  0.00     0.180 C 
HETATM    2  C11 UNL     1      -0.272  -2.291  -0.909  1.00  0.00     0.052 C 
HETATM    3  C12 UNL     1      -1.431  -2.896  -0.079  1.00  0.00     0.067 C 
HETATM    4  C14 UNL     1      -2.520  -1.860  -0.309  1.00  0.00     0.142 C 
HETATM    5  N3  UNL     1      -1.795  -0.619  -0.287  1.00  0.00    -0.336 N 
HETATM    6  C15 UNL     1      -2.334   0.692  -0.064  1.00  0.00     0.243 C 
HETATM    7  O4  UNL     1      -1.519   1.674  -0.173  1.00  0.00    -0.271 OA
ENDROOT
BRANCH   1   8
HETATM    8  C9  UNL     1       0.525  -0.387   0.462  1.00  0.00     0.242 C 
HETATM    9  N2  UNL     1       1.904  -0.440   0.268  1.00  0.00    -0.347 N 
HETATM   10  C8  UNL     1       2.539  -0.934  -0.920  1.00  0.00     0.146 C 
HETATM   11  C26 UNL     1       2.788   0.031   1.331  1.00  0.00     0.146 C 
HETATM   12  C7  UNL     1       3.805  -0.172  -1.262  1.00  0.00     0.148 C 
HETATM   13  N1  UNL     1       4.683  -0.122  -0.139  1.00  0.00    -0.325 N 
HETATM   14  C6  UNL     1       6.039   0.318  -0.345  1.00  0.00     0.362 C 
HETATM   15  C27 UNL     1       4.186  -0.517   1.157  1.00  0.00     0.148 C 
HETATM   16  O2  UNL     1       6.750   0.363   0.693  1.00  0.00    -0.238 OA
HETATM   17  O3  UNL     1       0.089   0.072   1.544  1.00  0.00    -0.271 OA
BRANCH  14  18
HETATM   18  O1  UNL     1       6.509   0.655  -1.572  1.00  0.00    -0.304 OA
BRANCH  18  19
HETATM   19  C5  UNL     1       7.770   1.060  -1.928  1.00  0.00     0.180 C 
BRANCH  19  20
HETATM   20  C4  UNL     1       8.901   0.102  -1.965  1.00  0.00     0.027 C 
BRANCH  20  21
HETATM   21  C3  UNL     1       9.267  -0.634  -0.736  1.00  0.00     0.002 C 
BRANCH  21  22
HETATM   22  C2  UNL     1      10.510  -1.495  -1.042  1.00  0.00    -0.004 C 
HETATM   23  C1  UNL     1      11.623  -0.574  -1.458  1.00  0.00     0.005 C 
ENDBRANCH  21  22
ENDBRANCH  20  21
ENDBRANCH  19  20
ENDBRANCH  18  19
ENDBRANCH  14  18
ENDBRANCH   1   8
BRANCH   6  24
HETATM   24  C16 UNL     1      -3.702   1.041   0.271  1.00  0.00     0.179 C 
BRANCH  24  25
HETATM   25  C17 UNL     1      -3.952   1.323   1.746  1.00  0.00     0.037 C 
BRANCH  25  26
HETATM   26  C18 UNL     1      -3.646   0.132   2.606  1.00  0.00     0.022 C 
BRANCH  26  27
HETATM   27  C19 UNL     1      -3.909   0.422   4.072  1.00  0.00     0.122 C 
BRANCH  27  28
HETATM   28  N4  UNL     1      -3.602  -0.761   4.843  1.00  0.00    -0.367 N 
HETATM   29  C20 UNL     1      -4.492  -1.689   5.000  1.00  0.00     0.196 C 
HETATM   30  N5  UNL     1      -5.771  -1.533   4.408  1.00  0.00    -0.067 NA
HETATM   31  N6  UNL     1      -4.232  -2.863   5.751  1.00  0.00    -0.067 NA
ATOM     32  H4  UNL     1      -2.680  -0.866   5.266  1.00  0.00     0.161 HD
ENDBRANCH  27  28
ENDBRANCH  26  27
ENDBRANCH  25  26
ENDBRANCH  24  25
BRANCH  24  33
HETATM   33  N7  UNL     1      -4.145   2.275  -0.420  1.00  0.00    -0.324 N 
HETATM   34  C21 UNL     1      -5.408   2.331  -1.065  1.00  0.00     0.362 C 
HETATM   35  O5  UNL     1      -6.203   1.363  -1.083  1.00  0.00    -0.238 OA
ATOM     36  H7  UNL     1      -3.536   3.093  -0.432  1.00  0.00     0.165 HD
BRANCH  34  37
HETATM   37  O6  UNL     1      -5.770   3.496  -1.692  1.00  0.00    -0.294 OA
BRANCH  37  38
HETATM   38  C22 UNL     1      -6.960   3.779  -2.360  1.00  0.00     0.061 C 
HETATM   39  C23 UNL     1      -8.181   3.702  -1.435  1.00  0.00     0.046 C 
HETATM   40  C24 UNL     1      -6.819   5.229  -2.865  1.00  0.00     0.046 C 
HETATM   41  C25 UNL     1      -7.236   2.925  -3.562  1.00  0.00     0.046 C 
ENDBRANCH  37  38
ENDBRANCH  34  37
ENDBRANCH  24  33
ENDBRANCH   6  24
BRANCH   3  42
HETATM   42  S1  UNL     1      -1.853  -4.505  -0.771  1.00  0.00    -0.167 SA
HETATM   43  C13 UNL     1      -0.441  -5.615  -0.532  1.00  0.00     0.090 C 
ENDBRANCH   3  42
TORSDOF 15
