REMARK  13 active torsions:
REMARK  status: ('A' for Active; 'I' for Inactive)
REMARK    1  A    between atoms: C2_2  and  C3_3 
REMARK    2  A    between atoms: C3_3  and  C4_4 
REMARK    3  A    between atoms: C4_4  and  C5_5 
REMARK    4  A    between atoms: C5_5  and  C6_6 
REMARK       I    between atoms: C6_6  and  N1_8 
REMARK       I    between atoms: N1_8  and  C7_10 
REMARK    5  A    between atoms: C7_10  and  C8_12 
REMARK    6  A    between atoms: C10_16  and  C11_17 
REMARK       I    between atoms: C11_17  and  N3_19 
REMARK    7  A    between atoms: N3_19  and  C12_21 
REMARK    8  A    between atoms: C16_25  and  C17_26 
REMARK    9  A    between atoms: C17_26  and  C18_27 
REMARK   10  A    between atoms: C18_27  and  C19_28 
REMARK   11  A    between atoms: C19_28  and  N4_29 
REMARK   12  A    between atoms: C28_42  and  C29_43 
REMARK   13  A    between atoms: C29_43  and  C30_44 
REMARK       I    between atoms: C30_44  and  N7_46 
ROOT
HETATM    1  C8  UNL     1       1.408   0.290   0.001  1.00  0.00     0.119 C 
HETATM    2  C9  UNL     1       0.384   0.916  -0.902  1.00  0.00     0.097 C 
HETATM    3  N2  UNL     1      -0.673   1.407  -0.044  1.00  0.00    -0.403 N 
ATOM      4  H2  UNL     1      -0.511   1.684   0.924  1.00  0.00     0.154 HD
HETATM    5  C10 UNL     1      -1.967   1.474  -0.660  1.00  0.00     0.174 C 
HETATM    6  C16 UNL     1      -2.644   0.281   0.202  1.00  0.00     0.027 C 
HETATM    7  C23 UNL     1      -1.729  -0.811  -0.097  1.00  0.00    -0.014 A 
HETATM    8  C24 UNL     1      -1.264  -0.909  -1.525  1.00  0.00     0.025 C 
HETATM    9  C25 UNL     1      -1.355  -2.368  -1.779  1.00  0.00    -0.024 C 
HETATM   10  C26 UNL     1      -1.484  -3.028  -0.633  1.00  0.00    -0.024 C 
HETATM   11  C27 UNL     1      -1.505  -2.093   0.531  1.00  0.00     0.024 A 
HETATM   12  C28 UNL     1      -0.501  -1.056   0.703  1.00  0.00     0.023 A 
HETATM   13  C29 UNL     1       0.721  -0.995  -0.209  1.00  0.00     0.066 C 
HETATM   14  C33 UNL     1       0.138  -0.429  -1.470  1.00  0.00     0.036 C 
ENDROOT
BRANCH   1  15
HETATM   15  C7  UNL     1       2.780   0.566  -0.291  1.00  0.00     0.231 C 
HETATM   16  N1  UNL     1       3.787  -0.239  -0.799  1.00  0.00    -0.297 N 
HETATM   17  C6  UNL     1       5.164   0.123  -0.656  1.00  0.00     0.224 C 
ATOM     18  H1  UNL     1       3.543  -1.103  -1.283  1.00  0.00     0.171 HD
HETATM   19  O1  UNL     1       5.523   1.274  -0.359  1.00  0.00    -0.273 OA
HETATM   20  O2  UNL     1       3.154   1.776  -0.021  1.00  0.00    -0.273 OA
BRANCH  17  21
HETATM   21  C5  UNL     1       6.117  -1.031  -0.871  1.00  0.00     0.103 C 
BRANCH  21  22
HETATM   22  C4  UNL     1       7.422  -0.810  -0.210  1.00  0.00     0.009 C 
BRANCH  22  23
HETATM   23  C3  UNL     1       8.322   0.245  -0.725  1.00  0.00     0.000 C 
BRANCH  23  24
HETATM   24  C2  UNL     1       9.466   0.391   0.270  1.00  0.00    -0.005 C 
HETATM   25  C1  UNL     1      10.119  -0.929   0.503  1.00  0.00     0.005 C 
ENDBRANCH  23  24
ENDBRANCH  22  23
ENDBRANCH  21  22
ENDBRANCH  17  21
ENDBRANCH   1  15
BRANCH  13  26
HETATM   26  C30 UNL     1       1.452  -2.246  -0.315  1.00  0.00     0.229 C 
HETATM   27  O4  UNL     1       1.518  -2.941  -1.372  1.00  0.00    -0.272 OA
HETATM   28  N7  UNL     1       2.184  -2.796   0.796  1.00  0.00    -0.360 N 
HETATM   29  C31 UNL     1       2.955  -4.044   0.623  1.00  0.00     0.152 C 
HETATM   30  C32 UNL     1       2.250  -2.245   2.112  1.00  0.00     0.152 C 
ENDBRANCH  13  26
BRANCH   5  31
HETATM   31  C11 UNL     1      -2.618   2.695  -0.052  1.00  0.00     0.241 C 
HETATM   32  O3  UNL     1      -3.466   2.550   0.831  1.00  0.00    -0.271 OA
HETATM   33  N3  UNL     1      -2.257   4.000  -0.471  1.00  0.00    -0.351 N 
ATOM     34  H3  UNL     1      -1.523   4.125  -1.168  1.00  0.00     0.163 HD
BRANCH  33  35
HETATM   35  C12 UNL     1      -2.933   5.167   0.092  1.00  0.00     0.022 C 
HETATM   36  C13 UNL     1      -3.416   4.992   1.493  1.00  0.00     0.037 C 
HETATM   37  C14 UNL     1      -3.882   5.700  -0.907  1.00  0.00     0.037 C 
HETATM   38  C15 UNL     1      -1.798   6.242   0.186  1.00  0.00     0.037 C 
ENDBRANCH  33  35
ENDBRANCH   5  31
BRANCH   6  39
HETATM   39  C17 UNL     1      -4.060   0.164  -0.095  1.00  0.00     0.010 C 
BRANCH  39  40
HETATM   40  C18 UNL     1      -4.879  -0.689   0.762  1.00  0.00     0.022 C 
BRANCH  40  41
HETATM   41  C19 UNL     1      -5.031  -2.089   0.952  1.00  0.00     0.150 C 
BRANCH  41  42
HETATM   42  N4  UNL     1      -5.727  -2.796  -0.140  1.00  0.00    -0.281 N 
HETATM   43  N5  UNL     1      -5.316  -3.453  -1.175  1.00  0.00    -0.241 N 
HETATM   44  N6  UNL     1      -6.369  -3.938  -1.853  1.00  0.00    -0.295 N 
ATOM     45  H5  UNL     1      -4.339  -3.583  -1.437  1.00  0.00     0.208 HD
HETATM   46  C20 UNL     1      -7.498  -3.584  -1.230  1.00  0.00     0.134 A 
ATOM     47  H6  UNL     1      -6.316  -4.490  -2.709  1.00  0.00     0.187 HD
HETATM   48  C21 UNL     1      -7.095  -2.855  -0.139  1.00  0.00     0.043 A 
HETATM   49  C22 UNL     1      -7.983  -2.228   0.852  1.00  0.00     0.071 C 
ENDBRANCH  41  42
ENDBRANCH  40  41
ENDBRANCH  39  40
ENDBRANCH   6  39
TORSDOF 13
