REMARK  1 active torsions:
REMARK  status: ('A' for Active; 'I' for Inactive)
REMARK    1  A    between atoms: C14_19  and  O2_20 
ROOT
HETATM    1  C1  UNL     1      -5.198   1.860   0.611  1.00  0.00     0.012 C 
HETATM    2  C2  UNL     1      -4.711   1.157  -0.613  1.00  0.00     0.010 C 
HETATM    3  C3  UNL     1      -4.039   2.169  -1.506  1.00  0.00     0.172 C 
HETATM    4  O1  UNL     1      -2.792   2.530  -1.084  1.00  0.00    -0.385 OA
HETATM    5  C4  UNL     1      -1.927   1.505  -0.815  1.00  0.00     0.126 C 
HETATM    6  C5  UNL     1      -1.604   0.693  -2.018  1.00  0.00     0.035 C 
HETATM    7  C6  UNL     1      -1.017  -0.642  -1.757  1.00  0.00     0.045 C 
HETATM    8  C7  UNL     1      -0.510  -0.814  -0.321  1.00  0.00     0.109 C 
HETATM    9  C8  UNL     1       0.082  -2.177  -0.213  1.00  0.00     0.118 C 
HETATM   10  S1  UNL     1       1.755  -2.114   0.558  1.00  0.00    -0.123 SA
HETATM   11  C9  UNL     1       2.564  -0.693  -0.283  1.00  0.00     0.170 C 
HETATM   12  C10 UNL     1       2.858   0.407   0.715  1.00  0.00     0.286 C 
HETATM   13  N1  UNL     1       4.214   0.325   1.219  1.00  0.00    -0.061 N 
ATOM     14  H11 UNL     1       4.368  -0.550   1.721  1.00  0.00     0.278 HD
ATOM     15  H12 UNL     1       4.362   0.981   1.986  1.00  0.00     0.278 HD
HETATM   16  C11 UNL     1       5.196   0.509   0.181  1.00  0.00     0.144 C 
HETATM   17  C12 UNL     1       6.470  -0.237   0.563  1.00  0.00     0.048 C 
HETATM   18  C13 UNL     1       5.595   1.988   0.111  1.00  0.00     0.048 C 
HETATM   19  C14 UNL     1       4.692   0.082  -1.182  1.00  0.00     0.157 C 
HETATM   20  C15 UNL     1       3.751  -1.112  -1.069  1.00  0.00     0.088 C 
HETATM   21  O3  UNL     1       1.518  -0.191  -1.100  1.00  0.00    -0.216 OA
HETATM   22  O4  UNL     1       0.568   0.101  -0.238  1.00  0.00    -0.227 OA
HETATM   23  C16 UNL     1      -1.508  -0.445   0.705  1.00  0.00     0.035 C 
HETATM   24  C17 UNL     1      -2.216  -1.611   1.362  1.00  0.00    -0.011 C 
HETATM   25  C18 UNL     1      -1.487  -2.067   2.622  1.00  0.00     0.010 C 
HETATM   26  C19 UNL     1      -3.568  -1.074   1.859  1.00  0.00     0.005 C 
HETATM   27  C20 UNL     1      -4.488  -0.873   0.707  1.00  0.00     0.006 C 
HETATM   28  C21 UNL     1      -3.771   0.003  -0.307  1.00  0.00    -0.002 C 
HETATM   29  C22 UNL     1      -2.508   0.585   0.234  1.00  0.00     0.026 C 
ENDROOT
BRANCH  19  30
HETATM   30  O2  UNL     1       5.766  -0.207  -2.010  1.00  0.00    -0.393 OA
ATOM     31  H2  UNL     1       5.450  -0.475  -2.865  1.00  0.00     0.210 HD
ENDBRANCH  19  30
TORSDOF 1
