REMARK  5 active torsions:
REMARK  status: ('A' for Active; 'I' for Inactive)
REMARK    1  A    between atoms: C3_3  and  C4_4 
REMARK    2  A    between atoms: C3_3  and  C10_16 
REMARK    3  A    between atoms: N1_5  and  C5_7 
REMARK    4  A    between atoms: C5_7  and  C6_8 
REMARK    5  A    between atoms: C6_8  and  N2_9 
ROOT
HETATM    1  C1  UNL     1       2.964  -3.662  -0.023  1.00  0.00     0.013 C 
HETATM    2  C2  UNL     1       2.614  -2.563   0.318  1.00  0.00    -0.102 C 
HETATM    3  C3  UNL     1       2.176  -1.237   0.740  1.00  0.00     0.135 C 
ENDROOT
BRANCH   3   4
HETATM    4  C4  UNL     1       0.832  -0.885   0.146  1.00  0.00     0.082 C 
HETATM    5  N1  UNL     1      -0.176  -1.307   0.757  1.00  0.00    -0.379 N 
ATOM      6  H1  UNL     1       0.029  -1.848   1.597  1.00  0.00     0.164 HD
BRANCH   5   7
HETATM    7  C5  UNL     1      -1.543  -1.157   0.474  1.00  0.00     0.080 C 
BRANCH   7   8
HETATM    8  C6  UNL     1      -1.873   0.228   0.030  1.00  0.00     0.169 C 
BRANCH   8   9
HETATM    9  N2  UNL     1      -3.292   0.377  -0.256  1.00  0.00    -0.352 N 
HETATM   10  C7  UNL     1      -4.349   0.331   0.737  1.00  0.00     0.145 C 
HETATM   11  C8  UNL     1      -5.338   1.350   0.156  1.00  0.00     0.142 C 
HETATM   12  N3  UNL     1      -5.265   1.100  -1.267  1.00  0.00    -0.366 N 
HETATM   13  C9  UNL     1      -3.956   0.592  -1.496  1.00  0.00     0.170 C 
ATOM     14  H3  UNL     1      -5.997   1.255  -1.960  1.00  0.00     0.161 HD
HETATM   15  S1  UNL     1      -3.285   0.290  -2.960  1.00  0.00    -0.041 SA
ENDBRANCH   8   9
ENDBRANCH   7   8
ENDBRANCH   5   7
ENDBRANCH   3   4
BRANCH   3  16
HETATM   16  C10 UNL     1       3.197  -0.219   0.402  1.00  0.00    -0.038 A 
HETATM   17  C11 UNL     1       3.787   0.528   1.421  1.00  0.00     0.009 A 
HETATM   18  C12 UNL     1       4.741   1.478   1.120  1.00  0.00     0.001 A 
HETATM   19  C13 UNL     1       5.128   1.707  -0.199  1.00  0.00     0.000 A 
HETATM   20  C14 UNL     1       4.536   0.958  -1.219  1.00  0.00     0.001 A 
HETATM   21  C15 UNL     1       3.581   0.009  -0.902  1.00  0.00     0.009 A 
ENDBRANCH   3  16
TORSDOF 5
