REMARK  5 active torsions:
REMARK  status: ('A' for Active; 'I' for Inactive)
REMARK    1  A    between atoms: C2_2  and  N1_3 
REMARK    2  A    between atoms: C2_2  and  C7_13 
REMARK    3  A    between atoms: C7_13  and  C8_14 
REMARK    4  A    between atoms: C7_13  and  N4_21 
REMARK    5  A    between atoms: C8_14  and  C9_15 
ROOT
HETATM    1  C1  UNL     1       1.039   1.099   2.481  1.00  0.00     0.035 C 
HETATM    2  C2  UNL     1       0.773  -0.197   1.755  1.00  0.00     0.129 C 
ENDROOT
BRANCH   2   3
HETATM    3  N1  UNL     1       1.889  -0.589   1.017  1.00  0.00    -0.220 N 
HETATM    4  C3  UNL     1       2.777  -0.096   0.304  1.00  0.00     0.678 A 
HETATM    5  N2  UNL     1       3.687  -0.996  -0.204  1.00  0.00    -0.202 N 
HETATM    6  N3  UNL     1       2.977   1.183  -0.041  1.00  0.00    -0.202 N 
HETATM    7  C4  UNL     1       4.698  -0.664  -0.980  1.00  0.00     0.107 A 
ATOM      8  H2  UNL     1       3.571  -1.981   0.036  1.00  0.00     0.183 HD
HETATM    9  C5  UNL     1       4.863   0.670  -1.308  1.00  0.00     0.035 A 
HETATM   10  C6  UNL     1       3.978   1.608  -0.824  1.00  0.00     0.107 A 
ATOM     11  H3  UNL     1       2.324   1.880   0.316  1.00  0.00     0.183 HD
ATOM     12  H1  UNL     1       2.015  -1.599   1.084  1.00  0.00     0.178 HD
ENDBRANCH   2   3
BRANCH   2  13
HETATM   13  C7  UNL     1      -0.557  -0.220   1.032  1.00  0.00     0.248 C 
BRANCH  13  14
HETATM   14  C8  UNL     1      -0.739   0.815  -0.013  1.00  0.00     0.076 C 
BRANCH  14  15
HETATM   15  C9  UNL     1      -2.058   0.781  -0.684  1.00  0.00    -0.056 A 
HETATM   16  C10 UNL     1      -2.306   0.114  -1.858  1.00  0.00     0.007 A 
HETATM   17  C11 UNL     1      -3.558   0.095  -2.456  1.00  0.00     0.001 A 
HETATM   18  C12 UNL     1      -4.613   0.746  -1.897  1.00  0.00     0.000 A 
HETATM   19  C13 UNL     1      -4.410   1.435  -0.710  1.00  0.00     0.001 A 
HETATM   20  C14 UNL     1      -3.161   1.442  -0.132  1.00  0.00     0.007 A 
ENDBRANCH  14  15
ENDBRANCH  13  14
BRANCH  13  21
HETATM   21  N4  UNL     1      -0.950  -1.555   0.676  1.00  0.00     0.086 N 
HETATM   22  C15 UNL     1      -1.183  -2.387   1.839  1.00  0.00     0.310 C 
HETATM   23  C16 UNL     1      -0.100  -2.190  -0.288  1.00  0.00     0.310 C 
ENDBRANCH  13  21
ENDBRANCH   2  13
TORSDOF 5
