REMARK  6 active torsions:
REMARK  status: ('A' for Active; 'I' for Inactive)
REMARK    1  A    between atoms: C2_2  and  C3_3 
REMARK    2  A    between atoms: C3_3  and  C4_4 
REMARK    3  A    between atoms: C3_3  and  N1_7 
REMARK    4  A    between atoms: C8_9  and  C9_10 
REMARK    5  A    between atoms: C9_10  and  N2_12 
REMARK    6  A    between atoms: N2_12  and  C10_14 
ROOT
HETATM    1  N1  UNL     1      -2.214   0.439   0.745  1.00  0.00    -0.282 N 
HETATM    2  C7  UNL     1      -1.136  -0.361   0.824  1.00  0.00     0.146 A 
HETATM    3  C8  UNL     1       0.010   0.424   0.943  1.00  0.00     0.104 A 
HETATM    4  N3  UNL     1      -0.456   1.698   0.929  1.00  0.00    -0.282 N 
ATOM      5  H3  UNL     1       0.116   2.539   0.999  1.00  0.00     0.188 HD
HETATM    6  N4  UNL     1      -1.768   1.672   0.811  1.00  0.00    -0.240 N 
ATOM      7  H4  UNL     1      -2.360   2.502   0.776  1.00  0.00     0.208 HD
ENDROOT
BRANCH   3   8
HETATM    8  C9  UNL     1       1.384  -0.029   1.055  1.00  0.00     0.126 C 
HETATM    9  S1  UNL     1       1.704  -1.266   2.054  1.00  0.00    -0.058 SA
BRANCH   8  10
HETATM   10  N2  UNL     1       2.408   0.603   0.320  1.00  0.00    -0.374 N 
ATOM     11  H2  UNL     1       2.142   1.383  -0.281  1.00  0.00     0.161 HD
BRANCH  10  12
HETATM   12  C10 UNL     1       3.797   0.235   0.350  1.00  0.00     0.082 C 
HETATM   13  C11 UNL     1       4.595   1.226  -0.476  1.00  0.00     0.025 C 
HETATM   14  C12 UNL     1       5.982   0.761  -0.767  1.00  0.00     0.002 C 
HETATM   15  C13 UNL     1       6.421  -0.431   0.039  1.00  0.00     0.000 C 
HETATM   16  C14 UNL     1       5.428  -1.566  -0.018  1.00  0.00     0.002 C 
HETATM   17  C15 UNL     1       4.035  -1.112  -0.306  1.00  0.00     0.025 C 
ENDBRANCH  10  12
ENDBRANCH   8  10
ENDBRANCH   3   8
BRANCH   1  18
HETATM   18  C3  UNL     1      -3.615   0.001   0.612  1.00  0.00     0.112 C 
BRANCH  18  19
HETATM   19  C2  UNL     1      -4.545   0.999   1.187  1.00  0.00     0.023 C 
HETATM   20  C1  UNL     1      -5.970   0.556   1.353  1.00  0.00     0.007 C 
ENDBRANCH  18  19
BRANCH  18  21
HETATM   21  C4  UNL     1      -3.887  -0.517  -0.743  1.00  0.00     0.002 C 
HETATM   22  C5  UNL     1      -3.925   0.539  -1.819  1.00  0.00     0.011 C 
HETATM   23  C6  UNL     1      -5.081  -1.412  -0.898  1.00  0.00     0.011 C 
ENDBRANCH  18  21
ENDBRANCH   1  18
TORSDOF 6
