REMARK  0 active torsions:
REMARK  status: ('A' for Active; 'I' for Inactive)
ROOT
HETATM    1  N1  UNL     1       3.416  -0.352   0.125  1.00  0.00    -0.081 NA
HETATM    2  C1  UNL     1       1.994  -0.243   0.089  1.00  0.00     0.135 A 
HETATM    3  C2  UNL     1       1.234   0.831  -0.342  1.00  0.00     0.097 A 
HETATM    4  C3  UNL     1      -0.111   0.532  -0.214  1.00  0.00     0.139 A 
HETATM    5  N2  UNL     1      -1.238   1.225  -0.488  1.00  0.00    -0.293 N 
ATOM      6  H2  UNL     1      -1.172   2.168  -0.870  1.00  0.00     0.172 HD
HETATM    7  C4  UNL     1      -2.451   0.677  -0.259  1.00  0.00     0.329 A 
HETATM    8  O1  UNL     1      -3.522   1.306  -0.508  1.00  0.00    -0.246 OA
HETATM    9  N3  UNL     1      -2.486  -0.567   0.245  1.00  0.00    -0.259 N 
ATOM     10  H3  UNL     1      -3.388  -1.006   0.427  1.00  0.00     0.175 HD
HETATM   11  C5  UNL     1      -1.356  -1.248   0.515  1.00  0.00     0.351 A 
HETATM   12  O2  UNL     1      -1.435  -2.411   0.987  1.00  0.00    -0.244 OA
HETATM   13  N4  UNL     1      -0.144  -0.714   0.292  1.00  0.00    -0.187 N 
HETATM   14  N5  UNL     1       1.097  -1.172   0.470  1.00  0.00    -0.275 N 
ATOM     15  H5  UNL     1       1.332  -2.093   0.841  1.00  0.00     0.189 HD
ENDROOT
TORSDOF 0
