REMARK  24 active torsions:
REMARK  status: ('A' for Active; 'I' for Inactive)
REMARK    1  A    between atoms: C2_2  and  O2_4 
REMARK    2  A    between atoms: O2_4  and  C3_5 
REMARK    3  A    between atoms: C3_5  and  C4_7 
REMARK    4  A    between atoms: C4_7  and  C5_8 
REMARK    5  A    between atoms: C6_9  and  O4_10 
REMARK    6  A    between atoms: C7_12  and  C8_13 
REMARK    7  A    between atoms: C8_13  and  O5_14 
REMARK    8  A    between atoms: C8_13  and  N1_16 
REMARK    9  A    between atoms: N1_16  and  C9_18 
REMARK   10  A    between atoms: C9_18  and  C11_20 
REMARK   11  A    between atoms: C11_20  and  O6_21 
REMARK   12  A    between atoms: C11_20  and  N2_23 
REMARK   13  A    between atoms: N2_23  and  C12_26 
REMARK   14  A    between atoms: C13_27  and  O7_28 
REMARK   15  A    between atoms: C14_30  and  O8_31 
REMARK   16  A    between atoms: O8_31  and  C15_32 
REMARK   17  A    between atoms: C17_35  and  O10_36 
REMARK   18  A    between atoms: O10_36  and  C18_37 
REMARK   19  A    between atoms: C20_40  and  O12_41 
REMARK   20  A    between atoms: O12_41  and  C21_42 
REMARK   21  A    between atoms: C23_45  and  O14_46 
REMARK   22  A    between atoms: C24_48  and  O15_49 
REMARK   23  A    between atoms: C25_51  and  O16_52 
REMARK   24  A    between atoms: C27_56  and  O18_57 
ROOT
HETATM    1  C9  UNL     1       0.705  -1.176   0.513  1.00  0.00     0.036 C 
HETATM    2  C10 UNL     1       1.129   0.254   0.463  1.00  0.00     0.067 C 
ENDROOT
BRANCH   1   3
HETATM    3  N1  UNL     1       1.618  -2.160   0.181  1.00  0.00    -0.363 N 
ATOM      4  H1  UNL     1       1.849  -2.842   0.904  1.00  0.00     0.162 HD
BRANCH   3   5
HETATM    5  C8  UNL     1       2.252  -2.304  -1.053  1.00  0.00     0.258 C 
BRANCH   5   6
HETATM    6  C7  UNL     1       3.382  -1.398  -1.354  1.00  0.00     0.059 C 
HETATM    7  C6  UNL     1       4.547  -1.558  -0.596  1.00  0.00     0.088 C 
HETATM    8  C5  UNL     1       5.814  -1.087  -0.879  1.00  0.00     0.022 C 
HETATM    9  C27 UNL     1       6.243  -0.411  -2.036  1.00  0.00     0.128 C 
HETATM   10  C26 UNL     1       5.461   0.330  -2.891  1.00  0.00     0.241 C 
HETATM   11  C25 UNL     1       4.069   0.447  -2.906  1.00  0.00     0.153 C 
HETATM   12  O17 UNL     1       6.103   0.990  -3.775  1.00  0.00    -0.282 OA
HETATM   13  C24 UNL     1       3.189  -0.517  -2.395  1.00  0.00     0.116 C 
BRANCH   7  14
HETATM   14  O4  UNL     1       4.406  -2.269   0.566  1.00  0.00    -0.359 OA
ATOM     15  H4  UNL     1       3.534  -2.593   0.761  1.00  0.00     0.217 HD
ENDBRANCH   7  14
BRANCH   8  16
HETATM   16  C4  UNL     1       6.912  -1.243   0.107  1.00  0.00     0.156 C 
BRANCH  16  17
HETATM   17  C3  UNL     1       6.710  -0.226   1.163  1.00  0.00     0.270 C 
HETATM   18  O3  UNL     1       5.640   0.403   1.222  1.00  0.00    -0.264 OA
BRANCH  17  19
HETATM   19  O2  UNL     1       7.700   0.074   2.121  1.00  0.00    -0.245 OA
BRANCH  19  20
HETATM   20  C2  UNL     1       7.523   1.032   3.110  1.00  0.00     0.262 C 
HETATM   21  C1  UNL     1       8.644   1.357   4.071  1.00  0.00     0.126 C 
HETATM   22  O1  UNL     1       6.455   1.632   3.209  1.00  0.00    -0.265 OA
ENDBRANCH  19  20
ENDBRANCH  17  19
ENDBRANCH  16  17
ENDBRANCH   8  16
BRANCH   9  23
HETATM   23  O18 UNL     1       7.607  -0.530  -2.309  1.00  0.00    -0.356 OA
ATOM     24  H18 UNL     1       7.897  -0.074  -3.090  1.00  0.00     0.218 HD
ENDBRANCH   9  23
BRANCH  11  25
HETATM   25  O16 UNL     1       3.594   1.589  -3.464  1.00  0.00    -0.355 OA
ATOM     26  H16 UNL     1       4.190   2.242  -3.810  1.00  0.00     0.218 HD
ENDBRANCH  11  25
BRANCH  13  27
HETATM   27  O15 UNL     1       1.978  -0.549  -3.063  1.00  0.00    -0.357 OA
ATOM     28  H15 UNL     1       1.845   0.059  -3.781  1.00  0.00     0.217 HD
ENDBRANCH  13  27
ENDBRANCH   5   6
BRANCH   5  29
HETATM   29  O5  UNL     1       2.869  -3.601  -1.002  1.00  0.00    -0.372 OA
ATOM     30  H5  UNL     1       2.143  -4.183  -0.809  1.00  0.00     0.212 HD
ENDBRANCH   5  29
ENDBRANCH   3   5
ENDBRANCH   1   3
BRANCH   1  31
HETATM   31  C11 UNL     1      -0.714  -1.308   0.005  1.00  0.00     0.365 C 
BRANCH  31  32
HETATM   32  O6  UNL     1      -0.692  -1.379  -1.361  1.00  0.00    -0.365 OA
ATOM     33  H6  UNL     1      -1.583  -1.462  -1.680  1.00  0.00     0.212 HD
ENDBRANCH  31  32
BRANCH  31  34
HETATM   34  N2  UNL     1      -1.429  -0.114   0.399  1.00  0.00    -0.034 N 
ATOM     35  H22 UNL     1      -1.949  -0.269   1.262  1.00  0.00     0.281 HD
ATOM     36  H21 UNL     1      -0.784   0.607   0.721  1.00  0.00     0.281 HD
BRANCH  34  37
HETATM   37  C12 UNL     1      -2.292   0.393  -0.638  1.00  0.00     0.251 C 
HETATM   38  C13 UNL     1      -2.988   1.668  -0.205  1.00  0.00     0.183 C 
HETATM   39  C14 UNL     1      -3.989   1.412   0.884  1.00  0.00     0.195 C 
HETATM   40  C17 UNL     1      -4.995   0.365   0.535  1.00  0.00     0.196 C 
HETATM   41  C20 UNL     1      -4.722  -0.357  -0.744  1.00  0.00     0.195 C 
HETATM   42  C23 UNL     1      -3.310  -0.563  -1.124  1.00  0.00     0.183 C 
BRANCH  38  43
HETATM   43  O7  UNL     1      -2.019   2.540   0.245  1.00  0.00    -0.391 OA
ATOM     44  H7  UNL     1      -2.455   3.339   0.516  1.00  0.00     0.210 HD
ENDBRANCH  38  43
BRANCH  39  45
HETATM   45  O8  UNL     1      -4.531   2.625   1.350  1.00  0.00    -0.311 OA
BRANCH  45  46
HETATM   46  C15 UNL     1      -4.342   3.137   2.599  1.00  0.00     0.255 C 
HETATM   47  C16 UNL     1      -4.953   4.422   2.992  1.00  0.00     0.126 C 
HETATM   48  O9  UNL     1      -3.647   2.522   3.430  1.00  0.00    -0.266 OA
ENDBRANCH  45  46
ENDBRANCH  39  45
BRANCH  40  49
HETATM   49  O10 UNL     1      -5.039  -0.631   1.538  1.00  0.00    -0.311 OA
BRANCH  49  50
HETATM   50  C18 UNL     1      -6.187  -0.956   2.260  1.00  0.00     0.255 C 
HETATM   51  C19 UNL     1      -6.116  -2.013   3.292  1.00  0.00     0.126 C 
HETATM   52  O11 UNL     1      -7.230  -0.329   1.993  1.00  0.00    -0.266 OA
ENDBRANCH  49  50
ENDBRANCH  40  49
BRANCH  41  53
HETATM   53  O12 UNL     1      -5.337   0.341  -1.817  1.00  0.00    -0.311 OA
BRANCH  53  54
HETATM   54  C21 UNL     1      -6.364  -0.247  -2.583  1.00  0.00     0.255 C 
HETATM   55  C22 UNL     1      -6.933   0.571  -3.683  1.00  0.00     0.126 C 
HETATM   56  O13 UNL     1      -6.702  -1.390  -2.277  1.00  0.00    -0.266 OA
ENDBRANCH  53  54
ENDBRANCH  41  53
BRANCH  42  57
HETATM   57  O14 UNL     1      -3.197  -0.730  -2.523  1.00  0.00    -0.391 OA
ATOM     58  H14 UNL     1      -3.851  -1.344  -2.835  1.00  0.00     0.210 HD
ENDBRANCH  42  57
ENDBRANCH  34  37
ENDBRANCH  31  34
ENDBRANCH   1  31
TORSDOF 24
