REMARK  9 active torsions:
REMARK  status: ('A' for Active; 'I' for Inactive)
REMARK    1  A    between atoms: C2_2  and  N1_3 
REMARK    2  A    between atoms: C2_2  and  C8_11 
REMARK       I    between atoms: N1_3  and  C3_4 
REMARK    3  A    between atoms: C3_4  and  O2_6 
REMARK    4  A    between atoms: O2_6  and  C4_7 
REMARK       I    between atoms: C8_11  and  N2_13 
REMARK    5  A    between atoms: N2_13  and  C9_15 
REMARK    6  A    between atoms: C9_15  and  C10_16 
REMARK    7  A    between atoms: C9_15  and  C16_29 
REMARK       I    between atoms: C10_16  and  N3_18 
REMARK    8  A    between atoms: N3_18  and  C11_19 
REMARK    9  A    between atoms: N4_23  and  N5_24 
ROOT
HETATM    1  C9  UNL     1      -1.499  -1.648   0.279  1.00  0.00     0.098 C 
ENDROOT
BRANCH   1   2
HETATM    2  N2  UNL     1      -0.243  -1.071   0.199  1.00  0.00    -0.319 N 
HETATM    3  C8  UNL     1       0.951  -1.254  -0.477  1.00  0.00     0.282 C 
HETATM    4  O3  UNL     1       1.099  -2.321  -1.169  1.00  0.00    -0.265 OA
ATOM      5  H2  UNL     1      -0.178  -0.270   0.827  1.00  0.00     0.169 HD
BRANCH   3   6
HETATM    6  C2  UNL     1       1.988  -0.245  -0.452  1.00  0.00     0.154 C 
HETATM    7  C1  UNL     1       1.339   1.076   0.005  1.00  0.00     0.091 C 
BRANCH   6   8
HETATM    8  N1  UNL     1       3.296  -0.252  -0.387  1.00  0.00    -0.345 NA
HETATM    9  C3  UNL     1       4.674  -0.428  -0.260  1.00  0.00     0.441 C 
HETATM   10  O1  UNL     1       5.447  -1.318   0.072  1.00  0.00    -0.221 OA
BRANCH   9  11
HETATM   11  O2  UNL     1       5.430   0.773  -0.583  1.00  0.00    -0.282 OA
BRANCH  11  12
HETATM   12  C4  UNL     1       6.752   1.076  -0.500  1.00  0.00     0.062 C 
HETATM   13  C5  UNL     1       7.724   0.286  -1.294  1.00  0.00     0.046 C 
HETATM   14  C6  UNL     1       6.889   2.531  -1.080  1.00  0.00     0.046 C 
HETATM   15  C7  UNL     1       7.321   1.153   0.905  1.00  0.00     0.046 C 
ENDBRANCH  11  12
ENDBRANCH   9  11
ENDBRANCH   6   8
ENDBRANCH   3   6
ENDBRANCH   1   2
BRANCH   1  16
HETATM   16  C10 UNL     1      -2.413  -1.083   1.370  1.00  0.00     0.334 C 
HETATM   17  O4  UNL     1      -2.030  -1.261   2.514  1.00  0.00    -0.250 OA
HETATM   18  N3  UNL     1      -3.562  -0.396   0.904  1.00  0.00    -0.395 NA
BRANCH  18  19
HETATM   19  C11 UNL     1      -4.636   0.246   0.480  1.00  0.00     0.260 C 
HETATM   20  C12 UNL     1      -6.069  -0.069   0.792  1.00  0.00     0.051 C 
HETATM   21  C13 UNL     1      -6.975   0.938   0.099  1.00  0.00     0.025 C 
HETATM   22  C14 UNL     1      -6.298   1.998  -0.706  1.00  0.00     0.152 C 
HETATM   23  N4  UNL     1      -5.283   2.637   0.144  1.00  0.00    -0.265 N 
HETATM   24  C15 UNL     1      -4.454   1.723   0.801  1.00  0.00     0.273 C 
HETATM   25  O5  UNL     1      -3.592   2.026   1.608  1.00  0.00    -0.268 OA
BRANCH  23  26
HETATM   26  N5  UNL     1      -5.085   4.001   0.311  1.00  0.00    -0.340 N 
ATOM     27  H52 UNL     1      -5.690   4.668  -0.168  1.00  0.00     0.177 HD
ATOM     28  H51 UNL     1      -4.381   4.444   0.901  1.00  0.00     0.177 HD
ENDBRANCH  23  26
ENDBRANCH  18  19
ENDBRANCH   1  16
BRANCH   1  29
HETATM   29  C16 UNL     1      -1.879  -2.994  -0.106  1.00  0.00     0.034 C 
HETATM   30  C17 UNL     1      -1.857  -3.209  -1.629  1.00  0.00     0.016 C 
HETATM   31  C18 UNL     1      -1.053  -4.140   0.429  1.00  0.00     0.016 C 
ENDBRANCH   1  29
TORSDOF 9
