REMARK  7 active torsions:
REMARK  status: ('A' for Active; 'I' for Inactive)
REMARK    1  A    between atoms: C2_2  and  N1_3 
REMARK    2  A    between atoms: N1_3  and  S1_5 
REMARK    3  A    between atoms: S1_5  and  N2_8 
REMARK       I    between atoms: N2_8  and  C3_10 
REMARK    4  A    between atoms: C3_10  and  C4_12 
REMARK       I    between atoms: N3_14  and  C6_15 
REMARK    5  A    between atoms: C6_15  and  C7_17 
REMARK    6  A    between atoms: C7_17  and  C8_19 
REMARK    7  A    between atoms: C16_27  and  N5_28 
ROOT
HETATM    1  C4  UNL     1       2.600  -0.303  -1.781  1.00  0.00     0.115 C 
HETATM    2  C5  UNL     1       1.658   0.787  -2.233  1.00  0.00     0.141 C 
HETATM    3  N3  UNL     1       0.841   0.588  -1.026  1.00  0.00    -0.346 N 
HETATM    4  C6  UNL     1      -0.444   0.969  -0.601  1.00  0.00     0.264 C 
HETATM    5  O4  UNL     1      -1.101   1.680  -1.393  1.00  0.00    -0.267 OA
HETATM    6  C17 UNL     1       1.932  -0.144  -0.436  1.00  0.00     0.141 C 
ENDROOT
BRANCH   4   7
HETATM    7  C7  UNL     1      -0.994   0.570   0.682  1.00  0.00     0.098 C 
HETATM    8  N4  UNL     1      -0.231  -0.354   1.465  1.00  0.00    -0.101 NA
BRANCH   7   9
HETATM    9  C8  UNL     1      -2.502   0.231   0.651  1.00  0.00     0.069 C 
HETATM   10  C9  UNL     1      -3.300   1.472   0.250  1.00  0.00     0.013 C 
HETATM   11  C10 UNL     1      -4.372   1.812   1.257  1.00  0.00     0.001 C 
HETATM   12  C11 UNL     1      -5.753   1.435   0.974  1.00  0.00     0.000 C 
HETATM   13  C12 UNL     1      -6.070   0.662  -0.249  1.00  0.00     0.000 C 
HETATM   14  C13 UNL     1      -6.122  -0.831  -0.057  1.00  0.00     0.000 C 
HETATM   15  C14 UNL     1      -5.057  -1.396   0.833  1.00  0.00     0.002 C 
HETATM   16  C15 UNL     1      -3.831  -1.892   0.187  1.00  0.00     0.033 C 
HETATM   17  C16 UNL     1      -2.770  -0.959  -0.231  1.00  0.00     0.193 C 
BRANCH  17  18
HETATM   18  N5  UNL     1      -2.845  -0.710  -1.624  1.00  0.00    -0.074 N 
ATOM     19  H53 UNL     1      -3.539   0.015  -1.806  1.00  0.00     0.274 HD
ATOM     20  H52 UNL     1      -1.996  -0.237  -1.934  1.00  0.00     0.274 HD
ATOM     21  H51 UNL     1      -3.027  -1.516  -2.222  1.00  0.00     0.274 HD
ENDBRANCH  17  18
ENDBRANCH   7   9
ENDBRANCH   4   7
BRANCH   1  22
HETATM   22  C3  UNL     1       3.996   0.138  -1.855  1.00  0.00     0.239 C 
HETATM   23  N2  UNL     1       5.051  -0.608  -1.258  1.00  0.00    -0.237 N 
ATOM     24  H2  UNL     1       4.851  -1.472  -0.754  1.00  0.00     0.183 HD
HETATM   25  O3  UNL     1       4.283   1.207  -2.468  1.00  0.00    -0.272 OA
BRANCH  23  26
HETATM   26  S1  UNL     1       6.660  -0.037  -1.396  1.00  0.00     0.321 S 
HETATM   27  O1  UNL     1       6.713   1.166  -2.274  1.00  0.00    -0.182 OA
HETATM   28  O2  UNL     1       7.551  -1.136  -1.913  1.00  0.00    -0.182 OA
BRANCH  26  29
HETATM   29  N1  UNL     1       7.227   0.402   0.182  1.00  0.00    -0.303 N 
ATOM     30  H1  UNL     1       7.128   1.324   0.606  1.00  0.00     0.173 HD
BRANCH  29  31
HETATM   31  C2  UNL     1       7.864  -0.742   0.809  1.00  0.00     0.129 C 
HETATM   32  C1  UNL     1       8.337  -0.312   2.185  1.00  0.00     0.027 C 
ENDBRANCH  29  31
ENDBRANCH  26  29
ENDBRANCH  23  26
ENDBRANCH   1  22
TORSDOF 7
