REMARK  2 active torsions:
REMARK  status: ('A' for Active; 'I' for Inactive)
REMARK    1  A    between atoms: O1_2  and  C2_3 
REMARK    2  A    between atoms: C7_8  and  O2_9 
ROOT
HETATM    1  C2  UNL     1      -1.771   0.609  -0.376  1.00  0.00     0.102 A 
HETATM    2  C3  UNL     1      -0.571   1.255  -0.250  1.00  0.00     0.055 A 
HETATM    3  C4  UNL     1       0.512   0.579   0.326  1.00  0.00     0.023 A 
HETATM    4  C5  UNL     1       0.388  -0.720   0.765  1.00  0.00    -0.001 A 
HETATM    5  C6  UNL     1      -0.826  -1.362   0.633  1.00  0.00     0.051 A 
HETATM    6  C7  UNL     1      -1.916  -0.702   0.061  1.00  0.00     0.102 A 
HETATM    7  C9  UNL     1       1.584  -1.365   1.364  1.00  0.00     0.274 C 
HETATM    8  F1  UNL     1       1.739  -0.846   2.649  1.00  0.00    -0.236 F 
HETATM    9  C10 UNL     1       2.761  -0.935   0.576  1.00  0.00     0.176 C 
HETATM   10  O3  UNL     1       3.473  -1.786   0.067  1.00  0.00    -0.294 OA
HETATM   11  C11 UNL     1       3.037   0.512   0.430  1.00  0.00     0.129 C 
HETATM   12  C12 UNL     1       3.698   0.779  -0.926  1.00  0.00     0.026 C 
HETATM   13  C13 UNL     1       1.774   1.296   0.445  1.00  0.00     0.171 C 
HETATM   14  O4  UNL     1       1.787   2.561   0.558  1.00  0.00    -0.291 OA
ENDROOT
BRANCH   1  15
HETATM   15  O1  UNL     1      -2.852   1.232  -0.932  1.00  0.00    -0.353 OA
HETATM   16  C1  UNL     1      -2.897   2.533  -1.423  1.00  0.00     0.210 C 
ENDBRANCH   1  15
BRANCH   6  17
HETATM   17  O2  UNL     1      -3.154  -1.315  -0.089  1.00  0.00    -0.353 OA
HETATM   18  C8  UNL     1      -3.273  -2.651   0.366  1.00  0.00     0.210 C 
ENDBRANCH   6  17
TORSDOF 2
