REMARK  3 active torsions:
REMARK  status: ('A' for Active; 'I' for Inactive)
REMARK    1  A    between atoms: C2_2  and  O2_4 
REMARK    2  A    between atoms: O2_4  and  N1_5 
REMARK    3  A    between atoms: N1_5  and  C3_7 
ROOT
HETATM    1  C3  UNL     1      -0.247  -0.777  -0.232  1.00  0.00     0.068 C 
HETATM    2  C4  UNL     1       0.015  -2.029  -1.080  1.00  0.00     0.042 C 
HETATM    3  C5  UNL     1      -1.397  -1.117   0.677  1.00  0.00     0.035 C 
HETATM    4  C6  UNL     1      -1.694   0.069   1.525  1.00  0.00     0.020 C 
HETATM    5  C7  UNL     1      -2.090   1.227   0.701  1.00  0.00     0.116 C 
HETATM    6  C8  UNL     1      -3.373   1.078   0.006  1.00  0.00     0.266 C 
HETATM    7  O3  UNL     1      -4.519   0.717   0.363  1.00  0.00    -0.265 OA
HETATM    8  O4  UNL     1      -2.766   1.496  -1.157  1.00  0.00    -0.313 OA
HETATM    9  C9  UNL     1      -1.444   1.408  -0.595  1.00  0.00     0.166 C 
HETATM   10  C10 UNL     1      -0.629   0.320  -1.150  1.00  0.00     0.142 C 
HETATM   11 CL1  UNL     1       0.805   1.049  -1.959  1.00  0.00    -0.120 Cl
ENDROOT
BRANCH   1  12
HETATM   12  N1  UNL     1       0.911  -0.552   0.564  1.00  0.00    -0.282 N 
ATOM     13  H1  UNL     1       0.873  -0.546   1.583  1.00  0.00     0.189 HD
BRANCH  12  14
HETATM   14  O2  UNL     1       2.059  -0.347  -0.108  1.00  0.00    -0.204 OA
BRANCH  14  15
HETATM   15  C2  UNL     1       3.036   0.454   0.442  1.00  0.00     0.277 C 
HETATM   16  C1  UNL     1       4.339   0.738  -0.229  1.00  0.00     0.128 C 
HETATM   17  O1  UNL     1       2.841   0.983   1.565  1.00  0.00    -0.264 OA
ENDBRANCH  14  15
ENDBRANCH  12  14
ENDBRANCH   1  12
TORSDOF 3
