REMARK  4 active torsions:
REMARK  status: ('A' for Active; 'I' for Inactive)
REMARK    1  A    between atoms: C2_2  and  C4_4 
REMARK    2  A    between atoms: C2_2  and  O1_6 
REMARK    3  A    between atoms: O1_6  and  C5_7 
REMARK    4  A    between atoms: N2_9  and  O2_11 
ROOT
HETATM    1  O1  UNL     1       0.362  -1.216   0.253  1.00  0.00    -0.312 OA
ENDROOT
BRANCH   1   2
HETATM    2  C2  UNL     1      -0.584  -0.235   0.080  1.00  0.00     0.072 C 
HETATM    3  C1  UNL     1      -0.610   0.638   1.328  1.00  0.00     0.047 C 
HETATM    4  C3  UNL     1      -0.451   0.657  -1.092  1.00  0.00     0.047 C 
BRANCH   2   5
HETATM    5  C4  UNL     1      -1.929  -0.972  -0.069  1.00  0.00     0.123 C 
HETATM    6 BR1  UNL     1      -2.275  -2.094   1.451  1.00  0.00    -0.093 Br
ENDBRANCH   2   5
ENDBRANCH   1   2
BRANCH   1   7
HETATM    7  C5  UNL     1       1.689  -0.896   0.467  1.00  0.00     0.252 C 
HETATM    8  N1  UNL     1       2.593  -1.678   1.239  1.00  0.00    -0.054 NA
HETATM    9  N2  UNL     1       2.046   0.200  -0.106  1.00  0.00    -0.235 N 
ATOM     10  H2  UNL     1       1.379   0.744  -0.653  1.00  0.00     0.197 HD
BRANCH   9  11
HETATM   11  O2  UNL     1       3.347   0.620   0.037  1.00  0.00    -0.287 OA
ATOM     12  H2  UNL     1       3.610   1.429  -0.386  1.00  0.00     0.244 HD
ENDBRANCH   9  11
ENDBRANCH   1   7
TORSDOF 4
