REMARK  10 active torsions:
REMARK  status: ('A' for Active; 'I' for Inactive)
REMARK    1  A    between atoms: C2_2  and  C3_3 
REMARK    2  A    between atoms: C3_3  and  C5_5 
REMARK    3  A    between atoms: C5_5  and  N1_6 
REMARK    4  A    between atoms: C5_5  and  C6_10 
REMARK       I    between atoms: C6_10  and  N2_12 
REMARK    5  A    between atoms: N2_12  and  C7_14 
REMARK       I    between atoms: N3_18  and  C11_19 
REMARK       I    between atoms: C11_19  and  N4_21 
REMARK    6  A    between atoms: N4_21  and  C12_23 
REMARK    7  A    between atoms: C12_23  and  C13_24 
REMARK    8  A    between atoms: C12_23  and  C22_36 
REMARK       I    between atoms: C13_24  and  N5_26 
REMARK    9  A    between atoms: N5_26  and  C14_28 
REMARK   10  A    between atoms: C14_28  and  C15_29 
ROOT
HETATM    1  C7  UNL     1      -2.639  -2.710   1.732  1.00  0.00     0.102 C 
HETATM    2  C8  UNL     1      -2.783  -3.827   2.725  1.00  0.00     0.028 C 
HETATM    3  C9  UNL     1      -1.451  -4.410   3.083  1.00  0.00     0.022 C 
HETATM    4  C10 UNL     1      -0.618  -3.286   3.698  1.00  0.00     0.127 C 
HETATM    5  N3  UNL     1      -0.368  -2.356   2.579  1.00  0.00    -0.332 N 
HETATM    6  C11 UNL     1       0.946  -2.164   2.167  1.00  0.00     0.319 C 
HETATM    7  O2  UNL     1       1.922  -2.741   2.781  1.00  0.00    -0.247 OA
HETATM    8  N4  UNL     1       1.355  -1.349   1.069  1.00  0.00    -0.329 N 
ATOM      9  H4  UNL     1       0.663  -0.849   0.511  1.00  0.00     0.165 HD
HETATM   10  C27 UNL     1      -1.527  -1.736   2.028  1.00  0.00     0.152 C 
ENDROOT
BRANCH   8  11
HETATM   11  C12 UNL     1       2.762  -1.241   0.757  1.00  0.00     0.182 C 
BRANCH  11  12
HETATM   12  C13 UNL     1       3.113   0.169   0.507  1.00  0.00     0.244 C 
HETATM   13  O3  UNL     1       2.199   0.992   0.286  1.00  0.00    -0.271 OA
HETATM   14  N5  UNL     1       4.463   0.623   0.517  1.00  0.00    -0.335 N 
ATOM     15  H5  UNL     1       5.165  -0.091   0.711  1.00  0.00     0.168 HD
BRANCH  14  16
HETATM   16  C14 UNL     1       4.962   1.916   0.297  1.00  0.00     0.091 C 
BRANCH  16  17
HETATM   17  C15 UNL     1       4.788   2.520  -1.039  1.00  0.00     0.020 C 
HETATM   18  C16 UNL     1       4.143   3.580  -1.373  1.00  0.00    -0.079 C 
HETATM   19  C17 UNL     1       4.103   4.016  -2.822  1.00  0.00     0.034 C 
HETATM   20  C21 UNL     1       3.401   4.452  -0.446  1.00  0.00     0.034 C 
HETATM   21  C18 UNL     1       4.944   5.300  -2.841  1.00  0.00     0.004 C 
HETATM   22  C19 UNL     1       5.248   5.804  -1.456  1.00  0.00     0.001 C 
HETATM   23  C20 UNL     1       4.036   5.827  -0.546  1.00  0.00     0.004 C 
ENDBRANCH  16  17
ENDBRANCH  14  16
ENDBRANCH  11  12
BRANCH  11  24
HETATM   24  C22 UNL     1       2.973  -2.007  -0.534  1.00  0.00     0.018 C 
HETATM   25  C23 UNL     1       2.205  -1.502  -1.700  1.00  0.00     0.007 C 
HETATM   26  C24 UNL     1       2.178  -2.705  -2.649  1.00  0.00     0.000 C 
HETATM   27  C25 UNL     1       2.528  -3.904  -1.836  1.00  0.00     0.000 C 
HETATM   28  C26 UNL     1       2.437  -3.434  -0.403  1.00  0.00     0.007 C 
ENDBRANCH  11  24
ENDBRANCH   8  11
BRANCH   1  29
HETATM   29  N2  UNL     1      -3.922  -1.983   1.676  1.00  0.00    -0.353 N 
HETATM   30  C6  UNL     1      -4.586  -1.755   0.467  1.00  0.00     0.249 C 
HETATM   31  O1  UNL     1      -4.033  -2.194  -0.584  1.00  0.00    -0.271 OA
ATOM     32  H2  UNL     1      -4.335  -1.638   2.542  1.00  0.00     0.163 HD
BRANCH  30  33
HETATM   33  C5  UNL     1      -5.877  -1.045   0.355  1.00  0.00     0.278 C 
BRANCH  33  34
HETATM   34  C3  UNL     1      -5.765   0.210  -0.497  1.00  0.00     0.021 C 
HETATM   35  C4  UNL     1      -4.837   1.217   0.148  1.00  0.00     0.012 C 
BRANCH  34  36
HETATM   36  C2  UNL     1      -7.165   0.782  -0.656  1.00  0.00     0.002 C 
HETATM   37  C1  UNL     1      -7.208   2.010  -1.500  1.00  0.00     0.005 C 
ENDBRANCH  34  36
ENDBRANCH  33  34
BRANCH  33  38
HETATM   38  N1  UNL     1      -6.421  -0.751   1.655  1.00  0.00    -0.066 N 
ATOM     39  H13 UNL     1      -5.885  -0.024   2.129  1.00  0.00     0.275 HD
ATOM     40  H12 UNL     1      -7.316  -0.266   1.585  1.00  0.00     0.275 HD
ATOM     41  H11 UNL     1      -6.496  -1.593   2.226  1.00  0.00     0.275 HD
ENDBRANCH  33  38
ENDBRANCH  30  33
ENDBRANCH   1  29
TORSDOF 10
