REMARK  7 active torsions:
REMARK  status: ('A' for Active; 'I' for Inactive)
REMARK    1  A    between atoms: C1_2  and  C2_4 
REMARK    2  A    between atoms: C2_4  and  N1_5 
REMARK    3  A    between atoms: N1_5  and  C3_6 
REMARK    4  A    between atoms: C3_6  and  C4_7 
REMARK    5  A    between atoms: C4_7  and  C5_8 
REMARK    6  A    between atoms: N2_9  and  C6_11 
REMARK    7  A    between atoms: C6_11  and  O3_12 
ROOT
HETATM    1  N1  UNL     1      -1.064  -0.588  -0.276  1.00  0.00    -0.057 N 
HETATM    2  C7  UNL     1      -1.470  -0.944   1.050  1.00  0.00     0.239 C 
HETATM    3  C8  UNL     1      -0.977  -2.364   0.829  1.00  0.00     0.056 C 
HETATM    4  C9  UNL     1      -1.241  -2.009  -0.629  1.00  0.00     0.239 C 
ENDROOT
BRANCH   1   5
HETATM    5  C2  UNL     1      -1.992   0.200  -1.036  1.00  0.00     0.349 C 
BRANCH   5   6
HETATM    6  C1  UNL     1      -2.632   1.269  -0.230  1.00  0.00     0.199 C 
HETATM    7  O1  UNL     1      -3.473   2.050  -0.742  1.00  0.00    -0.647 OA
HETATM    8  O2  UNL     1      -2.346   1.467   1.111  1.00  0.00    -0.647 OA
ENDBRANCH   5   6
ENDBRANCH   1   5
BRANCH   1   9
HETATM    9  C3  UNL     1       0.315  -0.253  -0.439  1.00  0.00     0.243 C 
BRANCH   9  10
HETATM   10  C4  UNL     1       0.668   1.130   0.052  1.00  0.00     0.072 C 
BRANCH  10  11
HETATM   11  C5  UNL     1       2.138   1.349  -0.179  1.00  0.00     0.059 C 
HETATM   12  N2  UNL     1       2.990   0.622   0.411  1.00  0.00    -0.382 N 
ATOM     13  H2  UNL     1       2.664  -0.110   1.042  1.00  0.00     0.160 HD
BRANCH  12  14
HETATM   14  C6  UNL     1       4.395   0.797   0.219  1.00  0.00     0.286 C 
BRANCH  14  15
HETATM   15  O3  UNL     1       5.055   0.587   1.428  1.00  0.00    -0.382 OA
ATOM     16  H3  UNL     1       5.989   0.703   1.300  1.00  0.00     0.211 HD
ENDBRANCH  14  15
ENDBRANCH  12  14
ENDBRANCH  10  11
ENDBRANCH   9  10
ENDBRANCH   1   9
TORSDOF 7
