REMARK  14 active torsions:
REMARK  status: ('A' for Active; 'I' for Inactive)
REMARK    1  A    between atoms: C2_2  and  C3_7 
REMARK    2  A    between atoms: N1_3  and  O1_5 
REMARK    3  A    between atoms: C3_7  and  O2_8 
REMARK    4  A    between atoms: C3_7  and  C4_10 
REMARK    5  A    between atoms: C4_10  and  N2_13 
REMARK    6  A    between atoms: N2_13  and  C5_16 
REMARK    7  A    between atoms: C10_21  and  C11_22 
REMARK    8  A    between atoms: N3_24  and  C13_25 
REMARK    9  A    between atoms: C13_25  and  C14_26 
REMARK   10  A    between atoms: C15_27  and  C16_28 
REMARK   11  A    between atoms: C16_28  and  O3_29 
REMARK   12  A    between atoms: C17_33  and  O4_34 
REMARK   13  A    between atoms: O4_34  and  C18_35 
REMARK   14  A    between atoms: C18_35  and  C19_37 
ROOT
HETATM    1  C5  UNL     1       1.911  -0.041   0.325  1.00  0.00     0.194 C 
HETATM    2  C6  UNL     1       1.270  -1.020   1.283  1.00  0.00     0.039 C 
HETATM    3  C7  UNL     1       0.063  -1.608   0.564  1.00  0.00     0.001 C 
HETATM    4  C8  UNL     1       0.462  -2.963  -0.013  1.00  0.00     0.007 C 
HETATM    5  C9  UNL     1      -0.047  -2.481  -1.336  1.00  0.00     0.015 C 
HETATM    6  C10 UNL     1       0.061  -1.064  -0.812  1.00  0.00    -0.002 C 
HETATM    7  C23 UNL     1       1.439  -0.532  -1.024  1.00  0.00     0.048 C 
ENDROOT
BRANCH   6   8
HETATM    8  C11 UNL     1      -1.039  -0.174  -1.228  1.00  0.00     0.021 A 
HETATM    9  C12 UNL     1      -0.907   1.140  -1.643  1.00  0.00     0.122 A 
HETATM   10  N3  UNL     1      -2.119   1.645  -1.941  1.00  0.00    -0.297 N 
HETATM   11  N4  UNL     1      -3.000   0.689  -1.726  1.00  0.00    -0.277 N 
HETATM   12  C17 UNL     1      -2.381  -0.446  -1.287  1.00  0.00     0.174 A 
ATOM     13  H4  UNL     1      -4.006   0.784  -1.868  1.00  0.00     0.189 HD
BRANCH  10  14
HETATM   14  C13 UNL     1      -2.397   3.011  -2.418  1.00  0.00     0.175 C 
BRANCH  14  15
HETATM   15  C14 UNL     1      -2.643   3.944  -1.315  1.00  0.00    -0.007 C 
HETATM   16  C15 UNL     1      -1.875   4.995  -1.148  1.00  0.00    -0.004 C 
BRANCH  16  17
HETATM   17  C16 UNL     1      -2.154   5.920  -0.017  1.00  0.00     0.191 C 
BRANCH  17  18
HETATM   18  O3  UNL     1      -1.048   5.979   0.829  1.00  0.00    -0.397 OA
ATOM     19  H3  UNL     1      -1.226   6.570   1.551  1.00  0.00     0.209 HD
ENDBRANCH  17  18
ENDBRANCH  16  17
ENDBRANCH  14  15
ENDBRANCH  10  14
BRANCH  12  20
HETATM   20  O4  UNL     1      -3.059  -1.601  -0.985  1.00  0.00    -0.259 OA
BRANCH  20  21
HETATM   21  C18 UNL     1      -3.754  -1.884   0.156  1.00  0.00     0.273 C 
HETATM   22  O5  UNL     1      -3.800  -1.018   1.048  1.00  0.00    -0.264 OA
BRANCH  21  23
HETATM   23  C19 UNL     1      -4.442  -3.169   0.359  1.00  0.00     0.037 C 
HETATM   24  C20 UNL     1      -5.131  -3.220   1.704  1.00  0.00     0.025 C 
HETATM   25  C21 UNL     1      -3.453  -4.331   0.299  1.00  0.00     0.025 C 
HETATM   26  C22 UNL     1      -5.486  -3.440  -0.700  1.00  0.00     0.025 C 
ENDBRANCH  21  23
ENDBRANCH  20  21
ENDBRANCH  12  20
ENDBRANCH   6   8
BRANCH   1  27
HETATM   27  N2  UNL     1       3.323  -0.048   0.506  1.00  0.00    -0.002 N 
ATOM     28  H22 UNL     1       3.690  -0.993   0.392  1.00  0.00     0.284 HD
ATOM     29  H21 UNL     1       3.555   0.114   1.486  1.00  0.00     0.284 HD
BRANCH  27  30
HETATM   30  C4  UNL     1       4.034   0.863  -0.328  1.00  0.00     0.435 C 
HETATM   31  F1  UNL     1       3.601   2.143  -0.118  1.00  0.00    -0.172 F 
HETATM   32  F2  UNL     1       3.925   0.599  -1.681  1.00  0.00    -0.172 F 
BRANCH  30  33
HETATM   33  C3  UNL     1       5.514   0.818  -0.014  1.00  0.00     0.267 C 
BRANCH  33  34
HETATM   34  C2  UNL     1       5.805   1.008   1.418  1.00  0.00     0.042 C 
HETATM   35  C1  UNL     1       7.206   0.987   1.859  1.00  0.00     0.068 C 
HETATM   36  N1  UNL     1       4.871   1.188   2.273  1.00  0.00    -0.275 N 
ATOM     37  H1  UNL     1       3.897   1.203   1.971  1.00  0.00     0.193 HD
BRANCH  36  38
HETATM   38  O1  UNL     1       5.183   1.360   3.595  1.00  0.00    -0.290 OA
ATOM     39  H1  UNL     1       4.489   1.494   4.230  1.00  0.00     0.244 HD
ENDBRANCH  36  38
ENDBRANCH  33  34
BRANCH  33  40
HETATM   40  O2  UNL     1       6.202   1.711  -0.833  1.00  0.00    -0.382 OA
ATOM     41  H2  UNL     1       6.014   1.589  -1.756  1.00  0.00     0.210 HD
ENDBRANCH  33  40
ENDBRANCH  30  33
ENDBRANCH  27  30
ENDBRANCH   1  27
TORSDOF 14
