REMARK  4 active torsions:
REMARK  status: ('A' for Active; 'I' for Inactive)
REMARK       I    between atoms: C2_2  and  N1_4 
REMARK    1  A    between atoms: N1_4  and  C3_6 
REMARK    2  A    between atoms: C5_13  and  C6_14 
REMARK       I    between atoms: C6_14  and  N4_16 
REMARK    3  A    between atoms: N4_16  and  C7_18 
REMARK    4  A    between atoms: C7_18  and  C10_21 
ROOT
HETATM    1  C3  UNL     1       2.372   0.098  -0.845  1.00  0.00     0.144 A 
HETATM    2  N2  UNL     1       3.104   0.712  -1.816  1.00  0.00    -0.292 N 
ATOM      3  H2  UNL     1       4.109   0.626  -1.965  1.00  0.00     0.172 HD
HETATM    4  C4  UNL     1       2.253   1.447  -2.534  1.00  0.00     0.326 A 
HETATM    5  O2  UNL     1       2.582   2.159  -3.527  1.00  0.00    -0.247 OA
HETATM    6  N3  UNL     1       1.017   1.309  -2.041  1.00  0.00    -0.301 N 
ATOM      7  H3  UNL     1       0.185   1.767  -2.412  1.00  0.00     0.171 HD
HETATM    8  C5  UNL     1       1.034   0.477  -0.985  1.00  0.00     0.149 A 
ENDROOT
BRANCH   8   9
HETATM    9  C6  UNL     1      -0.143   0.113  -0.217  1.00  0.00     0.273 C 
HETATM   10  O3  UNL     1      -0.089  -0.657   0.750  1.00  0.00    -0.266 OA
HETATM   11  N4  UNL     1      -1.443   0.643  -0.559  1.00  0.00    -0.339 N 
ATOM     12  H4  UNL     1      -1.527   1.278  -1.353  1.00  0.00     0.164 HD
BRANCH  11  13
HETATM   13  C7  UNL     1      -2.619   0.300   0.188  1.00  0.00     0.104 C 
HETATM   14  C8  UNL     1      -3.811   0.990  -0.473  1.00  0.00     0.048 C 
HETATM   15  C9  UNL     1      -2.916  -1.178   0.192  1.00  0.00     0.048 C 
BRANCH  13  16
HETATM   16  C10 UNL     1      -2.518   0.859   1.552  1.00  0.00     0.258 C 
HETATM   17  N5  UNL     1      -3.544   0.636   2.501  1.00  0.00    -0.060 NA
HETATM   18  O4  UNL     1      -1.521   1.533   1.867  1.00  0.00    -0.274 OA
ENDBRANCH  13  16
ENDBRANCH  11  13
ENDBRANCH   8   9
BRANCH   1  19
HETATM   19  N1  UNL     1       2.834  -0.774   0.149  1.00  0.00    -0.311 N 
HETATM   20  C2  UNL     1       4.173  -1.169   0.308  1.00  0.00     0.219 C 
HETATM   21  C1  UNL     1       4.562  -2.120   1.420  1.00  0.00     0.117 C 
HETATM   22  O1  UNL     1       5.115  -0.796  -0.410  1.00  0.00    -0.274 OA
ATOM     23  H1  UNL     1       2.149  -1.149   0.805  1.00  0.00     0.170 HD
ENDBRANCH   1  19
TORSDOF 4
