REMARK  6 active torsions:
REMARK  status: ('A' for Active; 'I' for Inactive)
REMARK    1  A    between atoms: C2_2  and  C3_3 
REMARK    2  A    between atoms: C3_3  and  N1_5 
REMARK    3  A    between atoms: C8_9  and  O1_10 
REMARK    4  A    between atoms: C9_12  and  C10_13 
REMARK    5  A    between atoms: C10_13  and  O3_15 
REMARK    6  A    between atoms: O3_15  and  C11_16 
ROOT
HETATM    1  N1  UNL     1       4.768  -0.529  -0.178  1.00  0.00    -0.351 N 
HETATM    2  C5  UNL     1       5.126  -1.375  -1.198  1.00  0.00     0.092 A 
HETATM    3  C6  UNL     1       4.026  -1.873  -1.821  1.00  0.00     0.034 A 
HETATM    4  C7  UNL     1       2.942  -1.329  -1.180  1.00  0.00     0.027 A 
HETATM    5  C8  UNL     1       1.589  -1.467  -1.371  1.00  0.00     0.096 A 
HETATM    6  C9  UNL     1       0.707  -0.788  -0.563  1.00  0.00     0.094 A 
HETATM    7  C20 UNL     1       1.193   0.025   0.432  1.00  0.00     0.071 A 
HETATM    8  C21 UNL     1       0.296   0.757   1.305  1.00  0.00     0.101 C 
HETATM    9  N3  UNL     1      -0.410   1.357   2.022  1.00  0.00    -0.191 NA
HETATM   10  C22 UNL     1       2.567   0.187   0.653  1.00  0.00    -0.012 A 
HETATM   11  C23 UNL     1       3.074   1.062   1.722  1.00  0.00     0.052 C 
HETATM   12  C24 UNL     1       3.433  -0.497  -0.162  1.00  0.00     0.055 A 
ENDROOT
BRANCH   6  13
HETATM   13  C10 UNL     1      -0.710  -0.957  -0.793  1.00  0.00     0.298 C 
HETATM   14  O2  UNL     1      -1.130  -1.719  -1.723  1.00  0.00    -0.259 OA
BRANCH  13  15
HETATM   15  O3  UNL     1      -1.658  -0.331  -0.050  1.00  0.00    -0.312 OA
BRANCH  15  16
HETATM   16  C11 UNL     1      -3.067  -0.473  -0.247  1.00  0.00     0.137 C 
HETATM   17  C12 UNL     1      -3.641   0.850  -0.752  1.00  0.00     0.062 C 
HETATM   18  C13 UNL     1      -5.149   0.592  -0.838  1.00  0.00     0.021 C 
HETATM   19  C14 UNL     1      -5.742   1.792  -1.551  1.00  0.00     0.037 C 
HETATM   20  C15 UNL     1      -5.447  -0.640  -1.658  1.00  0.00     0.037 C 
HETATM   21  N2  UNL     1      -5.647   0.545   0.483  1.00  0.00    -0.405 N 
HETATM   22  C16 UNL     1      -4.941  -0.223   1.425  1.00  0.00     0.021 C 
ATOM     23  H2  UNL     1      -6.492   1.052   0.745  1.00  0.00     0.154 HD
HETATM   24  C17 UNL     1      -5.940  -1.179   2.097  1.00  0.00     0.037 C 
HETATM   25  C18 UNL     1      -4.494   0.717   2.544  1.00  0.00     0.037 C 
HETATM   26  C19 UNL     1      -3.759  -0.981   0.959  1.00  0.00     0.062 C 
ENDBRANCH  15  16
ENDBRANCH  13  15
ENDBRANCH   6  13
BRANCH   5  27
HETATM   27  O1  UNL     1       1.125  -2.289  -2.376  1.00  0.00    -0.359 OA
ATOM     28  H1  UNL     1       0.189  -2.384  -2.508  1.00  0.00     0.217 HD
ENDBRANCH   5  27
BRANCH   1  29
HETATM   29  C3  UNL     1       5.760   0.107   0.608  1.00  0.00     0.085 C 
HETATM   30  C4  UNL     1       7.041  -0.779   0.636  1.00  0.00     0.033 C 
BRANCH  29  31
HETATM   31  C2  UNL     1       6.260   1.316  -0.222  1.00  0.00     0.021 C 
HETATM   32  C1  UNL     1       7.416   1.989   0.439  1.00  0.00     0.007 C 
ENDBRANCH  29  31
ENDBRANCH   1  29
TORSDOF 6
