REMARK  12 active torsions:
REMARK  status: ('A' for Active; 'I' for Inactive)
REMARK    1  A    between atoms: C2_2  and  O1_3 
REMARK    2  A    between atoms: O1_3  and  C3_4 
REMARK    3  A    between atoms: C3_4  and  C4_5 
REMARK    4  A    between atoms: C4_5  and  O2_6 
REMARK    5  A    between atoms: O2_6  and  C5_7 
REMARK    6  A    between atoms: C5_7  and  C6_9 
REMARK    7  A    between atoms: C7_11  and  C8_12 
REMARK    8  A    between atoms: C8_12  and  C10_14 
REMARK    9  A    between atoms: C10_14  and  C11_15 
REMARK   10  A    between atoms: C11_15  and  C12_16 
REMARK   11  A    between atoms: C12_16  and  C13_17 
REMARK   12  A    between atoms: C24_30  and  O7_31 
ROOT
HETATM    1  C6  UNL     1      -0.927   0.837  -0.419  1.00  0.00     0.185 C 
HETATM    2  O4  UNL     1       0.300   0.837   0.117  1.00  0.00    -0.327 OA
HETATM    3  C7  UNL     1       1.454   0.983  -0.476  1.00  0.00     0.198 A 
HETATM    4  O5  UNL     1       1.614   2.341  -1.065  1.00  0.00    -0.339 OA
HETATM    5  C16 UNL     1       1.748   1.095  -1.790  1.00  0.00     0.211 A 
HETATM    6  C17 UNL     1       0.791   0.932  -2.936  1.00  0.00     0.205 C 
HETATM    7  O6  UNL     1      -0.459   0.485  -2.649  1.00  0.00    -0.380 OA
HETATM    8  C18 UNL     1      -1.069   1.407  -1.804  1.00  0.00     0.167 C 
HETATM    9  C19 UNL     1      -2.454   1.748  -2.220  1.00  0.00     0.036 C 
HETATM   10  C20 UNL     1      -2.930   2.886  -1.326  1.00  0.00     0.009 C 
HETATM   11  C21 UNL     1      -2.056   3.055  -0.124  1.00  0.00     0.003 C 
HETATM   12  C22 UNL     1      -2.733   3.889   0.935  1.00  0.00     0.015 C 
HETATM   13  C23 UNL     1      -2.972   5.289   0.400  1.00  0.00     0.013 C 
HETATM   14  C24 UNL     1      -3.979   3.311   1.501  1.00  0.00     0.122 C 
HETATM   15  C25 UNL     1      -3.911   1.866   1.799  1.00  0.00     0.033 C 
HETATM   16  C26 UNL     1      -3.098   1.050   0.835  1.00  0.00     0.016 C 
HETATM   17  C27 UNL     1      -1.799   1.683   0.482  1.00  0.00     0.004 C 
HETATM   18  C28 UNL     1      -1.072   1.970   1.805  1.00  0.00     0.019 C 
ENDROOT
BRANCH   1  19
HETATM   19  C5  UNL     1      -1.405  -0.601  -0.490  1.00  0.00     0.297 C 
HETATM   20  O3  UNL     1      -2.511  -0.891  -1.006  1.00  0.00    -0.262 OA
BRANCH  19  21
HETATM   21  O2  UNL     1      -0.713  -1.645  -0.023  1.00  0.00    -0.317 OA
BRANCH  21  22
HETATM   22  C4  UNL     1      -0.785  -2.979   0.094  1.00  0.00     0.205 C 
BRANCH  22  23
HETATM   23  C3  UNL     1      -0.869  -3.888  -1.063  1.00  0.00     0.194 C 
BRANCH  23  24
HETATM   24  O1  UNL     1      -1.908  -3.847  -1.918  1.00  0.00    -0.389 OA
BRANCH  24  25
HETATM   25  C2  UNL     1      -3.142  -4.233  -1.396  1.00  0.00     0.163 C 
HETATM   26  C1  UNL     1      -3.146  -5.646  -0.882  1.00  0.00     0.033 C 
ENDBRANCH  24  25
ENDBRANCH  23  24
ENDBRANCH  22  23
ENDBRANCH  21  22
ENDBRANCH  19  21
ENDBRANCH   1  19
BRANCH   3  27
HETATM   27  C8  UNL     1       2.647   0.769   0.515  1.00  0.00     0.047 C 
HETATM   28  C9  UNL     1       3.939   0.978  -0.207  1.00  0.00     0.015 C 
BRANCH  27  29
HETATM   29  C10 UNL     1       2.508  -0.601   1.047  1.00  0.00     0.010 C 
BRANCH  29  30
HETATM   30  C11 UNL     1       3.457  -1.144   2.020  1.00  0.00     0.001 C 
BRANCH  30  31
HETATM   31  C12 UNL     1       4.874  -1.357   1.685  1.00  0.00     0.004 C 
BRANCH  31  32
HETATM   32  C13 UNL     1       5.123  -2.327   0.543  1.00  0.00    -0.023 C 
HETATM   33  C14 UNL     1       4.549  -3.694   0.908  1.00  0.00     0.009 C 
HETATM   34  C15 UNL     1       6.622  -2.392   0.339  1.00  0.00     0.009 C 
ENDBRANCH  31  32
ENDBRANCH  30  31
ENDBRANCH  29  30
ENDBRANCH  27  29
ENDBRANCH   3  27
BRANCH  14  35
HETATM   35  O7  UNL     1      -4.199   3.973   2.737  1.00  0.00    -0.395 OA
ATOM     36  H7  UNL     1      -4.996   3.603   3.099  1.00  0.00     0.210 HD
ENDBRANCH  14  35
TORSDOF 12
