REMARK  7 active torsions:
REMARK  status: ('A' for Active; 'I' for Inactive)
REMARK       I    between atoms: C1_4  and  N2_5 
REMARK       I    between atoms: C1_4  and  N4_10 
REMARK    1  A    between atoms: N2_5  and  N3_7 
REMARK    2  A    between atoms: N4_10  and  N5_12 
REMARK       I    between atoms: N5_12  and  C2_14 
REMARK       I    between atoms: C2_14  and  N6_16 
REMARK    3  A    between atoms: N6_16  and  C3_18 
REMARK    4  A    between atoms: N9_28  and  C7_29 
REMARK    5  A    between atoms: C7_29  and  O4_30 
REMARK    6  A    between atoms: O4_30  and  C8_31 
REMARK    7  A    between atoms: C8_31  and  O5_32 
ROOT
HETATM    1  C3  UNL     1      -0.004  -0.219  -0.746  1.00  0.00     0.691 A 
HETATM    2  N7  UNL     1       0.655   0.812  -0.209  1.00  0.00    -0.154 N 
ATOM      3  H7  UNL     1       1.674   0.809  -0.173  1.00  0.00     0.187 HD
HETATM    4  C4  UNL     1      -0.043   1.860   0.287  1.00  0.00     0.290 A 
HETATM    5  O2  UNL     1       0.598   2.815   0.787  1.00  0.00    -0.265 OA
HETATM    6  C5  UNL     1      -1.418   1.883   0.248  1.00  0.00     0.151 A 
HETATM    7  N8  UNL     1      -2.373   2.745   0.633  1.00  0.00    -0.300 N 
ATOM      8  H8  UNL     1      -2.198   3.642   1.085  1.00  0.00     0.171 HD
HETATM    9  C6  UNL     1      -3.601   2.257   0.337  1.00  0.00     0.330 A 
HETATM   10  O3  UNL     1      -4.708   2.801   0.556  1.00  0.00    -0.246 OA
HETATM   11  N9  UNL     1      -3.419   1.061  -0.246  1.00  0.00    -0.260 N 
HETATM   12  C9  UNL     1      -2.087   0.817  -0.308  1.00  0.00     0.161 A 
HETATM   13  N10 UNL     1      -1.373  -0.219  -0.797  1.00  0.00    -0.173 N 
ATOM     14  H10 UNL     1      -1.860  -1.014  -1.211  1.00  0.00     0.186 HD
ENDROOT
BRANCH   1  15
HETATM   15  N6  UNL     1       0.627  -1.234  -1.221  1.00  0.00    -0.140 N 
HETATM   16  C2  UNL     1       2.043  -1.266  -1.175  1.00  0.00     0.353 C 
HETATM   17  N5  UNL     1       2.677  -1.540   0.057  1.00  0.00    -0.237 N 
HETATM   18  O1  UNL     1       2.678  -1.048  -2.240  1.00  0.00    -0.245 OA
ATOM     19  H5  UNL     1       2.102  -1.704   0.883  1.00  0.00     0.192 HD
ATOM     20  H6  UNL     1       0.110  -2.013  -1.629  1.00  0.00     0.189 HD
BRANCH  17  21
HETATM   21  N4  UNL     1       4.053  -1.593   0.177  1.00  0.00    -0.127 N 
HETATM   22  C1  UNL     1       4.722  -0.497   0.805  1.00  0.00     0.704 C 
HETATM   23  N1  UNL     1       4.704  -0.262   2.059  1.00  0.00    -0.232 N 
HETATM   24  N2  UNL     1       5.448   0.369  -0.047  1.00  0.00    -0.138 N 
ATOM     25  H12 UNL     1       5.181   0.520   2.507  1.00  0.00     0.174 HD
ATOM     26  H11 UNL     1       4.181  -0.886   2.673  1.00  0.00     0.174 HD
ATOM     27  H2  UNL     1       5.245   1.368  -0.092  1.00  0.00     0.205 HD
ATOM     28  H4  UNL     1       4.578  -2.394  -0.174  1.00  0.00     0.206 HD
BRANCH  24  29
HETATM   29  N3  UNL     1       6.458  -0.211  -0.825  1.00  0.00    -0.331 N 
ATOM     30  H32 UNL     1       6.649  -1.211  -0.769  1.00  0.00     0.177 HD
ATOM     31  H31 UNL     1       6.981   0.413  -1.439  1.00  0.00     0.177 HD
ENDBRANCH  24  29
ENDBRANCH  17  21
ENDBRANCH   1  15
BRANCH  11  32
HETATM   32  C7  UNL     1      -4.413   0.157  -0.752  1.00  0.00     0.307 C 
BRANCH  32  33
HETATM   33  O4  UNL     1      -4.900  -0.722   0.215  1.00  0.00    -0.348 OA
BRANCH  33  34
HETATM   34  C8  UNL     1      -5.823  -1.602  -0.317  1.00  0.00     0.336 C 
BRANCH  34  35
HETATM   35  O5  UNL     1      -5.292  -2.401  -1.329  1.00  0.00    -0.377 OA
ATOM     36  H5  UNL     1      -5.927  -3.006  -1.695  1.00  0.00     0.212 HD
ENDBRANCH  34  35
ENDBRANCH  33  34
ENDBRANCH  32  33
ENDBRANCH  11  32
TORSDOF 7
