REMARK  4 active torsions:
REMARK  status: ('A' for Active; 'I' for Inactive)
REMARK    1  A    between atoms: C2_3  and  C3_4 
REMARK    2  A    between atoms: C10_11  and  O1_12 
REMARK    3  A    between atoms: C14_17  and  C15_18 
REMARK    4  A    between atoms: C15_18  and  O2_21 
ROOT
HETATM    1  C1  UNL     1       0.012  -1.636   1.116  1.00  0.00     0.314 C 
HETATM    2  N1  UNL     1      -0.335  -0.357   0.588  1.00  0.00     0.118 N 
HETATM    3  C2  UNL     1      -1.591  -0.349  -0.148  1.00  0.00     0.232 C 
HETATM    4  C9  UNL     1      -1.540  -1.265  -1.337  1.00  0.00     0.068 C 
HETATM    5  C10 UNL     1      -0.448  -0.785  -2.278  1.00  0.00     0.128 C 
HETATM    6  C11 UNL     1       0.836  -0.713  -1.530  1.00  0.00     0.074 C 
HETATM    7  C12 UNL     1       1.938  -0.106  -2.375  1.00  0.00     0.014 C 
HETATM    8  C13 UNL     1       3.210  -0.164  -1.564  1.00  0.00     0.036 C 
HETATM    9  C14 UNL     1       2.945   0.548  -0.262  1.00  0.00     0.158 C 
HETATM   10  O3  UNL     1       1.916  -0.022   0.445  1.00  0.00    -0.348 OA
HETATM   11  C18 UNL     1       0.711   0.120  -0.265  1.00  0.00     0.365 C 
ENDROOT
BRANCH   3  12
HETATM   12  C3  UNL     1      -2.739  -0.737   0.744  1.00  0.00     0.019 C 
HETATM   13  C4  UNL     1      -2.856   0.198   1.937  1.00  0.00     0.007 C 
HETATM   14  C5  UNL     1      -4.114   1.027   1.860  1.00  0.00     0.000 C 
HETATM   15  C6  UNL     1      -4.127   1.745   0.530  1.00  0.00     0.000 C 
HETATM   16  C7  UNL     1      -4.316   0.692  -0.557  1.00  0.00     0.000 C 
HETATM   17  C8  UNL     1      -4.037  -0.693  -0.014  1.00  0.00     0.007 C 
ENDBRANCH   3  12
BRANCH   5  18
HETATM   18  O1  UNL     1      -0.799   0.415  -2.889  1.00  0.00    -0.395 OA
ATOM     19  H1  UNL     1      -0.116   0.715  -3.477  1.00  0.00     0.210 HD
ENDBRANCH   5  18
BRANCH   9  20
HETATM   20  C15 UNL     1       4.185   0.683   0.591  1.00  0.00     0.076 C 
HETATM   21  C16 UNL     1       3.780   1.523   1.806  1.00  0.00     0.048 C 
HETATM   22  C17 UNL     1       4.526  -0.691   1.125  1.00  0.00     0.048 C 
BRANCH  20  23
HETATM   23  O2  UNL     1       5.231   1.252  -0.095  1.00  0.00    -0.388 OA
ATOM     24  H2  UNL     1       6.011   1.337   0.441  1.00  0.00     0.210 HD
ENDBRANCH  20  23
ENDBRANCH   9  20
TORSDOF 4
