REMARK  12 active torsions:
REMARK  status: ('A' for Active; 'I' for Inactive)
REMARK    1  A    between atoms: C2_2  and  C3_3 
REMARK    2  A    between atoms: C3_3  and  C4_4 
REMARK    3  A    between atoms: C4_4  and  C5_5 
REMARK    4  A    between atoms: C5_5  and  O1_6 
REMARK    5  A    between atoms: O1_6  and  C6_7 
REMARK    6  A    between atoms: C13_16  and  C14_17 
REMARK    7  A    between atoms: C14_17  and  C16_19 
REMARK    8  A    between atoms: C16_19  and  O2_20 
REMARK    9  A    between atoms: C16_19  and  C17_22 
REMARK   10  A    between atoms: C17_22  and  C18_23 
REMARK   11  A    between atoms: C18_23  and  C19_24 
REMARK   12  A    between atoms: C19_24  and  O3_27 
ROOT
HETATM    1  C6  UNL     1       3.879  -0.062   0.628  1.00  0.00     0.113 C 
HETATM    2  N1  UNL     1       4.254  -1.308   0.528  1.00  0.00    -0.374 N 
ATOM      3  H1  UNL     1       4.907  -1.711   1.200  1.00  0.00     0.161 HD
HETATM    4  C7  UNL     1       3.732  -2.091  -0.537  1.00  0.00     0.126 C 
HETATM    5  C8  UNL     1       2.274  -1.796  -0.812  1.00  0.00     0.008 C 
HETATM    6  C9  UNL     1       1.442  -2.272   0.319  1.00  0.00     0.007 C 
HETATM    7  C10 UNL     1      -0.024  -1.971   0.004  1.00  0.00     0.010 C 
HETATM    8  C11 UNL     1      -0.212  -0.516  -0.052  1.00  0.00    -0.036 C 
HETATM    9  C12 UNL     1       0.017   0.113   1.315  1.00  0.00     0.016 C 
HETATM   10  C13 UNL     1      -1.521   0.032  -0.539  1.00  0.00     0.000 C 
HETATM   11  C22 UNL     1      -1.522  -0.313  -1.998  1.00  0.00     0.006 C 
HETATM   12  C23 UNL     1      -0.047  -0.285  -2.381  1.00  0.00     0.006 C 
HETATM   13  C24 UNL     1       0.694   0.117  -1.097  1.00  0.00    -0.001 C 
HETATM   14  C25 UNL     1       2.099  -0.330  -1.106  1.00  0.00     0.003 C 
HETATM   15  C26 UNL     1       2.951   0.586  -0.284  1.00  0.00     0.089 C 
ENDROOT
BRANCH  10  16
HETATM   16  C14 UNL     1      -2.748  -0.296   0.213  1.00  0.00     0.015 C 
HETATM   17  C15 UNL     1      -3.132  -1.746   0.281  1.00  0.00     0.013 C 
BRANCH  16  18
HETATM   18  C16 UNL     1      -3.883   0.559  -0.298  1.00  0.00     0.122 C 
BRANCH  18  19
HETATM   19  O2  UNL     1      -4.169   0.342  -1.636  1.00  0.00    -0.395 OA
ATOM     20  H2  UNL     1      -4.883   0.880  -1.957  1.00  0.00     0.210 HD
ENDBRANCH  18  19
BRANCH  18  21
HETATM   21  C17 UNL     1      -5.134   0.499   0.503  1.00  0.00     0.035 C 
BRANCH  21  22
HETATM   22  C18 UNL     1      -6.125   1.440  -0.200  1.00  0.00     0.039 C 
BRANCH  22  23
HETATM   23  C19 UNL     1      -7.445   1.471   0.518  1.00  0.00     0.051 C 
HETATM   24  C20 UNL     1      -8.080   0.077   0.568  1.00  0.00     0.045 C 
HETATM   25  C21 UNL     1      -8.383   2.333  -0.302  1.00  0.00     0.045 C 
BRANCH  23  26
HETATM   26  O3  UNL     1      -7.314   1.973   1.814  1.00  0.00    -0.391 OA
ATOM     27  H3  UNL     1      -8.148   1.993   2.268  1.00  0.00     0.210 HD
ENDBRANCH  23  26
ENDBRANCH  22  23
ENDBRANCH  21  22
ENDBRANCH  18  21
ENDBRANCH  16  18
ENDBRANCH  10  16
BRANCH   1  28
HETATM   28  O1  UNL     1       4.441   0.595   1.685  1.00  0.00    -0.339 OA
BRANCH  28  29
HETATM   29  C5  UNL     1       5.713   0.801   2.108  1.00  0.00     0.177 C 
BRANCH  29  30
HETATM   30  C4  UNL     1       6.582   1.592   1.200  1.00  0.00     0.027 C 
BRANCH  30  31
HETATM   31  C3  UNL     1       6.921   0.995  -0.107  1.00  0.00     0.002 C 
BRANCH  31  32
HETATM   32  C2  UNL     1       7.757  -0.279  -0.013  1.00  0.00    -0.004 C 
HETATM   33  C1  UNL     1       9.077   0.032   0.681  1.00  0.00     0.005 C 
ENDBRANCH  31  32
ENDBRANCH  30  31
ENDBRANCH  29  30
ENDBRANCH  28  29
ENDBRANCH   1  28
TORSDOF 12
