REMARK  3 active torsions:
REMARK  status: ('A' for Active; 'I' for Inactive)
REMARK    1  A    between atoms: C2_2  and  N1_4 
REMARK       I    between atoms: N1_4  and  C4_5 
REMARK    2  A    between atoms: N1_4  and  C17_24 
REMARK       I    between atoms: N3_7  and  C5_9 
REMARK    3  A    between atoms: C5_9  and  C6_11 
ROOT
HETATM    1  C6  UNL     1      -1.547   0.229   0.352  1.00  0.00     0.045 C 
HETATM    2  C7  UNL     1      -1.887   1.680   0.577  1.00  0.00     0.024 C 
HETATM    3  C8  UNL     1      -3.340   1.940   0.201  1.00  0.00    -0.010 C 
HETATM    4  C9  UNL     1      -3.508   1.570  -1.234  1.00  0.00     0.026 C 
HETATM    5  C10 UNL     1      -3.257   0.090  -1.408  1.00  0.00     0.021 C 
HETATM    6 BR1  UNL     1      -3.637  -0.429  -3.226  1.00  0.00    -0.085 Br
HETATM    7  C11 UNL     1      -4.170  -0.703  -0.502  1.00  0.00     0.045 C 
HETATM    8  C12 UNL     1      -3.843  -0.351   0.935  1.00  0.00     0.052 C 
HETATM    9  C13 UNL     1      -4.727  -1.162   1.793  1.00  0.00     0.069 C 
HETATM   10  N4  UNL     1      -5.433  -1.782   2.472  1.00  0.00    -0.196 NA
HETATM   11  C14 UNL     1      -4.182   1.098   1.133  1.00  0.00     0.029 C 
HETATM   12  C15 UNL     1      -2.404  -0.675   1.205  1.00  0.00     0.044 C 
HETATM   13  C16 UNL     1      -1.804  -0.162  -1.083  1.00  0.00     0.040 C 
ENDROOT
BRANCH   1  14
HETATM   14  C5  UNL     1      -0.093   0.054   0.657  1.00  0.00     0.233 C 
HETATM   15  N3  UNL     1       0.588  -1.133   0.552  1.00  0.00    -0.300 N 
HETATM   16  C4  UNL     1       1.738  -1.514   0.273  1.00  0.00     0.193 C 
ATOM     17  H3  UNL     1      -0.020  -1.925   0.762  1.00  0.00     0.171 HD
HETATM   18  N1  UNL     1       2.901  -0.778  -0.081  1.00  0.00    -0.347 N 
HETATM   19  N2  UNL     1       1.928  -2.960   0.314  1.00  0.00    -0.063 NA
HETATM   20  O1  UNL     1       0.521   1.082   1.034  1.00  0.00    -0.272 OA
BRANCH  18  21
HETATM   21  C2  UNL     1       3.135  -0.571  -1.489  1.00  0.00     0.079 C 
HETATM   22  C1  UNL     1       2.051   0.257  -2.163  1.00  0.00     0.032 C 
HETATM   23  C3  UNL     1       4.464   0.053  -1.815  1.00  0.00     0.032 C 
ENDBRANCH  18  21
BRANCH  18  24
HETATM   24  C17 UNL     1       3.834  -0.279   0.879  1.00  0.00     0.079 C 
HETATM   25  C18 UNL     1       4.090   1.184   0.870  1.00  0.00     0.032 C 
HETATM   26  C19 UNL     1       3.474  -0.681   2.301  1.00  0.00     0.032 C 
ENDBRANCH  18  24
ENDBRANCH   1  14
TORSDOF 3
