REMARK  8 active torsions:
REMARK  status: ('A' for Active; 'I' for Inactive)
REMARK    1  A    between atoms: N1_2  and  C2_3 
REMARK    2  A    between atoms: C2_3  and  C3_4 
REMARK    3  A    between atoms: C9_10  and  C10_11 
REMARK    4  A    between atoms: C10_11  and  O1_12 
REMARK    5  A    between atoms: C10_11  and  C11_14 
REMARK    6  A    between atoms: C11_14  and  N2_15 
REMARK    7  A    between atoms: C14_18  and  C15_20 
REMARK    8  A    between atoms: N3_23  and  O2_24 
ROOT
HETATM    1  N2  UNL     1      -1.096   0.076  -0.398  1.00  0.00    -0.331 N 
HETATM    2  C12 UNL     1      -1.856  -0.084   0.825  1.00  0.00     0.133 C 
HETATM    3  C13 UNL     1      -3.254  -0.515   0.506  1.00  0.00     0.092 C 
HETATM    4  C14 UNL     1      -3.876   0.105  -0.696  1.00  0.00     0.209 C 
HETATM    5  F1  UNL     1      -3.940  -0.913  -1.680  1.00  0.00    -0.213 F 
HETATM    6  N4  UNL     1      -3.088   1.137  -1.289  1.00  0.00    -0.303 N 
ATOM      7  H4  UNL     1      -3.508   2.005  -1.621  1.00  0.00     0.167 HD
HETATM    8  C20 UNL     1      -1.687   0.898  -1.395  1.00  0.00     0.321 C 
HETATM    9  O3  UNL     1      -0.990   1.380  -2.320  1.00  0.00    -0.247 OA
ENDROOT
BRANCH   1  10
HETATM   10  C11 UNL     1       0.213  -0.567  -0.618  1.00  0.00     0.164 C 
BRANCH  10  11
HETATM   11  C10 UNL     1       1.375   0.258  -0.152  1.00  0.00     0.174 C 
BRANCH  11  12
HETATM   12  C9  UNL     1       2.675  -0.384  -0.620  1.00  0.00     0.091 C 
HETATM   13  N1  UNL     1       3.073  -1.557  -0.046  1.00  0.00    -0.391 N 
HETATM   14  C1  UNL     1       2.409  -2.785  -0.232  1.00  0.00     0.149 C 
BRANCH  13  15
HETATM   15  C2  UNL     1       4.523  -1.745   0.071  1.00  0.00     0.160 C 
BRANCH  15  16
HETATM   16  C3  UNL     1       5.302  -0.517   0.118  1.00  0.00    -0.040 A 
HETATM   17  C4  UNL     1       5.346   0.226   1.279  1.00  0.00     0.009 A 
HETATM   18  C5  UNL     1       6.076   1.380   1.372  1.00  0.00     0.001 A 
HETATM   19  C6  UNL     1       6.787   1.828   0.296  1.00  0.00     0.000 A 
HETATM   20  C7  UNL     1       6.749   1.096  -0.864  1.00  0.00     0.001 A 
HETATM   21  C8  UNL     1       6.029  -0.053  -0.972  1.00  0.00     0.009 A 
ENDBRANCH  15  16
ENDBRANCH  13  15
ENDBRANCH  11  12
BRANCH  11  22
HETATM   22  O1  UNL     1       1.307   1.531  -0.829  1.00  0.00    -0.389 OA
ATOM     23  H1  UNL     1       0.496   1.931  -0.537  1.00  0.00     0.210 HD
ENDBRANCH  11  22
ENDBRANCH  10  11
ENDBRANCH   1  10
BRANCH   4  24
HETATM   24  C15 UNL     1      -5.284   0.466  -0.450  1.00  0.00     0.004 A 
HETATM   25  C16 UNL     1      -6.188  -0.556  -0.256  1.00  0.00     0.032 A 
HETATM   26  C17 UNL     1      -7.519  -0.346  -0.039  1.00  0.00     0.123 A 
HETATM   27  N3  UNL     1      -7.987   0.904  -0.009  1.00  0.00    -0.247 N 
HETATM   28  C18 UNL     1      -7.128   1.925  -0.195  1.00  0.00     0.123 A 
HETATM   29  C19 UNL     1      -5.784   1.755  -0.417  1.00  0.00     0.032 A 
BRANCH  27  30
HETATM   30  O2  UNL     1      -9.330   1.129   0.205  1.00  0.00    -0.284 OA
ATOM     31  H2  UNL     1      -9.663   2.018   0.226  1.00  0.00     0.245 HD
ENDBRANCH  27  30
ENDBRANCH   4  24
TORSDOF 8
