REMARK  19 active torsions:
REMARK  status: ('A' for Active; 'I' for Inactive)
REMARK    1  A    between atoms: C2_2  and  C3_3 
REMARK    2  A    between atoms: C3_3  and  N1_4 
REMARK    3  A    between atoms: N1_4  and  C4_7 
REMARK    4  A    between atoms: C10_13  and  O1_14 
REMARK    5  A    between atoms: C13_18  and  O2_19 
REMARK    6  A    between atoms: O2_19  and  C14_20 
REMARK    7  A    between atoms: C14_20  and  C15_22 
REMARK    8  A    between atoms: C15_22  and  C16_23 
REMARK    9  A    between atoms: C16_23  and  N2_24 
REMARK   10  A    between atoms: C16_23  and  C17_28 
REMARK   11  A    between atoms: C19_32  and  C20_33 
REMARK   12  A    between atoms: C20_33  and  O6_34 
REMARK   13  A    between atoms: C20_33  and  C21_36 
REMARK   14  A    between atoms: C21_36  and  O7_37 
REMARK   15  A    between atoms: C21_36  and  C22_39 
REMARK   16  A    between atoms: C22_39  and  O8_40 
REMARK   17  A    between atoms: C22_39  and  C23_42 
REMARK   18  A    between atoms: C23_42  and  O9_43 
REMARK   19  A    between atoms: C33_54  and  O10_55 
ROOT
HETATM    1  C4  UNL     1       5.720  -0.467   0.203  1.00  0.00     0.215 C 
HETATM    2  C5  UNL     1       5.123  -0.492  -1.209  1.00  0.00     0.036 C 
HETATM    3  C6  UNL     1       3.647  -0.476  -1.090  1.00  0.00     0.008 C 
HETATM    4  C7  UNL     1       3.087   0.752  -0.360  1.00  0.00     0.001 C 
HETATM    5  C8  UNL     1       1.591   0.643  -0.479  1.00  0.00    -0.002 C 
HETATM    6  C9  UNL     1       0.858   1.926  -0.343  1.00  0.00     0.038 C 
HETATM    7  C10 UNL     1      -0.595   1.804  -0.675  1.00  0.00     0.134 C 
HETATM    8  C11 UNL     1      -1.238   0.444  -0.494  1.00  0.00     0.039 C 
HETATM    9  C12 UNL     1      -1.040  -0.289  -1.807  1.00  0.00     0.026 C 
HETATM   10  C13 UNL     1      -2.659   0.723  -0.195  1.00  0.00     0.065 C 
HETATM   11  C18 UNL     1      -3.607  -0.270   0.289  1.00  0.00     0.014 C 
HETATM   12  C19 UNL     1      -3.284  -1.740   0.326  1.00  0.00     0.042 C 
HETATM   13  C24 UNL     1      -2.237  -2.091   1.293  1.00  0.00     0.012 C 
HETATM   14  C25 UNL     1      -0.909  -1.758   0.666  1.00  0.00     0.011 C 
HETATM   15  C26 UNL     1      -0.510  -0.327   0.591  1.00  0.00    -0.024 C 
HETATM   16  C27 UNL     1      -0.796   0.252   1.968  1.00  0.00     0.017 C 
HETATM   17  C28 UNL     1       0.988  -0.376   0.408  1.00  0.00    -0.001 C 
HETATM   18  C29 UNL     1       1.645  -0.416   1.766  1.00  0.00     0.007 C 
HETATM   19  C30 UNL     1       3.152  -0.452   1.716  1.00  0.00     0.012 C 
HETATM   20  C31 UNL     1       3.663   0.775   0.997  1.00  0.00    -0.012 C 
HETATM   21  C32 UNL     1       3.415   2.050   1.771  1.00  0.00     0.018 C 
HETATM   22  C33 UNL     1       5.172   0.722   0.878  1.00  0.00     0.157 C 
ENDROOT
BRANCH  10  23
HETATM   23  O2  UNL     1      -3.199   1.528  -1.262  1.00  0.00    -0.283 OA
BRANCH  23  24
HETATM   24  C14 UNL     1      -3.705   2.762  -1.200  1.00  0.00     0.266 C 
HETATM   25  O3  UNL     1      -3.721   3.276  -0.070  1.00  0.00    -0.265 OA
BRANCH  24  26
HETATM   26  C15 UNL     1      -4.232   3.541  -2.342  1.00  0.00     0.155 C 
BRANCH  26  27
HETATM   27  C16 UNL     1      -4.720   4.909  -1.903  1.00  0.00     0.292 C 
BRANCH  27  28
HETATM   28  N2  UNL     1      -3.685   5.694  -1.309  1.00  0.00    -0.065 N 
ATOM     29  H23 UNL     1      -3.244   5.196  -0.536  1.00  0.00     0.275 HD
ATOM     30  H22 UNL     1      -2.881   5.773  -1.932  1.00  0.00     0.275 HD
ATOM     31  H21 UNL     1      -4.013   6.614  -1.014  1.00  0.00     0.275 HD
ENDBRANCH  27  28
BRANCH  27  32
HETATM   32  C17 UNL     1      -5.849   4.794  -0.964  1.00  0.00     0.205 C 
HETATM   33  O4  UNL     1      -6.858   4.141  -1.300  1.00  0.00    -0.646 OA
HETATM   34  O5  UNL     1      -5.783   5.404   0.267  1.00  0.00    -0.646 OA
ENDBRANCH  27  32
ENDBRANCH  26  27
ENDBRANCH  24  26
ENDBRANCH  23  24
ENDBRANCH  10  23
BRANCH   7  35
HETATM   35  O1  UNL     1      -0.807   2.270  -2.000  1.00  0.00    -0.394 OA
ATOM     36  H1  UNL     1      -1.730   2.192  -2.211  1.00  0.00     0.210 HD
ENDBRANCH   7  35
BRANCH  12  37
HETATM   37  C20 UNL     1      -4.633  -2.362   0.762  1.00  0.00     0.157 C 
BRANCH  37  38
HETATM   38  O6  UNL     1      -5.557  -1.952  -0.254  1.00  0.00    -0.392 OA
ATOM     39  H6  UNL     1      -6.385  -2.334   0.014  1.00  0.00     0.210 HD
ENDBRANCH  37  38
BRANCH  37  40
HETATM   40  C21 UNL     1      -4.688  -3.837   0.765  1.00  0.00     0.178 C 
BRANCH  40  41
HETATM   41  O7  UNL     1      -3.849  -4.427   1.764  1.00  0.00    -0.390 OA
ATOM     42  H7  UNL     1      -3.884  -5.376   1.766  1.00  0.00     0.210 HD
ENDBRANCH  40  41
BRANCH  40  43
HETATM   43  C22 UNL     1      -6.068  -4.440   0.985  1.00  0.00     0.172 C 
BRANCH  43  44
HETATM   44  O8  UNL     1      -5.863  -5.852   0.843  1.00  0.00    -0.391 OA
ATOM     45  H8  UNL     1      -6.724  -6.228   0.980  1.00  0.00     0.210 HD
ENDBRANCH  43  44
BRANCH  43  46
HETATM   46  C23 UNL     1      -7.014  -4.088  -0.100  1.00  0.00     0.198 C 
BRANCH  46  47
HETATM   47  O9  UNL     1      -8.139  -4.973   0.094  1.00  0.00    -0.398 OA
ATOM     48  H9  UNL     1      -8.745  -4.747  -0.602  1.00  0.00     0.209 HD
ENDBRANCH  46  47
ENDBRANCH  43  46
ENDBRANCH  40  43
ENDBRANCH  37  40
ENDBRANCH  12  37
BRANCH  22  49
HETATM   49  O10 UNL     1       5.736   0.951   2.133  1.00  0.00    -0.393 OA
ATOM     50  H10 UNL     1       5.383   1.718   2.568  1.00  0.00     0.210 HD
ENDBRANCH  22  49
BRANCH   1  51
HETATM   51  N1  UNL     1       7.142  -0.251   0.003  1.00  0.00    -0.068 N 
ATOM     52  H12 UNL     1       7.608  -0.088   0.895  1.00  0.00     0.277 HD
ATOM     53  H11 UNL     1       7.308   0.650  -0.445  1.00  0.00     0.277 HD
BRANCH  51  54
HETATM   54  C3  UNL     1       7.794  -1.299  -0.721  1.00  0.00     0.232 C 
BRANCH  54  55
HETATM   55  C2  UNL     1       9.266  -0.902  -0.826  1.00  0.00     0.023 C 
HETATM   56  C1  UNL     1       9.434   0.393  -1.544  1.00  0.00     0.007 C 
ENDBRANCH  54  55
ENDBRANCH  51  54
ENDBRANCH   1  51
TORSDOF 19
