REMARK  18 active torsions:
REMARK  status: ('A' for Active; 'I' for Inactive)
REMARK    1  A    between atoms: C2_2  and  C3_3 
REMARK    2  A    between atoms: C2_2  and  C16_22 
REMARK    3  A    between atoms: C3_3  and  C4_4 
REMARK    4  A    between atoms: C4_4  and  C5_5 
REMARK    5  A    between atoms: C4_4  and  C6_8 
REMARK    6  A    between atoms: C5_5  and  O1_6 
REMARK    7  A    between atoms: C6_8  and  O2_9 
REMARK    8  A    between atoms: C6_8  and  C7_11 
REMARK    9  A    between atoms: C8_12  and  O3_13 
REMARK   10  A    between atoms: C16_22  and  C17_23 
REMARK   11  A    between atoms: C16_22  and  C19_27 
REMARK   12  A    between atoms: C17_23  and  C18_24 
REMARK   13  A    between atoms: C29_37  and  O6_38 
REMARK   14  A    between atoms: C30_40  and  O7_41 
REMARK   15  A    between atoms: C31_43  and  C32_44 
REMARK   16  A    between atoms: C32_44  and  O8_45 
REMARK   17  A    between atoms: C33_47  and  O9_48 
REMARK   18  A    between atoms: C34_50  and  O10_51 
ROOT
HETATM    1  C19 UNL     1      -1.716  -0.547   1.452  1.00  0.00    -0.057 C 
HETATM    2  C20 UNL     1      -2.489  -1.664   2.223  1.00  0.00     0.040 C 
HETATM    3  C21 UNL     1      -3.917  -1.336   2.266  1.00  0.00    -0.009 C 
HETATM    4  C22 UNL     1      -4.968  -1.864   1.420  1.00  0.00     0.011 C 
HETATM    5  C23 UNL     1      -5.262  -1.456   0.083  1.00  0.00     0.012 C 
HETATM    6  C24 UNL     1      -4.085  -1.963  -0.764  1.00  0.00    -0.010 C 
HETATM    7  C25 UNL     1      -4.063  -3.467  -0.590  1.00  0.00     0.018 C 
HETATM    8  C26 UNL     1      -2.966  -1.198  -0.365  1.00  0.00     0.029 C 
HETATM    9  C27 UNL     1      -2.844  -0.126   0.680  1.00  0.00     0.013 C 
HETATM   10  C28 UNL     1      -3.819   0.052   1.787  1.00  0.00     0.021 C 
HETATM   11  C29 UNL     1      -3.242   1.066  -0.052  1.00  0.00     0.160 C 
HETATM   12  C30 UNL     1      -4.586   0.911  -0.709  1.00  0.00     0.161 C 
HETATM   13  C31 UNL     1      -5.452  -0.234  -0.629  1.00  0.00     0.042 C 
HETATM   14  C33 UNL     1      -5.694  -0.874  -2.042  1.00  0.00     0.161 C 
HETATM   15  C34 UNL     1      -4.521  -1.747  -2.219  1.00  0.00     0.156 C 
ENDROOT
BRANCH   1  16
HETATM   16  C16 UNL     1      -0.599   0.013   2.187  1.00  0.00    -0.021 C 
BRANCH  16  17
HETATM   17  C2  UNL     1       0.208   1.093   1.403  1.00  0.00    -0.054 C 
HETATM   18  C1  UNL     1      -0.110   2.476   1.715  1.00  0.00     0.049 C 
BRANCH  17  19
HETATM   19  C3  UNL     1       1.599   0.696   1.206  1.00  0.00    -0.010 C 
BRANCH  19  20
HETATM   20  C4  UNL     1       2.457   1.274   0.108  1.00  0.00     0.061 C 
BRANCH  20  21
HETATM   21  C5  UNL     1       2.640   2.747   0.212  1.00  0.00     0.175 C 
BRANCH  21  22
HETATM   22  O1  UNL     1       3.442   3.322  -0.782  1.00  0.00    -0.400 OA
ATOM     23  H1  UNL     1       3.559   4.262  -0.716  1.00  0.00     0.209 HD
ENDBRANCH  21  22
ENDBRANCH  20  21
BRANCH  20  24
HETATM   24  C6  UNL     1       3.769   0.517   0.217  1.00  0.00     0.135 C 
BRANCH  24  25
HETATM   25  O2  UNL     1       4.338   0.734   1.492  1.00  0.00    -0.394 OA
ATOM     26  H2  UNL     1       5.159   0.260   1.560  1.00  0.00     0.210 HD
ENDBRANCH  24  25
BRANCH  24  27
HETATM   27  C7  UNL     1       4.764   0.605  -0.853  1.00  0.00     0.052 C 
HETATM   28  C8  UNL     1       4.361   0.115  -2.206  1.00  0.00     0.125 C 
HETATM   29  C9  UNL     1       5.411   0.510  -3.268  1.00  0.00     0.032 C 
HETATM   30  C10 UNL     1       6.595  -0.402  -2.940  1.00  0.00     0.007 C 
HETATM   31  C11 UNL     1       7.068   0.059  -1.605  1.00  0.00    -0.010 C 
HETATM   32  C12 UNL     1       8.360  -0.645  -1.302  1.00  0.00     0.011 C 
HETATM   33  C13 UNL     1       6.079  -0.082  -0.486  1.00  0.00    -0.036 C 
HETATM   34  C14 UNL     1       5.959  -1.522  -0.156  1.00  0.00     0.016 C 
HETATM   35  C15 UNL     1       6.770   0.612   0.695  1.00  0.00     0.016 C 
BRANCH  28  36
HETATM   36  O3  UNL     1       3.187   0.563  -2.730  1.00  0.00    -0.395 OA
ATOM     37  H3  UNL     1       2.931   0.251  -3.590  1.00  0.00     0.210 HD
ENDBRANCH  28  36
ENDBRANCH  24  27
ENDBRANCH  20  24
ENDBRANCH  19  20
ENDBRANCH  17  19
ENDBRANCH  16  17
BRANCH  16  38
HETATM   38  C17 UNL     1      -0.412   0.071   3.637  1.00  0.00     0.096 C 
BRANCH  38  39
HETATM   39  C18 UNL     1      -0.735   1.179   4.489  1.00  0.00     0.199 C 
HETATM   40  O4  UNL     1       0.040   2.133   4.867  1.00  0.00    -0.644 OA
HETATM   41  O5  UNL     1      -2.019   1.339   5.032  1.00  0.00    -0.644 OA
ENDBRANCH  38  39
ENDBRANCH  16  38
ENDBRANCH   1  16
BRANCH  11  42
HETATM   42  O6  UNL     1      -3.426   2.235   0.749  1.00  0.00    -0.392 OA
ATOM     43  H6  UNL     1      -3.686   3.014   0.271  1.00  0.00     0.210 HD
ENDBRANCH  11  42
BRANCH  12  44
HETATM   44  O7  UNL     1      -4.293   1.234  -2.074  1.00  0.00    -0.392 OA
ATOM     45  H7  UNL     1      -5.142   1.136  -2.489  1.00  0.00     0.210 HD
ENDBRANCH  12  44
BRANCH  15  46
HETATM   46  O10 UNL     1      -3.505  -1.310  -3.016  1.00  0.00    -0.392 OA
ATOM     47  H10 UNL     1      -3.775  -1.176  -3.917  1.00  0.00     0.210 HD
ENDBRANCH  15  46
BRANCH  13  48
HETATM   48  C32 UNL     1      -6.914   0.240  -0.381  1.00  0.00     0.179 C 
BRANCH  48  49
HETATM   49  O8  UNL     1      -7.160   1.428  -1.051  1.00  0.00    -0.400 OA
ATOM     50  H8  UNL     1      -8.052   1.717  -0.900  1.00  0.00     0.209 HD
ENDBRANCH  48  49
ENDBRANCH  13  48
BRANCH  14  51
HETATM   51  O9  UNL     1      -6.050  -0.012  -2.999  1.00  0.00    -0.392 OA
ATOM     52  H9  UNL     1      -6.196  -0.399  -3.854  1.00  0.00     0.210 HD
ENDBRANCH  14  51
TORSDOF 18
