REMARK  2 active torsions:
REMARK  status: ('A' for Active; 'I' for Inactive)
REMARK    1  A    between atoms: C5_5  and  C6_6 
REMARK    2  A    between atoms: N2_8  and  N3_10 
ROOT
HETATM    1  C6  UNL     1      -0.032   0.175   0.461  1.00  0.00     0.119 C 
HETATM    2  N1  UNL     1       0.330   1.550   0.469  1.00  0.00    -0.086 NA
HETATM    3  N2  UNL     1       0.908  -0.651   0.193  1.00  0.00    -0.208 N 
ATOM      4  H2  UNL     1       0.635  -1.634   0.190  1.00  0.00     0.195 HD
ENDROOT
BRANCH   1   5
HETATM    5  C5  UNL     1      -1.404  -0.302   0.742  1.00  0.00     0.060 A 
HETATM    6  C2  UNL     1      -2.576   0.057  -0.024  1.00  0.00    -0.037 A 
HETATM    7  C1  UNL     1      -2.624   1.082  -1.112  1.00  0.00     0.015 C 
HETATM    8  C3  UNL     1      -3.927  -0.083   0.658  1.00  0.00     0.015 C 
HETATM    9  C4  UNL     1      -1.927  -1.286  -0.297  1.00  0.00     0.022 A 
ENDBRANCH   1   5
BRANCH   3  10
HETATM   10  N3  UNL     1       2.222  -0.411  -0.090  1.00  0.00     0.001 N 
HETATM   11  C7  UNL     1       2.872   0.005   1.141  1.00  0.00     0.301 C 
HETATM   12  C8  UNL     1       2.936  -1.605  -0.537  1.00  0.00     0.301 C 
HETATM   13  C9  UNL     1       2.432   0.588  -1.135  1.00  0.00     0.301 C 
ENDBRANCH   3  10
TORSDOF 2
