REMARK  1 active torsions:
REMARK  status: ('A' for Active; 'I' for Inactive)
REMARK       I    between atoms: N1_2  and  C2_4 
REMARK    1  A    between atoms: C2_4  and  C3_6 
ROOT
HETATM    1  C3  UNL     1       0.705  -0.235   0.352  1.00  0.00     0.082 C 
HETATM    2  C4  UNL     1       0.074  -0.871  -0.857  1.00  0.00     0.020 C 
HETATM    3  C5  UNL     1      -1.397  -0.935  -0.793  1.00  0.00    -0.005 C 
HETATM    4  C6  UNL     1      -1.999  -1.120   0.555  1.00  0.00    -0.009 C 
HETATM    5  C7  UNL     1      -1.305  -0.388   1.660  1.00  0.00     0.010 C 
HETATM    6  C8  UNL     1      -0.347   0.619   1.016  1.00  0.00    -0.001 C 
HETATM    7  C9  UNL     1      -1.174   1.384   0.003  1.00  0.00     0.010 C 
HETATM    8  C10 UNL     1      -2.032   0.450  -0.814  1.00  0.00    -0.009 C 
HETATM    9  C11 UNL     1      -3.116  -0.173   0.079  1.00  0.00     0.010 C 
ENDROOT
BRANCH   1  10
HETATM   10  C2  UNL     1       1.924   0.519  -0.002  1.00  0.00     0.221 C 
HETATM   11  N1  UNL     1       2.982  -0.217  -0.606  1.00  0.00    -0.365 N 
HETATM   12  C1  UNL     1       4.212   0.451  -0.983  1.00  0.00     0.149 C 
ATOM     13  H1  UNL     1       2.874  -1.217  -0.774  1.00  0.00     0.161 HD
HETATM   14  O1  UNL     1       2.050   1.733   0.203  1.00  0.00    -0.273 OA
ENDBRANCH   1  10
TORSDOF 1
