REMARK  11 active torsions:
REMARK  status: ('A' for Active; 'I' for Inactive)
REMARK    1  A    between atoms: C2_2  and  C4_4 
REMARK    2  A    between atoms: C4_4  and  N1_5 
REMARK    3  A    between atoms: C4_4  and  C13_21 
REMARK       I    between atoms: N1_5  and  C5_7 
REMARK    4  A    between atoms: C5_7  and  C6_9 
REMARK    5  A    between atoms: C6_9  and  C7_10 
REMARK    6  A    between atoms: C6_9  and  N2_12 
REMARK       I    between atoms: N2_12  and  C8_14 
REMARK    7  A    between atoms: C8_14  and  O4_16 
REMARK    8  A    between atoms: O4_16  and  C9_17 
REMARK    9  A    between atoms: C13_21  and  C14_22 
REMARK   10  A    between atoms: C13_21  and  N4_27 
REMARK       I    between atoms: C14_22  and  N3_24 
REMARK   11  A    between atoms: C20_31  and  N5_32 
ROOT
HETATM    1  C4  UNL     1      -1.230  -0.711  -0.612  1.00  0.00     0.130 C 
ENDROOT
BRANCH   1   2
HETATM    2  C2  UNL     1      -0.821  -0.926  -2.051  1.00  0.00     0.003 C 
HETATM    3  C1  UNL     1      -1.598  -1.906  -2.855  1.00  0.00     0.011 C 
HETATM    4  C3  UNL     1      -0.625   0.391  -2.790  1.00  0.00     0.011 C 
ENDBRANCH   1   2
BRANCH   1   5
HETATM    5  N1  UNL     1      -0.181   0.281  -0.171  1.00  0.00    -0.351 N 
HETATM    6  C5  UNL     1       1.063  -0.216   0.284  1.00  0.00     0.247 C 
HETATM    7  O1  UNL     1       1.245  -1.457   0.308  1.00  0.00    -0.271 OA
ATOM      8  H1  UNL     1      -0.364   1.284  -0.200  1.00  0.00     0.163 HD
BRANCH   6   9
HETATM    9  C6  UNL     1       2.174   0.638   0.735  1.00  0.00     0.240 C 
BRANCH   9  10
HETATM   10  C7  UNL     1       1.738   1.589   1.770  1.00  0.00     0.266 C 
HETATM   11  O2  UNL     1       2.367   1.625   2.813  1.00  0.00    -0.304 OA
ENDBRANCH   9  10
BRANCH   9  12
HETATM   12  N2  UNL     1       3.328  -0.129   1.147  1.00  0.00    -0.317 N 
HETATM   13  C8  UNL     1       4.539  -0.015   0.457  1.00  0.00     0.362 C 
HETATM   14  O3  UNL     1       4.622   0.762  -0.525  1.00  0.00    -0.238 OA
ATOM     15  H2  UNL     1       3.258  -0.758   1.947  1.00  0.00     0.166 HD
BRANCH  13  16
HETATM   16  O4  UNL     1       5.676  -0.727   0.807  1.00  0.00    -0.294 OA
BRANCH  16  17
HETATM   17  C9  UNL     1       6.904  -0.610   0.107  1.00  0.00     0.061 C 
HETATM   18  C10 UNL     1       7.432   0.808   0.146  1.00  0.00     0.046 C 
HETATM   19  C11 UNL     1       6.734  -0.986  -1.355  1.00  0.00     0.046 C 
HETATM   20  C12 UNL     1       7.922  -1.512   0.737  1.00  0.00     0.046 C 
ENDBRANCH  16  17
ENDBRANCH  13  16
ENDBRANCH   9  12
ENDBRANCH   6   9
ENDBRANCH   1   5
BRANCH   1  21
HETATM   21  C13 UNL     1      -2.499  -0.047  -0.338  1.00  0.00     0.337 C 
BRANCH  21  22
HETATM   22  C14 UNL     1      -3.688  -0.813  -0.947  1.00  0.00     0.255 C 
HETATM   23  O5  UNL     1      -4.152  -0.446  -2.046  1.00  0.00    -0.271 OA
HETATM   24  N3  UNL     1      -4.283  -1.926  -0.313  1.00  0.00    -0.359 N 
HETATM   25  C15 UNL     1      -3.871  -2.507   0.951  1.00  0.00     0.152 C 
HETATM   26  C16 UNL     1      -5.433  -2.539  -1.017  1.00  0.00     0.152 C 
ENDBRANCH  21  22
BRANCH  21  27
HETATM   27  N4  UNL     1      -2.945   0.089   1.010  1.00  0.00     0.106 N 
HETATM   28  C17 UNL     1      -2.175   0.734   2.007  1.00  0.00     0.273 C 
HETATM   29  C18 UNL     1      -2.358   2.221   2.143  1.00  0.00     0.032 C 
HETATM   30  C19 UNL     1      -2.918   2.909   0.943  1.00  0.00     0.036 C 
HETATM   31  C20 UNL     1      -4.145   2.197   0.484  1.00  0.00     0.211 C 
HETATM   32  C21 UNL     1      -4.243   0.805   1.005  1.00  0.00     0.306 C 
BRANCH  31  33
HETATM   33  N5  UNL     1      -5.321   2.990   0.798  1.00  0.00    -0.073 N 
ATOM     34  H53 UNL     1      -5.366   3.233   1.788  1.00  0.00     0.274 HD
ATOM     35  H52 UNL     1      -5.260   3.934   0.416  1.00  0.00     0.274 HD
ATOM     36  H51 UNL     1      -6.160   2.503   0.484  1.00  0.00     0.274 HD
ENDBRANCH  31  33
ENDBRANCH  21  27
ENDBRANCH   1  21
TORSDOF 11
