REMARK  9 active torsions:
REMARK  status: ('A' for Active; 'I' for Inactive)
REMARK    1  A    between atoms: C2_2  and  N1_3 
REMARK    2  A    between atoms: C2_2  and  C6_16 
REMARK    3  A    between atoms: N1_3  and  C3_5 
REMARK    4  A    between atoms: C6_16  and  O4_18 
REMARK    5  A    between atoms: O4_18  and  C7_19 
REMARK    6  A    between atoms: C7_19  and  N5_20 
REMARK    7  A    between atoms: C7_19  and  C8_24 
REMARK    8  A    between atoms: C8_24  and  N6_26 
REMARK    9  A    between atoms: C8_24  and  C10_30 
ROOT
HETATM    1  C6  UNL     1      -0.098  -0.280   0.767  1.00  0.00     0.283 C 
HETATM    2  O3  UNL     1      -0.305   0.160   1.918  1.00  0.00    -0.263 OA
ENDROOT
BRANCH   1   3
HETATM    3  C2  UNL     1       1.266  -0.389   0.217  1.00  0.00     0.179 C 
HETATM    4  C1  UNL     1       1.488  -1.843  -0.157  1.00  0.00     0.043 C 
BRANCH   3   5
HETATM    5  N1  UNL     1       2.210   0.072   1.190  1.00  0.00    -0.357 N 
ATOM      6  H1  UNL     1       1.882   0.194   2.148  1.00  0.00     0.162 HD
BRANCH   5   7
HETATM    7  C3  UNL     1       3.447   0.344   0.939  1.00  0.00     0.186 A 
HETATM    8  N2  UNL     1       3.985   0.218  -0.284  1.00  0.00    -0.277 N 
HETATM    9  N3  UNL     1       5.247   0.504  -0.497  1.00  0.00    -0.250 N 
ATOM     10  H2  UNL     1       3.405  -0.105  -1.058  1.00  0.00     0.189 HD
HETATM   11  C4  UNL     1       5.997   0.928   0.536  1.00  0.00     0.341 A 
ATOM     12  H3  UNL     1       5.652   0.407  -1.428  1.00  0.00     0.192 HD
HETATM   13  O1  UNL     1       7.215   1.203   0.327  1.00  0.00    -0.245 OA
HETATM   14  N4  UNL     1       5.522   1.074   1.776  1.00  0.00    -0.271 N 
HETATM   15  C5  UNL     1       4.230   0.778   1.983  1.00  0.00     0.294 A 
ATOM     16  H4  UNL     1       6.119   1.398   2.537  1.00  0.00     0.174 HD
HETATM   17  O2  UNL     1       3.710   0.893   3.136  1.00  0.00    -0.264 OA
ENDBRANCH   5   7
ENDBRANCH   3   5
ENDBRANCH   1   3
BRANCH   1  18
HETATM   18  O4  UNL     1      -1.178  -0.671   0.001  1.00  0.00    -0.283 OA
BRANCH  18  19
HETATM   19  C7  UNL     1      -2.525  -0.585   0.489  1.00  0.00     0.372 C 
BRANCH  19  20
HETATM   20  N5  UNL     1      -3.056  -1.911   0.476  1.00  0.00    -0.049 N 
ATOM     21  H53 UNL     1      -2.987  -2.362  -0.436  1.00  0.00     0.277 HD
ATOM     22  H52 UNL     1      -2.483  -2.578   0.993  1.00  0.00     0.277 HD
ATOM     23  H51 UNL     1      -4.013  -1.850   0.823  1.00  0.00     0.277 HD
ENDBRANCH  19  20
BRANCH  19  24
HETATM   24  C8  UNL     1      -3.248   0.353  -0.448  1.00  0.00     0.248 C 
HETATM   25  C9  UNL     1      -2.535   1.688  -0.494  1.00  0.00     0.061 C 
BRANCH  24  26
HETATM   26  N6  UNL     1      -3.190  -0.219  -1.779  1.00  0.00    -0.058 N 
ATOM     27  H63 UNL     1      -2.237  -0.424  -2.081  1.00  0.00     0.276 HD
ATOM     28  H62 UNL     1      -3.551  -1.172  -1.816  1.00  0.00     0.276 HD
ATOM     29  H61 UNL     1      -3.678   0.415  -2.412  1.00  0.00     0.276 HD
ENDBRANCH  24  26
BRANCH  24  30
HETATM   30  C10 UNL     1      -4.650   0.578  -0.061  1.00  0.00     0.271 C 
HETATM   31  N7  UNL     1      -5.679   0.243  -0.949  1.00  0.00    -0.060 NA
HETATM   32  O5  UNL     1      -4.932   1.066   1.052  1.00  0.00    -0.274 OA
ENDBRANCH  24  30
ENDBRANCH  19  24
ENDBRANCH  18  19
ENDBRANCH   1  18
TORSDOF 9
