REMARK  9 active torsions:
REMARK  status: ('A' for Active; 'I' for Inactive)
REMARK    1  A    between atoms: C4_9  and  C5_10 
REMARK    2  A    between atoms: C5_10  and  C6_11 
REMARK    3  A    between atoms: C7_14  and  N4_15 
REMARK       I    between atoms: N4_15  and  C8_17 
REMARK    4  A    between atoms: C8_17  and  C9_19 
REMARK    5  A    between atoms: C9_19  and  N5_20 
REMARK    6  A    between atoms: N5_20  and  C12_23 
REMARK    7  A    between atoms: C12_23  and  C13_24 
REMARK    8  A    between atoms: C13_24  and  N6_25 
REMARK    9  A    between atoms: N6_25  and  N7_27 
ROOT
HETATM    1  C6  UNL     1      -2.875  -0.983   0.906  1.00  0.00     0.056 A 
HETATM    2  N3  UNL     1      -1.712  -0.604   1.474  1.00  0.00    -0.341 N 
ATOM      3  H3  UNL     1      -1.568   0.385   1.680  1.00  0.00     0.167 HD
HETATM    4  C7  UNL     1      -0.733  -1.475   1.781  1.00  0.00     0.118 A 
HETATM    5  C14 UNL     1      -0.846  -2.834   1.535  1.00  0.00     0.034 A 
HETATM    6  C15 UNL     1       0.242  -3.785   1.878  1.00  0.00     0.056 C 
HETATM    7  C16 UNL     1      -2.024  -3.257   0.954  1.00  0.00     0.201 A 
HETATM    8  O3  UNL     1      -2.146  -4.492   0.722  1.00  0.00    -0.286 OA
HETATM    9  C17 UNL     1      -3.014  -2.344   0.649  1.00  0.00     0.088 A 
HETATM   10 BR1  UNL     1      -4.635  -2.920  -0.149  1.00  0.00    -0.044 Br
ENDROOT
BRANCH   4  11
HETATM   11  N4  UNL     1       0.473  -1.025   2.378  1.00  0.00    -0.311 N 
HETATM   12  C8  UNL     1       1.534  -0.429   1.653  1.00  0.00     0.249 C 
HETATM   13  O2  UNL     1       2.439   0.115   2.337  1.00  0.00    -0.271 OA
ATOM     14  H4  UNL     1       0.582  -1.137   3.386  1.00  0.00     0.170 HD
BRANCH  12  15
HETATM   15  C9  UNL     1       1.614  -0.421   0.187  1.00  0.00     0.339 C 
BRANCH  15  16
HETATM   16  N5  UNL     1       2.765   0.234  -0.346  1.00  0.00    -0.062 N 
HETATM   17  C10 UNL     1       4.011  -0.336   0.114  1.00  0.00     0.273 C 
HETATM   18  C11 UNL     1       2.726  -0.017  -1.799  1.00  0.00     0.273 C 
BRANCH  16  19
HETATM   19  C12 UNL     1       2.721   1.676  -0.201  1.00  0.00     0.283 C 
BRANCH  19  20
HETATM   20  C13 UNL     1       4.056   2.293  -0.193  1.00  0.00     0.107 C 
BRANCH  20  21
HETATM   21  N6  UNL     1       4.459   2.947  -1.219  1.00  0.00    -0.321 N 
ATOM     22  H6  UNL     1       3.855   3.038  -2.036  1.00  0.00     0.185 HD
BRANCH  21  23
HETATM   23  N7  UNL     1       5.726   3.535  -1.217  1.00  0.00    -0.346 N 
ATOM     24  H72 UNL     1       6.317   3.435  -0.392  1.00  0.00     0.176 HD
ATOM     25  H71 UNL     1       6.047   4.055  -2.033  1.00  0.00     0.176 HD
ENDBRANCH  21  23
ENDBRANCH  20  21
ENDBRANCH  19  20
ENDBRANCH  16  19
ENDBRANCH  15  16
ENDBRANCH  12  15
ENDBRANCH   4  11
BRANCH   1  26
HETATM   26  C5  UNL     1      -3.932  -0.038   0.576  1.00  0.00     0.050 C 
BRANCH  26  27
HETATM   27  C4  UNL     1      -3.961   0.597  -0.581  1.00  0.00     0.063 A 
HETATM   28  C2  UNL     1      -4.883   1.508  -1.033  1.00  0.00     0.054 A 
HETATM   29  C1  UNL     1      -5.958   1.949  -0.386  1.00  0.00     0.045 C 
HETATM   30  N1  UNL     1      -4.481   1.867  -2.263  1.00  0.00    -0.298 N 
HETATM   31  N2  UNL     1      -3.374   1.234  -2.589  1.00  0.00    -0.265 N 
ATOM     32  H1  UNL     1      -4.966   2.536  -2.861  1.00  0.00     0.187 HD
HETATM   33  C3  UNL     1      -3.028   0.442  -1.571  1.00  0.00     0.272 A 
ATOM     34  H2  UNL     1      -2.867   1.332  -3.469  1.00  0.00     0.190 HD
HETATM   35  O1  UNL     1      -2.007  -0.330  -1.518  1.00  0.00    -0.266 OA
ENDBRANCH  26  27
ENDBRANCH   1  26
TORSDOF 9
